MODEL 1
REMARK VINA RESULT:      -9.8      0.000      0.000
REMARK SMILES C[C@@H](C(=O)NCCCCNC(=O)c1ccc(-c2c3nc(c(-c4cccc(S(=O)(=O)[O-])c4F)c4ccc([nH]4)c(-c4cccc(S(=O)(=O)[O-])c4F)c4nc(c(-c5cccc(S(=O)(=O)[O-])c5F)c5ccc2[nH]5)C=C4)C=C3)cc1)c1ccc(-c2cccc(OC(=O)Nc3ccccc3)c2)c(F)c1
REMARK SMILES IDX 6 1 5 2 3 3 4 4 2 6 1 7 76 8 77 9 98 10 78 11 96 12 79 13
REMARK SMILES IDX 97 14 80 15 81 16 95 17 82 18 84 19 83 20 85 21 86 22 87 23
REMARK SMILES IDX 88 24 89 26 90 27 94 28 91 29 93 30 92 31 7 32 8 33 9 34
REMARK SMILES IDX 10 35 11 36 12 38 13 39 14 40 75 41 15 42 74 43 16 44 17 45
REMARK SMILES IDX 18 46 68 47 19 48 73 49 67 50 69 51 20 52 72 53 66 54 65 55
REMARK SMILES IDX 21 57 53 58 33 59 52 60 34 61 37 62 51 63 70 64 35 65 36 66
REMARK SMILES IDX 50 68 71 69 38 70 22 71 23 72 31 73 24 74 26 75 32 76 25 77
REMARK SMILES IDX 27 78 28 79 29 80 30 81 54 82 55 83 63 84 56 85 58 86 64 87
REMARK SMILES IDX 57 88 59 89 60 90 61 91 62 92 39 93 40 94 48 95 41 96 43 97
REMARK SMILES IDX 49 98 42 99 44 100 45 101 46 102 47 103
REMARK H PARENT 5 5 88 25 10 37 69 56 37 67
REMARK Flexibility Score: inf
ROOT
ATOM      1  C   UNL A   1      42.936  20.453  25.640  1.00  0.00     0.116 C 
ENDROOT
BRANCH   1   2
ATOM      2  N   UNL A   1      44.346  20.777  25.710  1.00  0.00    -0.356 N 
ATOM      3  C   UNL A   1      44.964  21.993  25.755  1.00  0.00     0.227 C 
ATOM      4  O   UNL A   1      46.191  21.999  25.634  1.00  0.00    -0.274 OA
ATOM      5  H   UNL A   1      44.951  20.001  25.727  1.00  0.00     0.163 HD
BRANCH   3   6
ATOM      6  C   UNL A   1      44.141  23.270  26.011  1.00  0.00     0.105 C 
ATOM      7  C   UNL A   1      44.522  24.370  25.011  1.00  0.00     0.023 C 
BRANCH   6   8
ATOM      8  C   UNL A   1      44.232  23.739  27.468  1.00  0.00    -0.033 A 
ATOM      9  C   UNL A   1      43.103  23.667  28.305  1.00  0.00     0.005 A 
ATOM     10  C   UNL A   1      45.408  24.275  28.009  1.00  0.00     0.044 A 
ATOM     11  C   UNL A   1      43.152  24.104  29.637  1.00  0.00     0.012 A 
ATOM     12  C   UNL A   1      45.447  24.722  29.325  1.00  0.00     0.131 A 
ATOM     13  C   UNL A   1      44.327  24.656  30.161  1.00  0.00     0.018 A 
ATOM     14  F   UNL A   1      46.598  25.250  29.772  1.00  0.00    -0.206 F 
BRANCH  13  15
ATOM     15  C   UNL A   1      44.382  25.229  31.508  1.00  0.00    -0.012 A 
ATOM     16  C   UNL A   1      45.006  24.574  32.577  1.00  0.00     0.009 A 
ATOM     17  C   UNL A   1      43.814  26.494  31.728  1.00  0.00     0.056 A 
ATOM     18  C   UNL A   1      45.076  25.181  33.834  1.00  0.00     0.004 A 
ATOM     19  C   UNL A   1      43.872  27.091  32.979  1.00  0.00     0.133 A 
ATOM     20  C   UNL A   1      44.510  26.443  34.036  1.00  0.00     0.047 A 
BRANCH  19  21
ATOM     21  O   UNL A   1      43.306  28.354  33.279  1.00  0.00    -0.410 OA
BRANCH  21  22
ATOM     22  C   UNL A   1      43.347  29.487  32.465  1.00  0.00     0.417 C 
ATOM     23  O   UNL A   1      44.351  30.123  32.157  1.00  0.00    -0.224 OA
ATOM     24  N   UNL A   1      42.150  29.824  31.890  1.00  0.00    -0.291 N 
ATOM     25  H   UNL A   1      42.207  30.522  31.199  1.00  0.00     0.173 HD
BRANCH  24  26
ATOM     26  C   UNL A   1      40.858  29.339  32.127  1.00  0.00     0.044 A 
ATOM     27  C   UNL A   1      40.029  30.118  32.941  1.00  0.00     0.026 A 
ATOM     28  C   UNL A   1      40.380  28.125  31.630  1.00  0.00     0.026 A 
ATOM     29  C   UNL A   1      38.722  29.714  33.215  1.00  0.00     0.002 A 
ATOM     30  C   UNL A   1      39.077  27.711  31.921  1.00  0.00     0.002 A 
ATOM     31  C   UNL A   1      38.246  28.509  32.703  1.00  0.00     0.000 A 
ENDBRANCH  24  26
ENDBRANCH  21  22
ENDBRANCH  19  21
ENDBRANCH  13  15
ENDBRANCH   6   8
ENDBRANCH   3   6
ENDBRANCH   1   2
BRANCH   1  32
ATOM     32  C   UNL A   1      42.509  19.609  26.845  1.00  0.00     0.023 C 
BRANCH  32  33
ATOM     33  C   UNL A   1      41.140  19.969  27.422  1.00  0.00     0.023 C 
BRANCH  33  34
ATOM     34  C   UNL A   1      40.769  21.439  27.312  1.00  0.00     0.116 C 
BRANCH  34  35
ATOM     35  N   UNL A   1      39.504  21.654  26.621  1.00  0.00    -0.352 N 
ATOM     36  C   UNL A   1      38.843  22.844  26.424  1.00  0.00     0.251 C 
ATOM     37  H   UNL A   1      39.070  20.851  26.251  1.00  0.00     0.163 HD
ATOM     38  O   UNL A   1      37.723  22.867  25.925  1.00  0.00    -0.269 OA
BRANCH  36  39
ATOM     39  C   UNL A   1      39.502  24.090  26.861  1.00  0.00     0.039 A 
ATOM     40  C   UNL A   1      40.224  24.840  25.931  1.00  0.00     0.014 A 
ATOM     41  C   UNL A   1      39.315  24.551  28.165  1.00  0.00     0.014 A 
ATOM     42  C   UNL A   1      40.700  26.102  26.292  1.00  0.00     0.010 A 
ATOM     43  C   UNL A   1      39.725  25.834  28.498  1.00  0.00     0.010 A 
ATOM     44  C   UNL A   1      40.418  26.623  27.565  1.00  0.00    -0.014 A 
BRANCH  44  45
ATOM     45  C   UNL A   1      40.813  27.997  27.962  1.00  0.00     0.031 A 
ATOM     46  C   UNL A   1      42.271  28.347  28.060  1.00  0.00     0.074 A 
ATOM     47  C   UNL A   1      39.877  28.867  28.386  1.00  0.00     0.049 A 
ATOM     48  N   UNL A   1      42.832  29.415  28.562  1.00  0.00    -0.248 NA
ATOM     49  C   UNL A   1      43.225  27.338  27.570  1.00  0.00     0.031 C 
ATOM     50  C   UNL A   1      38.435  28.607  28.422  1.00  0.00     0.029 A 
ATOM     51  N   UNL A   1      40.003  30.125  28.920  1.00  0.00    -0.354 N 
ATOM     52  C   UNL A   1      44.199  29.183  28.505  1.00  0.00     0.074 A 
ATOM     53  C   UNL A   1      44.383  27.863  27.940  1.00  0.00     0.031 C 
ATOM     54  C   UNL A   1      37.813  29.663  28.972  1.00  0.00     0.029 A 
ATOM     55  C   UNL A   1      38.811  30.657  29.358  1.00  0.00     0.049 A 
ATOM     56  H   UNL A   1      40.861  30.600  28.985  1.00  0.00     0.167 HD
ATOM     57  C   UNL A   1      45.213  30.003  28.868  1.00  0.00     0.034 A 
ATOM     58  C   UNL A   1      38.553  31.805  30.016  1.00  0.00     0.034 A 
ATOM     59  C   UNL A   1      45.024  31.337  29.366  1.00  0.00     0.049 A 
ATOM     60  C   UNL A   1      39.688  32.738  30.336  1.00  0.00     0.074 A 
ATOM     61  C   UNL A   1      45.982  32.295  29.647  1.00  0.00     0.029 A 
ATOM     62  N   UNL A   1      43.793  31.901  29.664  1.00  0.00    -0.354 N 
ATOM     63  N   UNL A   1      40.971  32.576  30.116  1.00  0.00    -0.248 NA
ATOM     64  C   UNL A   1      39.343  34.024  30.957  1.00  0.00     0.031 C 
ATOM     65  C   UNL A   1      45.329  33.436  30.127  1.00  0.00     0.029 A 
ATOM     66  C   UNL A   1      43.965  33.193  30.130  1.00  0.00     0.049 A 
ATOM     67  H   UNL A   1      42.925  31.450  29.559  1.00  0.00     0.167 HD
ATOM     68  C   UNL A   1      41.582  33.750  30.540  1.00  0.00     0.074 A 
ATOM     69  C   UNL A   1      40.527  34.620  31.018  1.00  0.00     0.031 C 
ATOM     70  C   UNL A   1      42.900  34.071  30.545  1.00  0.00     0.034 A 
BRANCH  57  71
ATOM     71  C   UNL A   1      46.618  29.492  28.685  1.00  0.00     0.023 A 
ATOM     72  C   UNL A   1      47.299  29.747  27.477  1.00  0.00     0.012 A 
ATOM     73  C   UNL A   1      47.272  28.784  29.710  1.00  0.00     0.148 A 
ATOM     74  C   UNL A   1      48.591  29.263  27.274  1.00  0.00     0.002 A 
ATOM     75  C   UNL A   1      48.577  28.343  29.517  1.00  0.00     0.091 A 
ATOM     76  F   UNL A   1      46.601  28.525  30.843  1.00  0.00    -0.205 F 
ATOM     77  C   UNL A   1      49.232  28.570  28.297  1.00  0.00     0.022 A 
BRANCH  75  78
ATOM     78  S   UNL A   1      49.503  27.512  30.813  1.00  0.00     0.127 S 
ATOM     79  O   UNL A   1      50.500  26.775  30.039  1.00  0.00    -0.237 OA
ATOM     80  O   UNL A   1      50.040  28.635  31.584  1.00  0.00    -0.237 OA
ATOM     81  O   UNL A   1      48.530  26.702  31.532  1.00  0.00    -0.744 OA
ENDBRANCH  75  78
ENDBRANCH  57  71
BRANCH  58  82
ATOM     82  C   UNL A   1      37.144  32.150  30.353  1.00  0.00     0.023 A 
ATOM     83  C   UNL A   1      36.681  31.949  31.668  1.00  0.00     0.012 A 
ATOM     84  C   UNL A   1      36.289  32.746  29.406  1.00  0.00     0.148 A 
ATOM     85  C   UNL A   1      35.385  32.321  32.030  1.00  0.00     0.002 A 
ATOM     86  C   UNL A   1      35.019  33.162  29.785  1.00  0.00     0.091 A 
ATOM     87  F   UNL A   1      36.750  32.922  28.159  1.00  0.00    -0.205 F 
ATOM     88  C   UNL A   1      34.560  32.938  31.093  1.00  0.00     0.022 A 
BRANCH  86  89
ATOM     89  S   UNL A   1      33.935  34.089  28.691  1.00  0.00     0.127 S 
ATOM     90  O   UNL A   1      33.462  33.046  27.786  1.00  0.00    -0.237 OA
ATOM     91  O   UNL A   1      32.930  34.597  29.626  1.00  0.00    -0.237 OA
ATOM     92  O   UNL A   1      34.771  35.118  28.088  1.00  0.00    -0.744 OA
ENDBRANCH  86  89
ENDBRANCH  58  82
BRANCH  70  93
ATOM     93  C   UNL A   1      43.292  35.436  31.045  1.00  0.00     0.023 A 
ATOM     94  C   UNL A   1      43.519  36.477  30.125  1.00  0.00     0.012 A 
ATOM     95  C   UNL A   1      43.323  35.710  32.426  1.00  0.00     0.148 A 
ATOM     96  C   UNL A   1      43.788  37.770  30.573  1.00  0.00     0.002 A 
ATOM     97  C   UNL A   1      43.547  37.010  32.866  1.00  0.00     0.091 A 
ATOM     98  F   UNL A   1      43.123  34.698  33.284  1.00  0.00    -0.205 F 
ATOM     99  C   UNL A   1      43.788  38.038  31.941  1.00  0.00     0.022 A 
BRANCH  97 100
ATOM    100  S   UNL A   1      43.469  37.465  34.602  1.00  0.00     0.127 S 
ATOM    101  O   UNL A   1      44.525  36.632  35.176  1.00  0.00    -0.237 OA
ATOM    102  O   UNL A   1      43.775  38.895  34.562  1.00  0.00    -0.237 OA
ATOM    103  O   UNL A   1      42.116  37.149  35.039  1.00  0.00    -0.744 OA
ENDBRANCH  97 100
ENDBRANCH  70  93
ENDBRANCH  44  45
ENDBRANCH  36  39
ENDBRANCH  34  35
ENDBRANCH  33  34
ENDBRANCH  32  33
ENDBRANCH   1  32
TORSDOF 19
ENDMDL
MODEL 2
REMARK VINA RESULT:      -8.8      5.094     10.918
REMARK SMILES C[C@@H](C(=O)NCCCCNC(=O)c1ccc(-c2c3nc(c(-c4cccc(S(=O)(=O)[O-])c4F)c4ccc([nH]4)c(-c4cccc(S(=O)(=O)[O-])c4F)c4nc(c(-c5cccc(S(=O)(=O)[O-])c5F)c5ccc2[nH]5)C=C4)C=C3)cc1)c1ccc(-c2cccc(OC(=O)Nc3ccccc3)c2)c(F)c1
REMARK SMILES IDX 6 1 5 2 3 3 4 4 2 6 1 7 76 8 77 9 98 10 78 11 96 12 79 13
REMARK SMILES IDX 97 14 80 15 81 16 95 17 82 18 84 19 83 20 85 21 86 22 87 23
REMARK SMILES IDX 88 24 89 26 90 27 94 28 91 29 93 30 92 31 7 32 8 33 9 34
REMARK SMILES IDX 10 35 11 36 12 38 13 39 14 40 75 41 15 42 74 43 16 44 17 45
REMARK SMILES IDX 18 46 68 47 19 48 73 49 67 50 69 51 20 52 72 53 66 54 65 55
REMARK SMILES IDX 21 57 53 58 33 59 52 60 34 61 37 62 51 63 70 64 35 65 36 66
REMARK SMILES IDX 50 68 71 69 38 70 22 71 23 72 31 73 24 74 26 75 32 76 25 77
REMARK SMILES IDX 27 78 28 79 29 80 30 81 54 82 55 83 63 84 56 85 58 86 64 87
REMARK SMILES IDX 57 88 59 89 60 90 61 91 62 92 39 93 40 94 48 95 41 96 43 97
REMARK SMILES IDX 49 98 42 99 44 100 45 101 46 102 47 103
REMARK H PARENT 5 5 88 25 10 37 69 56 37 67
REMARK Flexibility Score: inf
ROOT
ATOM      1  C   UNL A   1      35.074  19.021  24.378  1.00  0.00     0.116 C 
ENDROOT
BRANCH   1   2
ATOM      2  N   UNL A   1      34.118  18.137  25.012  1.00  0.00    -0.356 N 
ATOM      3  C   UNL A   1      32.755  18.114  24.927  1.00  0.00     0.227 C 
ATOM      4  O   UNL A   1      32.160  17.367  25.707  1.00  0.00    -0.274 OA
ATOM      5  H   UNL A   1      34.510  17.447  25.594  1.00  0.00     0.163 HD
BRANCH   3   6
ATOM      6  C   UNL A   1      32.033  18.948  23.851  1.00  0.00     0.105 C 
ATOM      7  C   UNL A   1      32.478  18.520  22.446  1.00  0.00     0.023 C 
BRANCH   6   8
ATOM      8  C   UNL A   1      32.184  20.456  24.085  1.00  0.00    -0.033 A 
ATOM      9  C   UNL A   1      32.495  21.310  23.012  1.00  0.00     0.005 A 
ATOM     10  C   UNL A   1      32.048  21.032  25.355  1.00  0.00     0.044 A 
ATOM     11  C   UNL A   1      32.655  22.690  23.200  1.00  0.00     0.012 A 
ATOM     12  C   UNL A   1      32.225  22.398  25.539  1.00  0.00     0.131 A 
ATOM     13  C   UNL A   1      32.537  23.252  24.476  1.00  0.00     0.018 A 
ATOM     14  F   UNL A   1      32.108  22.882  26.787  1.00  0.00    -0.206 F 
BRANCH  13  15
ATOM     15  C   UNL A   1      32.812  24.668  24.729  1.00  0.00    -0.012 A 
ATOM     16  C   UNL A   1      33.826  25.094  25.596  1.00  0.00     0.009 A 
ATOM     17  C   UNL A   1      32.048  25.636  24.054  1.00  0.00     0.056 A 
ATOM     18  C   UNL A   1      34.082  26.457  25.769  1.00  0.00     0.004 A 
ATOM     19  C   UNL A   1      32.295  26.989  24.236  1.00  0.00     0.133 A 
ATOM     20  C   UNL A   1      33.318  27.407  25.087  1.00  0.00     0.047 A 
BRANCH  19  21
ATOM     21  O   UNL A   1      31.555  28.019  23.604  1.00  0.00    -0.410 OA
BRANCH  21  22
ATOM     22  C   UNL A   1      32.025  28.872  22.605  1.00  0.00     0.417 C 
ATOM     23  O   UNL A   1      33.125  28.819  22.063  1.00  0.00    -0.224 OA
ATOM     24  N   UNL A   1      31.102  29.771  22.139  1.00  0.00    -0.291 N 
ATOM     25  H   UNL A   1      31.378  30.265  21.333  1.00  0.00     0.173 HD
BRANCH  24  26
ATOM     26  C   UNL A   1      29.830  30.104  22.621  1.00  0.00     0.044 A 
ATOM     27  C   UNL A   1      28.787  29.222  22.313  1.00  0.00     0.026 A 
ATOM     28  C   UNL A   1      29.551  31.263  23.346  1.00  0.00     0.026 A 
ATOM     29  C   UNL A   1      27.492  29.471  22.768  1.00  0.00     0.002 A 
ATOM     30  C   UNL A   1      28.249  31.522  23.783  1.00  0.00     0.002 A 
ATOM     31  C   UNL A   1      27.224  30.623  23.504  1.00  0.00     0.000 A 
ENDBRANCH  24  26
ENDBRANCH  21  22
ENDBRANCH  19  21
ENDBRANCH  13  15
ENDBRANCH   6   8
ENDBRANCH   3   6
ENDBRANCH   1   2
BRANCH   1  32
ATOM     32  C   UNL A   1      35.497  20.141  25.333  1.00  0.00     0.023 C 
BRANCH  32  33
ATOM     33  C   UNL A   1      36.009  21.406  24.643  1.00  0.00     0.023 C 
BRANCH  33  34
ATOM     34  C   UNL A   1      37.436  21.791  24.999  1.00  0.00     0.116 C 
BRANCH  34  35
ATOM     35  N   UNL A   1      38.263  20.643  25.351  1.00  0.00    -0.352 N 
ATOM     36  C   UNL A   1      39.439  20.638  26.063  1.00  0.00     0.251 C 
ATOM     37  H   UNL A   1      37.940  19.765  25.041  1.00  0.00     0.163 HD
ATOM     38  O   UNL A   1      40.096  19.610  26.188  1.00  0.00    -0.269 OA
BRANCH  36  39
ATOM     39  C   UNL A   1      39.908  21.911  26.645  1.00  0.00     0.039 A 
ATOM     40  C   UNL A   1      40.819  21.881  27.703  1.00  0.00     0.014 A 
ATOM     41  C   UNL A   1      39.516  23.121  26.069  1.00  0.00     0.014 A 
ATOM     42  C   UNL A   1      41.399  23.074  28.139  1.00  0.00     0.010 A 
ATOM     43  C   UNL A   1      40.148  24.294  26.455  1.00  0.00     0.010 A 
ATOM     44  C   UNL A   1      41.098  24.282  27.491  1.00  0.00    -0.014 A 
BRANCH  44  45
ATOM     45  C   UNL A   1      41.762  25.559  27.850  1.00  0.00     0.031 A 
ATOM     46  C   UNL A   1      40.979  26.624  28.563  1.00  0.00     0.074 A 
ATOM     47  C   UNL A   1      43.003  25.818  27.396  1.00  0.00     0.049 A 
ATOM     48  N   UNL A   1      41.304  27.867  28.802  1.00  0.00    -0.248 NA
ATOM     49  C   UNL A   1      39.633  26.251  29.028  1.00  0.00     0.031 C 
ATOM     50  C   UNL A   1      43.829  24.894  26.614  1.00  0.00     0.029 A 
ATOM     51  N   UNL A   1      43.765  26.957  27.478  1.00  0.00    -0.354 N 
ATOM     52  C   UNL A   1      40.184  28.442  29.388  1.00  0.00     0.074 A 
ATOM     53  C   UNL A   1      39.164  27.417  29.449  1.00  0.00     0.031 C 
ATOM     54  C   UNL A   1      44.970  25.511  26.268  1.00  0.00     0.029 A 
ATOM     55  C   UNL A   1      44.944  26.882  26.773  1.00  0.00     0.049 A 
ATOM     56  H   UNL A   1      43.494  27.752  27.991  1.00  0.00     0.167 HD
ATOM     57  C   UNL A   1      40.025  29.702  29.855  1.00  0.00     0.034 A 
ATOM     58  C   UNL A   1      45.888  27.815  26.539  1.00  0.00     0.034 A 
ATOM     59  C   UNL A   1      41.064  30.694  29.850  1.00  0.00     0.049 A 
ATOM     60  C   UNL A   1      45.727  29.185  27.139  1.00  0.00     0.074 A 
ATOM     61  C   UNL A   1      41.048  31.960  30.409  1.00  0.00     0.029 A 
ATOM     62  N   UNL A   1      42.305  30.534  29.252  1.00  0.00    -0.354 N 
ATOM     63  N   UNL A   1      44.729  29.662  27.843  1.00  0.00    -0.248 NA
ATOM     64  C   UNL A   1      46.832  30.134  26.946  1.00  0.00     0.031 C 
ATOM     65  C   UNL A   1      42.277  32.570  30.138  1.00  0.00     0.029 A 
ATOM     66  C   UNL A   1      43.063  31.679  29.424  1.00  0.00     0.049 A 
ATOM     67  H   UNL A   1      42.602  29.726  28.777  1.00  0.00     0.167 HD
ATOM     68  C   UNL A   1      45.098  30.951  28.206  1.00  0.00     0.074 A 
ATOM     69  C   UNL A   1      46.418  31.178  27.654  1.00  0.00     0.031 C 
ATOM     70  C   UNL A   1      44.401  31.868  28.921  1.00  0.00     0.034 A 
BRANCH  57  71
ATOM     71  C   UNL A   1      38.691  30.055  30.458  1.00  0.00     0.023 A 
ATOM     72  C   UNL A   1      38.394  29.649  31.775  1.00  0.00     0.012 A 
ATOM     73  C   UNL A   1      37.744  30.804  29.736  1.00  0.00     0.148 A 
ATOM     74  C   UNL A   1      37.157  29.942  32.347  1.00  0.00     0.002 A 
ATOM     75  C   UNL A   1      36.529  31.132  30.330  1.00  0.00     0.091 A 
ATOM     76  F   UNL A   1      38.029  31.159  28.475  1.00  0.00    -0.205 F 
ATOM     77  C   UNL A   1      36.229  30.691  31.628  1.00  0.00     0.022 A 
BRANCH  75  78
ATOM     78  S   UNL A   1      35.310  32.160  29.503  1.00  0.00     0.127 S 
ATOM     79  O   UNL A   1      34.393  32.473  30.597  1.00  0.00    -0.237 OA
ATOM     80  O   UNL A   1      36.116  33.292  29.041  1.00  0.00    -0.237 OA
ATOM     81  O   UNL A   1      34.765  31.337  28.432  1.00  0.00    -0.744 OA
ENDBRANCH  75  78
ENDBRANCH  57  71
BRANCH  58  82
ATOM     82  C   UNL A   1      47.095  27.449  25.749  1.00  0.00     0.023 A 
ATOM     83  C   UNL A   1      47.113  27.699  24.363  1.00  0.00     0.012 A 
ATOM     84  C   UNL A   1      48.249  26.932  26.370  1.00  0.00     0.148 A 
ATOM     85  C   UNL A   1      48.253  27.424  23.606  1.00  0.00     0.002 A 
ATOM     86  C   UNL A   1      49.397  26.710  25.620  1.00  0.00     0.091 A 
ATOM     87  F   UNL A   1      48.206  26.697  27.689  1.00  0.00    -0.205 F 
ATOM     88  C   UNL A   1      49.397  26.942  24.236  1.00  0.00     0.022 A 
BRANCH  86  89
ATOM     89  S   UNL A   1      50.960  26.223  26.363  1.00  0.00     0.127 S 
ATOM     90  O   UNL A   1      51.834  26.144  25.196  1.00  0.00    -0.237 OA
ATOM     91  O   UNL A   1      51.229  27.349  27.259  1.00  0.00    -0.237 OA
ATOM     92  O   UNL A   1      50.697  24.962  27.043  1.00  0.00    -0.744 OA
ENDBRANCH  86  89
ENDBRANCH  58  82
BRANCH  70  93
ATOM     93  C   UNL A   1      45.054  33.198  29.192  1.00  0.00     0.023 A 
ATOM     94  C   UNL A   1      45.868  33.356  30.329  1.00  0.00     0.012 A 
ATOM     95  C   UNL A   1      44.948  34.249  28.260  1.00  0.00     0.148 A 
ATOM     96  C   UNL A   1      46.557  34.549  30.544  1.00  0.00     0.002 A 
ATOM     97  C   UNL A   1      45.673  35.419  28.458  1.00  0.00     0.091 A 
ATOM     98  F   UNL A   1      44.151  34.083  27.195  1.00  0.00    -0.205 F 
ATOM     99  C   UNL A   1      46.471  35.573  29.602  1.00  0.00     0.022 A 
BRANCH  97 100
ATOM    100  S   UNL A   1      45.699  36.749  27.251  1.00  0.00     0.127 S 
ATOM    101  O   UNL A   1      46.235  36.072  26.072  1.00  0.00    -0.237 OA
ATOM    102  O   UNL A   1      44.284  37.110  27.156  1.00  0.00    -0.237 OA
ATOM    103  O   UNL A   1      46.549  37.788  27.816  1.00  0.00    -0.744 OA
ENDBRANCH  97 100
ENDBRANCH  70  93
ENDBRANCH  44  45
ENDBRANCH  36  39
ENDBRANCH  34  35
ENDBRANCH  33  34
ENDBRANCH  32  33
ENDBRANCH   1  32
TORSDOF 19
ENDMDL
MODEL 3
REMARK VINA RESULT:      -8.5      3.339     10.115
REMARK SMILES C[C@@H](C(=O)NCCCCNC(=O)c1ccc(-c2c3nc(c(-c4cccc(S(=O)(=O)[O-])c4F)c4ccc([nH]4)c(-c4cccc(S(=O)(=O)[O-])c4F)c4nc(c(-c5cccc(S(=O)(=O)[O-])c5F)c5ccc2[nH]5)C=C4)C=C3)cc1)c1ccc(-c2cccc(OC(=O)Nc3ccccc3)c2)c(F)c1
REMARK SMILES IDX 6 1 5 2 3 3 4 4 2 6 1 7 76 8 77 9 98 10 78 11 96 12 79 13
REMARK SMILES IDX 97 14 80 15 81 16 95 17 82 18 84 19 83 20 85 21 86 22 87 23
REMARK SMILES IDX 88 24 89 26 90 27 94 28 91 29 93 30 92 31 7 32 8 33 9 34
REMARK SMILES IDX 10 35 11 36 12 38 13 39 14 40 75 41 15 42 74 43 16 44 17 45
REMARK SMILES IDX 18 46 68 47 19 48 73 49 67 50 69 51 20 52 72 53 66 54 65 55
REMARK SMILES IDX 21 57 53 58 33 59 52 60 34 61 37 62 51 63 70 64 35 65 36 66
REMARK SMILES IDX 50 68 71 69 38 70 22 71 23 72 31 73 24 74 26 75 32 76 25 77
REMARK SMILES IDX 27 78 28 79 29 80 30 81 54 82 55 83 63 84 56 85 58 86 64 87
REMARK SMILES IDX 57 88 59 89 60 90 61 91 62 92 39 93 40 94 48 95 41 96 43 97
REMARK SMILES IDX 49 98 42 99 44 100 45 101 46 102 47 103
REMARK H PARENT 5 5 88 25 10 37 69 56 37 67
REMARK Flexibility Score: inf
ROOT
ATOM      1  C   UNL A   1      35.065  34.809  32.164  1.00  0.00     0.116 C 
ENDROOT
BRANCH   1   2
ATOM      2  N   UNL A   1      33.933  34.502  31.316  1.00  0.00    -0.356 N 
ATOM      3  C   UNL A   1      33.844  34.456  29.954  1.00  0.00     0.227 C 
ATOM      4  O   UNL A   1      32.716  34.339  29.473  1.00  0.00    -0.274 OA
ATOM      5  H   UNL A   1      33.098  34.293  31.795  1.00  0.00     0.163 HD
BRANCH   3   6
ATOM      6  C   UNL A   1      35.122  34.487  29.095  1.00  0.00     0.105 C 
ATOM      7  C   UNL A   1      34.780  34.767  27.625  1.00  0.00     0.023 C 
BRANCH   6   8
ATOM      8  C   UNL A   1      35.976  33.226  29.274  1.00  0.00    -0.033 A 
ATOM      9  C   UNL A   1      37.300  33.328  29.739  1.00  0.00     0.005 A 
ATOM     10  C   UNL A   1      35.495  31.948  28.961  1.00  0.00     0.044 A 
ATOM     11  C   UNL A   1      38.108  32.194  29.896  1.00  0.00     0.012 A 
ATOM     12  C   UNL A   1      36.306  30.828  29.102  1.00  0.00     0.131 A 
ATOM     13  C   UNL A   1      37.624  30.923  29.562  1.00  0.00     0.018 A 
ATOM     14  F   UNL A   1      35.791  29.636  28.759  1.00  0.00    -0.206 F 
BRANCH  13  15
ATOM     15  C   UNL A   1      38.475  29.733  29.602  1.00  0.00    -0.012 A 
ATOM     16  C   UNL A   1      38.128  28.586  30.327  1.00  0.00     0.009 A 
ATOM     17  C   UNL A   1      39.670  29.730  28.863  1.00  0.00     0.056 A 
ATOM     18  C   UNL A   1      38.949  27.455  30.297  1.00  0.00     0.004 A 
ATOM     19  C   UNL A   1      40.491  28.612  28.843  1.00  0.00     0.133 A 
ATOM     20  C   UNL A   1      40.132  27.466  29.553  1.00  0.00     0.047 A 
BRANCH  19  21
ATOM     21  O   UNL A   1      41.716  28.544  28.137  1.00  0.00    -0.410 OA
BRANCH  21  22
ATOM     22  C   UNL A   1      41.861  28.408  26.755  1.00  0.00     0.417 C 
ATOM     23  O   UNL A   1      41.887  29.321  25.935  1.00  0.00    -0.224 OA
ATOM     24  N   UNL A   1      42.100  27.129  26.327  1.00  0.00    -0.291 N 
ATOM     25  H   UNL A   1      42.356  27.052  25.380  1.00  0.00     0.173 HD
BRANCH  24  26
ATOM     26  C   UNL A   1      42.039  25.911  27.017  1.00  0.00     0.044 A 
ATOM     27  C   UNL A   1      40.853  25.178  26.902  1.00  0.00     0.026 A 
ATOM     28  C   UNL A   1      43.068  25.422  27.823  1.00  0.00     0.026 A 
ATOM     29  C   UNL A   1      40.716  23.948  27.545  1.00  0.00     0.002 A 
ATOM     30  C   UNL A   1      42.922  24.199  28.484  1.00  0.00     0.002 A 
ATOM     31  C   UNL A   1      41.752  23.458  28.336  1.00  0.00     0.000 A 
ENDBRANCH  24  26
ENDBRANCH  21  22
ENDBRANCH  19  21
ENDBRANCH  13  15
ENDBRANCH   6   8
ENDBRANCH   3   6
ENDBRANCH   1   2
BRANCH   1  32
ATOM     32  C   UNL A   1      35.446  33.602  33.026  1.00  0.00     0.023 C 
BRANCH  32  33
ATOM     33  C   UNL A   1      35.665  33.919  34.505  1.00  0.00     0.023 C 
BRANCH  33  34
ATOM     34  C   UNL A   1      37.117  33.883  34.955  1.00  0.00     0.116 C 
BRANCH  34  35
ATOM     35  N   UNL A   1      37.333  33.014  36.106  1.00  0.00    -0.352 N 
ATOM     36  C   UNL A   1      38.183  31.937  36.201  1.00  0.00     0.251 C 
ATOM     37  H   UNL A   1      36.806  33.224  36.912  1.00  0.00     0.163 HD
ATOM     38  O   UNL A   1      38.180  31.219  37.194  1.00  0.00    -0.269 OA
BRANCH  36  39
ATOM     39  C   UNL A   1      39.074  31.649  35.060  1.00  0.00     0.039 A 
ATOM     40  C   UNL A   1      40.428  31.977  35.154  1.00  0.00     0.014 A 
ATOM     41  C   UNL A   1      38.577  30.965  33.949  1.00  0.00     0.014 A 
ATOM     42  C   UNL A   1      41.306  31.550  34.157  1.00  0.00     0.010 A 
ATOM     43  C   UNL A   1      39.462  30.480  32.998  1.00  0.00     0.010 A 
ATOM     44  C   UNL A   1      40.835  30.764  33.093  1.00  0.00    -0.014 A 
BRANCH  44  45
ATOM     45  C   UNL A   1      41.742  30.201  32.064  1.00  0.00     0.031 A 
ATOM     46  C   UNL A   1      42.360  28.849  32.283  1.00  0.00     0.074 A 
ATOM     47  C   UNL A   1      42.131  30.965  31.025  1.00  0.00     0.049 A 
ATOM     48  N   UNL A   1      43.313  28.258  31.611  1.00  0.00    -0.248 NA
ATOM     49  C   UNL A   1      41.871  28.082  33.441  1.00  0.00     0.031 C 
ATOM     50  C   UNL A   1      41.668  32.328  30.757  1.00  0.00     0.029 A 
ATOM     51  N   UNL A   1      43.049  30.723  30.033  1.00  0.00    -0.354 N 
ATOM     52  C   UNL A   1      43.581  27.081  32.297  1.00  0.00     0.074 A 
ATOM     53  C   UNL A   1      42.705  27.052  33.449  1.00  0.00     0.031 C 
ATOM     54  C   UNL A   1      42.321  32.811  29.687  1.00  0.00     0.029 A 
ATOM     55  C   UNL A   1      43.271  31.807  29.215  1.00  0.00     0.049 A 
ATOM     56  H   UNL A   1      43.505  29.859  29.918  1.00  0.00     0.167 HD
ATOM     57  C   UNL A   1      44.460  26.100  31.985  1.00  0.00     0.034 A 
ATOM     58  C   UNL A   1      44.155  31.983  28.213  1.00  0.00     0.034 A 
ATOM     59  C   UNL A   1      45.278  26.106  30.804  1.00  0.00     0.049 A 
ATOM     60  C   UNL A   1      45.065  30.848  27.831  1.00  0.00     0.074 A 
ATOM     61  C   UNL A   1      46.110  25.107  30.329  1.00  0.00     0.029 A 
ATOM     62  N   UNL A   1      45.372  27.164  29.914  1.00  0.00    -0.354 N 
ATOM     63  N   UNL A   1      45.184  29.667  28.389  1.00  0.00    -0.248 NA
ATOM     64  C   UNL A   1      45.935  31.050  26.664  1.00  0.00     0.031 C 
ATOM     65  C   UNL A   1      46.717  25.569  29.157  1.00  0.00     0.029 A 
ATOM     66  C   UNL A   1      46.251  26.847  28.893  1.00  0.00     0.049 A 
ATOM     67  H   UNL A   1      44.885  28.015  29.996  1.00  0.00     0.167 HD
ATOM     68  C   UNL A   1      46.114  28.974  27.624  1.00  0.00     0.074 A 
ATOM     69  C   UNL A   1      46.519  29.863  26.554  1.00  0.00     0.031 C 
ATOM     70  C   UNL A   1      46.599  27.720  27.800  1.00  0.00     0.034 A 
BRANCH  57  71
ATOM     71  C   UNL A   1      44.535  24.917  32.912  1.00  0.00     0.023 A 
ATOM     72  C   UNL A   1      43.780  23.761  32.628  1.00  0.00     0.012 A 
ATOM     73  C   UNL A   1      45.368  24.935  34.047  1.00  0.00     0.148 A 
ATOM     74  C   UNL A   1      43.814  22.661  33.485  1.00  0.00     0.002 A 
ATOM     75  C   UNL A   1      45.432  23.817  34.872  1.00  0.00     0.091 A 
ATOM     76  F   UNL A   1      46.060  26.052  34.319  1.00  0.00    -0.205 F 
ATOM     77  C   UNL A   1      44.647  22.686  34.600  1.00  0.00     0.022 A 
BRANCH  75  78
ATOM     78  S   UNL A   1      46.538  23.738  36.284  1.00  0.00     0.127 S 
ATOM     79  O   UNL A   1      47.825  24.062  35.672  1.00  0.00    -0.237 OA
ATOM     80  O   UNL A   1      46.003  24.780  37.162  1.00  0.00    -0.237 OA
ATOM     81  O   UNL A   1      46.407  22.386  36.810  1.00  0.00    -0.744 OA
ENDBRANCH  75  78
ENDBRANCH  57  71
BRANCH  58  82
ATOM     82  C   UNL A   1      44.164  33.272  27.467  1.00  0.00     0.023 A 
ATOM     83  C   UNL A   1      43.469  33.366  26.246  1.00  0.00     0.012 A 
ATOM     84  C   UNL A   1      44.786  34.419  27.995  1.00  0.00     0.148 A 
ATOM     85  C   UNL A   1      43.406  34.577  25.555  1.00  0.00     0.002 A 
ATOM     86  C   UNL A   1      44.676  35.634  27.329  1.00  0.00     0.091 A 
ATOM     87  F   UNL A   1      45.447  34.305  29.156  1.00  0.00    -0.205 F 
ATOM     88  C   UNL A   1      43.998  35.712  26.102  1.00  0.00     0.022 A 
BRANCH  86  89
ATOM     89  S   UNL A   1      45.284  37.177  28.021  1.00  0.00     0.127 S 
ATOM     90  O   UNL A   1      46.721  36.929  28.086  1.00  0.00    -0.237 OA
ATOM     91  O   UNL A   1      44.870  38.145  27.003  1.00  0.00    -0.237 OA
ATOM     92  O   UNL A   1      44.609  37.327  29.303  1.00  0.00    -0.744 OA
ENDBRANCH  86  89
ENDBRANCH  58  82
BRANCH  70  93
ATOM     93  C   UNL A   1      47.595  27.200  26.798  1.00  0.00     0.023 A 
ATOM     94  C   UNL A   1      47.141  26.600  25.609  1.00  0.00     0.012 A 
ATOM     95  C   UNL A   1      48.975  27.411  26.987  1.00  0.00     0.148 A 
ATOM     96  C   UNL A   1      48.047  26.202  24.627  1.00  0.00     0.002 A 
ATOM     97  C   UNL A   1      49.870  27.052  25.986  1.00  0.00     0.091 A 
ATOM     98  F   UNL A   1      49.386  27.966  28.137  1.00  0.00    -0.205 F 
ATOM     99  C   UNL A   1      49.409  26.440  24.809  1.00  0.00     0.022 A 
BRANCH  97 100
ATOM    100  S   UNL A   1      51.627  27.409  26.093  1.00  0.00     0.127 S 
ATOM    101  O   UNL A   1      52.120  26.861  24.831  1.00  0.00    -0.237 OA
ATOM    102  O   UNL A   1      51.643  28.870  26.172  1.00  0.00    -0.237 OA
ATOM    103  O   UNL A   1      52.101  26.736  27.295  1.00  0.00    -0.744 OA
ENDBRANCH  97 100
ENDBRANCH  70  93
ENDBRANCH  44  45
ENDBRANCH  36  39
ENDBRANCH  34  35
ENDBRANCH  33  34
ENDBRANCH  32  33
ENDBRANCH   1  32
TORSDOF 19
ENDMDL
