MODEL 1
REMARK VINA RESULT:     -12.1      0.000      0.000
REMARK SMILES Cc1ccc(C)c(OCc2ccc(C(=O)NCCCCNC(=O)c3ccc(-c4c5nc(c(-c6cccc(S(=O)(=O)[O-])c6F)c6ccc([nH]6)c(-c6cccc(S(=O)(=O)[O-])c6F)c6nc(c(-c7cccc(S(=O)(=O)[O-])c7F)c7ccc4[nH]7)C=C6)C=C5)cc3)cc2)c1C
REMARK SMILES IDX 18 1 17 2 16 3 14 4 15 5 13 7 10 8 11 9 88 10 12 11 87 12
REMARK SMILES IDX 9 13 8 14 7 15 1 16 2 17 3 18 89 19 4 20 90 21 5 22 6 23
REMARK SMILES IDX 19 24 20 25 21 26 22 27 23 29 24 30 25 31 86 32 26 33 85 34
REMARK SMILES IDX 27 35 28 36 29 37 79 38 30 39 84 40 78 41 80 42 31 43 83 44
REMARK SMILES IDX 77 45 76 46 32 48 64 49 44 50 63 51 45 52 48 53 62 54 81 55
REMARK SMILES IDX 46 56 47 57 61 59 82 60 49 61 33 62 34 63 42 64 35 65 37 66
REMARK SMILES IDX 43 67 36 68 38 69 39 70 40 71 41 72 65 73 66 74 74 75 67 76
REMARK SMILES IDX 69 77 75 78 68 79 70 80 71 81 72 82 73 83 50 84 51 85 59 86
REMARK SMILES IDX 52 87 54 88 60 89 53 90 55 91 56 92 57 93 58 94
REMARK H PARENT 16 6 21 28 80 47 48 58
REMARK Flexibility Score: inf
ROOT
ATOM      1  C   UNL A   1      31.810  30.618  26.509  1.00  0.00     0.023 C 
ENDROOT
BRANCH   1   2
ATOM      2  C   UNL A   1      31.283  30.136  25.156  1.00  0.00     0.116 C 
BRANCH   2   3
ATOM      3  N   UNL A   1      32.377  29.675  24.338  1.00  0.00    -0.352 N 
ATOM      4  C   UNL A   1      32.873  28.423  24.100  1.00  0.00     0.251 C 
ATOM      5  O   UNL A   1      33.905  28.363  23.428  1.00  0.00    -0.269 OA
ATOM      6  H   UNL A   1      32.853  30.393  23.862  1.00  0.00     0.163 HD
BRANCH   4   7
ATOM      7  C   UNL A   1      32.216  27.149  24.537  1.00  0.00     0.039 A 
ATOM      8  C   UNL A   1      31.399  24.592  25.517  1.00  0.00    -0.011 A 
ATOM      9  C   UNL A   1      32.123  25.484  26.311  1.00  0.00     0.008 A 
ATOM     10  C   UNL A   1      30.990  25.056  24.261  1.00  0.00     0.008 A 
ATOM     11  C   UNL A   1      32.532  26.729  25.830  1.00  0.00     0.014 A 
ATOM     12  C   UNL A   1      31.375  26.321  23.789  1.00  0.00     0.014 A 
BRANCH   8  13
ATOM     13  C   UNL A   1      31.219  23.117  25.850  1.00  0.00     0.265 C 
BRANCH  13  14
ATOM     14  O   UNL A   1      32.295  22.185  25.739  1.00  0.00    -0.488 OA
BRANCH  14  15
ATOM     15  C   UNL A   1      33.423  22.496  25.030  1.00  0.00     0.125 A 
ATOM     16  C   UNL A   1      36.908  23.742  26.052  1.00  0.00     0.045 C 
ATOM     17  C   UNL A   1      35.714  23.319  25.241  1.00  0.00    -0.044 A 
ATOM     18  C   UNL A   1      35.782  23.397  23.846  1.00  0.00     0.004 A 
ATOM     19  C   UNL A   1      34.531  22.845  25.842  1.00  0.00    -0.006 A 
ATOM     20  C   UNL A   1      34.718  22.966  23.053  1.00  0.00     0.007 A 
ATOM     21  C   UNL A   1      34.387  22.751  27.343  1.00  0.00     0.049 C 
ATOM     22  C   UNL A   1      33.537  22.471  23.628  1.00  0.00    -0.009 A 
ATOM     23  C   UNL A   1      32.450  22.009  22.699  1.00  0.00     0.048 C 
ENDBRANCH  14  15
ENDBRANCH  13  14
ENDBRANCH   8  13
ENDBRANCH   4   7
ENDBRANCH   2   3
ENDBRANCH   1   2
BRANCH   1  24
ATOM     24  C   UNL A   1      31.589  32.112  26.760  1.00  0.00     0.023 C 
BRANCH  24  25
ATOM     25  C   UNL A   1      32.774  32.823  27.399  1.00  0.00     0.116 C 
BRANCH  25  26
ATOM     26  N   UNL A   1      32.488  34.211  27.735  1.00  0.00    -0.352 N 
ATOM     27  C   UNL A   1      33.076  34.987  28.699  1.00  0.00     0.251 C 
ATOM     28  H   UNL A   1      31.783  34.646  27.203  1.00  0.00     0.163 HD
ATOM     29  O   UNL A   1      32.642  36.110  28.940  1.00  0.00    -0.269 OA
BRANCH  27  30
ATOM     30  C   UNL A   1      34.205  34.436  29.468  1.00  0.00     0.039 A 
ATOM     31  C   UNL A   1      33.935  33.746  30.649  1.00  0.00     0.014 A 
ATOM     32  C   UNL A   1      35.515  34.562  28.997  1.00  0.00     0.014 A 
ATOM     33  C   UNL A   1      34.982  33.142  31.341  1.00  0.00     0.010 A 
ATOM     34  C   UNL A   1      36.545  33.895  29.647  1.00  0.00     0.010 A 
ATOM     35  C   UNL A   1      36.291  33.191  30.833  1.00  0.00    -0.014 A 
BRANCH  35  36
ATOM     36  C   UNL A   1      37.400  32.503  31.536  1.00  0.00     0.031 A 
ATOM     37  C   UNL A   1      38.124  31.364  30.877  1.00  0.00     0.074 A 
ATOM     38  C   UNL A   1      37.714  32.876  32.792  1.00  0.00     0.049 A 
ATOM     39  N   UNL A   1      39.133  30.663  31.324  1.00  0.00    -0.248 NA
ATOM     40  C   UNL A   1      37.636  30.933  29.555  1.00  0.00     0.031 C 
ATOM     41  C   UNL A   1      37.015  33.901  33.570  1.00  0.00     0.029 A 
ATOM     42  N   UNL A   1      38.691  32.423  33.641  1.00  0.00    -0.354 N 
ATOM     43  C   UNL A   1      39.382  29.697  30.358  1.00  0.00     0.074 A 
ATOM     44  C   UNL A   1      38.392  29.871  29.320  1.00  0.00     0.031 C 
ATOM     45  C   UNL A   1      37.597  34.012  34.775  1.00  0.00     0.029 A 
ATOM     46  C   UNL A   1      38.695  33.055  34.863  1.00  0.00     0.049 A 
ATOM     47  H   UNL A   1      39.328  31.714  33.400  1.00  0.00     0.167 HD
ATOM     48  C   UNL A   1      40.371  28.772  30.321  1.00  0.00     0.034 A 
ATOM     49  C   UNL A   1      39.500  32.887  35.928  1.00  0.00     0.034 A 
ATOM     50  C   UNL A   1      41.378  28.634  31.337  1.00  0.00     0.049 A 
ATOM     51  C   UNL A   1      40.629  31.897  35.834  1.00  0.00     0.074 A 
ATOM     52  C   UNL A   1      42.475  27.794  31.353  1.00  0.00     0.029 A 
ATOM     53  N   UNL A   1      41.406  29.354  32.522  1.00  0.00    -0.354 N 
ATOM     54  N   UNL A   1      40.960  31.114  34.835  1.00  0.00    -0.248 NA
ATOM     55  C   UNL A   1      41.524  31.799  36.995  1.00  0.00     0.031 C 
ATOM     56  C   UNL A   1      43.157  27.990  32.559  1.00  0.00     0.029 A 
ATOM     57  C   UNL A   1      42.498  28.972  33.282  1.00  0.00     0.049 A 
ATOM     58  H   UNL A   1      40.747  30.036  32.785  1.00  0.00     0.167 HD
ATOM     59  C   UNL A   1      42.117  30.456  35.234  1.00  0.00     0.074 A 
ATOM     60  C   UNL A   1      42.445  30.953  36.554  1.00  0.00     0.031 C 
ATOM     61  C   UNL A   1      42.836  29.513  34.573  1.00  0.00     0.034 A 
BRANCH  48  62
ATOM     62  C   UNL A   1      40.444  27.876  29.111  1.00  0.00     0.023 A 
ATOM     63  C   UNL A   1      39.528  26.812  28.979  1.00  0.00     0.012 A 
ATOM     64  C   UNL A   1      41.377  28.114  28.084  1.00  0.00     0.148 A 
ATOM     65  C   UNL A   1      39.562  25.976  27.864  1.00  0.00     0.002 A 
ATOM     66  C   UNL A   1      41.375  27.305  26.953  1.00  0.00     0.091 A 
ATOM     67  F   UNL A   1      42.256  29.115  28.236  1.00  0.00    -0.205 F 
ATOM     68  C   UNL A   1      40.479  26.230  26.847  1.00  0.00     0.022 A 
BRANCH  66  69
ATOM     69  S   UNL A   1      42.462  27.595  25.553  1.00  0.00     0.127 S 
ATOM     70  O   UNL A   1      42.206  26.414  24.730  1.00  0.00    -0.237 OA
ATOM     71  O   UNL A   1      41.931  28.844  25.005  1.00  0.00    -0.237 OA
ATOM     72  O   UNL A   1      43.807  27.697  26.102  1.00  0.00    -0.744 OA
ENDBRANCH  66  69
ENDBRANCH  48  62
BRANCH  49  73
ATOM     73  C   UNL A   1      39.320  33.736  37.139  1.00  0.00     0.023 A 
ATOM     74  C   UNL A   1      39.789  35.064  37.129  1.00  0.00     0.012 A 
ATOM     75  C   UNL A   1      38.661  33.249  38.284  1.00  0.00     0.148 A 
ATOM     76  C   UNL A   1      39.635  35.882  38.248  1.00  0.00     0.002 A 
ATOM     77  C   UNL A   1      38.462  34.087  39.376  1.00  0.00     0.091 A 
ATOM     78  F   UNL A   1      38.230  31.980  38.278  1.00  0.00    -0.205 F 
ATOM     79  C   UNL A   1      38.964  35.397  39.367  1.00  0.00     0.022 A 
BRANCH  77  80
ATOM     80  S   UNL A   1      37.492  33.589  40.804  1.00  0.00     0.127 S 
ATOM     81  O   UNL A   1      38.364  32.599  41.428  1.00  0.00    -0.237 OA
ATOM     82  O   UNL A   1      37.365  34.850  41.537  1.00  0.00    -0.237 OA
ATOM     83  O   UNL A   1      36.236  33.082  40.266  1.00  0.00    -0.744 OA
ENDBRANCH  77  80
ENDBRANCH  49  73
BRANCH  61  84
ATOM     84  C   UNL A   1      44.066  28.976  35.256  1.00  0.00     0.023 A 
ATOM     85  C   UNL A   1      45.318  29.580  35.023  1.00  0.00     0.012 A 
ATOM     86  C   UNL A   1      43.972  27.913  36.176  1.00  0.00     0.148 A 
ATOM     87  C   UNL A   1      46.463  29.109  35.665  1.00  0.00     0.002 A 
ATOM     88  C   UNL A   1      45.108  27.482  36.849  1.00  0.00     0.091 A 
ATOM     89  F   UNL A   1      42.775  27.338  36.369  1.00  0.00    -0.205 F 
ATOM     90  C   UNL A   1      46.355  28.069  36.585  1.00  0.00     0.022 A 
BRANCH  88  91
ATOM     91  S   UNL A   1      45.043  26.216  38.123  1.00  0.00     0.127 S 
ATOM     92  O   UNL A   1      44.562  25.060  37.369  1.00  0.00    -0.237 OA
ATOM     93  O   UNL A   1      46.442  26.128  38.546  1.00  0.00    -0.237 OA
ATOM     94  O   UNL A   1      44.137  26.723  39.144  1.00  0.00    -0.744 OA
ENDBRANCH  88  91
ENDBRANCH  61  84
ENDBRANCH  35  36
ENDBRANCH  27  30
ENDBRANCH  25  26
ENDBRANCH  24  25
ENDBRANCH   1  24
TORSDOF 17
ENDMDL
MODEL 2
REMARK VINA RESULT:     -11.7      3.876      8.618
REMARK SMILES Cc1ccc(C)c(OCc2ccc(C(=O)NCCCCNC(=O)c3ccc(-c4c5nc(c(-c6cccc(S(=O)(=O)[O-])c6F)c6ccc([nH]6)c(-c6cccc(S(=O)(=O)[O-])c6F)c6nc(c(-c7cccc(S(=O)(=O)[O-])c7F)c7ccc4[nH]7)C=C6)C=C5)cc3)cc2)c1C
REMARK SMILES IDX 18 1 17 2 16 3 14 4 15 5 13 7 10 8 11 9 88 10 12 11 87 12
REMARK SMILES IDX 9 13 8 14 7 15 1 16 2 17 3 18 89 19 4 20 90 21 5 22 6 23
REMARK SMILES IDX 19 24 20 25 21 26 22 27 23 29 24 30 25 31 86 32 26 33 85 34
REMARK SMILES IDX 27 35 28 36 29 37 79 38 30 39 84 40 78 41 80 42 31 43 83 44
REMARK SMILES IDX 77 45 76 46 32 48 64 49 44 50 63 51 45 52 48 53 62 54 81 55
REMARK SMILES IDX 46 56 47 57 61 59 82 60 49 61 33 62 34 63 42 64 35 65 37 66
REMARK SMILES IDX 43 67 36 68 38 69 39 70 40 71 41 72 65 73 66 74 74 75 67 76
REMARK SMILES IDX 69 77 75 78 68 79 70 80 71 81 72 82 73 83 50 84 51 85 59 86
REMARK SMILES IDX 52 87 54 88 60 89 53 90 55 91 56 92 57 93 58 94
REMARK H PARENT 16 6 21 28 80 47 48 58
REMARK Flexibility Score: inf
ROOT
ATOM      1  C   UNL A   1      31.621  29.147  25.980  1.00  0.00     0.023 C 
ENDROOT
BRANCH   1   2
ATOM      2  C   UNL A   1      32.324  29.360  24.638  1.00  0.00     0.116 C 
BRANCH   2   3
ATOM      3  N   UNL A   1      31.347  29.539  23.594  1.00  0.00    -0.352 N 
ATOM      4  C   UNL A   1      30.792  28.661  22.704  1.00  0.00     0.251 C 
ATOM      5  O   UNL A   1      30.054  29.148  21.844  1.00  0.00    -0.269 OA
ATOM      6  H   UNL A   1      31.018  30.462  23.506  1.00  0.00     0.163 HD
BRANCH   4   7
ATOM      7  C   UNL A   1      30.967  27.174  22.753  1.00  0.00     0.039 A 
ATOM      8  C   UNL A   1      31.330  24.397  23.320  1.00  0.00    -0.011 A 
ATOM      9  C   UNL A   1      30.346  25.152  23.959  1.00  0.00     0.008 A 
ATOM     10  C   UNL A   1      32.051  25.033  22.302  1.00  0.00     0.008 A 
ATOM     11  C   UNL A   1      30.174  26.512  23.692  1.00  0.00     0.014 A 
ATOM     12  C   UNL A   1      31.857  26.393  22.011  1.00  0.00     0.014 A 
BRANCH   8  13
ATOM     13  C   UNL A   1      31.791  23.026  23.798  1.00  0.00     0.265 C 
BRANCH  13  14
ATOM     14  O   UNL A   1      32.473  22.854  25.041  1.00  0.00    -0.488 OA
BRANCH  14  15
ATOM     15  C   UNL A   1      33.831  22.983  25.120  1.00  0.00     0.125 A 
ATOM     16  C   UNL A   1      36.722  20.461  24.957  1.00  0.00     0.045 C 
ATOM     17  C   UNL A   1      35.929  21.729  25.113  1.00  0.00    -0.044 A 
ATOM     18  C   UNL A   1      36.600  22.908  25.457  1.00  0.00     0.004 A 
ATOM     19  C   UNL A   1      34.534  21.767  24.922  1.00  0.00    -0.006 A 
ATOM     20  C   UNL A   1      35.911  24.117  25.562  1.00  0.00     0.007 A 
ATOM     21  C   UNL A   1      33.748  20.527  24.565  1.00  0.00     0.049 C 
ATOM     22  C   UNL A   1      34.525  24.184  25.356  1.00  0.00    -0.009 A 
ATOM     23  C   UNL A   1      33.868  25.531  25.467  1.00  0.00     0.048 C 
ENDBRANCH  14  15
ENDBRANCH  13  14
ENDBRANCH   8  13
ENDBRANCH   4   7
ENDBRANCH   2   3
ENDBRANCH   1   2
BRANCH   1  24
ATOM     24  C   UNL A   1      32.566  28.735  27.113  1.00  0.00     0.023 C 
BRANCH  24  25
ATOM     25  C   UNL A   1      33.885  29.496  27.137  1.00  0.00     0.116 C 
BRANCH  25  26
ATOM     26  N   UNL A   1      33.765  30.819  27.733  1.00  0.00    -0.352 N 
ATOM     27  C   UNL A   1      34.631  31.443  28.592  1.00  0.00     0.251 C 
ATOM     28  H   UNL A   1      32.959  31.329  27.489  1.00  0.00     0.163 HD
ATOM     29  O   UNL A   1      34.331  32.519  29.101  1.00  0.00    -0.269 OA
BRANCH  27  30
ATOM     30  C   UNL A   1      35.905  30.782  28.925  1.00  0.00     0.039 A 
ATOM     31  C   UNL A   1      37.086  31.306  28.400  1.00  0.00     0.014 A 
ATOM     32  C   UNL A   1      35.931  29.682  29.785  1.00  0.00     0.014 A 
ATOM     33  C   UNL A   1      38.305  30.748  28.775  1.00  0.00     0.010 A 
ATOM     34  C   UNL A   1      37.151  29.177  30.217  1.00  0.00     0.010 A 
ATOM     35  C   UNL A   1      38.349  29.696  29.705  1.00  0.00    -0.014 A 
BRANCH  35  36
ATOM     36  C   UNL A   1      39.647  29.135  30.150  1.00  0.00     0.031 A 
ATOM     37  C   UNL A   1      40.336  29.691  31.364  1.00  0.00     0.074 A 
ATOM     38  C   UNL A   1      40.226  28.160  29.423  1.00  0.00     0.049 A 
ATOM     39  N   UNL A   1      41.458  29.311  31.918  1.00  0.00    -0.248 NA
ATOM     40  C   UNL A   1      39.701  30.842  32.029  1.00  0.00     0.031 C 
ATOM     41  C   UNL A   1      39.699  27.612  28.172  1.00  0.00     0.029 A 
ATOM     42  N   UNL A   1      41.394  27.470  29.623  1.00  0.00    -0.354 N 
ATOM     43  C   UNL A   1      41.676  30.188  32.973  1.00  0.00     0.074 A 
ATOM     44  C   UNL A   1      40.596  31.147  32.957  1.00  0.00     0.031 C 
ATOM     45  C   UNL A   1      40.531  26.657  27.725  1.00  0.00     0.029 A 
ATOM     46  C   UNL A   1      41.657  26.539  28.645  1.00  0.00     0.049 A 
ATOM     47  H   UNL A   1      41.987  27.625  30.392  1.00  0.00     0.167 HD
ATOM     48  C   UNL A   1      42.668  30.172  33.895  1.00  0.00     0.034 A 
ATOM     49  C   UNL A   1      42.687  25.681  28.513  1.00  0.00     0.034 A 
ATOM     50  C   UNL A   1      43.715  29.188  33.929  1.00  0.00     0.049 A 
ATOM     51  C   UNL A   1      43.740  25.643  29.586  1.00  0.00     0.074 A 
ATOM     52  C   UNL A   1      44.714  29.026  34.871  1.00  0.00     0.029 A 
ATOM     53  N   UNL A   1      43.902  28.201  32.973  1.00  0.00    -0.354 N 
ATOM     54  N   UNL A   1      43.833  26.363  30.678  1.00  0.00    -0.248 NA
ATOM     55  C   UNL A   1      44.805  24.642  29.435  1.00  0.00     0.031 C 
ATOM     56  C   UNL A   1      45.518  27.952  34.473  1.00  0.00     0.029 A 
ATOM     57  C   UNL A   1      45.004  27.429  33.298  1.00  0.00     0.049 A 
ATOM     58  H   UNL A   1      43.333  28.068  32.180  1.00  0.00     0.167 HD
ATOM     59  C   UNL A   1      44.946  25.883  31.358  1.00  0.00     0.074 A 
ATOM     60  C   UNL A   1      45.477  24.792  30.568  1.00  0.00     0.031 C 
ATOM     61  C   UNL A   1      45.489  26.315  32.524  1.00  0.00     0.034 A 
BRANCH  48  62
ATOM     62  C   UNL A   1      42.631  31.219  34.978  1.00  0.00     0.023 A 
ATOM     63  C   UNL A   1      42.030  30.915  36.217  1.00  0.00     0.012 A 
ATOM     64  C   UNL A   1      43.232  32.480  34.794  1.00  0.00     0.148 A 
ATOM     65  C   UNL A   1      41.993  31.859  37.243  1.00  0.00     0.002 A 
ATOM     66  C   UNL A   1      43.233  33.399  35.838  1.00  0.00     0.091 A 
ATOM     67  F   UNL A   1      43.778  32.761  33.602  1.00  0.00    -0.205 F 
ATOM     68  C   UNL A   1      42.604  33.096  37.056  1.00  0.00     0.022 A 
BRANCH  66  69
ATOM     69  S   UNL A   1      44.060  34.989  35.726  1.00  0.00     0.127 S 
ATOM     70  O   UNL A   1      43.770  35.566  37.037  1.00  0.00    -0.237 OA
ATOM     71  O   UNL A   1      45.456  34.597  35.528  1.00  0.00    -0.237 OA
ATOM     72  O   UNL A   1      43.458  35.677  34.592  1.00  0.00    -0.744 OA
ENDBRANCH  66  69
ENDBRANCH  48  62
BRANCH  49  73
ATOM     73  C   UNL A   1      42.722  24.732  27.365  1.00  0.00     0.023 A 
ATOM     74  C   UNL A   1      43.380  25.106  26.178  1.00  0.00     0.012 A 
ATOM     75  C   UNL A   1      42.138  23.453  27.453  1.00  0.00     0.148 A 
ATOM     76  C   UNL A   1      43.428  24.238  25.087  1.00  0.00     0.002 A 
ATOM     77  C   UNL A   1      42.237  22.573  26.382  1.00  0.00     0.091 A 
ATOM     78  F   UNL A   1      41.508  23.120  28.588  1.00  0.00    -0.205 F 
ATOM     79  C   UNL A   1      42.865  22.970  25.192  1.00  0.00     0.022 A 
BRANCH  77  80
ATOM     80  S   UNL A   1      41.660  20.875  26.479  1.00  0.00     0.127 S 
ATOM     81  O   UNL A   1      40.231  21.029  26.222  1.00  0.00    -0.237 OA
ATOM     82  O   UNL A   1      42.415  20.237  25.399  1.00  0.00    -0.237 OA
ATOM     83  O   UNL A   1      42.020  20.414  27.813  1.00  0.00    -0.744 OA
ENDBRANCH  77  80
ENDBRANCH  49  73
BRANCH  61  84
ATOM     84  C   UNL A   1      46.707  25.590  33.032  1.00  0.00     0.023 A 
ATOM     85  C   UNL A   1      46.565  24.570  33.994  1.00  0.00     0.012 A 
ATOM     86  C   UNL A   1      47.984  25.876  32.511  1.00  0.00     0.148 A 
ATOM     87  C   UNL A   1      47.680  23.873  34.458  1.00  0.00     0.002 A 
ATOM     88  C   UNL A   1      49.083  25.142  32.941  1.00  0.00     0.091 A 
ATOM     89  F   UNL A   1      48.102  26.863  31.611  1.00  0.00    -0.205 F 
ATOM     90  C   UNL A   1      48.935  24.151  33.924  1.00  0.00     0.022 A 
BRANCH  88  91
ATOM     91  S   UNL A   1      50.720  25.367  32.234  1.00  0.00     0.127 S 
ATOM     92  O   UNL A   1      50.543  24.816  30.892  1.00  0.00    -0.237 OA
ATOM     93  O   UNL A   1      50.882  26.822  32.280  1.00  0.00    -0.237 OA
ATOM     94  O   UNL A   1      51.632  24.634  33.100  1.00  0.00    -0.744 OA
ENDBRANCH  88  91
ENDBRANCH  61  84
ENDBRANCH  35  36
ENDBRANCH  27  30
ENDBRANCH  25  26
ENDBRANCH  24  25
ENDBRANCH   1  24
TORSDOF 17
ENDMDL
MODEL 3
REMARK VINA RESULT:     -11.7      3.552      8.428
REMARK SMILES Cc1ccc(C)c(OCc2ccc(C(=O)NCCCCNC(=O)c3ccc(-c4c5nc(c(-c6cccc(S(=O)(=O)[O-])c6F)c6ccc([nH]6)c(-c6cccc(S(=O)(=O)[O-])c6F)c6nc(c(-c7cccc(S(=O)(=O)[O-])c7F)c7ccc4[nH]7)C=C6)C=C5)cc3)cc2)c1C
REMARK SMILES IDX 18 1 17 2 16 3 14 4 15 5 13 7 10 8 11 9 88 10 12 11 87 12
REMARK SMILES IDX 9 13 8 14 7 15 1 16 2 17 3 18 89 19 4 20 90 21 5 22 6 23
REMARK SMILES IDX 19 24 20 25 21 26 22 27 23 29 24 30 25 31 86 32 26 33 85 34
REMARK SMILES IDX 27 35 28 36 29 37 79 38 30 39 84 40 78 41 80 42 31 43 83 44
REMARK SMILES IDX 77 45 76 46 32 48 64 49 44 50 63 51 45 52 48 53 62 54 81 55
REMARK SMILES IDX 46 56 47 57 61 59 82 60 49 61 33 62 34 63 42 64 35 65 37 66
REMARK SMILES IDX 43 67 36 68 38 69 39 70 40 71 41 72 65 73 66 74 74 75 67 76
REMARK SMILES IDX 69 77 75 78 68 79 70 80 71 81 72 82 73 83 50 84 51 85 59 86
REMARK SMILES IDX 52 87 54 88 60 89 53 90 55 91 56 92 57 93 58 94
REMARK H PARENT 16 6 21 28 80 47 48 58
REMARK Flexibility Score: inf
ROOT
ATOM      1  C   UNL A   1      31.729  29.647  25.758  1.00  0.00     0.023 C 
ENDROOT
BRANCH   1   2
ATOM      2  C   UNL A   1      32.330  29.427  24.369  1.00  0.00     0.116 C 
BRANCH   2   3
ATOM      3  N   UNL A   1      31.299  29.517  23.367  1.00  0.00    -0.352 N 
ATOM      4  C   UNL A   1      30.744  28.577  22.542  1.00  0.00     0.251 C 
ATOM      5  O   UNL A   1      29.946  28.993  21.699  1.00  0.00    -0.269 OA
ATOM      6  H   UNL A   1      30.924  30.420  23.256  1.00  0.00     0.163 HD
BRANCH   4   7
ATOM      7  C   UNL A   1      30.990  27.103  22.644  1.00  0.00     0.039 A 
ATOM      8  C   UNL A   1      31.414  24.356  23.311  1.00  0.00    -0.011 A 
ATOM      9  C   UNL A   1      30.305  25.062  23.781  1.00  0.00     0.008 A 
ATOM     10  C   UNL A   1      32.245  25.022  22.401  1.00  0.00     0.008 A 
ATOM     11  C   UNL A   1      30.102  26.407  23.466  1.00  0.00     0.014 A 
ATOM     12  C   UNL A   1      32.023  26.366  22.059  1.00  0.00     0.014 A 
BRANCH   8  13
ATOM     13  C   UNL A   1      31.870  23.018  23.878  1.00  0.00     0.265 C 
BRANCH  13  14
ATOM     14  O   UNL A   1      32.592  22.931  25.107  1.00  0.00    -0.488 OA
BRANCH  14  15
ATOM     15  C   UNL A   1      33.821  22.334  25.158  1.00  0.00     0.125 A 
ATOM     16  C   UNL A   1      37.389  23.697  25.555  1.00  0.00     0.045 C 
ATOM     17  C   UNL A   1      36.218  22.778  25.344  1.00  0.00    -0.044 A 
ATOM     18  C   UNL A   1      36.457  21.424  25.085  1.00  0.00     0.004 A 
ATOM     19  C   UNL A   1      34.887  23.237  25.402  1.00  0.00    -0.006 A 
ATOM     20  C   UNL A   1      35.400  20.526  24.934  1.00  0.00     0.007 A 
ATOM     21  C   UNL A   1      34.560  24.689  25.663  1.00  0.00     0.049 C 
ATOM     22  C   UNL A   1      34.066  20.956  25.009  1.00  0.00    -0.009 A 
ATOM     23  C   UNL A   1      32.989  19.919  24.857  1.00  0.00     0.048 C 
ENDBRANCH  14  15
ENDBRANCH  13  14
ENDBRANCH   8  13
ENDBRANCH   4   7
ENDBRANCH   2   3
ENDBRANCH   1   2
BRANCH   1  24
ATOM     24  C   UNL A   1      32.524  28.985  26.887  1.00  0.00     0.023 C 
BRANCH  24  25
ATOM     25  C   UNL A   1      33.878  29.627  27.161  1.00  0.00     0.116 C 
BRANCH  25  26
ATOM     26  N   UNL A   1      33.766  30.942  27.776  1.00  0.00    -0.352 N 
ATOM     27  C   UNL A   1      34.633  31.545  28.649  1.00  0.00     0.251 C 
ATOM     28  H   UNL A   1      32.967  31.464  27.534  1.00  0.00     0.163 HD
ATOM     29  O   UNL A   1      34.339  32.616  29.173  1.00  0.00    -0.269 OA
BRANCH  27  30
ATOM     30  C   UNL A   1      35.898  30.867  28.980  1.00  0.00     0.039 A 
ATOM     31  C   UNL A   1      37.082  31.360  28.432  1.00  0.00     0.014 A 
ATOM     32  C   UNL A   1      35.914  29.783  29.861  1.00  0.00     0.014 A 
ATOM     33  C   UNL A   1      38.296  30.787  28.805  1.00  0.00     0.010 A 
ATOM     34  C   UNL A   1      37.129  29.265  30.289  1.00  0.00     0.010 A 
ATOM     35  C   UNL A   1      38.331  29.752  29.754  1.00  0.00    -0.014 A 
BRANCH  35  36
ATOM     36  C   UNL A   1      39.623  29.175  30.195  1.00  0.00     0.031 A 
ATOM     37  C   UNL A   1      40.321  29.721  31.409  1.00  0.00     0.074 A 
ATOM     38  C   UNL A   1      40.190  28.196  29.465  1.00  0.00     0.049 A 
ATOM     39  N   UNL A   1      41.440  29.327  31.959  1.00  0.00    -0.248 NA
ATOM     40  C   UNL A   1      39.700  30.878  32.077  1.00  0.00     0.031 C 
ATOM     41  C   UNL A   1      39.654  27.655  28.213  1.00  0.00     0.029 A 
ATOM     42  N   UNL A   1      41.350  27.492  29.661  1.00  0.00    -0.354 N 
ATOM     43  C   UNL A   1      41.670  30.199  33.016  1.00  0.00     0.074 A 
ATOM     44  C   UNL A   1      40.600  31.171  33.004  1.00  0.00     0.031 C 
ATOM     45  C   UNL A   1      40.475  26.692  27.763  1.00  0.00     0.029 A 
ATOM     46  C   UNL A   1      41.601  26.560  28.681  1.00  0.00     0.049 A 
ATOM     47  H   UNL A   1      41.947  27.639  30.429  1.00  0.00     0.167 HD
ATOM     48  C   UNL A   1      42.663  30.171  33.936  1.00  0.00     0.034 A 
ATOM     49  C   UNL A   1      42.621  25.691  28.544  1.00  0.00     0.034 A 
ATOM     50  C   UNL A   1      43.699  29.175  33.966  1.00  0.00     0.049 A 
ATOM     51  C   UNL A   1      43.676  25.639  29.615  1.00  0.00     0.074 A 
ATOM     52  C   UNL A   1      44.698  29.000  34.905  1.00  0.00     0.029 A 
ATOM     53  N   UNL A   1      43.873  28.188  33.007  1.00  0.00    -0.354 N 
ATOM     54  N   UNL A   1      43.779  26.356  30.709  1.00  0.00    -0.248 NA
ATOM     55  C   UNL A   1      44.730  24.627  29.459  1.00  0.00     0.031 C 
ATOM     56  C   UNL A   1      45.490  27.918  34.504  1.00  0.00     0.029 A 
ATOM     57  C   UNL A   1      44.967  27.403  33.328  1.00  0.00     0.049 A 
ATOM     58  H   UNL A   1      43.301  28.063  32.215  1.00  0.00     0.167 HD
ATOM     59  C   UNL A   1      44.888  25.861  31.386  1.00  0.00     0.074 A 
ATOM     60  C   UNL A   1      45.405  24.766  30.592  1.00  0.00     0.031 C 
ATOM     61  C   UNL A   1      45.438  26.286  32.551  1.00  0.00     0.034 A 
BRANCH  48  62
ATOM     62  C   UNL A   1      42.640  31.215  35.021  1.00  0.00     0.023 A 
ATOM     63  C   UNL A   1      41.992  30.934  36.242  1.00  0.00     0.012 A 
ATOM     64  C   UNL A   1      43.299  32.450  34.859  1.00  0.00     0.148 A 
ATOM     65  C   UNL A   1      41.966  31.876  37.269  1.00  0.00     0.002 A 
ATOM     66  C   UNL A   1      43.309  33.366  35.905  1.00  0.00     0.091 A 
ATOM     67  F   UNL A   1      43.890  32.710  33.684  1.00  0.00    -0.205 F 
ATOM     68  C   UNL A   1      42.634  33.086  37.104  1.00  0.00     0.022 A 
BRANCH  66  69
ATOM     69  S   UNL A   1      44.206  34.920  35.823  1.00  0.00     0.127 S 
ATOM     70  O   UNL A   1      44.217  35.330  37.226  1.00  0.00    -0.237 OA
ATOM     71  O   UNL A   1      45.507  34.497  35.302  1.00  0.00    -0.237 OA
ATOM     72  O   UNL A   1      43.443  35.776  34.926  1.00  0.00    -0.744 OA
ENDBRANCH  66  69
ENDBRANCH  48  62
BRANCH  49  73
ATOM     73  C   UNL A   1      42.643  24.744  27.394  1.00  0.00     0.023 A 
ATOM     74  C   UNL A   1      43.318  25.106  26.213  1.00  0.00     0.012 A 
ATOM     75  C   UNL A   1      42.030  23.479  27.475  1.00  0.00     0.148 A 
ATOM     76  C   UNL A   1      43.354  24.241  25.120  1.00  0.00     0.002 A 
ATOM     77  C   UNL A   1      42.117  22.599  26.403  1.00  0.00     0.091 A 
ATOM     78  F   UNL A   1      41.385  23.157  28.605  1.00  0.00    -0.205 F 
ATOM     79  C   UNL A   1      42.763  22.984  25.217  1.00  0.00     0.022 A 
BRANCH  77  80
ATOM     80  S   UNL A   1      41.502  20.913  26.491  1.00  0.00     0.127 S 
ATOM     81  O   UNL A   1      40.075  21.102  26.249  1.00  0.00    -0.237 OA
ATOM     82  O   UNL A   1      42.233  20.267  25.399  1.00  0.00    -0.237 OA
ATOM     83  O   UNL A   1      41.864  20.434  27.818  1.00  0.00    -0.744 OA
ENDBRANCH  77  80
ENDBRANCH  49  73
BRANCH  61  84
ATOM     84  C   UNL A   1      46.649  25.545  33.055  1.00  0.00     0.023 A 
ATOM     85  C   UNL A   1      47.939  25.992  32.707  1.00  0.00     0.012 A 
ATOM     86  C   UNL A   1      46.509  24.445  33.925  1.00  0.00     0.148 A 
ATOM     87  C   UNL A   1      49.071  25.331  33.184  1.00  0.00     0.002 A 
ATOM     88  C   UNL A   1      47.642  23.824  34.436  1.00  0.00     0.091 A 
ATOM     89  F   UNL A   1      45.274  24.023  34.229  1.00  0.00    -0.205 F 
ATOM     90  C   UNL A   1      48.922  24.256  34.056  1.00  0.00     0.022 A 
BRANCH  88  91
ATOM     91  S   UNL A   1      47.543  22.496  35.642  1.00  0.00     0.127 S 
ATOM     92  O   UNL A   1      46.897  23.165  36.770  1.00  0.00    -0.237 OA
ATOM     93  O   UNL A   1      46.703  21.513  34.955  1.00  0.00    -0.237 OA
ATOM     94  O   UNL A   1      48.913  22.061  35.870  1.00  0.00    -0.744 OA
ENDBRANCH  88  91
ENDBRANCH  61  84
ENDBRANCH  35  36
ENDBRANCH  27  30
ENDBRANCH  25  26
ENDBRANCH  24  25
ENDBRANCH   1  24
TORSDOF 17
ENDMDL
