MODEL 1
REMARK VINA RESULT:     -11.3      0.000      0.000
REMARK SMILES NC(=O)C[C@@H](CC(=O)NCCCCNC(=O)c1ccc(-c2c3nc(c(-c4cccc(S(=O)(=O)[O-])c4F)c4ccc([nH]4)c(-c4cccc(S(=O)(=O)[O-])c4F)c4nc(c(-c5cccc(S(=O)(=O)[O-])c5F)c5ccc2[nH]5)C=C4)C=C3)cc1)c1cccc(Br)c1
REMARK SMILES IDX 11 1 10 2 9 3 7 4 8 5 6 7 5 8 4 9 2 10 1 11 3 14 80 15 81 16
REMARK SMILES IDX 86 17 82 18 84 19 83 20 85 21 12 22 13 23 14 24 15 25 16 27
REMARK SMILES IDX 17 28 18 29 79 30 19 31 78 32 20 33 21 34 22 35 72 36 23 37
REMARK SMILES IDX 77 38 71 39 73 40 24 41 76 42 70 43 69 44 25 46 57 47 37 48
REMARK SMILES IDX 56 49 38 50 41 51 55 52 74 53 39 54 40 55 54 57 75 58 42 59
REMARK SMILES IDX 26 60 27 61 35 62 28 63 30 64 36 65 29 66 31 67 32 68 33 69
REMARK SMILES IDX 34 70 58 71 59 72 67 73 60 74 62 75 68 76 61 77 63 78 64 79
REMARK SMILES IDX 65 80 66 81 43 82 44 83 52 84 45 85 47 86 53 87 46 88 48 89
REMARK SMILES IDX 49 90 50 91 51 92
REMARK H PARENT 9 6 1 12 1 13 14 26 73 45 41 56
REMARK Flexibility Score: inf
ROOT
ATOM      1  C   UNL A   1      31.204  30.387  25.262  1.00  0.00     0.023 C 
ENDROOT
BRANCH   1   2
ATOM      2  C   UNL A   1      32.522  29.620  25.366  1.00  0.00     0.116 C 
BRANCH   2   3
ATOM      3  N   UNL A   1      33.143  29.426  24.077  1.00  0.00    -0.356 N 
ATOM      4  C   UNL A   1      33.738  28.341  23.522  1.00  0.00     0.220 C 
ATOM      5  O   UNL A   1      34.127  28.451  22.356  1.00  0.00    -0.275 OA
ATOM      6  H   UNL A   1      33.132  30.223  23.498  1.00  0.00     0.163 HD
BRANCH   4   7
ATOM      7  C   UNL A   1      33.881  27.008  24.243  1.00  0.00     0.108 C 
BRANCH   7   8
ATOM      8  C   UNL A   1      33.790  25.633  23.531  1.00  0.00     0.038 C 
BRANCH   8   9
ATOM      9  C   UNL A   1      32.509  25.294  22.743  1.00  0.00     0.108 C 
BRANCH   9  10
ATOM     10  C   UNL A   1      32.607  25.165  21.232  1.00  0.00     0.218 C 
ATOM     11  N   UNL A   1      31.844  25.966  20.445  1.00  0.00    -0.370 N 
ATOM     12  H   UNL A   1      31.899  25.890  19.466  1.00  0.00     0.159 HD
ATOM     13  H   UNL A   1      31.235  26.622  20.856  1.00  0.00     0.159 HD
ATOM     14  O   UNL A   1      33.298  24.300  20.697  1.00  0.00    -0.275 OA
ENDBRANCH   9  10
ENDBRANCH   8   9
BRANCH   8  15
ATOM     15  C   UNL A   1      34.225  24.415  24.358  1.00  0.00    -0.043 A 
ATOM     16  C   UNL A   1      35.159  24.463  25.402  1.00  0.00     0.004 A 
ATOM     17  C   UNL A   1      33.606  23.174  24.102  1.00  0.00     0.019 A 
ATOM     18  C   UNL A   1      35.507  23.317  26.126  1.00  0.00     0.001 A 
ATOM     19  C   UNL A   1      33.938  22.037  24.844  1.00  0.00     0.018 A 
ATOM     20  C   UNL A   1      34.897  22.099  25.847  1.00  0.00     0.016 A 
ATOM     21  Br  UNL A   1      33.064  20.398  24.488  1.00  0.00    -0.051 Br
ENDBRANCH   8  15
ENDBRANCH   7   8
ENDBRANCH   4   7
ENDBRANCH   2   3
ENDBRANCH   1   2
BRANCH   1  22
ATOM     22  C   UNL A   1      31.099  31.628  26.137  1.00  0.00     0.023 C 
BRANCH  22  23
ATOM     23  C   UNL A   1      32.387  32.039  26.834  1.00  0.00     0.116 C 
BRANCH  23  24
ATOM     24  N   UNL A   1      32.380  33.401  27.358  1.00  0.00    -0.352 N 
ATOM     25  C   UNL A   1      33.360  34.019  28.104  1.00  0.00     0.251 C 
ATOM     26  H   UNL A   1      31.583  33.941  27.155  1.00  0.00     0.163 HD
ATOM     27  O   UNL A   1      33.206  35.160  28.527  1.00  0.00    -0.269 OA
BRANCH  25  28
ATOM     28  C   UNL A   1      34.577  33.250  28.428  1.00  0.00     0.039 A 
ATOM     29  C   UNL A   1      35.825  33.834  28.199  1.00  0.00     0.014 A 
ATOM     30  C   UNL A   1      34.468  32.025  29.090  1.00  0.00     0.014 A 
ATOM     31  C   UNL A   1      36.965  33.234  28.735  1.00  0.00     0.010 A 
ATOM     32  C   UNL A   1      35.593  31.476  29.689  1.00  0.00     0.010 A 
ATOM     33  C   UNL A   1      36.849  32.084  29.532  1.00  0.00    -0.014 A 
BRANCH  33  34
ATOM     34  C   UNL A   1      38.014  31.519  30.259  1.00  0.00     0.031 A 
ATOM     35  C   UNL A   1      38.833  30.427  29.634  1.00  0.00     0.074 A 
ATOM     36  C   UNL A   1      38.248  31.897  31.533  1.00  0.00     0.049 A 
ATOM     37  N   UNL A   1      39.808  29.729  30.153  1.00  0.00    -0.248 NA
ATOM     38  C   UNL A   1      38.483  30.040  28.257  1.00  0.00     0.031 C 
ATOM     39  C   UNL A   1      37.458  32.873  32.287  1.00  0.00     0.029 A 
ATOM     40  N   UNL A   1      39.195  31.475  32.433  1.00  0.00    -0.354 N 
ATOM     41  C   UNL A   1      40.162  28.798  29.185  1.00  0.00     0.074 A 
ATOM     42  C   UNL A   1      39.271  28.994  28.063  1.00  0.00     0.031 C 
ATOM     43  C   UNL A   1      37.950  32.972  33.532  1.00  0.00     0.029 A 
ATOM     44  C   UNL A   1      39.072  32.050  33.675  1.00  0.00     0.049 A 
ATOM     45  H   UNL A   1      39.898  30.822  32.208  1.00  0.00     0.167 HD
ATOM     46  C   UNL A   1      41.164  27.888  29.210  1.00  0.00     0.034 A 
ATOM     47  C   UNL A   1      39.777  31.851  34.807  1.00  0.00     0.034 A 
ATOM     48  C   UNL A   1      42.085  27.738  30.302  1.00  0.00     0.049 A 
ATOM     49  C   UNL A   1      40.929  30.884  34.789  1.00  0.00     0.074 A 
ATOM     50  C   UNL A   1      43.196  26.918  30.384  1.00  0.00     0.029 A 
ATOM     51  N   UNL A   1      42.004  28.424  31.504  1.00  0.00    -0.354 N 
ATOM     52  N   UNL A   1      41.359  30.135  33.801  1.00  0.00    -0.248 NA
ATOM     53  C   UNL A   1      41.715  30.759  36.024  1.00  0.00     0.031 C 
ATOM     54  C   UNL A   1      43.786  27.107  31.639  1.00  0.00     0.029 A 
ATOM     55  C   UNL A   1      43.044  28.047  32.335  1.00  0.00     0.049 A 
ATOM     56  H   UNL A   1      41.309  29.083  31.732  1.00  0.00     0.167 HD
ATOM     57  C   UNL A   1      42.477  29.469  34.287  1.00  0.00     0.074 A 
ATOM     58  C   UNL A   1      42.674  29.923  35.649  1.00  0.00     0.031 C 
ATOM     59  C   UNL A   1      43.258  28.548  33.669  1.00  0.00     0.034 A 
BRANCH  46  60
ATOM     60  C   UNL A   1      41.358  27.040  27.983  1.00  0.00     0.023 A 
ATOM     61  C   UNL A   1      41.979  27.606  26.850  1.00  0.00     0.012 A 
ATOM     62  C   UNL A   1      40.962  25.690  27.952  1.00  0.00     0.148 A 
ATOM     63  C   UNL A   1      42.170  26.853  25.693  1.00  0.00     0.002 A 
ATOM     64  C   UNL A   1      41.192  24.933  26.808  1.00  0.00     0.091 A 
ATOM     65  F   UNL A   1      40.347  25.176  29.027  1.00  0.00    -0.205 F 
ATOM     66  C   UNL A   1      41.786  25.515  25.676  1.00  0.00     0.022 A 
BRANCH  64  67
ATOM     67  S   UNL A   1      40.794  23.184  26.718  1.00  0.00     0.127 S 
ATOM     68  O   UNL A   1      39.366  23.222  26.407  1.00  0.00    -0.237 OA
ATOM     69  O   UNL A   1      41.645  22.727  25.617  1.00  0.00    -0.237 OA
ATOM     70  O   UNL A   1      41.143  22.631  28.018  1.00  0.00    -0.744 OA
ENDBRANCH  64  67
ENDBRANCH  46  60
BRANCH  47  71
ATOM     71  C   UNL A   1      39.455  32.645  36.027  1.00  0.00     0.023 A 
ATOM     72  C   UNL A   1      39.993  33.939  36.167  1.00  0.00     0.012 A 
ATOM     73  C   UNL A   1      38.584  32.152  37.016  1.00  0.00     0.148 A 
ATOM     74  C   UNL A   1      39.687  34.718  37.283  1.00  0.00     0.002 A 
ATOM     75  C   UNL A   1      38.242  32.954  38.100  1.00  0.00     0.091 A 
ATOM     76  F   UNL A   1      38.093  30.911  36.873  1.00  0.00    -0.205 F 
ATOM     77  C   UNL A   1      38.803  34.232  38.243  1.00  0.00     0.022 A 
BRANCH  75  78
ATOM     78  S   UNL A   1      37.005  32.457  39.306  1.00  0.00     0.127 S 
ATOM     79  O   UNL A   1      35.766  32.627  38.552  1.00  0.00    -0.237 OA
ATOM     80  O   UNL A   1      37.379  31.067  39.573  1.00  0.00    -0.237 OA
ATOM     81  O   UNL A   1      37.191  33.351  40.441  1.00  0.00    -0.744 OA
ENDBRANCH  75  78
ENDBRANCH  47  71
BRANCH  59  82
ATOM     82  C   UNL A   1      44.407  27.971  34.450  1.00  0.00     0.023 A 
ATOM     83  C   UNL A   1      45.611  28.696  34.543  1.00  0.00     0.012 A 
ATOM     84  C   UNL A   1      44.267  26.764  35.163  1.00  0.00     0.148 A 
ATOM     85  C   UNL A   1      46.668  28.218  35.317  1.00  0.00     0.002 A 
ATOM     86  C   UNL A   1      45.309  26.315  35.966  1.00  0.00     0.091 A 
ATOM     87  F   UNL A   1      43.120  26.081  35.044  1.00  0.00    -0.205 F 
ATOM     88  C   UNL A   1      46.512  27.036  36.038  1.00  0.00     0.022 A 
BRANCH  86  89
ATOM     89  S   UNL A   1      45.163  24.851  36.997  1.00  0.00     0.127 S 
ATOM     90  O   UNL A   1      45.026  23.794  35.997  1.00  0.00    -0.237 OA
ATOM     91  O   UNL A   1      46.439  24.848  37.717  1.00  0.00    -0.237 OA
ATOM     92  O   UNL A   1      43.997  25.072  37.841  1.00  0.00    -0.744 OA
ENDBRANCH  86  89
ENDBRANCH  59  82
ENDBRANCH  33  34
ENDBRANCH  25  28
ENDBRANCH  23  24
ENDBRANCH  22  23
ENDBRANCH   1  22
TORSDOF 18
ENDMDL
MODEL 2
REMARK VINA RESULT:     -11.3      1.909      2.322
REMARK SMILES NC(=O)C[C@@H](CC(=O)NCCCCNC(=O)c1ccc(-c2c3nc(c(-c4cccc(S(=O)(=O)[O-])c4F)c4ccc([nH]4)c(-c4cccc(S(=O)(=O)[O-])c4F)c4nc(c(-c5cccc(S(=O)(=O)[O-])c5F)c5ccc2[nH]5)C=C4)C=C3)cc1)c1cccc(Br)c1
REMARK SMILES IDX 11 1 10 2 9 3 7 4 8 5 6 7 5 8 4 9 2 10 1 11 3 14 80 15 81 16
REMARK SMILES IDX 86 17 82 18 84 19 83 20 85 21 12 22 13 23 14 24 15 25 16 27
REMARK SMILES IDX 17 28 18 29 79 30 19 31 78 32 20 33 21 34 22 35 72 36 23 37
REMARK SMILES IDX 77 38 71 39 73 40 24 41 76 42 70 43 69 44 25 46 57 47 37 48
REMARK SMILES IDX 56 49 38 50 41 51 55 52 74 53 39 54 40 55 54 57 75 58 42 59
REMARK SMILES IDX 26 60 27 61 35 62 28 63 30 64 36 65 29 66 31 67 32 68 33 69
REMARK SMILES IDX 34 70 58 71 59 72 67 73 60 74 62 75 68 76 61 77 63 78 64 79
REMARK SMILES IDX 65 80 66 81 43 82 44 83 52 84 45 85 47 86 53 87 46 88 48 89
REMARK SMILES IDX 49 90 50 91 51 92
REMARK H PARENT 9 6 1 12 1 13 14 26 73 45 41 56
REMARK Flexibility Score: inf
ROOT
ATOM      1  C   UNL A   1      33.158  29.482  26.856  1.00  0.00     0.023 C 
ENDROOT
BRANCH   1   2
ATOM      2  C   UNL A   1      33.294  29.163  25.368  1.00  0.00     0.116 C 
BRANCH   2   3
ATOM      3  N   UNL A   1      32.098  29.492  24.629  1.00  0.00    -0.356 N 
ATOM      4  C   UNL A   1      31.086  28.715  24.168  1.00  0.00     0.220 C 
ATOM      5  O   UNL A   1      30.144  29.291  23.617  1.00  0.00    -0.275 OA
ATOM      6  H   UNL A   1      31.999  30.450  24.423  1.00  0.00     0.163 HD
BRANCH   4   7
ATOM      7  C   UNL A   1      31.040  27.205  24.359  1.00  0.00     0.108 C 
BRANCH   7   8
ATOM      8  C   UNL A   1      32.040  26.225  23.693  1.00  0.00     0.038 C 
BRANCH   8   9
ATOM      9  C   UNL A   1      31.653  25.576  22.350  1.00  0.00     0.108 C 
BRANCH   9  10
ATOM     10  C   UNL A   1      32.478  25.920  21.120  1.00  0.00     0.218 C 
ATOM     11  N   UNL A   1      32.003  25.597  19.890  1.00  0.00    -0.370 N 
ATOM     12  H   UNL A   1      32.528  25.814  19.087  1.00  0.00     0.159 HD
ATOM     13  H   UNL A   1      31.133  25.144  19.802  1.00  0.00     0.159 HD
ATOM     14  O   UNL A   1      33.601  26.411  21.207  1.00  0.00    -0.275 OA
ENDBRANCH   9  10
ENDBRANCH   8   9
BRANCH   8  15
ATOM     15  C   UNL A   1      32.665  25.170  24.616  1.00  0.00    -0.043 A 
ATOM     16  C   UNL A   1      32.124  24.780  25.849  1.00  0.00     0.004 A 
ATOM     17  C   UNL A   1      33.824  24.496  24.178  1.00  0.00     0.019 A 
ATOM     18  C   UNL A   1      32.739  23.803  26.641  1.00  0.00     0.001 A 
ATOM     19  C   UNL A   1      34.421  23.503  24.960  1.00  0.00     0.018 A 
ATOM     20  C   UNL A   1      33.891  23.162  26.198  1.00  0.00     0.016 A 
ATOM     21  Br  UNL A   1      35.957  22.604  24.322  1.00  0.00    -0.051 Br
ENDBRANCH   8  15
ENDBRANCH   7   8
ENDBRANCH   4   7
ENDBRANCH   2   3
ENDBRANCH   1   2
BRANCH   1  22
ATOM     22  C   UNL A   1      32.518  30.825  27.182  1.00  0.00     0.023 C 
BRANCH  22  23
ATOM     23  C   UNL A   1      33.496  31.945  27.506  1.00  0.00     0.116 C 
BRANCH  23  24
ATOM     24  N   UNL A   1      32.884  33.265  27.617  1.00  0.00    -0.352 N 
ATOM     25  C   UNL A   1      33.237  34.285  28.474  1.00  0.00     0.251 C 
ATOM     26  H   UNL A   1      32.132  33.448  27.010  1.00  0.00     0.163 HD
ATOM     27  O   UNL A   1      32.604  35.334  28.501  1.00  0.00    -0.269 OA
BRANCH  25  28
ATOM     28  C   UNL A   1      34.364  34.058  29.398  1.00  0.00     0.039 A 
ATOM     29  C   UNL A   1      34.139  33.341  30.575  1.00  0.00     0.014 A 
ATOM     30  C   UNL A   1      35.657  34.427  29.019  1.00  0.00     0.014 A 
ATOM     31  C   UNL A   1      35.231  32.899  31.322  1.00  0.00     0.010 A 
ATOM     32  C   UNL A   1      36.741  33.916  29.720  1.00  0.00     0.010 A 
ATOM     33  C   UNL A   1      36.539  33.133  30.868  1.00  0.00    -0.014 A 
BRANCH  33  34
ATOM     34  C   UNL A   1      37.718  32.531  31.540  1.00  0.00     0.031 A 
ATOM     35  C   UNL A   1      38.446  31.386  30.896  1.00  0.00     0.074 A 
ATOM     36  C   UNL A   1      38.044  32.926  32.787  1.00  0.00     0.049 A 
ATOM     37  N   UNL A   1      39.417  30.654  31.375  1.00  0.00    -0.248 NA
ATOM     38  C   UNL A   1      37.997  30.985  29.552  1.00  0.00     0.031 C 
ATOM     39  C   UNL A   1      37.346  33.956  33.561  1.00  0.00     0.029 A 
ATOM     40  N   UNL A   1      39.023  32.479  33.641  1.00  0.00    -0.354 N 
ATOM     41  C   UNL A   1      39.669  29.685  30.413  1.00  0.00     0.074 A 
ATOM     42  C   UNL A   1      38.723  29.898  29.340  1.00  0.00     0.031 C 
ATOM     43  C   UNL A   1      37.916  34.059  34.773  1.00  0.00     0.029 A 
ATOM     44  C   UNL A   1      39.001  33.088  34.874  1.00  0.00     0.049 A 
ATOM     45  H   UNL A   1      39.680  31.789  33.392  1.00  0.00     0.167 HD
ATOM     46  C   UNL A   1      40.628  28.729  30.403  1.00  0.00     0.034 A 
ATOM     47  C   UNL A   1      39.762  32.882  35.967  1.00  0.00     0.034 A 
ATOM     48  C   UNL A   1      41.605  28.561  31.443  1.00  0.00     0.049 A 
ATOM     49  C   UNL A   1      40.865  31.861  35.906  1.00  0.00     0.074 A 
ATOM     50  C   UNL A   1      42.680  27.691  31.480  1.00  0.00     0.029 A 
ATOM     51  N   UNL A   1      41.627  29.278  32.629  1.00  0.00    -0.354 N 
ATOM     52  N   UNL A   1      41.200  31.070  34.915  1.00  0.00    -0.248 NA
ATOM     53  C   UNL A   1      41.717  31.727  37.096  1.00  0.00     0.031 C 
ATOM     54  C   UNL A   1      43.351  27.880  32.693  1.00  0.00     0.029 A 
ATOM     55  C   UNL A   1      42.696  28.871  33.407  1.00  0.00     0.049 A 
ATOM     56  H   UNL A   1      40.979  29.974  32.880  1.00  0.00     0.167 HD
ATOM     57  C   UNL A   1      42.313  30.362  35.352  1.00  0.00     0.074 A 
ATOM     58  C   UNL A   1      42.612  30.838  36.687  1.00  0.00     0.031 C 
ATOM     59  C   UNL A   1      43.012  29.391  34.713  1.00  0.00     0.034 A 
BRANCH  46  60
ATOM     60  C   UNL A   1      40.709  27.846  29.188  1.00  0.00     0.023 A 
ATOM     61  C   UNL A   1      39.871  26.715  29.106  1.00  0.00     0.012 A 
ATOM     62  C   UNL A   1      41.578  28.142  28.121  1.00  0.00     0.148 A 
ATOM     63  C   UNL A   1      39.923  25.870  27.998  1.00  0.00     0.002 A 
ATOM     64  C   UNL A   1      41.596  27.317  27.002  1.00  0.00     0.091 A 
ATOM     65  F   UNL A   1      42.388  29.204  28.229  1.00  0.00    -0.205 F 
ATOM     66  C   UNL A   1      40.778  26.177  26.942  1.00  0.00     0.022 A 
BRANCH  64  67
ATOM     67  S   UNL A   1      42.614  27.671  25.564  1.00  0.00     0.127 S 
ATOM     68  O   UNL A   1      43.940  27.798  26.166  1.00  0.00    -0.237 OA
ATOM     69  O   UNL A   1      42.428  26.470  24.747  1.00  0.00    -0.237 OA
ATOM     70  O   UNL A   1      42.065  28.887  24.981  1.00  0.00    -0.744 OA
ENDBRANCH  64  67
ENDBRANCH  46  60
BRANCH  47  71
ATOM     71  C   UNL A   1      39.551  33.718  37.183  1.00  0.00     0.023 A 
ATOM     72  C   UNL A   1      40.034  35.041  37.200  1.00  0.00     0.012 A 
ATOM     73  C   UNL A   1      38.833  33.234  38.292  1.00  0.00     0.148 A 
ATOM     74  C   UNL A   1      39.827  35.858  38.312  1.00  0.00     0.002 A 
ATOM     75  C   UNL A   1      38.585  34.071  39.376  1.00  0.00     0.091 A 
ATOM     76  F   UNL A   1      38.393  31.967  38.264  1.00  0.00    -0.205 F 
ATOM     77  C   UNL A   1      39.092  35.379  39.393  1.00  0.00     0.022 A 
BRANCH  75  78
ATOM     78  S   UNL A   1      37.531  33.576  40.745  1.00  0.00     0.127 S 
ATOM     79  O   UNL A   1      36.360  33.051  40.048  1.00  0.00    -0.237 OA
ATOM     80  O   UNL A   1      38.354  32.568  41.415  1.00  0.00    -0.237 OA
ATOM     81  O   UNL A   1      37.320  34.787  41.528  1.00  0.00    -0.744 OA
ENDBRANCH  75  78
ENDBRANCH  47  71
BRANCH  59  82
ATOM     82  C   UNL A   1      44.178  28.778  35.440  1.00  0.00     0.023 A 
ATOM     83  C   UNL A   1      45.467  29.315  35.254  1.00  0.00     0.012 A 
ATOM     84  C   UNL A   1      43.987  27.738  36.370  1.00  0.00     0.148 A 
ATOM     85  C   UNL A   1      46.554  28.812  35.968  1.00  0.00     0.002 A 
ATOM     86  C   UNL A   1      45.068  27.270  37.109  1.00  0.00     0.091 A 
ATOM     87  F   UNL A   1      42.756  27.228  36.516  1.00  0.00    -0.205 F 
ATOM     88  C   UNL A   1      46.352  27.799  36.903  1.00  0.00     0.022 A 
BRANCH  86  89
ATOM     89  S   UNL A   1      44.885  26.030  38.396  1.00  0.00     0.127 S 
ATOM     90  O   UNL A   1      46.272  25.817  38.804  1.00  0.00    -0.237 OA
ATOM     91  O   UNL A   1      44.059  26.726  39.385  1.00  0.00    -0.237 OA
ATOM     92  O   UNL A   1      44.234  24.891  37.763  1.00  0.00    -0.744 OA
ENDBRANCH  86  89
ENDBRANCH  59  82
ENDBRANCH  33  34
ENDBRANCH  25  28
ENDBRANCH  23  24
ENDBRANCH  22  23
ENDBRANCH   1  22
TORSDOF 18
ENDMDL
MODEL 3
REMARK VINA RESULT:     -11.1      2.393      8.201
REMARK SMILES NC(=O)C[C@@H](CC(=O)NCCCCNC(=O)c1ccc(-c2c3nc(c(-c4cccc(S(=O)(=O)[O-])c4F)c4ccc([nH]4)c(-c4cccc(S(=O)(=O)[O-])c4F)c4nc(c(-c5cccc(S(=O)(=O)[O-])c5F)c5ccc2[nH]5)C=C4)C=C3)cc1)c1cccc(Br)c1
REMARK SMILES IDX 11 1 10 2 9 3 7 4 8 5 6 7 5 8 4 9 2 10 1 11 3 14 80 15 81 16
REMARK SMILES IDX 86 17 82 18 84 19 83 20 85 21 12 22 13 23 14 24 15 25 16 27
REMARK SMILES IDX 17 28 18 29 79 30 19 31 78 32 20 33 21 34 22 35 72 36 23 37
REMARK SMILES IDX 77 38 71 39 73 40 24 41 76 42 70 43 69 44 25 46 57 47 37 48
REMARK SMILES IDX 56 49 38 50 41 51 55 52 74 53 39 54 40 55 54 57 75 58 42 59
REMARK SMILES IDX 26 60 27 61 35 62 28 63 30 64 36 65 29 66 31 67 32 68 33 69
REMARK SMILES IDX 34 70 58 71 59 72 67 73 60 74 62 75 68 76 61 77 63 78 64 79
REMARK SMILES IDX 65 80 66 81 43 82 44 83 52 84 45 85 47 86 53 87 46 88 48 89
REMARK SMILES IDX 49 90 50 91 51 92
REMARK H PARENT 9 6 1 12 1 13 14 26 73 45 41 56
REMARK Flexibility Score: inf
ROOT
ATOM      1  C   UNL A   1      31.680  28.312  27.181  1.00  0.00     0.023 C 
ENDROOT
BRANCH   1   2
ATOM      2  C   UNL A   1      32.137  26.930  26.714  1.00  0.00     0.116 C 
BRANCH   2   3
ATOM      3  N   UNL A   1      31.110  25.931  26.885  1.00  0.00    -0.356 N 
ATOM      4  C   UNL A   1      30.939  24.713  26.311  1.00  0.00     0.220 C 
ATOM      5  O   UNL A   1      29.986  24.037  26.708  1.00  0.00    -0.275 OA
ATOM      6  H   UNL A   1      30.409  26.176  27.532  1.00  0.00     0.163 HD
BRANCH   4   7
ATOM      7  C   UNL A   1      31.892  24.139  25.273  1.00  0.00     0.108 C 
BRANCH   7   8
ATOM      8  C   UNL A   1      31.827  24.487  23.763  1.00  0.00     0.038 C 
BRANCH   8   9
ATOM      9  C   UNL A   1      32.525  23.548  22.759  1.00  0.00     0.108 C 
BRANCH   9  10
ATOM     10  C   UNL A   1      33.420  22.448  23.306  1.00  0.00     0.218 C 
ATOM     11  N   UNL A   1      34.724  22.721  23.566  1.00  0.00    -0.370 N 
ATOM     12  H   UNL A   1      35.313  22.017  23.920  1.00  0.00     0.159 HD
ATOM     13  H   UNL A   1      35.080  23.624  23.400  1.00  0.00     0.159 HD
ATOM     14  O   UNL A   1      33.021  21.294  23.446  1.00  0.00    -0.275 OA
ENDBRANCH   9  10
ENDBRANCH   8   9
BRANCH   8  15
ATOM     15  C   UNL A   1      32.122  25.947  23.395  1.00  0.00    -0.043 A 
ATOM     16  C   UNL A   1      33.411  26.477  23.237  1.00  0.00     0.004 A 
ATOM     17  C   UNL A   1      31.036  26.807  23.134  1.00  0.00     0.019 A 
ATOM     18  C   UNL A   1      33.614  27.818  22.890  1.00  0.00     0.001 A 
ATOM     19  C   UNL A   1      31.242  28.139  22.764  1.00  0.00     0.018 A 
ATOM     20  C   UNL A   1      32.528  28.653  22.654  1.00  0.00     0.016 A 
ATOM     21  Br  UNL A   1      29.757  29.251  22.395  1.00  0.00    -0.051 Br
ENDBRANCH   8  15
ENDBRANCH   7   8
ENDBRANCH   4   7
ENDBRANCH   2   3
ENDBRANCH   1   2
BRANCH   1  22
ATOM     22  C   UNL A   1      31.608  29.379  26.097  1.00  0.00     0.023 C 
BRANCH  22  23
ATOM     23  C   UNL A   1      32.807  30.314  26.031  1.00  0.00     0.116 C 
BRANCH  23  24
ATOM     24  N   UNL A   1      32.592  31.613  26.662  1.00  0.00    -0.352 N 
ATOM     25  C   UNL A   1      33.438  32.278  27.522  1.00  0.00     0.251 C 
ATOM     26  H   UNL A   1      31.745  32.064  26.449  1.00  0.00     0.163 HD
ATOM     27  O   UNL A   1      33.112  33.349  28.024  1.00  0.00    -0.269 OA
BRANCH  25  28
ATOM     28  C   UNL A   1      34.724  31.642  27.865  1.00  0.00     0.039 A 
ATOM     29  C   UNL A   1      35.861  32.443  27.990  1.00  0.00     0.014 A 
ATOM     30  C   UNL A   1      34.758  30.288  28.205  1.00  0.00     0.014 A 
ATOM     31  C   UNL A   1      37.014  31.903  28.561  1.00  0.00     0.010 A 
ATOM     32  C   UNL A   1      35.879  29.779  28.847  1.00  0.00     0.010 A 
ATOM     33  C   UNL A   1      37.011  30.585  29.047  1.00  0.00    -0.014 A 
BRANCH  33  34
ATOM     34  C   UNL A   1      38.156  30.035  29.815  1.00  0.00     0.031 A 
ATOM     35  C   UNL A   1      38.422  30.513  31.214  1.00  0.00     0.074 A 
ATOM     36  C   UNL A   1      39.029  29.209  29.204  1.00  0.00     0.049 A 
ATOM     37  N   UNL A   1      39.432  30.243  31.998  1.00  0.00    -0.248 NA
ATOM     38  C   UNL A   1      37.445  31.451  31.791  1.00  0.00     0.031 C 
ATOM     39  C   UNL A   1      38.937  28.755  27.814  1.00  0.00     0.029 A 
ATOM     40  N   UNL A   1      40.190  28.635  29.661  1.00  0.00    -0.354 N 
ATOM     41  C   UNL A   1      39.234  31.004  33.143  1.00  0.00     0.074 A 
ATOM     42  C   UNL A   1      38.029  31.776  32.935  1.00  0.00     0.031 C 
ATOM     43  C   UNL A   1      39.996  27.978  27.533  1.00  0.00     0.029 A 
ATOM     44  C   UNL A   1      40.855  27.898  28.710  1.00  0.00     0.049 A 
ATOM     45  H   UNL A   1      40.515  28.741  30.585  1.00  0.00     0.167 HD
ATOM     46  C   UNL A   1      39.965  31.028  34.281  1.00  0.00     0.034 A 
ATOM     47  C   UNL A   1      42.029  27.240  28.773  1.00  0.00     0.034 A 
ATOM     48  C   UNL A   1      41.127  30.213  34.507  1.00  0.00     0.049 A 
ATOM     49  C   UNL A   1      42.789  27.226  30.072  1.00  0.00     0.074 A 
ATOM     50  C   UNL A   1      41.878  30.087  35.662  1.00  0.00     0.029 A 
ATOM     51  N   UNL A   1      41.706  29.384  33.559  1.00  0.00    -0.354 N 
ATOM     52  N   UNL A   1      42.491  27.816  31.205  1.00  0.00    -0.248 NA
ATOM     53  C   UNL A   1      44.024  26.431  30.114  1.00  0.00     0.031 C 
ATOM     54  C   UNL A   1      42.915  29.183  35.411  1.00  0.00     0.029 A 
ATOM     55  C   UNL A   1      42.806  28.743  34.101  1.00  0.00     0.049 A 
ATOM     56  H   UNL A   1      41.382  29.268  32.638  1.00  0.00     0.167 HD
ATOM     57  C   UNL A   1      43.487  27.445  32.100  1.00  0.00     0.074 A 
ATOM     58  C   UNL A   1      44.382  26.558  31.385  1.00  0.00     0.031 C 
ATOM     59  C   UNL A   1      43.657  27.822  33.392  1.00  0.00     0.034 A 
BRANCH  46  60
ATOM     60  C   UNL A   1      39.477  31.911  35.397  1.00  0.00     0.023 A 
ATOM     61  C   UNL A   1      38.570  31.387  36.340  1.00  0.00     0.012 A 
ATOM     62  C   UNL A   1      39.930  33.237  35.536  1.00  0.00     0.148 A 
ATOM     63  C   UNL A   1      38.091  32.178  37.383  1.00  0.00     0.002 A 
ATOM     64  C   UNL A   1      39.479  34.007  36.603  1.00  0.00     0.091 A 
ATOM     65  F   UNL A   1      40.770  33.729  34.614  1.00  0.00    -0.205 F 
ATOM     66  C   UNL A   1      38.554  33.484  37.520  1.00  0.00     0.022 A 
BRANCH  64  67
ATOM     67  S   UNL A   1      40.072  35.677  36.899  1.00  0.00     0.127 S 
ATOM     68  O   UNL A   1      39.573  36.381  35.719  1.00  0.00    -0.237 OA
ATOM     69  O   UNL A   1      39.397  36.031  38.149  1.00  0.00    -0.237 OA
ATOM     70  O   UNL A   1      41.520  35.570  37.005  1.00  0.00    -0.744 OA
ENDBRANCH  64  67
ENDBRANCH  46  60
BRANCH  47  71
ATOM     71  C   UNL A   1      42.513  26.476  27.588  1.00  0.00     0.023 A 
ATOM     72  C   UNL A   1      43.371  27.108  26.667  1.00  0.00     0.012 A 
ATOM     73  C   UNL A   1      42.176  25.123  27.397  1.00  0.00     0.148 A 
ATOM     74  C   UNL A   1      43.865  26.411  25.563  1.00  0.00     0.002 A 
ATOM     75  C   UNL A   1      42.713  24.420  26.323  1.00  0.00     0.091 A 
ATOM     76  F   UNL A   1      41.346  24.543  28.277  1.00  0.00    -0.205 F 
ATOM     77  C   UNL A   1      43.547  25.066  25.398  1.00  0.00     0.022 A 
BRANCH  75  78
ATOM     78  S   UNL A   1      42.464  22.653  26.117  1.00  0.00     0.127 S 
ATOM     79  O   UNL A   1      43.188  22.112  27.265  1.00  0.00    -0.237 OA
ATOM     80  O   UNL A   1      41.007  22.537  26.197  1.00  0.00    -0.237 OA
ATOM     81  O   UNL A   1      43.015  22.335  24.806  1.00  0.00    -0.744 OA
ENDBRANCH  75  78
ENDBRANCH  47  71
BRANCH  59  82
ATOM     82  C   UNL A   1      44.849  27.272  34.128  1.00  0.00     0.023 A 
ATOM     83  C   UNL A   1      46.055  27.999  34.129  1.00  0.00     0.012 A 
ATOM     84  C   UNL A   1      44.749  26.090  34.889  1.00  0.00     0.148 A 
ATOM     85  C   UNL A   1      47.153  27.547  34.861  1.00  0.00     0.002 A 
ATOM     86  C   UNL A   1      45.834  25.669  35.648  1.00  0.00     0.091 A 
ATOM     87  F   UNL A   1      43.598  25.404  34.856  1.00  0.00    -0.205 F 
ATOM     88  C   UNL A   1      47.039  26.391  35.629  1.00  0.00     0.022 A 
BRANCH  86  89
ATOM     89  S   UNL A   1      45.748  24.241  36.735  1.00  0.00     0.127 S 
ATOM     90  O   UNL A   1      44.660  24.617  37.636  1.00  0.00    -0.237 OA
ATOM     91  O   UNL A   1      45.424  23.158  35.804  1.00  0.00    -0.237 OA
ATOM     92  O   UNL A   1      47.063  24.130  37.352  1.00  0.00    -0.744 OA
ENDBRANCH  86  89
ENDBRANCH  59  82
ENDBRANCH  33  34
ENDBRANCH  25  28
ENDBRANCH  23  24
ENDBRANCH  22  23
ENDBRANCH   1  22
TORSDOF 18
ENDMDL
