MODEL 1
REMARK VINA RESULT:     -13.0      0.000      0.000
REMARK SMILES C[C@H]1[C@H](C(=O)NCCCCNC(=O)c2ccc(-c3c4nc(c(-c5cccc(S(=O)(=O)[O-])c5F)c5ccc([nH]5)c(-c5cccc(S(=O)(=O)[O-])c5F)c5nc(c(-c6cccc(S(=O)(=O)[O-])c6F)c6ccc3[nH]6)C=C5)C=C4)cc2)CC[N@@H+]1Cc1ccc(C(F)(F)F)cc1
REMARK SMILES IDX 8 1 7 2 6 3 4 4 5 5 3 7 1 8 2 9 79 10 77 11 78 12 80 14
REMARK SMILES IDX 81 15 82 16 90 17 83 18 89 19 84 20 85 21 86 22 87 23 88 24
REMARK SMILES IDX 9 25 10 26 11 27 12 28 13 30 14 31 15 32 76 33 16 34 75 35
REMARK SMILES IDX 17 36 18 37 19 38 69 39 20 40 74 41 68 42 70 43 21 44 73 45
REMARK SMILES IDX 67 46 66 47 22 49 54 50 34 51 53 52 35 53 38 54 52 55 71 56
REMARK SMILES IDX 36 57 37 58 51 60 72 61 39 62 23 63 24 64 32 65 25 66 27 67
REMARK SMILES IDX 33 68 26 69 28 70 29 71 30 72 31 73 55 74 56 75 64 76 57 77
REMARK SMILES IDX 59 78 65 79 58 80 60 81 61 82 62 83 63 84 40 85 41 86 49 87
REMARK SMILES IDX 42 88 44 89 50 90 43 91 45 92 46 93 47 94 48 95
REMARK H PARENT 6 6 79 13 11 29 70 48 38 59
REMARK Flexibility Score: inf
ROOT
ATOM      1  C   UNL A   1      35.498  22.093  26.247  1.00  0.00     0.023 C 
ENDROOT
BRANCH   1   2
ATOM      2  C   UNL A   1      34.378  21.580  27.160  1.00  0.00     0.116 C 
BRANCH   2   3
ATOM      3  N   UNL A   1      33.216  21.155  26.413  1.00  0.00    -0.356 N 
ATOM      4  C   UNL A   1      32.237  21.866  25.803  1.00  0.00     0.229 C 
ATOM      5  O   UNL A   1      31.396  21.214  25.173  1.00  0.00    -0.275 OA
ATOM      6  H   UNL A   1      33.120  20.179  26.332  1.00  0.00     0.163 HD
BRANCH   4   7
ATOM      7  C   UNL A   1      32.144  23.390  25.782  1.00  0.00     0.142 C 
ATOM      8  C   UNL A   1      33.494  24.606  24.050  1.00  0.00     0.076 C 
ATOM      9  C   UNL A   1      32.083  24.146  24.442  1.00  0.00     0.193 C 
ATOM     10  N   UNL A   1      31.256  25.350  24.689  1.00  0.00    -0.328 N 
ATOM     11  C   UNL A   1      31.000  23.969  26.594  1.00  0.00     0.081 C 
ATOM     12  C   UNL A   1      31.001  25.417  26.126  1.00  0.00     0.263 C 
ATOM     13  H   UNL A   1      31.791  26.170  24.403  1.00  0.00     0.348 HD
BRANCH  10  14
ATOM     14  C   UNL A   1      30.105  25.590  23.796  1.00  0.00     0.299 C 
BRANCH  14  15
ATOM     15  C   UNL A   1      29.727  27.019  23.437  1.00  0.00     0.006 A 
ATOM     16  C   UNL A   1      28.382  27.409  23.382  1.00  0.00     0.010 A 
ATOM     17  C   UNL A   1      30.691  27.989  23.127  1.00  0.00     0.010 A 
ATOM     18  C   UNL A   1      28.039  28.756  23.212  1.00  0.00     0.013 A 
ATOM     19  C   UNL A   1      30.355  29.341  23.017  1.00  0.00     0.013 A 
ATOM     20  C   UNL A   1      29.023  29.745  23.115  1.00  0.00     0.056 A 
BRANCH  20  21
ATOM     21  C   UNL A   1      28.660  31.206  23.216  1.00  0.00     0.416 C 
ATOM     22  F   UNL A   1      29.179  31.820  24.311  1.00  0.00    -0.166 F 
ATOM     23  F   UNL A   1      29.122  31.908  22.140  1.00  0.00    -0.166 F 
ATOM     24  F   UNL A   1      27.318  31.428  23.254  1.00  0.00    -0.166 F 
ENDBRANCH  20  21
ENDBRANCH  14  15
ENDBRANCH  10  14
ENDBRANCH   4   7
ENDBRANCH   2   3
ENDBRANCH   1   2
BRANCH   1  25
ATOM     25  C   UNL A   1      36.206  21.012  25.417  1.00  0.00     0.023 C 
BRANCH  25  26
ATOM     26  C   UNL A   1      37.589  21.391  24.880  1.00  0.00     0.116 C 
BRANCH  26  27
ATOM     27  N   UNL A   1      38.635  20.437  25.213  1.00  0.00    -0.352 N 
ATOM     28  C   UNL A   1      39.691  20.570  26.093  1.00  0.00     0.251 C 
ATOM     29  H   UNL A   1      38.583  19.573  24.744  1.00  0.00     0.163 HD
ATOM     30  O   UNL A   1      40.464  19.639  26.253  1.00  0.00    -0.269 OA
BRANCH  28  31
ATOM     31  C   UNL A   1      39.928  21.867  26.773  1.00  0.00     0.039 A 
ATOM     32  C   UNL A   1      40.974  21.931  27.699  1.00  0.00     0.014 A 
ATOM     33  C   UNL A   1      39.212  23.018  26.444  1.00  0.00     0.014 A 
ATOM     34  C   UNL A   1      41.397  23.172  28.178  1.00  0.00     0.010 A 
ATOM     35  C   UNL A   1      39.674  24.260  26.870  1.00  0.00     0.010 A 
ATOM     36  C   UNL A   1      40.799  24.349  27.701  1.00  0.00    -0.014 A 
BRANCH  36  37
ATOM     37  C   UNL A   1      41.430  25.669  27.941  1.00  0.00     0.031 A 
ATOM     38  C   UNL A   1      40.684  26.777  28.620  1.00  0.00     0.074 A 
ATOM     39  C   UNL A   1      42.657  25.892  27.423  1.00  0.00     0.049 A 
ATOM     40  N   UNL A   1      41.085  27.992  28.888  1.00  0.00    -0.248 NA
ATOM     41  C   UNL A   1      39.299  26.495  29.030  1.00  0.00     0.031 C 
ATOM     42  C   UNL A   1      43.431  24.923  26.642  1.00  0.00     0.029 A 
ATOM     43  N   UNL A   1      43.455  27.007  27.447  1.00  0.00    -0.354 N 
ATOM     44  C   UNL A   1      40.000  28.628  29.476  1.00  0.00     0.074 A 
ATOM     45  C   UNL A   1      38.912  27.673  29.499  1.00  0.00     0.031 C 
ATOM     46  C   UNL A   1      44.591  25.482  26.267  1.00  0.00     0.029 A 
ATOM     47  C   UNL A   1      44.640  26.852  26.764  1.00  0.00     0.049 A 
ATOM     48  H   UNL A   1      43.205  27.839  27.909  1.00  0.00     0.167 HD
ATOM     49  C   UNL A   1      39.930  29.885  29.977  1.00  0.00     0.034 A 
ATOM     50  C   UNL A   1      45.654  27.715  26.564  1.00  0.00     0.034 A 
ATOM     51  C   UNL A   1      41.027  30.814  29.977  1.00  0.00     0.049 A 
ATOM     52  C   UNL A   1      45.577  29.078  27.194  1.00  0.00     0.074 A 
ATOM     53  C   UNL A   1      41.090  32.075  30.541  1.00  0.00     0.029 A 
ATOM     54  N   UNL A   1      42.257  30.584  29.376  1.00  0.00    -0.354 N 
ATOM     55  N   UNL A   1      44.615  29.596  27.918  1.00  0.00    -0.248 NA
ATOM     56  C   UNL A   1      46.740  29.959  27.019  1.00  0.00     0.031 C 
ATOM     57  C   UNL A   1      42.354  32.613  30.272  1.00  0.00     0.029 A 
ATOM     58  C   UNL A   1      43.083  31.681  29.550  1.00  0.00     0.049 A 
ATOM     59  H   UNL A   1      42.504  29.762  28.895  1.00  0.00     0.167 HD
ATOM     60  C   UNL A   1      45.066  30.848  28.312  1.00  0.00     0.074 A 
ATOM     61  C   UNL A   1      46.399  31.003  27.764  1.00  0.00     0.031 C 
ATOM     62  C   UNL A   1      44.427  31.794  29.045  1.00  0.00     0.034 A 
BRANCH  49  63
ATOM     63  C   UNL A   1      38.638  30.300  30.632  1.00  0.00     0.023 A 
ATOM     64  C   UNL A   1      38.426  29.987  31.991  1.00  0.00     0.012 A 
ATOM     65  C   UNL A   1      37.661  31.036  29.932  1.00  0.00     0.148 A 
ATOM     66  C   UNL A   1      37.249  30.367  32.634  1.00  0.00     0.002 A 
ATOM     67  C   UNL A   1      36.506  31.444  30.592  1.00  0.00     0.091 A 
ATOM     68  F   UNL A   1      37.870  31.306  28.637  1.00  0.00    -0.205 F 
ATOM     69  C   UNL A   1      36.295  31.103  31.937  1.00  0.00     0.022 A 
BRANCH  67  70
ATOM     70  S   UNL A   1      35.247  32.451  29.800  1.00  0.00     0.127 S 
ATOM     71  O   UNL A   1      34.756  31.548  28.761  1.00  0.00    -0.237 OA
ATOM     72  O   UNL A   1      34.305  32.688  30.895  1.00  0.00    -0.237 OA
ATOM     73  O   UNL A   1      35.932  33.645  29.323  1.00  0.00    -0.744 OA
ENDBRANCH  67  70
ENDBRANCH  49  63
BRANCH  50  74
ATOM     74  C   UNL A   1      46.868  27.273  25.819  1.00  0.00     0.023 A 
ATOM     75  C   UNL A   1      47.774  26.394  26.444  1.00  0.00     0.012 A 
ATOM     76  C   UNL A   1      47.104  27.669  24.489  1.00  0.00     0.148 A 
ATOM     77  C   UNL A   1      48.905  25.938  25.767  1.00  0.00     0.002 A 
ATOM     78  C   UNL A   1      48.206  27.171  23.803  1.00  0.00     0.091 A 
ATOM     79  F   UNL A   1      46.238  28.517  23.914  1.00  0.00    -0.205 F 
ATOM     80  C   UNL A   1      49.115  26.316  24.444  1.00  0.00     0.022 A 
BRANCH  78  81
ATOM     81  S   UNL A   1      48.473  27.500  22.056  1.00  0.00     0.127 S 
ATOM     82  O   UNL A   1      49.623  28.400  22.093  1.00  0.00    -0.237 OA
ATOM     83  O   UNL A   1      48.752  26.164  21.530  1.00  0.00    -0.237 OA
ATOM     84  O   UNL A   1      47.224  28.078  21.577  1.00  0.00    -0.744 OA
ENDBRANCH  78  81
ENDBRANCH  50  74
BRANCH  62  85
ATOM     85  C   UNL A   1      45.166  33.076  29.316  1.00  0.00     0.023 A 
ATOM     86  C   UNL A   1      45.984  33.177  30.458  1.00  0.00     0.012 A 
ATOM     87  C   UNL A   1      45.112  34.148  28.404  1.00  0.00     0.148 A 
ATOM     88  C   UNL A   1      46.721  34.336  30.701  1.00  0.00     0.002 A 
ATOM     89  C   UNL A   1      45.881  35.283  28.630  1.00  0.00     0.091 A 
ATOM     90  F   UNL A   1      44.307  34.042  27.337  1.00  0.00    -0.205 F 
ATOM     91  C   UNL A   1      46.679  35.383  29.782  1.00  0.00     0.022 A 
BRANCH  89  92
ATOM     92  S   UNL A   1      45.956  36.637  27.452  1.00  0.00     0.127 S 
ATOM     93  O   UNL A   1      46.432  35.958  26.248  1.00  0.00    -0.237 OA
ATOM     94  O   UNL A   1      44.563  37.080  27.392  1.00  0.00    -0.237 OA
ATOM     95  O   UNL A   1      46.872  37.613  28.028  1.00  0.00    -0.744 OA
ENDBRANCH  89  92
ENDBRANCH  62  85
ENDBRANCH  36  37
ENDBRANCH  28  31
ENDBRANCH  26  27
ENDBRANCH  25  26
ENDBRANCH   1  25
TORSDOF 17
ENDMDL
MODEL 2
REMARK VINA RESULT:     -13.0      1.439      2.016
REMARK SMILES C[C@H]1[C@H](C(=O)NCCCCNC(=O)c2ccc(-c3c4nc(c(-c5cccc(S(=O)(=O)[O-])c5F)c5ccc([nH]5)c(-c5cccc(S(=O)(=O)[O-])c5F)c5nc(c(-c6cccc(S(=O)(=O)[O-])c6F)c6ccc3[nH]6)C=C5)C=C4)cc2)CC[N@@H+]1Cc1ccc(C(F)(F)F)cc1
REMARK SMILES IDX 8 1 7 2 6 3 4 4 5 5 3 7 1 8 2 9 79 10 77 11 78 12 80 14
REMARK SMILES IDX 81 15 82 16 90 17 83 18 89 19 84 20 85 21 86 22 87 23 88 24
REMARK SMILES IDX 9 25 10 26 11 27 12 28 13 30 14 31 15 32 76 33 16 34 75 35
REMARK SMILES IDX 17 36 18 37 19 38 69 39 20 40 74 41 68 42 70 43 21 44 73 45
REMARK SMILES IDX 67 46 66 47 22 49 54 50 34 51 53 52 35 53 38 54 52 55 71 56
REMARK SMILES IDX 36 57 37 58 51 60 72 61 39 62 23 63 24 64 32 65 25 66 27 67
REMARK SMILES IDX 33 68 26 69 28 70 29 71 30 72 31 73 55 74 56 75 64 76 57 77
REMARK SMILES IDX 59 78 65 79 58 80 60 81 61 82 62 83 63 84 40 85 41 86 49 87
REMARK SMILES IDX 42 88 44 89 50 90 43 91 45 92 46 93 47 94 48 95
REMARK H PARENT 6 6 79 13 11 29 70 48 38 59
REMARK Flexibility Score: inf
ROOT
ATOM      1  C   UNL A   1      35.447  21.922  25.774  1.00  0.00     0.023 C 
ENDROOT
BRANCH   1   2
ATOM      2  C   UNL A   1      34.403  21.548  26.832  1.00  0.00     0.116 C 
BRANCH   2   3
ATOM      3  N   UNL A   1      33.584  20.431  26.419  1.00  0.00    -0.356 N 
ATOM      4  C   UNL A   1      32.625  20.330  25.468  1.00  0.00     0.229 C 
ATOM      5  O   UNL A   1      32.137  19.205  25.297  1.00  0.00    -0.275 OA
ATOM      6  H   UNL A   1      33.753  19.598  26.916  1.00  0.00     0.163 HD
BRANCH   4   7
ATOM      7  C   UNL A   1      32.165  21.470  24.562  1.00  0.00     0.142 C 
ATOM      8  C   UNL A   1      30.882  23.347  25.626  1.00  0.00     0.076 C 
ATOM      9  C   UNL A   1      32.242  22.928  25.049  1.00  0.00     0.193 C 
ATOM     10  N   UNL A   1      32.505  23.749  23.843  1.00  0.00    -0.328 N 
ATOM     11  C   UNL A   1      32.818  21.495  23.191  1.00  0.00     0.081 C 
ATOM     12  C   UNL A   1      32.398  22.867  22.684  1.00  0.00     0.263 C 
ATOM     13  H   UNL A   1      31.787  24.471  23.785  1.00  0.00     0.348 HD
BRANCH  10  14
ATOM     14  C   UNL A   1      33.658  24.670  23.876  1.00  0.00     0.299 C 
BRANCH  14  15
ATOM     15  C   UNL A   1      33.477  26.067  24.451  1.00  0.00     0.006 A 
ATOM     16  C   UNL A   1      33.080  27.131  23.629  1.00  0.00     0.010 A 
ATOM     17  C   UNL A   1      33.718  26.354  25.802  1.00  0.00     0.010 A 
ATOM     18  C   UNL A   1      32.757  28.376  24.183  1.00  0.00     0.013 A 
ATOM     19  C   UNL A   1      33.341  27.575  26.366  1.00  0.00     0.013 A 
ATOM     20  C   UNL A   1      32.801  28.583  25.566  1.00  0.00     0.056 A 
BRANCH  20  21
ATOM     21  C   UNL A   1      32.190  29.818  26.180  1.00  0.00     0.416 C 
ATOM     22  F   UNL A   1      33.103  30.769  26.509  1.00  0.00    -0.166 F 
ATOM     23  F   UNL A   1      31.317  30.421  25.321  1.00  0.00    -0.166 F 
ATOM     24  F   UNL A   1      31.479  29.565  27.313  1.00  0.00    -0.166 F 
ENDBRANCH  20  21
ENDBRANCH  14  15
ENDBRANCH  10  14
ENDBRANCH   4   7
ENDBRANCH   2   3
ENDBRANCH   1   2
BRANCH   1  25
ATOM     25  C   UNL A   1      36.404  20.788  25.376  1.00  0.00     0.023 C 
BRANCH  25  26
ATOM     26  C   UNL A   1      37.804  21.227  24.941  1.00  0.00     0.116 C 
BRANCH  26  27
ATOM     27  N   UNL A   1      38.860  20.302  25.322  1.00  0.00    -0.352 N 
ATOM     28  C   UNL A   1      39.897  20.480  26.218  1.00  0.00     0.251 C 
ATOM     29  H   UNL A   1      38.832  19.423  24.878  1.00  0.00     0.163 HD
ATOM     30  O   UNL A   1      40.682  19.567  26.420  1.00  0.00    -0.269 OA
BRANCH  28  31
ATOM     31  C   UNL A   1      40.098  21.800  26.863  1.00  0.00     0.039 A 
ATOM     32  C   UNL A   1      41.104  21.902  27.829  1.00  0.00     0.014 A 
ATOM     33  C   UNL A   1      39.390  22.934  26.466  1.00  0.00     0.014 A 
ATOM     34  C   UNL A   1      41.501  23.160  28.283  1.00  0.00     0.010 A 
ATOM     35  C   UNL A   1      39.828  24.193  26.869  1.00  0.00     0.010 A 
ATOM     36  C   UNL A   1      40.917  24.317  27.742  1.00  0.00    -0.014 A 
BRANCH  36  37
ATOM     37  C   UNL A   1      41.530  25.649  27.964  1.00  0.00     0.031 A 
ATOM     38  C   UNL A   1      40.779  26.747  28.652  1.00  0.00     0.074 A 
ATOM     39  C   UNL A   1      42.743  25.889  27.421  1.00  0.00     0.049 A 
ATOM     40  N   UNL A   1      41.165  27.970  28.907  1.00  0.00    -0.248 NA
ATOM     41  C   UNL A   1      39.407  26.444  29.091  1.00  0.00     0.031 C 
ATOM     42  C   UNL A   1      43.517  24.929  26.629  1.00  0.00     0.029 A 
ATOM     43  N   UNL A   1      43.523  27.017  27.424  1.00  0.00    -0.354 N 
ATOM     44  C   UNL A   1      40.082  28.591  29.513  1.00  0.00     0.074 A 
ATOM     45  C   UNL A   1      39.011  27.619  29.562  1.00  0.00     0.031 C 
ATOM     46  C   UNL A   1      44.661  25.506  26.229  1.00  0.00     0.029 A 
ATOM     47  C   UNL A   1      44.697  26.878  26.718  1.00  0.00     0.049 A 
ATOM     48  H   UNL A   1      43.268  27.847  27.887  1.00  0.00     0.167 HD
ATOM     49  C   UNL A   1      40.000  29.849  30.010  1.00  0.00     0.034 A 
ATOM     50  C   UNL A   1      45.693  27.757  26.495  1.00  0.00     0.034 A 
ATOM     51  C   UNL A   1      41.082  30.796  29.983  1.00  0.00     0.049 A 
ATOM     52  C   UNL A   1      45.605  29.122  27.120  1.00  0.00     0.074 A 
ATOM     53  C   UNL A   1      41.135  32.061  30.540  1.00  0.00     0.029 A 
ATOM     54  N   UNL A   1      42.303  30.584  29.360  1.00  0.00    -0.354 N 
ATOM     55  N   UNL A   1      44.648  29.627  27.861  1.00  0.00    -0.248 NA
ATOM     56  C   UNL A   1      46.749  30.021  26.918  1.00  0.00     0.031 C 
ATOM     57  C   UNL A   1      42.385  32.618  30.244  1.00  0.00     0.029 A 
ATOM     58  C   UNL A   1      43.114  31.695  29.513  1.00  0.00     0.049 A 
ATOM     59  H   UNL A   1      42.555  29.763  28.878  1.00  0.00     0.167 HD
ATOM     60  C   UNL A   1      45.086  30.889  28.239  1.00  0.00     0.074 A 
ATOM     61  C   UNL A   1      46.406  31.063  27.665  1.00  0.00     0.031 C 
ATOM     62  C   UNL A   1      44.447  31.828  28.981  1.00  0.00     0.034 A 
BRANCH  49  63
ATOM     63  C   UNL A   1      38.715  30.246  30.687  1.00  0.00     0.023 A 
ATOM     64  C   UNL A   1      38.514  29.892  32.038  1.00  0.00     0.012 A 
ATOM     65  C   UNL A   1      37.734  31.004  30.019  1.00  0.00     0.148 A 
ATOM     66  C   UNL A   1      37.344  30.254  32.702  1.00  0.00     0.002 A 
ATOM     67  C   UNL A   1      36.585  31.393  30.700  1.00  0.00     0.091 A 
ATOM     68  F   UNL A   1      37.932  31.313  28.730  1.00  0.00    -0.205 F 
ATOM     69  C   UNL A   1      36.385  31.012  32.037  1.00  0.00     0.022 A 
BRANCH  67  70
ATOM     70  S   UNL A   1      35.321  32.426  29.950  1.00  0.00     0.127 S 
ATOM     71  O   UNL A   1      34.382  32.595  31.058  1.00  0.00    -0.237 OA
ATOM     72  O   UNL A   1      36.073  33.633  29.601  1.00  0.00    -0.237 OA
ATOM     73  O   UNL A   1      34.817  31.677  28.808  1.00  0.00    -0.744 OA
ENDBRANCH  67  70
ENDBRANCH  49  63
BRANCH  50  74
ATOM     74  C   UNL A   1      46.899  27.331  25.729  1.00  0.00     0.023 A 
ATOM     75  C   UNL A   1      47.832  26.472  26.340  1.00  0.00     0.012 A 
ATOM     76  C   UNL A   1      47.100  27.723  24.391  1.00  0.00     0.148 A 
ATOM     77  C   UNL A   1      48.958  26.033  25.644  1.00  0.00     0.002 A 
ATOM     78  C   UNL A   1      48.197  27.240  23.686  1.00  0.00     0.091 A 
ATOM     79  F   UNL A   1      46.208  28.551  23.828  1.00  0.00    -0.205 F 
ATOM     80  C   UNL A   1      49.134  26.405  24.314  1.00  0.00     0.022 A 
BRANCH  78  81
ATOM     81  S   UNL A   1      48.423  27.561  21.932  1.00  0.00     0.127 S 
ATOM     82  O   UNL A   1      47.151  28.184  21.575  1.00  0.00    -0.237 OA
ATOM     83  O   UNL A   1      49.575  28.464  21.929  1.00  0.00    -0.237 OA
ATOM     84  O   UNL A   1      48.689  26.259  21.333  1.00  0.00    -0.744 OA
ENDBRANCH  78  81
ENDBRANCH  50  74
BRANCH  62  85
ATOM     85  C   UNL A   1      45.169  33.123  29.231  1.00  0.00     0.023 A 
ATOM     86  C   UNL A   1      46.008  33.243  30.356  1.00  0.00     0.012 A 
ATOM     87  C   UNL A   1      45.079  34.190  28.316  1.00  0.00     0.148 A 
ATOM     88  C   UNL A   1      46.730  34.415  30.579  1.00  0.00     0.002 A 
ATOM     89  C   UNL A   1      45.833  35.338  28.522  1.00  0.00     0.091 A 
ATOM     90  F   UNL A   1      44.254  34.065  27.266  1.00  0.00    -0.205 F 
ATOM     91  C   UNL A   1      46.653  35.456  29.656  1.00  0.00     0.022 A 
BRANCH  89  92
ATOM     92  S   UNL A   1      45.862  36.688  27.337  1.00  0.00     0.127 S 
ATOM     93  O   UNL A   1      46.762  37.638  27.988  1.00  0.00    -0.237 OA
ATOM     94  O   UNL A   1      46.413  36.047  26.142  1.00  0.00    -0.237 OA
ATOM     95  O   UNL A   1      44.478  37.124  27.199  1.00  0.00    -0.744 OA
ENDBRANCH  89  92
ENDBRANCH  62  85
ENDBRANCH  36  37
ENDBRANCH  28  31
ENDBRANCH  26  27
ENDBRANCH  25  26
ENDBRANCH   1  25
TORSDOF 17
ENDMDL
MODEL 3
REMARK VINA RESULT:     -13.0      5.428      8.460
REMARK SMILES C[C@H]1[C@H](C(=O)NCCCCNC(=O)c2ccc(-c3c4nc(c(-c5cccc(S(=O)(=O)[O-])c5F)c5ccc([nH]5)c(-c5cccc(S(=O)(=O)[O-])c5F)c5nc(c(-c6cccc(S(=O)(=O)[O-])c6F)c6ccc3[nH]6)C=C5)C=C4)cc2)CC[N@@H+]1Cc1ccc(C(F)(F)F)cc1
REMARK SMILES IDX 8 1 7 2 6 3 4 4 5 5 3 7 1 8 2 9 79 10 77 11 78 12 80 14
REMARK SMILES IDX 81 15 82 16 90 17 83 18 89 19 84 20 85 21 86 22 87 23 88 24
REMARK SMILES IDX 9 25 10 26 11 27 12 28 13 30 14 31 15 32 76 33 16 34 75 35
REMARK SMILES IDX 17 36 18 37 19 38 69 39 20 40 74 41 68 42 70 43 21 44 73 45
REMARK SMILES IDX 67 46 66 47 22 49 54 50 34 51 53 52 35 53 38 54 52 55 71 56
REMARK SMILES IDX 36 57 37 58 51 60 72 61 39 62 23 63 24 64 32 65 25 66 27 67
REMARK SMILES IDX 33 68 26 69 28 70 29 71 30 72 31 73 55 74 56 75 64 76 57 77
REMARK SMILES IDX 59 78 65 79 58 80 60 81 61 82 62 83 63 84 40 85 41 86 49 87
REMARK SMILES IDX 42 88 44 89 50 90 43 91 45 92 46 93 47 94 48 95
REMARK H PARENT 6 6 79 13 11 29 70 48 38 59
REMARK Flexibility Score: inf
ROOT
ATOM      1  C   UNL A   1      32.846  29.441  24.561  1.00  0.00     0.023 C 
ENDROOT
BRANCH   1   2
ATOM      2  C   UNL A   1      32.341  28.553  23.418  1.00  0.00     0.116 C 
BRANCH   2   3
ATOM      3  N   UNL A   1      33.159  27.375  23.240  1.00  0.00    -0.356 N 
ATOM      4  C   UNL A   1      32.935  26.075  23.552  1.00  0.00     0.229 C 
ATOM      5  O   UNL A   1      33.811  25.270  23.211  1.00  0.00    -0.275 OA
ATOM      6  H   UNL A   1      34.032  27.547  22.819  1.00  0.00     0.163 HD
BRANCH   4   7
ATOM      7  C   UNL A   1      31.669  25.539  24.216  1.00  0.00     0.142 C 
ATOM      8  C   UNL A   1      30.546  23.568  23.143  1.00  0.00     0.076 C 
ATOM      9  C   UNL A   1      31.426  24.022  24.315  1.00  0.00     0.193 C 
ATOM     10  N   UNL A   1      30.669  23.810  25.571  1.00  0.00    -0.328 N 
ATOM     11  C   UNL A   1      31.423  26.053  25.623  1.00  0.00     0.081 C 
ATOM     12  C   UNL A   1      30.310  25.127  26.092  1.00  0.00     0.263 C 
ATOM     13  H   UNL A   1      29.819  23.292  25.349  1.00  0.00     0.348 HD
BRANCH  10  14
ATOM     14  C   UNL A   1      31.204  22.833  26.540  1.00  0.00     0.299 C 
BRANCH  14  15
ATOM     15  C   UNL A   1      32.612  22.292  26.350  1.00  0.00     0.006 A 
ATOM     16  C   UNL A   1      32.832  21.114  25.623  1.00  0.00     0.010 A 
ATOM     17  C   UNL A   1      33.735  22.924  26.903  1.00  0.00     0.010 A 
ATOM     18  C   UNL A   1      34.133  20.703  25.310  1.00  0.00     0.013 A 
ATOM     19  C   UNL A   1      35.032  22.551  26.542  1.00  0.00     0.013 A 
ATOM     20  C   UNL A   1      35.242  21.465  25.692  1.00  0.00     0.056 A 
BRANCH  20  21
ATOM     21  C   UNL A   1      36.608  21.179  25.120  1.00  0.00     0.416 C 
ATOM     22  F   UNL A   1      37.628  21.630  25.897  1.00  0.00    -0.166 F 
ATOM     23  F   UNL A   1      36.815  19.837  24.974  1.00  0.00    -0.166 F 
ATOM     24  F   UNL A   1      36.802  21.719  23.886  1.00  0.00    -0.166 F 
ENDBRANCH  20  21
ENDBRANCH  14  15
ENDBRANCH  10  14
ENDBRANCH   4   7
ENDBRANCH   2   3
ENDBRANCH   1   2
BRANCH   1  25
ATOM     25  C   UNL A   1      31.745  30.086  25.417  1.00  0.00     0.023 C 
BRANCH  25  26
ATOM     26  C   UNL A   1      32.124  30.375  26.872  1.00  0.00     0.116 C 
BRANCH  26  27
ATOM     27  N   UNL A   1      32.200  31.792  27.193  1.00  0.00    -0.352 N 
ATOM     28  C   UNL A   1      33.291  32.540  27.595  1.00  0.00     0.251 C 
ATOM     29  H   UNL A   1      31.354  32.289  27.114  1.00  0.00     0.163 HD
ATOM     30  O   UNL A   1      33.158  33.735  27.803  1.00  0.00    -0.269 OA
BRANCH  28  31
ATOM     31  C   UNL A   1      34.590  31.873  27.850  1.00  0.00     0.039 A 
ATOM     32  C   UNL A   1      35.721  32.686  27.978  1.00  0.00     0.014 A 
ATOM     33  C   UNL A   1      34.689  30.497  28.058  1.00  0.00     0.014 A 
ATOM     34  C   UNL A   1      36.912  32.142  28.460  1.00  0.00     0.010 A 
ATOM     35  C   UNL A   1      35.857  29.966  28.600  1.00  0.00     0.010 A 
ATOM     36  C   UNL A   1      36.960  30.794  28.850  1.00  0.00    -0.014 A 
BRANCH  36  37
ATOM     37  C   UNL A   1      38.096  30.278  29.653  1.00  0.00     0.031 A 
ATOM     38  C   UNL A   1      38.335  30.750  31.055  1.00  0.00     0.074 A 
ATOM     39  C   UNL A   1      38.984  29.462  29.048  1.00  0.00     0.049 A 
ATOM     40  N   UNL A   1      39.290  30.411  31.881  1.00  0.00    -0.248 NA
ATOM     41  C   UNL A   1      37.398  31.749  31.592  1.00  0.00     0.031 C 
ATOM     42  C   UNL A   1      38.914  29.029  27.649  1.00  0.00     0.029 A 
ATOM     43  N   UNL A   1      40.131  28.874  29.516  1.00  0.00    -0.354 N 
ATOM     44  C   UNL A   1      39.086  31.169  33.027  1.00  0.00     0.074 A 
ATOM     45  C   UNL A   1      37.932  32.008  32.778  1.00  0.00     0.031 C 
ATOM     46  C   UNL A   1      39.966  28.243  27.376  1.00  0.00     0.029 A 
ATOM     47  C   UNL A   1      40.795  28.127  28.570  1.00  0.00     0.049 A 
ATOM     48  H   UNL A   1      40.450  28.977  30.442  1.00  0.00     0.167 HD
ATOM     49  C   UNL A   1      39.780  31.144  34.190  1.00  0.00     0.034 A 
ATOM     50  C   UNL A   1      41.940  27.424  28.655  1.00  0.00     0.034 A 
ATOM     51  C   UNL A   1      40.906  30.283  34.436  1.00  0.00     0.049 A 
ATOM     52  C   UNL A   1      42.649  27.357  29.980  1.00  0.00     0.074 A 
ATOM     53  C   UNL A   1      41.620  30.112  35.608  1.00  0.00     0.029 A 
ATOM     54  N   UNL A   1      41.485  29.450  33.490  1.00  0.00    -0.354 N 
ATOM     55  N   UNL A   1      42.328  27.931  31.114  1.00  0.00    -0.248 NA
ATOM     56  C   UNL A   1      43.850  26.514  30.051  1.00  0.00     0.031 C 
ATOM     57  C   UNL A   1      42.640  29.183  35.367  1.00  0.00     0.029 A 
ATOM     58  C   UNL A   1      42.552  28.767  34.048  1.00  0.00     0.049 A 
ATOM     59  H   UNL A   1      41.183  29.359  32.557  1.00  0.00     0.167 HD
ATOM     60  C   UNL A   1      43.266  27.495  32.040  1.00  0.00     0.074 A 
ATOM     61  C   UNL A   1      44.156  26.590  31.339  1.00  0.00     0.031 C 
ATOM     62  C   UNL A   1      43.392  27.828  33.349  1.00  0.00     0.034 A 
BRANCH  49  63
ATOM     63  C   UNL A   1      39.294  32.027  35.308  1.00  0.00     0.023 A 
ATOM     64  C   UNL A   1      38.345  31.520  36.221  1.00  0.00     0.012 A 
ATOM     65  C   UNL A   1      39.801  33.328  35.492  1.00  0.00     0.148 A 
ATOM     66  C   UNL A   1      37.882  32.304  37.276  1.00  0.00     0.002 A 
ATOM     67  C   UNL A   1      39.362  34.090  36.570  1.00  0.00     0.091 A 
ATOM     68  F   UNL A   1      40.686  33.802  34.604  1.00  0.00    -0.205 F 
ATOM     69  C   UNL A   1      38.398  33.584  37.456  1.00  0.00     0.022 A 
BRANCH  67  70
ATOM     70  S   UNL A   1      40.014  35.726  36.926  1.00  0.00     0.127 S 
ATOM     71  O   UNL A   1      39.316  36.059  38.166  1.00  0.00    -0.237 OA
ATOM     72  O   UNL A   1      41.445  35.462  37.085  1.00  0.00    -0.237 OA
ATOM     73  O   UNL A   1      39.676  36.550  35.774  1.00  0.00    -0.744 OA
ENDBRANCH  67  70
ENDBRANCH  49  63
BRANCH  50  74
ATOM     74  C   UNL A   1      42.423  26.647  27.478  1.00  0.00     0.023 A 
ATOM     75  C   UNL A   1      43.252  27.280  26.532  1.00  0.00     0.012 A 
ATOM     76  C   UNL A   1      42.116  25.282  27.317  1.00  0.00     0.148 A 
ATOM     77  C   UNL A   1      43.744  26.576  25.433  1.00  0.00     0.002 A 
ATOM     78  C   UNL A   1      42.652  24.574  26.248  1.00  0.00     0.091 A 
ATOM     79  F   UNL A   1      41.316  24.698  28.221  1.00  0.00    -0.205 F 
ATOM     80  C   UNL A   1      43.455  25.221  25.297  1.00  0.00     0.022 A 
BRANCH  78  81
ATOM     81  S   UNL A   1      42.441  22.796  26.076  1.00  0.00     0.127 S 
ATOM     82  O   UNL A   1      40.990  22.656  26.177  1.00  0.00    -0.237 OA
ATOM     83  O   UNL A   1      42.994  22.547  24.745  1.00  0.00    -0.237 OA
ATOM     84  O   UNL A   1      43.218  22.210  27.161  1.00  0.00    -0.744 OA
ENDBRANCH  78  81
ENDBRANCH  50  74
BRANCH  62  85
ATOM     85  C   UNL A   1      44.521  27.199  34.119  1.00  0.00     0.023 A 
ATOM     86  C   UNL A   1      45.767  27.852  34.179  1.00  0.00     0.012 A 
ATOM     87  C   UNL A   1      44.326  26.007  34.844  1.00  0.00     0.148 A 
ATOM     88  C   UNL A   1      46.812  27.315  34.931  1.00  0.00     0.002 A 
ATOM     89  C   UNL A   1      45.357  25.500  35.625  1.00  0.00     0.091 A 
ATOM     90  F   UNL A   1      43.140  25.388  34.752  1.00  0.00    -0.205 F 
ATOM     91  C   UNL A   1      46.603  26.148  35.663  1.00  0.00     0.022 A 
BRANCH  89  92
ATOM     92  S   UNL A   1      45.144  24.054  36.668  1.00  0.00     0.127 S 
ATOM     93  O   UNL A   1      46.527  23.735  37.022  1.00  0.00    -0.237 OA
ATOM     94  O   UNL A   1      44.339  24.578  37.772  1.00  0.00    -0.237 OA
ATOM     95  O   UNL A   1      44.461  23.067  35.843  1.00  0.00    -0.744 OA
ENDBRANCH  89  92
ENDBRANCH  62  85
ENDBRANCH  36  37
ENDBRANCH  28  31
ENDBRANCH  26  27
ENDBRANCH  25  26
ENDBRANCH   1  25
TORSDOF 17
ENDMDL
