MODEL 1
REMARK VINA RESULT:     -11.6      0.000      0.000
REMARK SMILES O=C(NCCCCNC(=O)c1ccc(-c2c3nc(c(-c4cccc(S(=O)(=O)[O-])c4F)c4ccc([nH]4)c(-c4cccc(S(=O)(=O)[O-])c4F)c4nc(c(-c5cccc(S(=O)(=O)[O-])c5F)c5ccc2[nH]5)C=C4)C=C3)cc1)c1ccc(OCc2cc(Cl)ccc2[N+](=O)[O-])cc1
REMARK SMILES IDX 5 1 4 2 3 3 1 4 2 5 74 7 75 8 91 9 76 10 90 11 77 12 78 13
REMARK SMILES IDX 79 14 80 15 81 16 86 17 82 18 85 19 83 20 84 21 87 22 88 23
REMARK SMILES IDX 89 24 6 25 7 26 8 27 9 28 10 30 11 31 12 32 73 33 13 34
REMARK SMILES IDX 72 35 14 36 15 37 16 38 66 39 17 40 71 41 65 42 67 43 18 44
REMARK SMILES IDX 70 45 64 46 63 47 19 49 51 50 31 51 50 52 32 53 35 54 49 55
REMARK SMILES IDX 68 56 33 57 34 58 48 60 69 61 36 62 20 63 21 64 29 65 22 66
REMARK SMILES IDX 24 67 30 68 23 69 25 70 26 71 27 72 28 73 52 74 53 75 61 76
REMARK SMILES IDX 54 77 56 78 62 79 55 80 57 81 58 82 59 83 60 84 37 85 38 86
REMARK SMILES IDX 46 87 39 88 41 89 47 90 40 91 42 92 43 93 44 94 45 95
REMARK H PARENT 3 6 8 29 67 48 35 59
REMARK Flexibility Score: inf
ROOT
ATOM      1  C   UNL A   1      33.652  29.113  24.180  1.00  0.00     0.023 C 
ENDROOT
BRANCH   1   2
ATOM      2  C   UNL A   1      33.304  28.738  22.744  1.00  0.00     0.116 C 
BRANCH   2   3
ATOM      3  N   UNL A   1      31.974  29.197  22.376  1.00  0.00    -0.352 N 
ATOM      4  O   UNL A   1      29.790  28.925  21.847  1.00  0.00    -0.269 OA
ATOM      5  C   UNL A   1      30.795  28.499  22.411  1.00  0.00     0.251 C 
ATOM      6  H   UNL A   1      31.914  30.127  22.062  1.00  0.00     0.163 HD
BRANCH   5   7
ATOM      7  C   UNL A   1      30.736  27.215  23.133  1.00  0.00     0.040 A 
ATOM      8  C   UNL A   1      31.042  26.026  22.467  1.00  0.00     0.017 A 
ATOM      9  C   UNL A   1      30.426  27.204  24.497  1.00  0.00     0.017 A 
ATOM     10  C   UNL A   1      30.992  24.823  23.156  1.00  0.00     0.047 A 
ATOM     11  C   UNL A   1      30.420  25.995  25.199  1.00  0.00     0.047 A 
ATOM     12  C   UNL A   1      30.741  24.813  24.530  1.00  0.00     0.119 A 
BRANCH  12  13
ATOM     13  O   UNL A   1      30.967  23.596  25.103  1.00  0.00    -0.489 OA
BRANCH  13  14
ATOM     14  C   UNL A   1      32.032  23.445  26.034  1.00  0.00     0.272 C 
BRANCH  14  15
ATOM     15  C   UNL A   1      33.372  22.879  25.584  1.00  0.00     0.068 A 
ATOM     16  C   UNL A   1      34.514  23.558  26.066  1.00  0.00     0.035 A 
ATOM     17  C   UNL A   1      33.600  21.768  24.749  1.00  0.00     0.276 A 
ATOM     18  C   UNL A   1      35.803  23.195  25.666  1.00  0.00     0.041 A 
ATOM     19  C   UNL A   1      34.893  21.446  24.292  1.00  0.00     0.087 A 
ATOM     20  Cl  UNL A   1      37.161  24.019  26.324  1.00  0.00    -0.084 Cl
ATOM     21  C   UNL A   1      35.994  22.168  24.749  1.00  0.00     0.027 A 
BRANCH  17  22
ATOM     22  N   UNL A   1      32.553  20.811  24.404  1.00  0.00     0.063 N 
ATOM     23  O   UNL A   1      32.128  20.082  25.311  1.00  0.00    -0.258 OA
ATOM     24  O   UNL A   1      32.099  20.865  23.253  1.00  0.00    -0.258 OA
ENDBRANCH  17  22
ENDBRANCH  14  15
ENDBRANCH  13  14
ENDBRANCH  12  13
ENDBRANCH   5   7
ENDBRANCH   2   3
ENDBRANCH   1   2
BRANCH   1  25
ATOM     25  C   UNL A   1      33.890  27.919  25.102  1.00  0.00     0.023 C 
BRANCH  25  26
ATOM     26  C   UNL A   1      34.005  28.261  26.582  1.00  0.00     0.116 C 
BRANCH  26  27
ATOM     27  N   UNL A   1      33.687  29.652  26.876  1.00  0.00    -0.352 N 
ATOM     28  C   UNL A   1      34.408  30.557  27.617  1.00  0.00     0.251 C 
ATOM     29  H   UNL A   1      32.845  29.988  26.494  1.00  0.00     0.163 HD
ATOM     30  O   UNL A   1      33.941  31.665  27.860  1.00  0.00    -0.269 OA
BRANCH  28  31
ATOM     31  C   UNL A   1      35.732  30.170  28.143  1.00  0.00     0.039 A 
ATOM     32  C   UNL A   1      35.814  29.610  29.420  1.00  0.00     0.014 A 
ATOM     33  C   UNL A   1      36.883  30.329  27.366  1.00  0.00     0.014 A 
ATOM     34  C   UNL A   1      37.047  29.156  29.897  1.00  0.00     0.010 A 
ATOM     35  C   UNL A   1      38.092  29.805  27.809  1.00  0.00     0.010 A 
ATOM     36  C   UNL A   1      38.190  29.224  29.083  1.00  0.00    -0.014 A 
BRANCH  36  37
ATOM     37  C   UNL A   1      39.506  28.718  29.552  1.00  0.00     0.031 A 
ATOM     38  C   UNL A   1      40.239  29.450  30.645  1.00  0.00     0.074 A 
ATOM     39  C   UNL A   1      40.075  27.660  28.944  1.00  0.00     0.049 A 
ATOM     40  N   UNL A   1      41.431  29.224  31.133  1.00  0.00    -0.248 NA
ATOM     41  C   UNL A   1      39.557  30.608  31.249  1.00  0.00     0.031 C 
ATOM     42  C   UNL A   1      39.500  26.914  27.821  1.00  0.00     0.029 A 
ATOM     43  N   UNL A   1      41.282  27.044  29.165  1.00  0.00    -0.354 N 
ATOM     44  C   UNL A   1      41.654  30.225  32.070  1.00  0.00     0.074 A 
ATOM     45  C   UNL A   1      40.493  31.086  32.056  1.00  0.00     0.031 C 
ATOM     46  C   UNL A   1      40.354  25.945  27.452  1.00  0.00     0.029 A 
ATOM     47  C   UNL A   1      41.546  26.014  28.291  1.00  0.00     0.049 A 
ATOM     48  H   UNL A   1      41.901  27.314  29.880  1.00  0.00     0.167 HD
ATOM     49  C   UNL A   1      42.712  30.394  32.897  1.00  0.00     0.034 A 
ATOM     50  C   UNL A   1      42.630  25.220  28.179  1.00  0.00     0.034 A 
ATOM     51  C   UNL A   1      43.840  29.506  32.949  1.00  0.00     0.049 A 
ATOM     52  C   UNL A   1      43.766  25.394  29.152  1.00  0.00     0.074 A 
ATOM     53  C   UNL A   1      44.934  29.553  33.795  1.00  0.00     0.029 A 
ATOM     54  N   UNL A   1      44.014  28.402  32.131  1.00  0.00    -0.354 N 
ATOM     55  N   UNL A   1      43.892  26.263  30.127  1.00  0.00    -0.248 NA
ATOM     56  C   UNL A   1      44.889  24.452  29.040  1.00  0.00     0.031 C 
ATOM     57  C   UNL A   1      45.773  28.478  33.484  1.00  0.00     0.029 A 
ATOM     58  C   UNL A   1      45.190  27.751  32.459  1.00  0.00     0.049 A 
ATOM     59  H   UNL A   1      43.393  28.120  31.421  1.00  0.00     0.167 HD
ATOM     60  C   UNL A   1      45.081  25.942  30.770  1.00  0.00     0.074 A 
ATOM     61  C   UNL A   1      45.629  24.788  30.088  1.00  0.00     0.031 C 
ATOM     62  C   UNL A   1      45.678  26.557  31.821  1.00  0.00     0.034 A 
BRANCH  49  63
ATOM     63  C   UNL A   1      42.666  31.542  33.871  1.00  0.00     0.023 A 
ATOM     64  C   UNL A   1      43.177  32.797  33.480  1.00  0.00     0.012 A 
ATOM     65  C   UNL A   1      42.060  31.405  35.134  1.00  0.00     0.148 A 
ATOM     66  C   UNL A   1      43.111  33.890  34.341  1.00  0.00     0.002 A 
ATOM     67  C   UNL A   1      41.957  32.512  35.969  1.00  0.00     0.091 A 
ATOM     68  F   UNL A   1      41.595  30.199  35.494  1.00  0.00    -0.205 F 
ATOM     69  C   UNL A   1      42.491  33.751  35.579  1.00  0.00     0.022 A 
BRANCH  67  70
ATOM     70  S   UNL A   1      41.108  32.462  37.552  1.00  0.00     0.127 S 
ATOM     71  O   UNL A   1      41.992  31.599  38.334  1.00  0.00    -0.237 OA
ATOM     72  O   UNL A   1      41.121  33.870  37.951  1.00  0.00    -0.237 OA
ATOM     73  O   UNL A   1      39.785  31.916  37.284  1.00  0.00    -0.744 OA
ENDBRANCH  67  70
ENDBRANCH  49  63
BRANCH  50  74
ATOM     74  C   UNL A   1      42.667  24.138  27.154  1.00  0.00     0.023 A 
ATOM     75  C   UNL A   1      43.325  24.368  25.929  1.00  0.00     0.012 A 
ATOM     76  C   UNL A   1      42.057  22.889  27.377  1.00  0.00     0.148 A 
ATOM     77  C   UNL A   1      43.335  23.395  24.929  1.00  0.00     0.002 A 
ATOM     78  C   UNL A   1      42.119  21.902  26.399  1.00  0.00     0.091 A 
ATOM     79  F   UNL A   1      41.423  22.689  28.542  1.00  0.00    -0.205 F 
ATOM     80  C   UNL A   1      42.739  22.159  25.167  1.00  0.00     0.022 A 
BRANCH  78  81
ATOM     81  S   UNL A   1      41.490  20.242  26.679  1.00  0.00     0.127 S 
ATOM     82  O   UNL A   1      41.850  19.572  25.433  1.00  0.00    -0.237 OA
ATOM     83  O   UNL A   1      42.256  19.817  27.852  1.00  0.00    -0.237 OA
ATOM     84  O   UNL A   1      40.065  20.408  26.928  1.00  0.00    -0.744 OA
ENDBRANCH  78  81
ENDBRANCH  50  74
BRANCH  62  85
ATOM     85  C   UNL A   1      46.959  25.965  32.345  1.00  0.00     0.023 A 
ATOM     86  C   UNL A   1      48.196  26.401  31.834  1.00  0.00     0.012 A 
ATOM     87  C   UNL A   1      46.934  25.033  33.402  1.00  0.00     0.148 A 
ATOM     88  C   UNL A   1      49.391  25.895  32.344  1.00  0.00     0.002 A 
ATOM     89  C   UNL A   1      48.130  24.568  33.938  1.00  0.00     0.091 A 
ATOM     90  F   UNL A   1      45.746  24.615  33.861  1.00  0.00    -0.205 F 
ATOM     91  C   UNL A   1      49.358  24.989  33.403  1.00  0.00     0.022 A 
BRANCH  89  92
ATOM     92  S   UNL A   1      48.181  23.477  35.364  1.00  0.00     0.127 S 
ATOM     93  O   UNL A   1      47.249  24.136  36.277  1.00  0.00    -0.237 OA
ATOM     94  O   UNL A   1      47.698  22.213  34.808  1.00  0.00    -0.237 OA
ATOM     95  O   UNL A   1      49.572  23.452  35.796  1.00  0.00    -0.744 OA
ENDBRANCH  89  92
ENDBRANCH  62  85
ENDBRANCH  36  37
ENDBRANCH  28  31
ENDBRANCH  26  27
ENDBRANCH  25  26
ENDBRANCH   1  25
TORSDOF 18
ENDMDL
MODEL 2
REMARK VINA RESULT:     -11.5      4.134      9.251
REMARK SMILES O=C(NCCCCNC(=O)c1ccc(-c2c3nc(c(-c4cccc(S(=O)(=O)[O-])c4F)c4ccc([nH]4)c(-c4cccc(S(=O)(=O)[O-])c4F)c4nc(c(-c5cccc(S(=O)(=O)[O-])c5F)c5ccc2[nH]5)C=C4)C=C3)cc1)c1ccc(OCc2cc(Cl)ccc2[N+](=O)[O-])cc1
REMARK SMILES IDX 5 1 4 2 3 3 1 4 2 5 74 7 75 8 91 9 76 10 90 11 77 12 78 13
REMARK SMILES IDX 79 14 80 15 81 16 86 17 82 18 85 19 83 20 84 21 87 22 88 23
REMARK SMILES IDX 89 24 6 25 7 26 8 27 9 28 10 30 11 31 12 32 73 33 13 34
REMARK SMILES IDX 72 35 14 36 15 37 16 38 66 39 17 40 71 41 65 42 67 43 18 44
REMARK SMILES IDX 70 45 64 46 63 47 19 49 51 50 31 51 50 52 32 53 35 54 49 55
REMARK SMILES IDX 68 56 33 57 34 58 48 60 69 61 36 62 20 63 21 64 29 65 22 66
REMARK SMILES IDX 24 67 30 68 23 69 25 70 26 71 27 72 28 73 52 74 53 75 61 76
REMARK SMILES IDX 54 77 56 78 62 79 55 80 57 81 58 82 59 83 60 84 37 85 38 86
REMARK SMILES IDX 46 87 39 88 41 89 47 90 40 91 42 92 43 93 44 94 45 95
REMARK H PARENT 3 6 8 29 67 48 35 59
REMARK Flexibility Score: inf
ROOT
ATOM      1  C   UNL A   1      35.266  21.678  26.318  1.00  0.00     0.023 C 
ENDROOT
BRANCH   1   2
ATOM      2  C   UNL A   1      35.260  20.920  24.996  1.00  0.00     0.116 C 
BRANCH   2   3
ATOM      3  N   UNL A   1      34.315  19.815  25.013  1.00  0.00    -0.352 N 
ATOM      4  O   UNL A   1      32.271  18.875  25.263  1.00  0.00    -0.269 OA
ATOM      5  C   UNL A   1      32.945  19.868  25.002  1.00  0.00     0.251 C 
ATOM      6  H   UNL A   1      34.710  18.914  25.037  1.00  0.00     0.163 HD
BRANCH   5   7
ATOM      7  C   UNL A   1      32.274  21.139  24.675  1.00  0.00     0.040 A 
ATOM      8  C   UNL A   1      32.253  21.597  23.356  1.00  0.00     0.017 A 
ATOM      9  C   UNL A   1      31.615  21.850  25.683  1.00  0.00     0.017 A 
ATOM     10  C   UNL A   1      31.613  22.791  23.055  1.00  0.00     0.047 A 
ATOM     11  C   UNL A   1      30.933  23.030  25.369  1.00  0.00     0.047 A 
ATOM     12  C   UNL A   1      30.903  23.473  24.046  1.00  0.00     0.119 A 
BRANCH  12  13
ATOM     13  O   UNL A   1      30.133  24.482  23.549  1.00  0.00    -0.489 OA
BRANCH  13  14
ATOM     14  C   UNL A   1      30.736  25.724  23.207  1.00  0.00     0.272 C 
BRANCH  14  15
ATOM     15  C   UNL A   1      31.812  26.327  24.099  1.00  0.00     0.068 A 
ATOM     16  C   UNL A   1      31.361  26.839  25.338  1.00  0.00     0.035 A 
ATOM     17  C   UNL A   1      33.191  26.434  23.833  1.00  0.00     0.276 A 
ATOM     18  C   UNL A   1      32.229  27.494  26.216  1.00  0.00     0.041 A 
ATOM     19  C   UNL A   1      34.050  27.154  24.685  1.00  0.00     0.087 A 
ATOM     20  Cl  UNL A   1      31.642  28.050  27.733  1.00  0.00    -0.084 Cl
ATOM     21  C   UNL A   1      33.563  27.689  25.876  1.00  0.00     0.027 A 
BRANCH  17  22
ATOM     22  N   UNL A   1      33.842  25.715  22.742  1.00  0.00     0.063 N 
ATOM     23  O   UNL A   1      33.861  26.263  21.631  1.00  0.00    -0.258 OA
ATOM     24  O   UNL A   1      34.412  24.653  23.029  1.00  0.00    -0.258 OA
ENDBRANCH  17  22
ENDBRANCH  14  15
ENDBRANCH  13  14
ENDBRANCH  12  13
ENDBRANCH   5   7
ENDBRANCH   2   3
ENDBRANCH   1   2
BRANCH   1  25
ATOM     25  C   UNL A   1      35.359  23.195  26.173  1.00  0.00     0.023 C 
BRANCH  25  26
ATOM     26  C   UNL A   1      36.775  23.744  26.046  1.00  0.00     0.116 C 
BRANCH  26  27
ATOM     27  N   UNL A   1      37.791  22.703  25.987  1.00  0.00    -0.352 N 
ATOM     28  C   UNL A   1      39.126  22.790  26.299  1.00  0.00     0.251 C 
ATOM     29  H   UNL A   1      37.481  21.819  25.684  1.00  0.00     0.163 HD
ATOM     30  O   UNL A   1      39.872  21.838  26.088  1.00  0.00    -0.269 OA
BRANCH  28  31
ATOM     31  C   UNL A   1      39.659  24.049  26.858  1.00  0.00     0.039 A 
ATOM     32  C   UNL A   1      40.133  25.029  25.982  1.00  0.00     0.014 A 
ATOM     33  C   UNL A   1      39.658  24.274  28.237  1.00  0.00     0.014 A 
ATOM     34  C   UNL A   1      40.555  26.261  26.489  1.00  0.00     0.010 A 
ATOM     35  C   UNL A   1      40.003  25.526  28.731  1.00  0.00     0.010 A 
ATOM     36  C   UNL A   1      40.467  26.529  27.865  1.00  0.00    -0.014 A 
BRANCH  36  37
ATOM     37  C   UNL A   1      40.878  27.841  28.427  1.00  0.00     0.031 A 
ATOM     38  C   UNL A   1      42.340  28.139  28.632  1.00  0.00     0.074 A 
ATOM     39  C   UNL A   1      39.942  28.724  28.827  1.00  0.00     0.049 A 
ATOM     40  N   UNL A   1      42.898  29.184  29.186  1.00  0.00    -0.248 NA
ATOM     41  C   UNL A   1      43.300  27.116  28.183  1.00  0.00     0.031 C 
ATOM     42  C   UNL A   1      38.493  28.519  28.754  1.00  0.00     0.029 A 
ATOM     43  N   UNL A   1      40.071  29.963  29.405  1.00  0.00    -0.354 N 
ATOM     44  C   UNL A   1      44.264  28.929  29.184  1.00  0.00     0.074 A 
ATOM     45  C   UNL A   1      44.451  27.615  28.612  1.00  0.00     0.031 C 
ATOM     46  C   UNL A   1      37.870  29.592  29.269  1.00  0.00     0.029 A 
ATOM     47  C   UNL A   1      38.870  30.549  29.731  1.00  0.00     0.049 A 
ATOM     48  H   UNL A   1      40.941  30.391  29.572  1.00  0.00     0.167 HD
ATOM     49  C   UNL A   1      45.278  29.731  29.587  1.00  0.00     0.034 A 
ATOM     50  C   UNL A   1      38.607  31.724  30.338  1.00  0.00     0.034 A 
ATOM     51  C   UNL A   1      45.095  31.059  30.104  1.00  0.00     0.049 A 
ATOM     52  C   UNL A   1      39.755  32.620  30.721  1.00  0.00     0.074 A 
ATOM     53  C   UNL A   1      46.059  31.976  30.481  1.00  0.00     0.029 A 
ATOM     54  N   UNL A   1      43.865  31.665  30.305  1.00  0.00    -0.354 N 
ATOM     55  N   UNL A   1      41.043  32.417  30.579  1.00  0.00    -0.248 NA
ATOM     56  C   UNL A   1      39.415  33.925  31.306  1.00  0.00     0.031 C 
ATOM     57  C   UNL A   1      45.412  33.137  30.915  1.00  0.00     0.029 A 
ATOM     58  C   UNL A   1      44.046  32.949  30.789  1.00  0.00     0.049 A 
ATOM     59  H   UNL A   1      42.992  31.245  30.130  1.00  0.00     0.167 HD
ATOM     60  C   UNL A   1      41.662  33.584  31.012  1.00  0.00     0.074 A 
ATOM     61  C   UNL A   1      40.608  34.496  31.404  1.00  0.00     0.031 C 
ATOM     62  C   UNL A   1      42.984  33.870  31.097  1.00  0.00     0.034 A 
BRANCH  49  63
ATOM     63  C   UNL A   1      46.686  29.225  29.412  1.00  0.00     0.023 A 
ATOM     64  C   UNL A   1      47.289  28.493  30.456  1.00  0.00     0.012 A 
ATOM     65  C   UNL A   1      47.383  29.405  28.202  1.00  0.00     0.148 A 
ATOM     66  C   UNL A   1      48.573  27.973  30.310  1.00  0.00     0.002 A 
ATOM     67  C   UNL A   1      48.645  28.845  28.047  1.00  0.00     0.091 A 
ATOM     68  F   UNL A   1      46.799  30.119  27.227  1.00  0.00    -0.205 F 
ATOM     69  C   UNL A   1      49.246  28.139  29.103  1.00  0.00     0.022 A 
BRANCH  67  70
ATOM     70  S   UNL A   1      49.567  28.931  26.507  1.00  0.00     0.127 S 
ATOM     71  O   UNL A   1      50.721  28.084  26.807  1.00  0.00    -0.237 OA
ATOM     72  O   UNL A   1      48.621  28.356  25.551  1.00  0.00    -0.237 OA
ATOM     73  O   UNL A   1      49.870  30.340  26.296  1.00  0.00    -0.744 OA
ENDBRANCH  67  70
ENDBRANCH  49  63
BRANCH  50  74
ATOM     74  C   UNL A   1      37.198  32.159  30.558  1.00  0.00     0.023 A 
ATOM     75  C   UNL A   1      36.610  31.983  31.827  1.00  0.00     0.012 A 
ATOM     76  C   UNL A   1      36.436  32.741  29.527  1.00  0.00     0.148 A 
ATOM     77  C   UNL A   1      35.278  32.334  32.051  1.00  0.00     0.002 A 
ATOM     78  C   UNL A   1      35.127  33.140  29.771  1.00  0.00     0.091 A 
ATOM     79  F   UNL A   1      37.005  32.889  28.321  1.00  0.00    -0.205 F 
ATOM     80  C   UNL A   1      34.539  32.919  31.027  1.00  0.00     0.022 A 
BRANCH  78  81
ATOM     81  S   UNL A   1      34.152  34.018  28.545  1.00  0.00     0.127 S 
ATOM     82  O   UNL A   1      32.906  34.257  29.266  1.00  0.00    -0.237 OA
ATOM     83  O   UNL A   1      34.965  35.212  28.304  1.00  0.00    -0.237 OA
ATOM     84  O   UNL A   1      34.069  33.117  27.404  1.00  0.00    -0.744 OA
ENDBRANCH  78  81
ENDBRANCH  50  74
BRANCH  62  85
ATOM     85  C   UNL A   1      43.375  35.244  31.571  1.00  0.00     0.023 A 
ATOM     86  C   UNL A   1      43.634  36.264  30.635  1.00  0.00     0.012 A 
ATOM     87  C   UNL A   1      43.406  35.543  32.947  1.00  0.00     0.148 A 
ATOM     88  C   UNL A   1      43.951  37.553  31.062  1.00  0.00     0.002 A 
ATOM     89  C   UNL A   1      43.675  36.841  33.365  1.00  0.00     0.091 A 
ATOM     90  F   UNL A   1      43.176  34.554  33.824  1.00  0.00    -0.205 F 
ATOM     91  C   UNL A   1      43.959  37.844  32.425  1.00  0.00     0.022 A 
BRANCH  89  92
ATOM     92  S   UNL A   1      43.610  37.325  35.094  1.00  0.00     0.127 S 
ATOM     93  O   UNL A   1      44.099  38.701  35.037  1.00  0.00    -0.237 OA
ATOM     94  O   UNL A   1      42.185  37.195  35.402  1.00  0.00    -0.237 OA
ATOM     95  O   UNL A   1      44.466  36.383  35.804  1.00  0.00    -0.744 OA
ENDBRANCH  89  92
ENDBRANCH  62  85
ENDBRANCH  36  37
ENDBRANCH  28  31
ENDBRANCH  26  27
ENDBRANCH  25  26
ENDBRANCH   1  25
TORSDOF 18
ENDMDL
MODEL 3
REMARK VINA RESULT:     -11.4      4.885      9.836
REMARK SMILES O=C(NCCCCNC(=O)c1ccc(-c2c3nc(c(-c4cccc(S(=O)(=O)[O-])c4F)c4ccc([nH]4)c(-c4cccc(S(=O)(=O)[O-])c4F)c4nc(c(-c5cccc(S(=O)(=O)[O-])c5F)c5ccc2[nH]5)C=C4)C=C3)cc1)c1ccc(OCc2cc(Cl)ccc2[N+](=O)[O-])cc1
REMARK SMILES IDX 5 1 4 2 3 3 1 4 2 5 74 7 75 8 91 9 76 10 90 11 77 12 78 13
REMARK SMILES IDX 79 14 80 15 81 16 86 17 82 18 85 19 83 20 84 21 87 22 88 23
REMARK SMILES IDX 89 24 6 25 7 26 8 27 9 28 10 30 11 31 12 32 73 33 13 34
REMARK SMILES IDX 72 35 14 36 15 37 16 38 66 39 17 40 71 41 65 42 67 43 18 44
REMARK SMILES IDX 70 45 64 46 63 47 19 49 51 50 31 51 50 52 32 53 35 54 49 55
REMARK SMILES IDX 68 56 33 57 34 58 48 60 69 61 36 62 20 63 21 64 29 65 22 66
REMARK SMILES IDX 24 67 30 68 23 69 25 70 26 71 27 72 28 73 52 74 53 75 61 76
REMARK SMILES IDX 54 77 56 78 62 79 55 80 57 81 58 82 59 83 60 84 37 85 38 86
REMARK SMILES IDX 46 87 39 88 41 89 47 90 40 91 42 92 43 93 44 94 45 95
REMARK H PARENT 3 6 8 29 67 48 35 59
REMARK Flexibility Score: inf
ROOT
ATOM      1  C   UNL A   1      35.439  22.039  25.679  1.00  0.00     0.023 C 
ENDROOT
BRANCH   1   2
ATOM      2  C   UNL A   1      34.453  21.449  26.680  1.00  0.00     0.116 C 
BRANCH   2   3
ATOM      3  N   UNL A   1      33.834  20.236  26.173  1.00  0.00    -0.352 N 
ATOM      4  O   UNL A   1      32.166  19.031  25.229  1.00  0.00    -0.269 OA
ATOM      5  C   UNL A   1      32.719  20.116  25.383  1.00  0.00     0.251 C 
ATOM      6  H   UNL A   1      34.270  19.392  26.430  1.00  0.00     0.163 HD
BRANCH   5   7
ATOM      7  C   UNL A   1      32.176  21.313  24.714  1.00  0.00     0.040 A 
ATOM      8  C   UNL A   1      31.359  22.196  25.422  1.00  0.00     0.017 A 
ATOM      9  C   UNL A   1      32.529  21.581  23.388  1.00  0.00     0.017 A 
ATOM     10  C   UNL A   1      30.858  23.324  24.787  1.00  0.00     0.047 A 
ATOM     11  C   UNL A   1      32.059  22.742  22.765  1.00  0.00     0.047 A 
ATOM     12  C   UNL A   1      31.256  23.628  23.483  1.00  0.00     0.119 A 
BRANCH  12  13
ATOM     13  O   UNL A   1      30.881  24.879  23.091  1.00  0.00    -0.489 OA
BRANCH  13  14
ATOM     14  C   UNL A   1      30.210  25.732  24.011  1.00  0.00     0.272 C 
BRANCH  14  15
ATOM     15  C   UNL A   1      30.791  27.095  24.360  1.00  0.00     0.068 A 
ATOM     16  C   UNL A   1      31.902  27.079  25.233  1.00  0.00     0.035 A 
ATOM     17  C   UNL A   1      30.350  28.357  23.917  1.00  0.00     0.276 A 
ATOM     18  C   UNL A   1      32.481  28.262  25.701  1.00  0.00     0.041 A 
ATOM     19  C   UNL A   1      30.888  29.548  24.441  1.00  0.00     0.087 A 
ATOM     20  Cl  UNL A   1      33.864  28.187  26.718  1.00  0.00    -0.084 Cl
ATOM     21  C   UNL A   1      31.952  29.496  25.340  1.00  0.00     0.027 A 
BRANCH  17  22
ATOM     22  N   UNL A   1      29.410  28.522  22.812  1.00  0.00     0.063 N 
ATOM     23  O   UNL A   1      28.207  28.361  23.061  1.00  0.00    -0.258 OA
ATOM     24  O   UNL A   1      29.876  28.907  21.730  1.00  0.00    -0.258 OA
ENDBRANCH  17  22
ENDBRANCH  14  15
ENDBRANCH  13  14
ENDBRANCH  12  13
ENDBRANCH   5   7
ENDBRANCH   2   3
ENDBRANCH   1   2
BRANCH   1  25
ATOM     25  C   UNL A   1      36.563  21.091  25.267  1.00  0.00     0.023 C 
BRANCH  25  26
ATOM     26  C   UNL A   1      37.969  21.664  25.394  1.00  0.00     0.116 C 
BRANCH  26  27
ATOM     27  N   UNL A   1      38.943  20.696  25.878  1.00  0.00    -0.352 N 
ATOM     28  C   UNL A   1      40.122  20.927  26.545  1.00  0.00     0.251 C 
ATOM     29  H   UNL A   1      38.728  19.751  25.706  1.00  0.00     0.163 HD
ATOM     30  O   UNL A   1      40.885  19.997  26.787  1.00  0.00    -0.269 OA
BRANCH  28  31
ATOM     31  C   UNL A   1      40.474  22.306  26.936  1.00  0.00     0.039 A 
ATOM     32  C   UNL A   1      41.270  22.505  28.067  1.00  0.00     0.014 A 
ATOM     33  C   UNL A   1      40.049  23.395  26.171  1.00  0.00     0.014 A 
ATOM     34  C   UNL A   1      41.687  23.797  28.398  1.00  0.00     0.010 A 
ATOM     35  C   UNL A   1      40.530  24.668  26.456  1.00  0.00     0.010 A 
ATOM     36  C   UNL A   1      41.343  24.885  27.579  1.00  0.00    -0.014 A 
BRANCH  36  37
ATOM     37  C   UNL A   1      41.801  26.263  27.889  1.00  0.00     0.031 A 
ATOM     38  C   UNL A   1      43.215  26.670  27.565  1.00  0.00     0.074 A 
ATOM     39  C   UNL A   1      40.980  27.116  28.533  1.00  0.00     0.049 A 
ATOM     40  N   UNL A   1      43.833  27.790  27.834  1.00  0.00    -0.248 NA
ATOM     41  C   UNL A   1      44.055  25.675  26.876  1.00  0.00     0.031 C 
ATOM     42  C   UNL A   1      39.615  26.815  28.971  1.00  0.00     0.029 A 
ATOM     43  N   UNL A   1      41.186  28.405  28.960  1.00  0.00    -0.354 N 
ATOM     44  C   UNL A   1      45.135  27.623  27.380  1.00  0.00     0.074 A 
ATOM     45  C   UNL A   1      45.234  26.280  26.856  1.00  0.00     0.031 C 
ATOM     46  C   UNL A   1      39.109  27.885  29.604  1.00  0.00     0.029 A 
ATOM     47  C   UNL A   1      40.117  28.940  29.641  1.00  0.00     0.049 A 
ATOM     48  H   UNL A   1      42.021  28.900  28.794  1.00  0.00     0.167 HD
ATOM     49  C   UNL A   1      46.151  28.519  27.366  1.00  0.00     0.034 A 
ATOM     50  C   UNL A   1      39.971  30.142  30.232  1.00  0.00     0.034 A 
ATOM     51  C   UNL A   1      46.036  29.871  27.836  1.00  0.00     0.049 A 
ATOM     52  C   UNL A   1      41.098  31.138  30.147  1.00  0.00     0.074 A 
ATOM     53  C   UNL A   1      46.986  30.876  27.807  1.00  0.00     0.029 A 
ATOM     54  N   UNL A   1      44.897  30.413  28.409  1.00  0.00    -0.354 N 
ATOM     55  N   UNL A   1      42.276  31.007  29.586  1.00  0.00    -0.248 NA
ATOM     56  C   UNL A   1      40.860  32.464  30.737  1.00  0.00     0.031 C 
ATOM     57  C   UNL A   1      46.422  32.027  28.367  1.00  0.00     0.029 A 
ATOM     58  C   UNL A   1      45.115  31.743  28.726  1.00  0.00     0.049 A 
ATOM     59  H   UNL A   1      44.056  29.926  28.567  1.00  0.00     0.167 HD
ATOM     60  C   UNL A   1      42.898  32.243  29.714  1.00  0.00     0.074 A 
ATOM     61  C   UNL A   1      41.961  33.116  30.388  1.00  0.00     0.031 C 
ATOM     62  C   UNL A   1      44.141  32.618  29.324  1.00  0.00     0.034 A 
BRANCH  49  63
ATOM     63  C   UNL A   1      47.457  28.089  26.750  1.00  0.00     0.023 A 
ATOM     64  C   UNL A   1      48.541  27.768  27.592  1.00  0.00     0.012 A 
ATOM     65  C   UNL A   1      47.593  27.935  25.357  1.00  0.00     0.148 A 
ATOM     66  C   UNL A   1      49.749  27.325  27.056  1.00  0.00     0.002 A 
ATOM     67  C   UNL A   1      48.786  27.451  24.834  1.00  0.00     0.091 A 
ATOM     68  F   UNL A   1      46.555  28.263  24.573  1.00  0.00    -0.205 F 
ATOM     69  C   UNL A   1      49.868  27.156  25.681  1.00  0.00     0.022 A 
BRANCH  67  70
ATOM     70  S   UNL A   1      49.019  27.120  23.083  1.00  0.00     0.127 S 
ATOM     71  O   UNL A   1      50.471  26.969  23.003  1.00  0.00    -0.237 OA
ATOM     72  O   UNL A   1      48.266  25.879  22.902  1.00  0.00    -0.237 OA
ATOM     73  O   UNL A   1      48.475  28.273  22.379  1.00  0.00    -0.744 OA
ENDBRANCH  67  70
ENDBRANCH  49  63
BRANCH  50  74
ATOM     74  C   UNL A   1      38.686  30.505  30.894  1.00  0.00     0.023 A 
ATOM     75  C   UNL A   1      38.488  30.175  32.250  1.00  0.00     0.012 A 
ATOM     76  C   UNL A   1      37.658  31.169  30.197  1.00  0.00     0.148 A 
ATOM     77  C   UNL A   1      37.278  30.454  32.885  1.00  0.00     0.002 A 
ATOM     78  C   UNL A   1      36.475  31.496  30.850  1.00  0.00     0.091 A 
ATOM     79  F   UNL A   1      37.855  31.465  28.904  1.00  0.00    -0.205 F 
ATOM     80  C   UNL A   1      36.274  31.122  32.187  1.00  0.00     0.022 A 
BRANCH  78  81
ATOM     81  S   UNL A   1      35.188  32.469  30.061  1.00  0.00     0.127 S 
ATOM     82  O   UNL A   1      35.927  33.653  29.633  1.00  0.00    -0.237 OA
ATOM     83  O   UNL A   1      34.756  31.586  28.975  1.00  0.00    -0.237 OA
ATOM     84  O   UNL A   1      34.180  32.680  31.090  1.00  0.00    -0.744 OA
ENDBRANCH  78  81
ENDBRANCH  50  74
BRANCH  62  85
ATOM     85  C   UNL A   1      44.546  34.049  29.556  1.00  0.00     0.023 A 
ATOM     86  C   UNL A   1      45.062  34.440  30.806  1.00  0.00     0.012 A 
ATOM     87  C   UNL A   1      44.489  34.986  28.505  1.00  0.00     0.148 A 
ATOM     88  C   UNL A   1      45.485  35.752  31.019  1.00  0.00     0.002 A 
ATOM     89  C   UNL A   1      44.956  36.279  28.709  1.00  0.00     0.091 A 
ATOM     90  F   UNL A   1      43.976  34.600  27.328  1.00  0.00    -0.205 F 
ATOM     91  C   UNL A   1      45.444  36.667  29.968  1.00  0.00     0.022 A 
BRANCH  89  92
ATOM     92  S   UNL A   1      45.031  37.492  27.386  1.00  0.00     0.127 S 
ATOM     93  O   UNL A   1      43.624  37.607  27.008  1.00  0.00    -0.237 OA
ATOM     94  O   UNL A   1      45.577  38.666  28.069  1.00  0.00    -0.237 OA
ATOM     95  O   UNL A   1      45.910  36.923  26.373  1.00  0.00    -0.744 OA
ENDBRANCH  89  92
ENDBRANCH  62  85
ENDBRANCH  36  37
ENDBRANCH  28  31
ENDBRANCH  26  27
ENDBRANCH  25  26
ENDBRANCH   1  25
TORSDOF 18
ENDMDL
