MODEL 1
REMARK VINA RESULT:     -11.3      0.000      0.000
REMARK SMILES CC[C@H](NC(=O)N1CCO[C@@H](CC(=O)NCCCCNC(=O)c2ccc(-c3c4nc(c(-c5cccc(S(=O)(=O)[O-])c5F)c5ccc([nH]5)c(-c5cccc(S(=O)(=O)[O-])c5F)c5nc(c(-c6cccc(S(=O)(=O)[O-])c6F)c6ccc3[nH]6)C=C5)C=C4)cc2)C1)c1cccs1
REMARK SMILES IDX 17 1 16 2 15 3 13 4 14 5 12 7 11 8 7 9 8 10 86 11 9 12 10 13
REMARK SMILES IDX 5 14 4 15 6 17 3 18 2 19 1 20 87 21 88 22 91 23 89 24 90 25
REMARK SMILES IDX 18 26 19 27 20 28 21 29 22 31 23 32 24 33 85 34 25 35 84 36
REMARK SMILES IDX 26 37 27 38 28 39 78 40 29 41 83 42 77 43 79 44 30 45 82 46
REMARK SMILES IDX 76 47 75 48 31 50 63 51 43 52 62 53 44 54 47 55 61 56 80 57
REMARK SMILES IDX 45 58 46 59 60 61 81 62 48 63 32 64 33 65 41 66 34 67 36 68
REMARK SMILES IDX 42 69 35 70 37 71 38 72 39 73 40 74 64 75 65 76 73 77 66 78
REMARK SMILES IDX 68 79 74 80 67 81 69 82 70 83 71 84 72 85 49 86 50 87 58 88
REMARK SMILES IDX 51 89 53 90 59 91 52 92 54 93 55 94 56 95 57 96
REMARK H PARENT 15 6 4 16 20 30 79 49 47 60
REMARK Flexibility Score: inf
ROOT
ATOM      1  C   UNL A   1      31.530  30.795  26.608  1.00  0.00     0.023 C 
ENDROOT
BRANCH   1   2
ATOM      2  C   UNL A   1      32.925  30.169  26.518  1.00  0.00     0.116 C 
BRANCH   2   3
ATOM      3  N   UNL A   1      33.205  29.758  25.151  1.00  0.00    -0.356 N 
ATOM      4  C   UNL A   1      33.653  28.560  24.674  1.00  0.00     0.222 C 
ATOM      5  O   UNL A   1      34.045  28.488  23.510  1.00  0.00    -0.275 OA
ATOM      6  H   UNL A   1      33.045  30.448  24.465  1.00  0.00     0.163 HD
BRANCH   4   7
ATOM      7  C   UNL A   1      33.641  27.333  25.562  1.00  0.00     0.133 C 
BRANCH   7   8
ATOM      8  C   UNL A   1      32.599  26.255  25.226  1.00  0.00     0.147 C 
ATOM      9  N   UNL A   1      31.745  23.968  25.924  1.00  0.00    -0.320 N 
ATOM     10  C   UNL A   1      30.463  24.596  26.229  1.00  0.00     0.150 C 
ATOM     11  C   UNL A   1      32.842  24.928  25.956  1.00  0.00     0.154 C 
ATOM     12  C   UNL A   1      30.251  25.887  25.437  1.00  0.00     0.182 C 
ATOM     13  O   UNL A   1      31.327  26.813  25.638  1.00  0.00    -0.374 OA
BRANCH   9  14
ATOM     14  C   UNL A   1      31.994  22.760  26.546  1.00  0.00     0.318 C 
ATOM     15  N   UNL A   1      31.976  21.621  25.807  1.00  0.00    -0.330 N 
ATOM     16  H   UNL A   1      31.418  20.878  26.135  1.00  0.00     0.166 HD
ATOM     17  O   UNL A   1      32.181  22.656  27.757  1.00  0.00    -0.249 OA
BRANCH  15  18
ATOM     18  C   UNL A   1      32.717  21.411  24.567  1.00  0.00     0.124 C 
BRANCH  18  19
ATOM     19  C   UNL A   1      34.218  21.798  24.687  1.00  0.00     0.027 C 
ATOM     20  C   UNL A   1      34.792  22.647  23.557  1.00  0.00     0.006 C 
ENDBRANCH  18  19
BRANCH  18  21
ATOM     21  C   UNL A   1      32.596  19.956  24.178  1.00  0.00     0.027 A 
ATOM     22  C   UNL A   1      32.355  19.416  22.926  1.00  0.00     0.017 A 
ATOM     23  S   UNL A   1      32.778  18.719  25.353  1.00  0.00    -0.147 S 
ATOM     24  C   UNL A   1      32.495  18.001  22.906  1.00  0.00     0.012 A 
ATOM     25  C   UNL A   1      32.803  17.500  24.150  1.00  0.00     0.065 A 
ENDBRANCH  18  21
ENDBRANCH  15  18
ENDBRANCH   9  14
ENDBRANCH   7   8
ENDBRANCH   4   7
ENDBRANCH   2   3
ENDBRANCH   1   2
BRANCH   1  26
ATOM     26  C   UNL A   1      31.480  32.307  26.672  1.00  0.00     0.023 C 
BRANCH  26  27
ATOM     27  C   UNL A   1      32.760  32.938  27.170  1.00  0.00     0.116 C 
BRANCH  27  28
ATOM     28  N   UNL A   1      32.580  34.240  27.802  1.00  0.00    -0.352 N 
ATOM     29  C   UNL A   1      33.333  34.784  28.823  1.00  0.00     0.251 C 
ATOM     30  H   UNL A   1      31.838  34.792  27.463  1.00  0.00     0.163 HD
ATOM     31  O   UNL A   1      33.054  35.858  29.321  1.00  0.00    -0.269 OA
BRANCH  29  32
ATOM     32  C   UNL A   1      34.467  33.979  29.328  1.00  0.00     0.039 A 
ATOM     33  C   UNL A   1      35.768  34.382  29.030  1.00  0.00     0.014 A 
ATOM     34  C   UNL A   1      34.227  32.934  30.222  1.00  0.00     0.014 A 
ATOM     35  C   UNL A   1      36.837  33.772  29.690  1.00  0.00     0.010 A 
ATOM     36  C   UNL A   1      35.278  32.425  30.968  1.00  0.00     0.010 A 
ATOM     37  C   UNL A   1      36.597  32.816  30.691  1.00  0.00    -0.014 A 
BRANCH  37  38
ATOM     38  C   UNL A   1      37.706  32.170  31.436  1.00  0.00     0.031 A 
ATOM     39  C   UNL A   1      38.495  31.070  30.769  1.00  0.00     0.074 A 
ATOM     40  C   UNL A   1      37.942  32.493  32.724  1.00  0.00     0.049 A 
ATOM     41  N   UNL A   1      39.443  30.321  31.264  1.00  0.00    -0.248 NA
ATOM     42  C   UNL A   1      38.137  30.735  29.378  1.00  0.00     0.031 C 
ATOM     43  C   UNL A   1      37.175  33.460  33.515  1.00  0.00     0.029 A 
ATOM     44  N   UNL A   1      38.882  32.020  33.606  1.00  0.00    -0.354 N 
ATOM     45  C   UNL A   1      39.747  29.395  30.273  1.00  0.00     0.074 A 
ATOM     46  C   UNL A   1      38.854  29.643  29.166  1.00  0.00     0.031 C 
ATOM     47  C   UNL A   1      37.684  33.517  34.758  1.00  0.00     0.029 A 
ATOM     48  C   UNL A   1      38.795  32.577  34.861  1.00  0.00     0.049 A 
ATOM     49  H   UNL A   1      39.555  31.345  33.362  1.00  0.00     0.167 HD
ATOM     50  C   UNL A   1      40.715  28.449  30.264  1.00  0.00     0.034 A 
ATOM     51  C   UNL A   1      39.536  32.357  35.966  1.00  0.00     0.034 A 
ATOM     52  C   UNL A   1      41.666  28.277  31.323  1.00  0.00     0.049 A 
ATOM     53  C   UNL A   1      40.686  31.385  35.883  1.00  0.00     0.074 A 
ATOM     54  C   UNL A   1      42.765  27.439  31.365  1.00  0.00     0.029 A 
ATOM     55  N   UNL A   1      41.639  28.968  32.524  1.00  0.00    -0.354 N 
ATOM     56  N   UNL A   1      41.070  30.647  34.870  1.00  0.00    -0.248 NA
ATOM     57  C   UNL A   1      41.533  31.252  37.077  1.00  0.00     0.031 C 
ATOM     58  C   UNL A   1      43.398  27.616  32.598  1.00  0.00     0.029 A 
ATOM     59  C   UNL A   1      42.705  28.580  33.313  1.00  0.00     0.049 A 
ATOM     60  H   UNL A   1      40.962  29.637  32.777  1.00  0.00     0.167 HD
ATOM     61  C   UNL A   1      42.226  29.997  35.289  1.00  0.00     0.074 A 
ATOM     62  C   UNL A   1      42.490  30.446  36.641  1.00  0.00     0.031 C 
ATOM     63  C   UNL A   1      42.991  29.098  34.624  1.00  0.00     0.034 A 
BRANCH  50  64
ATOM     64  C   UNL A   1      40.846  27.584  29.040  1.00  0.00     0.023 A 
ATOM     65  C   UNL A   1      40.019  26.451  28.896  1.00  0.00     0.012 A 
ATOM     66  C   UNL A   1      41.734  27.930  28.003  1.00  0.00     0.148 A 
ATOM     67  C   UNL A   1      40.094  25.658  27.752  1.00  0.00     0.002 A 
ATOM     68  C   UNL A   1      41.769  27.162  26.845  1.00  0.00     0.091 A 
ATOM     69  F   UNL A   1      42.527  28.997  28.170  1.00  0.00    -0.205 F 
ATOM     70  C   UNL A   1      40.959  26.021  26.723  1.00  0.00     0.022 A 
BRANCH  68  71
ATOM     71  S   UNL A   1      42.785  27.588  25.427  1.00  0.00     0.127 S 
ATOM     72  O   UNL A   1      42.635  26.399  24.589  1.00  0.00    -0.237 OA
ATOM     73  O   UNL A   1      42.113  28.783  24.917  1.00  0.00    -0.237 OA
ATOM     74  O   UNL A   1      44.127  27.816  25.946  1.00  0.00    -0.744 OA
ENDBRANCH  68  71
ENDBRANCH  50  64
BRANCH  51  75
ATOM     75  C   UNL A   1      39.277  33.126  37.217  1.00  0.00     0.023 A 
ATOM     76  C   UNL A   1      38.292  32.672  38.117  1.00  0.00     0.012 A 
ATOM     77  C   UNL A   1      39.994  34.298  37.523  1.00  0.00     0.148 A 
ATOM     78  C   UNL A   1      37.993  33.394  39.273  1.00  0.00     0.002 A 
ATOM     79  C   UNL A   1      39.728  34.985  38.704  1.00  0.00     0.091 A 
ATOM     80  F   UNL A   1      40.918  34.726  36.652  1.00  0.00    -0.205 F 
ATOM     81  C   UNL A   1      38.716  34.546  39.570  1.00  0.00     0.022 A 
BRANCH  79  82
ATOM     82  S   UNL A   1      40.703  36.402  39.223  1.00  0.00     0.127 S 
ATOM     83  O   UNL A   1      40.299  37.416  38.253  1.00  0.00    -0.237 OA
ATOM     84  O   UNL A   1      40.218  36.627  40.586  1.00  0.00    -0.237 OA
ATOM     85  O   UNL A   1      42.089  35.962  39.151  1.00  0.00    -0.744 OA
ENDBRANCH  79  82
ENDBRANCH  51  75
BRANCH  63  86
ATOM     86  C   UNL A   1      44.221  28.576  35.316  1.00  0.00     0.023 A 
ATOM     87  C   UNL A   1      45.476  29.154  35.047  1.00  0.00     0.012 A 
ATOM     88  C   UNL A   1      44.115  27.572  36.298  1.00  0.00     0.148 A 
ATOM     89  C   UNL A   1      46.614  28.719  35.724  1.00  0.00     0.002 A 
ATOM     90  C   UNL A   1      45.245  27.177  37.003  1.00  0.00     0.091 A 
ATOM     91  F   UNL A   1      42.914  27.021  36.525  1.00  0.00    -0.205 F 
ATOM     92  C   UNL A   1      46.497  27.741  36.709  1.00  0.00     0.022 A 
BRANCH  90  93
ATOM     93  S   UNL A   1      45.162  26.001  38.357  1.00  0.00     0.127 S 
ATOM     94  O   UNL A   1      44.701  24.793  37.675  1.00  0.00    -0.237 OA
ATOM     95  O   UNL A   1      46.551  25.951  38.816  1.00  0.00    -0.237 OA
ATOM     96  O   UNL A   1      44.232  26.572  39.323  1.00  0.00    -0.744 OA
ENDBRANCH  90  93
ENDBRANCH  63  86
ENDBRANCH  37  38
ENDBRANCH  29  32
ENDBRANCH  27  28
ENDBRANCH  26  27
ENDBRANCH   1  26
TORSDOF 19
ENDMDL
MODEL 2
REMARK VINA RESULT:     -11.1      6.487     11.590
REMARK SMILES CC[C@H](NC(=O)N1CCO[C@@H](CC(=O)NCCCCNC(=O)c2ccc(-c3c4nc(c(-c5cccc(S(=O)(=O)[O-])c5F)c5ccc([nH]5)c(-c5cccc(S(=O)(=O)[O-])c5F)c5nc(c(-c6cccc(S(=O)(=O)[O-])c6F)c6ccc3[nH]6)C=C5)C=C4)cc2)C1)c1cccs1
REMARK SMILES IDX 17 1 16 2 15 3 13 4 14 5 12 7 11 8 7 9 8 10 86 11 9 12 10 13
REMARK SMILES IDX 5 14 4 15 6 17 3 18 2 19 1 20 87 21 88 22 91 23 89 24 90 25
REMARK SMILES IDX 18 26 19 27 20 28 21 29 22 31 23 32 24 33 85 34 25 35 84 36
REMARK SMILES IDX 26 37 27 38 28 39 78 40 29 41 83 42 77 43 79 44 30 45 82 46
REMARK SMILES IDX 76 47 75 48 31 50 63 51 43 52 62 53 44 54 47 55 61 56 80 57
REMARK SMILES IDX 45 58 46 59 60 61 81 62 48 63 32 64 33 65 41 66 34 67 36 68
REMARK SMILES IDX 42 69 35 70 37 71 38 72 39 73 40 74 64 75 65 76 73 77 66 78
REMARK SMILES IDX 68 79 74 80 67 81 69 82 70 83 71 84 72 85 49 86 50 87 58 88
REMARK SMILES IDX 51 89 53 90 59 91 52 92 54 93 55 94 56 95 57 96
REMARK H PARENT 15 6 4 16 20 30 79 49 47 60
REMARK Flexibility Score: inf
ROOT
ATOM      1  C   UNL A   1      36.882  19.984  24.964  1.00  0.00     0.023 C 
ENDROOT
BRANCH   1   2
ATOM      2  C   UNL A   1      35.551  20.715  24.759  1.00  0.00     0.116 C 
BRANCH   2   3
ATOM      3  N   UNL A   1      34.854  20.854  26.028  1.00  0.00    -0.356 N 
ATOM      4  C   UNL A   1      34.495  21.982  26.708  1.00  0.00     0.222 C 
ATOM      5  O   UNL A   1      34.117  21.883  27.875  1.00  0.00    -0.275 OA
ATOM      6  H   UNL A   1      34.600  20.006  26.461  1.00  0.00     0.163 HD
BRANCH   4   7
ATOM      7  C   UNL A   1      34.540  23.332  26.022  1.00  0.00     0.133 C 
BRANCH   7   8
ATOM      8  C   UNL A   1      33.239  23.804  25.355  1.00  0.00     0.147 C 
ATOM      9  N   UNL A   1      32.329  25.113  23.378  1.00  0.00    -0.320 N 
ATOM     10  C   UNL A   1      31.689  23.881  22.924  1.00  0.00     0.150 C 
ATOM     11  C   UNL A   1      33.466  24.843  24.250  1.00  0.00     0.154 C 
ATOM     12  C   UNL A   1      31.440  22.903  24.073  1.00  0.00     0.182 C 
ATOM     13  O   UNL A   1      32.646  22.610  24.787  1.00  0.00    -0.374 OA
BRANCH   9  14
ATOM     14  C   UNL A   1      32.533  26.083  22.416  1.00  0.00     0.318 C 
ATOM     15  N   UNL A   1      31.617  27.075  22.275  1.00  0.00    -0.330 N 
ATOM     16  H   UNL A   1      31.268  27.243  21.369  1.00  0.00     0.166 HD
ATOM     17  O   UNL A   1      33.485  26.064  21.638  1.00  0.00    -0.249 OA
BRANCH  15  18
ATOM     18  C   UNL A   1      31.109  27.912  23.358  1.00  0.00     0.124 C 
BRANCH  18  19
ATOM     19  C   UNL A   1      32.105  29.033  23.773  1.00  0.00     0.027 C 
ATOM     20  C   UNL A   1      31.898  29.647  25.154  1.00  0.00     0.006 C 
ENDBRANCH  18  19
BRANCH  18  21
ATOM     21  C   UNL A   1      29.804  28.529  22.914  1.00  0.00     0.027 A 
ATOM     22  C   UNL A   1      28.514  28.104  23.185  1.00  0.00     0.017 A 
ATOM     23  S   UNL A   1      29.790  29.954  21.958  1.00  0.00    -0.147 S 
ATOM     24  C   UNL A   1      27.531  29.039  22.759  1.00  0.00     0.012 A 
ATOM     25  C   UNL A   1      28.098  30.132  22.145  1.00  0.00     0.065 A 
ENDBRANCH  18  21
ENDBRANCH  15  18
ENDBRANCH   9  14
ENDBRANCH   7   8
ENDBRANCH   4   7
ENDBRANCH   2   3
ENDBRANCH   1   2
BRANCH   1  26
ATOM     26  C   UNL A   1      38.131  20.834  24.871  1.00  0.00     0.023 C 
BRANCH  26  27
ATOM     27  C   UNL A   1      39.060  20.683  26.053  1.00  0.00     0.116 C 
BRANCH  27  28
ATOM     28  N   UNL A   1      39.906  19.497  26.003  1.00  0.00    -0.352 N 
ATOM     29  C   UNL A   1      41.280  19.444  26.129  1.00  0.00     0.251 C 
ATOM     30  H   UNL A   1      39.446  18.637  25.864  1.00  0.00     0.163 HD
ATOM     31  O   UNL A   1      41.893  18.401  26.007  1.00  0.00    -0.269 OA
BRANCH  29  32
ATOM     32  C   UNL A   1      41.986  20.723  26.363  1.00  0.00     0.039 A 
ATOM     33  C   UNL A   1      42.262  21.553  25.277  1.00  0.00     0.014 A 
ATOM     34  C   UNL A   1      42.217  21.153  27.671  1.00  0.00     0.014 A 
ATOM     35  C   UNL A   1      42.711  22.853  25.513  1.00  0.00     0.010 A 
ATOM     36  C   UNL A   1      42.536  22.482  27.901  1.00  0.00     0.010 A 
ATOM     37  C   UNL A   1      42.814  23.339  26.827  1.00  0.00    -0.014 A 
BRANCH  37  38
ATOM     38  C   UNL A   1      43.258  24.726  27.114  1.00  0.00     0.031 A 
ATOM     39  C   UNL A   1      42.305  25.676  27.795  1.00  0.00     0.074 A 
ATOM     40  C   UNL A   1      44.461  25.159  26.686  1.00  0.00     0.049 A 
ATOM     41  N   UNL A   1      42.457  26.945  28.064  1.00  0.00    -0.248 NA
ATOM     42  C   UNL A   1      40.985  25.142  28.181  1.00  0.00     0.031 C 
ATOM     43  C   UNL A   1      45.428  24.369  25.917  1.00  0.00     0.029 A 
ATOM     44  N   UNL A   1      45.067  26.385  26.813  1.00  0.00    -0.354 N 
ATOM     45  C   UNL A   1      41.242  27.368  28.589  1.00  0.00     0.074 A 
ATOM     46  C   UNL A   1      40.345  26.237  28.559  1.00  0.00     0.031 C 
ATOM     47  C   UNL A   1      46.507  25.126  25.654  1.00  0.00     0.029 A 
ATOM     48  C   UNL A   1      46.303  26.458  26.212  1.00  0.00     0.049 A 
ATOM     49  H   UNL A   1      44.654  27.141  27.289  1.00  0.00     0.167 HD
ATOM     50  C   UNL A   1      40.912  28.579  29.094  1.00  0.00     0.034 A 
ATOM     51  C   UNL A   1      47.173  27.485  26.130  1.00  0.00     0.034 A 
ATOM     52  C   UNL A   1      41.839  29.667  29.217  1.00  0.00     0.049 A 
ATOM     53  C   UNL A   1      46.824  28.784  26.813  1.00  0.00     0.074 A 
ATOM     54  C   UNL A   1      41.649  30.893  29.827  1.00  0.00     0.029 A 
ATOM     55  N   UNL A   1      43.136  29.653  28.730  1.00  0.00    -0.354 N 
ATOM     56  N   UNL A   1      45.733  29.106  27.464  1.00  0.00    -0.248 NA
ATOM     57  C   UNL A   1      47.843  29.843  26.790  1.00  0.00     0.031 C 
ATOM     58  C   UNL A   1      42.833  31.626  29.701  1.00  0.00     0.029 A 
ATOM     59  C   UNL A   1      43.762  30.847  29.031  1.00  0.00     0.049 A 
ATOM     60  H   UNL A   1      43.550  28.904  28.243  1.00  0.00     0.167 HD
ATOM     61  C   UNL A   1      45.952  30.384  27.967  1.00  0.00     0.074 A 
ATOM     62  C   UNL A   1      47.289  30.768  27.560  1.00  0.00     0.031 C 
ATOM     63  C   UNL A   1      45.119  31.176  28.684  1.00  0.00     0.034 A 
BRANCH  50  64
ATOM     64  C   UNL A   1      39.518  28.766  29.626  1.00  0.00     0.023 A 
ATOM     65  C   UNL A   1      39.219  28.379  30.949  1.00  0.00     0.012 A 
ATOM     66  C   UNL A   1      38.524  29.387  28.846  1.00  0.00     0.148 A 
ATOM     67  C   UNL A   1      37.945  28.580  31.477  1.00  0.00     0.002 A 
ATOM     68  C   UNL A   1      37.271  29.629  29.395  1.00  0.00     0.091 A 
ATOM     69  F   UNL A   1      38.822  29.726  27.584  1.00  0.00    -0.205 F 
ATOM     70  C   UNL A   1      36.976  29.216  30.705  1.00  0.00     0.022 A 
BRANCH  68  71
ATOM     71  S   UNL A   1      35.978  30.513  28.516  1.00  0.00     0.127 S 
ATOM     72  O   UNL A   1      35.289  29.423  27.829  1.00  0.00    -0.237 OA
ATOM     73  O   UNL A   1      35.222  31.118  29.613  1.00  0.00    -0.237 OA
ATOM     74  O   UNL A   1      36.658  31.464  27.647  1.00  0.00    -0.744 OA
ENDBRANCH  68  71
ENDBRANCH  50  64
BRANCH  51  75
ATOM     75  C   UNL A   1      48.491  27.309  25.456  1.00  0.00     0.023 A 
ATOM     76  C   UNL A   1      49.615  26.938  26.221  1.00  0.00     0.012 A 
ATOM     77  C   UNL A   1      48.642  27.504  24.070  1.00  0.00     0.148 A 
ATOM     78  C   UNL A   1      50.872  26.811  25.628  1.00  0.00     0.002 A 
ATOM     79  C   UNL A   1      49.887  27.322  23.475  1.00  0.00     0.091 A 
ATOM     80  F   UNL A   1      47.567  27.869  23.357  1.00  0.00    -0.205 F 
ATOM     81  C   UNL A   1      51.007  26.995  24.255  1.00  0.00     0.022 A 
BRANCH  79  82
ATOM     82  S   UNL A   1      50.117  27.413  21.696  1.00  0.00     0.127 S 
ATOM     83  O   UNL A   1      49.720  28.790  21.413  1.00  0.00    -0.237 OA
ATOM     84  O   UNL A   1      51.549  27.145  21.557  1.00  0.00    -0.237 OA
ATOM     85  O   UNL A   1      49.260  26.373  21.145  1.00  0.00    -0.744 OA
ENDBRANCH  79  82
ENDBRANCH  51  75
BRANCH  63  86
ATOM     86  C   UNL A   1      45.637  32.517  29.130  1.00  0.00     0.023 A 
ATOM     87  C   UNL A   1      46.366  32.623  30.330  1.00  0.00     0.012 A 
ATOM     88  C   UNL A   1      45.477  33.652  28.312  1.00  0.00     0.148 A 
ATOM     89  C   UNL A   1      46.900  33.847  30.725  1.00  0.00     0.002 A 
ATOM     90  C   UNL A   1      46.054  34.858  28.688  1.00  0.00     0.091 A 
ATOM     91  F   UNL A   1      44.763  33.533  27.183  1.00  0.00    -0.205 F 
ATOM     92  C   UNL A   1      46.756  34.960  29.900  1.00  0.00     0.022 A 
BRANCH  90  93
ATOM     93  S   UNL A   1      46.003  36.310  27.633  1.00  0.00     0.127 S 
ATOM     94  O   UNL A   1      46.763  37.278  28.422  1.00  0.00    -0.237 OA
ATOM     95  O   UNL A   1      46.681  35.842  26.423  1.00  0.00    -0.237 OA
ATOM     96  O   UNL A   1      44.591  36.618  27.448  1.00  0.00    -0.744 OA
ENDBRANCH  90  93
ENDBRANCH  63  86
ENDBRANCH  37  38
ENDBRANCH  29  32
ENDBRANCH  27  28
ENDBRANCH  26  27
ENDBRANCH   1  26
TORSDOF 19
ENDMDL
MODEL 3
REMARK VINA RESULT:     -11.0      1.867      2.173
REMARK SMILES CC[C@H](NC(=O)N1CCO[C@@H](CC(=O)NCCCCNC(=O)c2ccc(-c3c4nc(c(-c5cccc(S(=O)(=O)[O-])c5F)c5ccc([nH]5)c(-c5cccc(S(=O)(=O)[O-])c5F)c5nc(c(-c6cccc(S(=O)(=O)[O-])c6F)c6ccc3[nH]6)C=C5)C=C4)cc2)C1)c1cccs1
REMARK SMILES IDX 17 1 16 2 15 3 13 4 14 5 12 7 11 8 7 9 8 10 86 11 9 12 10 13
REMARK SMILES IDX 5 14 4 15 6 17 3 18 2 19 1 20 87 21 88 22 91 23 89 24 90 25
REMARK SMILES IDX 18 26 19 27 20 28 21 29 22 31 23 32 24 33 85 34 25 35 84 36
REMARK SMILES IDX 26 37 27 38 28 39 78 40 29 41 83 42 77 43 79 44 30 45 82 46
REMARK SMILES IDX 76 47 75 48 31 50 63 51 43 52 62 53 44 54 47 55 61 56 80 57
REMARK SMILES IDX 45 58 46 59 60 61 81 62 48 63 32 64 33 65 41 66 34 67 36 68
REMARK SMILES IDX 42 69 35 70 37 71 38 72 39 73 40 74 64 75 65 76 73 77 66 78
REMARK SMILES IDX 68 79 74 80 67 81 69 82 70 83 71 84 72 85 49 86 50 87 58 88
REMARK SMILES IDX 51 89 53 90 59 91 52 92 54 93 55 94 56 95 57 96
REMARK H PARENT 15 6 4 16 20 30 79 49 47 60
REMARK Flexibility Score: inf
ROOT
ATOM      1  C   UNL A   1      31.450  30.730  26.248  1.00  0.00     0.023 C 
ENDROOT
BRANCH   1   2
ATOM      2  C   UNL A   1      32.861  30.132  26.233  1.00  0.00     0.116 C 
BRANCH   2   3
ATOM      3  N   UNL A   1      33.178  29.622  24.909  1.00  0.00    -0.356 N 
ATOM      4  C   UNL A   1      33.694  28.413  24.540  1.00  0.00     0.222 C 
ATOM      5  O   UNL A   1      34.104  28.264  23.389  1.00  0.00    -0.275 OA
ATOM      6  H   UNL A   1      32.991  30.241  24.166  1.00  0.00     0.163 HD
BRANCH   4   7
ATOM      7  C   UNL A   1      33.736  27.267  25.529  1.00  0.00     0.133 C 
BRANCH   7   8
ATOM      8  C   UNL A   1      32.985  25.988  25.128  1.00  0.00     0.147 C 
ATOM      9  N   UNL A   1      32.318  23.681  25.952  1.00  0.00    -0.320 N 
ATOM     10  C   UNL A   1      30.924  24.100  25.841  1.00  0.00     0.150 C 
ATOM     11  C   UNL A   1      33.218  24.819  26.093  1.00  0.00     0.154 C 
ATOM     12  C   UNL A   1      30.741  25.232  24.830  1.00  0.00     0.182 C 
ATOM     13  O   UNL A   1      31.582  26.353  25.133  1.00  0.00    -0.374 OA
BRANCH   9  14
ATOM     14  C   UNL A   1      32.569  22.616  26.796  1.00  0.00     0.318 C 
ATOM     15  N   UNL A   1      32.958  21.429  26.265  1.00  0.00    -0.330 N 
ATOM     16  H   UNL A   1      32.460  20.625  26.539  1.00  0.00     0.166 HD
ATOM     17  O   UNL A   1      32.403  22.674  28.014  1.00  0.00    -0.249 OA
BRANCH  15  18
ATOM     18  C   UNL A   1      34.057  21.252  25.319  1.00  0.00     0.124 C 
BRANCH  18  19
ATOM     19  C   UNL A   1      35.454  21.456  25.972  1.00  0.00     0.027 C 
ATOM     20  C   UNL A   1      36.238  22.686  25.525  1.00  0.00     0.006 C 
ENDBRANCH  18  19
BRANCH  18  21
ATOM     21  C   UNL A   1      33.966  19.861  24.737  1.00  0.00     0.027 A 
ATOM     22  C   UNL A   1      34.933  18.868  24.721  1.00  0.00     0.017 A 
ATOM     23  S   UNL A   1      32.522  19.320  23.985  1.00  0.00    -0.147 S 
ATOM     24  C   UNL A   1      34.429  17.624  24.253  1.00  0.00     0.012 A 
ATOM     25  C   UNL A   1      33.103  17.712  23.894  1.00  0.00     0.065 A 
ENDBRANCH  18  21
ENDBRANCH  15  18
ENDBRANCH   9  14
ENDBRANCH   7   8
ENDBRANCH   4   7
ENDBRANCH   2   3
ENDBRANCH   1   2
BRANCH   1  26
ATOM     26  C   UNL A   1      31.358  32.213  26.537  1.00  0.00     0.023 C 
BRANCH  26  27
ATOM     27  C   UNL A   1      32.605  32.790  27.166  1.00  0.00     0.116 C 
BRANCH  27  28
ATOM     28  N   UNL A   1      32.416  34.100  27.777  1.00  0.00    -0.352 N 
ATOM     29  C   UNL A   1      33.190  34.682  28.762  1.00  0.00     0.251 C 
ATOM     30  H   UNL A   1      31.652  34.630  27.452  1.00  0.00     0.163 HD
ATOM     31  O   UNL A   1      32.903  35.760  29.247  1.00  0.00    -0.269 OA
BRANCH  29  32
ATOM     32  C   UNL A   1      34.358  33.912  29.246  1.00  0.00     0.039 A 
ATOM     33  C   UNL A   1      35.640  34.366  28.942  1.00  0.00     0.014 A 
ATOM     34  C   UNL A   1      34.164  32.847  30.128  1.00  0.00     0.014 A 
ATOM     35  C   UNL A   1      36.736  33.787  29.583  1.00  0.00     0.010 A 
ATOM     36  C   UNL A   1      35.240  32.367  30.857  1.00  0.00     0.010 A 
ATOM     37  C   UNL A   1      36.541  32.810  30.574  1.00  0.00    -0.014 A 
BRANCH  37  38
ATOM     38  C   UNL A   1      37.680  32.194  31.300  1.00  0.00     0.031 A 
ATOM     39  C   UNL A   1      38.457  31.084  30.639  1.00  0.00     0.074 A 
ATOM     40  C   UNL A   1      37.954  32.556  32.569  1.00  0.00     0.049 A 
ATOM     41  N   UNL A   1      39.428  30.357  31.123  1.00  0.00    -0.248 NA
ATOM     42  C   UNL A   1      38.058  30.706  29.270  1.00  0.00     0.031 C 
ATOM     43  C   UNL A   1      37.204  33.539  33.358  1.00  0.00     0.029 A 
ATOM     44  N   UNL A   1      38.927  32.117  33.433  1.00  0.00    -0.354 N 
ATOM     45  C   UNL A   1      39.709  29.406  30.149  1.00  0.00     0.074 A 
ATOM     46  C   UNL A   1      38.778  29.615  29.065  1.00  0.00     0.031 C 
ATOM     47  C   UNL A   1      37.752  33.634  34.582  1.00  0.00     0.029 A 
ATOM     48  C   UNL A   1      38.876  32.708  34.675  1.00  0.00     0.049 A 
ATOM     49  H   UNL A   1      39.598  31.441  33.187  1.00  0.00     0.167 HD
ATOM     50  C   UNL A   1      40.685  28.469  30.134  1.00  0.00     0.034 A 
ATOM     51  C   UNL A   1      39.654  32.526  35.761  1.00  0.00     0.034 A 
ATOM     52  C   UNL A   1      41.672  28.336  31.167  1.00  0.00     0.049 A 
ATOM     53  C   UNL A   1      40.810  31.562  35.667  1.00  0.00     0.074 A 
ATOM     54  C   UNL A   1      42.780  27.508  31.195  1.00  0.00     0.029 A 
ATOM     55  N   UNL A   1      41.677  29.060  32.348  1.00  0.00    -0.354 N 
ATOM     56  N   UNL A   1      41.168  30.799  34.664  1.00  0.00    -0.248 NA
ATOM     57  C   UNL A   1      41.696  31.470  36.836  1.00  0.00     0.031 C 
ATOM     58  C   UNL A   1      43.451  27.726  32.402  1.00  0.00     0.029 A 
ATOM     59  C   UNL A   1      42.772  28.703  33.112  1.00  0.00     0.049 A 
ATOM     60  H   UNL A   1      41.002  29.729  32.604  1.00  0.00     0.167 HD
ATOM     61  C   UNL A   1      42.343  30.172  35.062  1.00  0.00     0.074 A 
ATOM     62  C   UNL A   1      42.647  30.661  36.392  1.00  0.00     0.031 C 
ATOM     63  C   UNL A   1      43.095  29.261  34.398  1.00  0.00     0.034 A 
BRANCH  50  64
ATOM     64  C   UNL A   1      40.785  27.571  28.932  1.00  0.00     0.023 A 
ATOM     65  C   UNL A   1      39.869  26.511  28.776  1.00  0.00     0.012 A 
ATOM     66  C   UNL A   1      41.736  27.818  27.923  1.00  0.00     0.148 A 
ATOM     67  C   UNL A   1      39.916  25.691  27.650  1.00  0.00     0.002 A 
ATOM     68  C   UNL A   1      41.746  27.027  26.780  1.00  0.00     0.091 A 
ATOM     69  F   UNL A   1      42.612  28.816  28.101  1.00  0.00    -0.205 F 
ATOM     70  C   UNL A   1      40.845  25.957  26.648  1.00  0.00     0.022 A 
BRANCH  68  71
ATOM     71  S   UNL A   1      42.846  27.334  25.395  1.00  0.00     0.127 S 
ATOM     72  O   UNL A   1      42.826  26.043  24.710  1.00  0.00    -0.237 OA
ATOM     73  O   UNL A   1      42.152  28.411  24.687  1.00  0.00    -0.237 OA
ATOM     74  O   UNL A   1      44.129  27.711  25.972  1.00  0.00    -0.744 OA
ENDBRANCH  68  71
ENDBRANCH  50  64
BRANCH  51  75
ATOM     75  C   UNL A   1      39.428  33.328  36.997  1.00  0.00     0.023 A 
ATOM     76  C   UNL A   1      40.030  34.597  37.118  1.00  0.00     0.012 A 
ATOM     77  C   UNL A   1      38.627  32.849  38.051  1.00  0.00     0.148 A 
ATOM     78  C   UNL A   1      39.878  35.352  38.281  1.00  0.00     0.002 A 
ATOM     79  C   UNL A   1      38.434  33.631  39.186  1.00  0.00     0.091 A 
ATOM     80  F   UNL A   1      38.072  31.635  37.928  1.00  0.00    -0.205 F 
ATOM     81  C   UNL A   1      39.073  34.873  39.312  1.00  0.00     0.022 A 
BRANCH  79  82
ATOM     82  S   UNL A   1      37.310  33.143  40.500  1.00  0.00     0.127 S 
ATOM     83  O   UNL A   1      36.082  32.870  39.758  1.00  0.00    -0.237 OA
ATOM     84  O   UNL A   1      37.973  31.959  41.049  1.00  0.00    -0.237 OA
ATOM     85  O   UNL A   1      37.269  34.278  41.411  1.00  0.00    -0.744 OA
ENDBRANCH  79  82
ENDBRANCH  51  75
BRANCH  63  86
ATOM     86  C   UNL A   1      44.352  28.769  35.064  1.00  0.00     0.023 A 
ATOM     87  C   UNL A   1      44.312  27.617  35.873  1.00  0.00     0.012 A 
ATOM     88  C   UNL A   1      45.585  29.400  34.814  1.00  0.00     0.148 A 
ATOM     89  C   UNL A   1      45.479  27.118  36.448  1.00  0.00     0.002 A 
ATOM     90  C   UNL A   1      46.751  28.868  35.351  1.00  0.00     0.091 A 
ATOM     91  F   UNL A   1      45.598  30.507  34.056  1.00  0.00    -0.205 F 
ATOM     92  C   UNL A   1      46.698  27.734  36.178  1.00  0.00     0.022 A 
BRANCH  90  93
ATOM     93  S   UNL A   1      48.371  29.540  34.965  1.00  0.00     0.127 S 
ATOM     94  O   UNL A   1      48.314  30.848  35.617  1.00  0.00    -0.237 OA
ATOM     95  O   UNL A   1      49.271  28.579  35.606  1.00  0.00    -0.237 OA
ATOM     96  O   UNL A   1      48.456  29.564  33.511  1.00  0.00    -0.744 OA
ENDBRANCH  90  93
ENDBRANCH  63  86
ENDBRANCH  37  38
ENDBRANCH  29  32
ENDBRANCH  27  28
ENDBRANCH  26  27
ENDBRANCH   1  26
TORSDOF 19
ENDMDL
