MODEL 1
REMARK VINA RESULT:     -13.3      0.000      0.000
REMARK SMILES COc1ccccc1[C@@H]1CN(C(=O)c2cnn3ccccc23)C[C@H]1C(=O)NCCCCNC(=O)c1ccc(-c2c3nc(c(-c4cccc(S(=O)(=O)[O-])c4F)c4ccc([nH]4)c(-c4cccc(S(=O)(=O)[O-])c4F)c4nc(c(-c5cccc(S(=O)(=O)[O-])c5F)c5ccc2[nH]5)C=C4)C=C3)cc1
REMARK SMILES IDX 30 1 29 2 28 3 27 4 25 5 26 6 24 8 9 9 10 10 11 11 23 12
REMARK SMILES IDX 8 13 3 14 4 15 5 16 7 17 6 18 2 19 1 20 12 21 13 22 14 23
REMARK SMILES IDX 15 24 22 25 16 26 17 27 21 28 18 29 20 30 19 31 31 32 32 33
REMARK SMILES IDX 33 34 34 36 35 37 36 38 97 39 37 40 96 41 38 42 39 43 40 44
REMARK SMILES IDX 90 45 41 46 95 47 89 48 91 49 42 50 94 51 88 52 87 53 43 55
REMARK SMILES IDX 75 56 55 57 74 58 56 59 59 60 73 61 92 62 57 63 58 64 72 66
REMARK SMILES IDX 93 67 60 68 44 69 45 70 53 71 46 72 48 73 54 74 47 75 49 76
REMARK SMILES IDX 50 77 51 78 52 79 76 80 77 81 85 82 78 83 80 84 86 85 79 86
REMARK SMILES IDX 81 87 82 88 83 89 84 90 61 91 62 92 70 93 63 94 65 95 71 96
REMARK SMILES IDX 64 97 66 98 67 99 68 100 69 101
REMARK H PARENT 27 7 32 35 91 54 59 65
REMARK Flexibility Score: inf
ROOT
ATOM      1  C   UNL A   1      38.534  19.965  25.008  1.00  0.00     0.023 C 
ENDROOT
BRANCH   1   2
ATOM      2  C   UNL A   1      37.666  21.228  24.978  1.00  0.00     0.023 C 
BRANCH   2   3
ATOM      3  C   UNL A   1      36.160  21.019  25.149  1.00  0.00     0.116 C 
BRANCH   3   4
ATOM      4  N   UNL A   1      35.666  21.599  26.378  1.00  0.00    -0.356 N 
ATOM      5  C   UNL A   1      34.570  22.357  26.634  1.00  0.00     0.225 C 
ATOM      6  O   UNL A   1      34.506  22.893  27.743  1.00  0.00    -0.275 OA
ATOM      7  H   UNL A   1      36.223  21.412  27.168  1.00  0.00     0.163 HD
BRANCH   5   8
ATOM      8  C   UNL A   1      33.482  22.618  25.609  1.00  0.00     0.107 C 
ATOM      9  C   UNL A   1      32.313  21.618  25.683  1.00  0.00     0.057 C 
ATOM     10  C   UNL A   1      31.082  22.429  25.302  1.00  0.00     0.129 C 
ATOM     11  N   UNL A   1      31.399  23.766  25.776  1.00  0.00    -0.337 N 
ATOM     12  C   UNL A   1      32.839  24.005  25.695  1.00  0.00     0.134 C 
BRANCH   9  13
ATOM     13  C   UNL A   1      32.497  20.301  24.965  1.00  0.00    -0.000 A 
ATOM     14  C   UNL A   1      32.478  20.114  23.575  1.00  0.00     0.122 A 
ATOM     15  C   UNL A   1      32.649  18.832  23.032  1.00  0.00     0.047 A 
ATOM     16  C   UNL A   1      32.812  17.721  23.859  1.00  0.00     0.004 A 
ATOM     17  C   UNL A   1      32.663  19.158  25.780  1.00  0.00     0.008 A 
ATOM     18  C   UNL A   1      32.800  17.882  25.237  1.00  0.00     0.001 A 
BRANCH  14  19
ATOM     19  O   UNL A   1      32.085  21.079  22.687  1.00  0.00    -0.496 OA
ATOM     20  C   UNL A   1      31.742  20.593  21.392  1.00  0.00     0.278 C 
ENDBRANCH  14  19
ENDBRANCH   9  13
BRANCH  11  21
ATOM     21  C   UNL A   1      30.517  24.784  26.086  1.00  0.00     0.257 C 
ATOM     22  O   UNL A   1      29.624  24.645  26.917  1.00  0.00    -0.269 OA
BRANCH  21  23
ATOM     23  C   UNL A   1      30.696  26.053  25.411  1.00  0.00     0.085 A 
ATOM     24  C   UNL A   1      30.451  26.323  24.052  1.00  0.00     0.150 A 
ATOM     25  C   UNL A   1      31.218  27.239  25.897  1.00  0.00     0.079 A 
ATOM     26  N   UNL A   1      30.687  27.593  23.713  1.00  0.00    -0.176 NA
ATOM     27  N   UNL A   1      31.157  28.165  24.851  1.00  0.00    -0.240 N 
ATOM     28  C   UNL A   1      31.757  27.681  27.143  1.00  0.00     0.029 A 
ATOM     29  C   UNL A   1      31.535  29.499  25.022  1.00  0.00     0.113 A 
ATOM     30  C   UNL A   1      32.117  28.969  27.295  1.00  0.00     0.004 A 
ATOM     31  C   UNL A   1      31.996  29.926  26.209  1.00  0.00     0.020 A 
ENDBRANCH  21  23
ENDBRANCH  11  21
ENDBRANCH   5   8
ENDBRANCH   3   4
ENDBRANCH   2   3
ENDBRANCH   1   2
BRANCH   1  32
ATOM     32  C   UNL A   1      39.485  19.879  26.192  1.00  0.00     0.116 C 
BRANCH  32  33
ATOM     33  N   UNL A   1      40.696  19.099  25.901  1.00  0.00    -0.352 N 
ATOM     34  C   UNL A   1      41.991  19.566  25.763  1.00  0.00     0.251 C 
ATOM     35  H   UNL A   1      40.570  18.129  25.790  1.00  0.00     0.163 HD
ATOM     36  O   UNL A   1      42.842  18.909  25.168  1.00  0.00    -0.269 OA
BRANCH  34  37
ATOM     37  C   UNL A   1      42.327  20.862  26.368  1.00  0.00     0.039 A 
ATOM     38  C   UNL A   1      42.745  21.968  25.625  1.00  0.00     0.014 A 
ATOM     39  C   UNL A   1      42.124  20.961  27.738  1.00  0.00     0.014 A 
ATOM     40  C   UNL A   1      42.870  23.195  26.276  1.00  0.00     0.010 A 
ATOM     41  C   UNL A   1      42.014  22.193  28.311  1.00  0.00     0.010 A 
ATOM     42  C   UNL A   1      42.482  23.299  27.621  1.00  0.00    -0.014 A 
BRANCH  42  43
ATOM     43  C   UNL A   1      42.488  24.566  28.338  1.00  0.00     0.031 A 
ATOM     44  C   UNL A   1      41.277  25.404  28.136  1.00  0.00     0.074 A 
ATOM     45  C   UNL A   1      43.412  24.842  29.287  1.00  0.00     0.049 A 
ATOM     46  N   UNL A   1      41.199  26.528  27.507  1.00  0.00    -0.248 NA
ATOM     47  C   UNL A   1      39.973  24.864  28.549  1.00  0.00     0.031 C 
ATOM     48  C   UNL A   1      44.466  23.965  29.826  1.00  0.00     0.029 A 
ATOM     49  N   UNL A   1      43.505  25.932  30.091  1.00  0.00    -0.354 N 
ATOM     50  C   UNL A   1      39.881  26.956  27.652  1.00  0.00     0.074 A 
ATOM     51  C   UNL A   1      39.139  25.809  28.108  1.00  0.00     0.031 C 
ATOM     52  C   UNL A   1      44.886  24.440  31.018  1.00  0.00     0.029 A 
ATOM     53  C   UNL A   1      44.290  25.742  31.225  1.00  0.00     0.049 A 
ATOM     54  H   UNL A   1      43.055  26.783  29.890  1.00  0.00     0.167 HD
ATOM     55  C   UNL A   1      39.560  28.279  27.619  1.00  0.00     0.034 A 
ATOM     56  C   UNL A   1      44.404  26.587  32.277  1.00  0.00     0.034 A 
ATOM     57  C   UNL A   1      40.667  29.068  27.135  1.00  0.00     0.049 A 
ATOM     58  C   UNL A   1      43.975  27.921  31.800  1.00  0.00     0.074 A 
ATOM     59  C   UNL A   1      41.395  29.121  25.965  1.00  0.00     0.029 A 
ATOM     60  N   UNL A   1      41.433  29.696  28.089  1.00  0.00    -0.354 N 
ATOM     61  N   UNL A   1      44.615  28.593  30.884  1.00  0.00    -0.248 NA
ATOM     62  C   UNL A   1      42.587  28.299  32.005  1.00  0.00     0.031 C 
ATOM     63  C   UNL A   1      42.741  29.340  26.384  1.00  0.00     0.029 A 
ATOM     64  C   UNL A   1      42.748  29.480  27.774  1.00  0.00     0.049 A 
ATOM     65  H   UNL A   1      41.097  30.209  28.859  1.00  0.00     0.167 HD
ATOM     66  C   UNL A   1      43.610  29.134  30.093  1.00  0.00     0.074 A 
ATOM     67  C   UNL A   1      42.392  29.016  30.894  1.00  0.00     0.031 C 
ATOM     68  C   UNL A   1      43.803  29.352  28.757  1.00  0.00     0.034 A 
BRANCH  55  69
ATOM     69  C   UNL A   1      38.408  28.934  28.349  1.00  0.00     0.023 A 
ATOM     70  C   UNL A   1      37.502  29.692  27.569  1.00  0.00     0.012 A 
ATOM     71  C   UNL A   1      38.319  29.081  29.751  1.00  0.00     0.148 A 
ATOM     72  C   UNL A   1      36.604  30.594  28.149  1.00  0.00     0.002 A 
ATOM     73  C   UNL A   1      37.374  29.924  30.327  1.00  0.00     0.091 A 
ATOM     74  F   UNL A   1      39.229  28.511  30.544  1.00  0.00    -0.205 F 
ATOM     75  C   UNL A   1      36.537  30.708  29.530  1.00  0.00     0.022 A 
BRANCH  73  76
ATOM     76  S   UNL A   1      37.210  30.079  32.111  1.00  0.00     0.127 S 
ATOM     77  O   UNL A   1      38.481  30.704  32.467  1.00  0.00    -0.237 OA
ATOM     78  O   UNL A   1      36.038  30.946  32.229  1.00  0.00    -0.237 OA
ATOM     79  O   UNL A   1      37.001  28.724  32.602  1.00  0.00    -0.744 OA
ENDBRANCH  73  76
ENDBRANCH  55  69
BRANCH  56  80
ATOM     80  C   UNL A   1      44.591  26.281  33.713  1.00  0.00     0.023 A 
ATOM     81  C   UNL A   1      45.868  26.398  34.294  1.00  0.00     0.012 A 
ATOM     82  C   UNL A   1      43.475  26.161  34.571  1.00  0.00     0.148 A 
ATOM     83  C   UNL A   1      46.027  26.432  35.685  1.00  0.00     0.002 A 
ATOM     84  C   UNL A   1      43.636  26.193  35.952  1.00  0.00     0.091 A 
ATOM     85  F   UNL A   1      42.250  26.111  34.030  1.00  0.00    -0.205 F 
ATOM     86  C   UNL A   1      44.911  26.342  36.513  1.00  0.00     0.022 A 
BRANCH  84  87
ATOM     87  S   UNL A   1      42.242  26.117  37.085  1.00  0.00     0.127 S 
ATOM     88  O   UNL A   1      42.894  26.315  38.381  1.00  0.00    -0.237 OA
ATOM     89  O   UNL A   1      41.424  27.238  36.632  1.00  0.00    -0.237 OA
ATOM     90  O   UNL A   1      41.659  24.793  36.905  1.00  0.00    -0.744 OA
ENDBRANCH  84  87
ENDBRANCH  56  80
BRANCH  68  91
ATOM     91  C   UNL A   1      45.202  29.207  28.208  1.00  0.00     0.023 A 
ATOM     92  C   UNL A   1      46.188  30.205  28.366  1.00  0.00     0.012 A 
ATOM     93  C   UNL A   1      45.583  27.956  27.696  1.00  0.00     0.148 A 
ATOM     94  C   UNL A   1      47.518  29.963  28.009  1.00  0.00     0.002 A 
ATOM     95  C   UNL A   1      46.914  27.703  27.388  1.00  0.00     0.091 A 
ATOM     96  F   UNL A   1      44.635  27.016  27.558  1.00  0.00    -0.205 F 
ATOM     97  C   UNL A   1      47.884  28.707  27.534  1.00  0.00     0.022 A 
BRANCH  95  98
ATOM     98  S   UNL A   1      47.467  26.068  26.902  1.00  0.00     0.127 S 
ATOM     99  O   UNL A   1      48.889  26.288  26.652  1.00  0.00    -0.237 OA
ATOM    100  O   UNL A   1      47.171  25.270  28.093  1.00  0.00    -0.237 OA
ATOM    101  O   UNL A   1      46.674  25.706  25.733  1.00  0.00    -0.744 OA
ENDBRANCH  95  98
ENDBRANCH  68  91
ENDBRANCH  42  43
ENDBRANCH  34  37
ENDBRANCH  32  33
ENDBRANCH   1  32
TORSDOF 18
ENDMDL
MODEL 2
REMARK VINA RESULT:     -13.2      1.809      4.290
REMARK SMILES COc1ccccc1[C@@H]1CN(C(=O)c2cnn3ccccc23)C[C@H]1C(=O)NCCCCNC(=O)c1ccc(-c2c3nc(c(-c4cccc(S(=O)(=O)[O-])c4F)c4ccc([nH]4)c(-c4cccc(S(=O)(=O)[O-])c4F)c4nc(c(-c5cccc(S(=O)(=O)[O-])c5F)c5ccc2[nH]5)C=C4)C=C3)cc1
REMARK SMILES IDX 30 1 29 2 28 3 27 4 25 5 26 6 24 8 9 9 10 10 11 11 23 12
REMARK SMILES IDX 8 13 3 14 4 15 5 16 7 17 6 18 2 19 1 20 12 21 13 22 14 23
REMARK SMILES IDX 15 24 22 25 16 26 17 27 21 28 18 29 20 30 19 31 31 32 32 33
REMARK SMILES IDX 33 34 34 36 35 37 36 38 97 39 37 40 96 41 38 42 39 43 40 44
REMARK SMILES IDX 90 45 41 46 95 47 89 48 91 49 42 50 94 51 88 52 87 53 43 55
REMARK SMILES IDX 75 56 55 57 74 58 56 59 59 60 73 61 92 62 57 63 58 64 72 66
REMARK SMILES IDX 93 67 60 68 44 69 45 70 53 71 46 72 48 73 54 74 47 75 49 76
REMARK SMILES IDX 50 77 51 78 52 79 76 80 77 81 85 82 78 83 80 84 86 85 79 86
REMARK SMILES IDX 81 87 82 88 83 89 84 90 61 91 62 92 70 93 63 94 65 95 71 96
REMARK SMILES IDX 64 97 66 98 67 99 68 100 69 101
REMARK H PARENT 27 7 32 35 91 54 59 65
REMARK Flexibility Score: inf
ROOT
ATOM      1  C   UNL A   1      38.702  21.136  26.343  1.00  0.00     0.023 C 
ENDROOT
BRANCH   1   2
ATOM      2  C   UNL A   1      38.894  22.657  26.312  1.00  0.00     0.023 C 
BRANCH   2   3
ATOM      3  C   UNL A   1      37.683  23.484  25.875  1.00  0.00     0.116 C 
BRANCH   3   4
ATOM      4  N   UNL A   1      37.524  23.499  24.438  1.00  0.00    -0.356 N 
ATOM      5  C   UNL A   1      36.431  23.316  23.655  1.00  0.00     0.225 C 
ATOM      6  O   UNL A   1      36.626  23.174  22.445  1.00  0.00    -0.275 OA
ATOM      7  H   UNL A   1      38.355  23.672  23.939  1.00  0.00     0.163 HD
BRANCH   5   8
ATOM      8  C   UNL A   1      35.021  23.213  24.207  1.00  0.00     0.107 C 
ATOM      9  C   UNL A   1      33.975  23.970  23.367  1.00  0.00     0.057 C 
ATOM     10  C   UNL A   1      32.705  23.138  23.486  1.00  0.00     0.129 C 
ATOM     11  N   UNL A   1      33.203  21.781  23.634  1.00  0.00    -0.337 N 
ATOM     12  C   UNL A   1      34.485  21.785  24.336  1.00  0.00     0.134 C 
BRANCH   9  13
ATOM     13  C   UNL A   1      33.833  25.451  23.629  1.00  0.00    -0.000 A 
ATOM     14  C   UNL A   1      33.588  26.437  22.662  1.00  0.00     0.122 A 
ATOM     15  C   UNL A   1      33.490  27.785  23.036  1.00  0.00     0.047 A 
ATOM     16  C   UNL A   1      33.660  28.174  24.365  1.00  0.00     0.004 A 
ATOM     17  C   UNL A   1      34.002  25.872  24.969  1.00  0.00     0.008 A 
ATOM     18  C   UNL A   1      33.935  27.216  25.331  1.00  0.00     0.001 A 
BRANCH  14  19
ATOM     19  O   UNL A   1      33.649  26.206  21.314  1.00  0.00    -0.496 OA
ATOM     20  C   UNL A   1      32.425  25.774  20.728  1.00  0.00     0.278 C 
ENDBRANCH  14  19
ENDBRANCH   9  13
BRANCH  11  21
ATOM     21  C   UNL A   1      32.537  20.602  23.358  1.00  0.00     0.257 C 
ATOM     22  O   UNL A   1      31.896  20.440  22.324  1.00  0.00    -0.269 OA
BRANCH  21  23
ATOM     23  C   UNL A   1      32.643  19.531  24.328  1.00  0.00     0.085 A 
ATOM     24  C   UNL A   1      32.289  19.593  25.689  1.00  0.00     0.150 A 
ATOM     25  C   UNL A   1      33.181  18.265  24.182  1.00  0.00     0.079 A 
ATOM     26  N   UNL A   1      32.478  18.442  26.338  1.00  0.00    -0.176 NA
ATOM     27  N   UNL A   1      33.024  17.615  25.410  1.00  0.00    -0.240 N 
ATOM     28  C   UNL A   1      33.807  17.539  23.124  1.00  0.00     0.029 A 
ATOM     29  C   UNL A   1      33.392  16.280  25.593  1.00  0.00     0.113 A 
ATOM     30  C   UNL A   1      34.157  16.253  23.312  1.00  0.00     0.004 A 
ATOM     31  C   UNL A   1      33.936  15.583  24.582  1.00  0.00     0.020 A 
ENDBRANCH  21  23
ENDBRANCH  11  21
ENDBRANCH   5   8
ENDBRANCH   3   4
ENDBRANCH   2   3
ENDBRANCH   1   2
BRANCH   1  32
ATOM     32  C   UNL A   1      39.346  20.393  25.181  1.00  0.00     0.116 C 
BRANCH  32  33
ATOM     33  N   UNL A   1      40.244  19.316  25.617  1.00  0.00    -0.352 N 
ATOM     34  C   UNL A   1      41.540  19.431  26.088  1.00  0.00     0.251 C 
ATOM     35  H   UNL A   1      39.881  18.402  25.566  1.00  0.00     0.163 HD
ATOM     36  O   UNL A   1      42.310  18.473  26.070  1.00  0.00    -0.269 OA
BRANCH  34  37
ATOM     37  C   UNL A   1      41.965  20.728  26.633  1.00  0.00     0.039 A 
ATOM     38  C   UNL A   1      42.427  21.778  25.838  1.00  0.00     0.014 A 
ATOM     39  C   UNL A   1      41.801  20.891  28.002  1.00  0.00     0.014 A 
ATOM     40  C   UNL A   1      42.637  23.020  26.436  1.00  0.00     0.010 A 
ATOM     41  C   UNL A   1      41.775  22.149  28.529  1.00  0.00     0.010 A 
ATOM     42  C   UNL A   1      42.289  23.198  27.785  1.00  0.00    -0.014 A 
BRANCH  42  43
ATOM     43  C   UNL A   1      42.385  24.490  28.449  1.00  0.00     0.031 A 
ATOM     44  C   UNL A   1      41.200  25.370  28.279  1.00  0.00     0.074 A 
ATOM     45  C   UNL A   1      43.369  24.761  29.338  1.00  0.00     0.049 A 
ATOM     46  N   UNL A   1      41.134  26.473  27.610  1.00  0.00    -0.248 NA
ATOM     47  C   UNL A   1      39.899  24.902  28.780  1.00  0.00     0.031 C 
ATOM     48  C   UNL A   1      44.414  23.860  29.855  1.00  0.00     0.029 A 
ATOM     49  N   UNL A   1      43.549  25.874  30.093  1.00  0.00    -0.354 N 
ATOM     50  C   UNL A   1      39.844  26.961  27.807  1.00  0.00     0.074 A 
ATOM     51  C   UNL A   1      39.082  25.865  28.346  1.00  0.00     0.031 C 
ATOM     52  C   UNL A   1      44.915  24.360  31.004  1.00  0.00     0.029 A 
ATOM     53  C   UNL A   1      44.384  25.694  31.191  1.00  0.00     0.049 A 
ATOM     54  H   UNL A   1      43.123  26.736  29.882  1.00  0.00     0.167 HD
ATOM     55  C   UNL A   1      39.576  28.295  27.739  1.00  0.00     0.034 A 
ATOM     56  C   UNL A   1      44.590  26.571  32.202  1.00  0.00     0.034 A 
ATOM     57  C   UNL A   1      40.686  29.017  27.168  1.00  0.00     0.049 A 
ATOM     58  C   UNL A   1      44.190  27.903  31.696  1.00  0.00     0.074 A 
ATOM     59  C   UNL A   1      41.352  28.996  25.961  1.00  0.00     0.029 A 
ATOM     60  N   UNL A   1      41.527  29.647  28.055  1.00  0.00    -0.354 N 
ATOM     61  N   UNL A   1      44.806  28.513  30.723  1.00  0.00    -0.248 NA
ATOM     62  C   UNL A   1      42.832  28.348  31.958  1.00  0.00     0.031 C 
ATOM     63  C   UNL A   1      42.727  29.173  26.301  1.00  0.00     0.029 A 
ATOM     64  C   UNL A   1      42.813  29.364  27.682  1.00  0.00     0.049 A 
ATOM     65  H   UNL A   1      41.254  30.202  28.821  1.00  0.00     0.167 HD
ATOM     66  C   UNL A   1      43.784  29.067  29.964  1.00  0.00     0.074 A 
ATOM     67  C   UNL A   1      42.607  29.030  30.831  1.00  0.00     0.031 C 
ATOM     68  C   UNL A   1      43.914  29.227  28.613  1.00  0.00     0.034 A 
BRANCH  55  69
ATOM     69  C   UNL A   1      38.492  29.025  28.501  1.00  0.00     0.023 A 
ATOM     70  C   UNL A   1      37.671  29.909  27.761  1.00  0.00     0.012 A 
ATOM     71  C   UNL A   1      38.412  29.109  29.909  1.00  0.00     0.148 A 
ATOM     72  C   UNL A   1      36.866  30.866  28.387  1.00  0.00     0.002 A 
ATOM     73  C   UNL A   1      37.553  30.013  30.527  1.00  0.00     0.091 A 
ATOM     74  F   UNL A   1      39.255  28.412  30.672  1.00  0.00    -0.205 F 
ATOM     75  C   UNL A   1      36.804  30.917  29.772  1.00  0.00     0.022 A 
BRANCH  73  76
ATOM     76  S   UNL A   1      37.398  30.094  32.317  1.00  0.00     0.127 S 
ATOM     77  O   UNL A   1      36.288  31.029  32.472  1.00  0.00    -0.237 OA
ATOM     78  O   UNL A   1      37.090  28.704  32.653  1.00  0.00    -0.237 OA
ATOM     79  O   UNL A   1      38.694  30.550  32.801  1.00  0.00    -0.744 OA
ENDBRANCH  73  76
ENDBRANCH  55  69
BRANCH  56  80
ATOM     80  C   UNL A   1      44.840  26.310  33.637  1.00  0.00     0.023 A 
ATOM     81  C   UNL A   1      46.143  26.438  34.156  1.00  0.00     0.012 A 
ATOM     82  C   UNL A   1      43.764  26.225  34.548  1.00  0.00     0.148 A 
ATOM     83  C   UNL A   1      46.365  26.517  35.535  1.00  0.00     0.002 A 
ATOM     84  C   UNL A   1      43.988  26.301  35.919  1.00  0.00     0.091 A 
ATOM     85  F   UNL A   1      42.515  26.165  34.065  1.00  0.00    -0.205 F 
ATOM     86  C   UNL A   1      45.288  26.460  36.417  1.00  0.00     0.022 A 
BRANCH  84  87
ATOM     87  S   UNL A   1      42.647  26.270  37.117  1.00  0.00     0.127 S 
ATOM     88  O   UNL A   1      41.869  27.448  36.730  1.00  0.00    -0.237 OA
ATOM     89  O   UNL A   1      42.009  24.990  36.821  1.00  0.00    -0.237 OA
ATOM     90  O   UNL A   1      43.282  26.375  38.424  1.00  0.00    -0.744 OA
ENDBRANCH  84  87
ENDBRANCH  56  80
BRANCH  68  91
ATOM     91  C   UNL A   1      45.274  29.003  27.998  1.00  0.00     0.023 A 
ATOM     92  C   UNL A   1      46.307  29.963  28.063  1.00  0.00     0.012 A 
ATOM     93  C   UNL A   1      45.577  27.718  27.518  1.00  0.00     0.148 A 
ATOM     94  C   UNL A   1      47.605  29.652  27.647  1.00  0.00     0.002 A 
ATOM     95  C   UNL A   1      46.878  27.398  27.152  1.00  0.00     0.091 A 
ATOM     96  F   UNL A   1      44.586  26.814  27.467  1.00  0.00    -0.205 F 
ATOM     97  C   UNL A   1      47.894  28.364  27.205  1.00  0.00     0.022 A 
BRANCH  95  98
ATOM     98  S   UNL A   1      47.338  25.723  26.704  1.00  0.00     0.127 S 
ATOM     99  O   UNL A   1      48.763  25.865  26.413  1.00  0.00    -0.237 OA
ATOM    100  O   UNL A   1      47.034  24.977  27.927  1.00  0.00    -0.237 OA
ATOM    101  O   UNL A   1      46.499  25.365  25.566  1.00  0.00    -0.744 OA
ENDBRANCH  95  98
ENDBRANCH  68  91
ENDBRANCH  42  43
ENDBRANCH  34  37
ENDBRANCH  32  33
ENDBRANCH   1  32
TORSDOF 18
ENDMDL
MODEL 3
REMARK VINA RESULT:     -13.0      3.043      8.326
REMARK SMILES COc1ccccc1[C@@H]1CN(C(=O)c2cnn3ccccc23)C[C@H]1C(=O)NCCCCNC(=O)c1ccc(-c2c3nc(c(-c4cccc(S(=O)(=O)[O-])c4F)c4ccc([nH]4)c(-c4cccc(S(=O)(=O)[O-])c4F)c4nc(c(-c5cccc(S(=O)(=O)[O-])c5F)c5ccc2[nH]5)C=C4)C=C3)cc1
REMARK SMILES IDX 30 1 29 2 28 3 27 4 25 5 26 6 24 8 9 9 10 10 11 11 23 12
REMARK SMILES IDX 8 13 3 14 4 15 5 16 7 17 6 18 2 19 1 20 12 21 13 22 14 23
REMARK SMILES IDX 15 24 22 25 16 26 17 27 21 28 18 29 20 30 19 31 31 32 32 33
REMARK SMILES IDX 33 34 34 36 35 37 36 38 97 39 37 40 96 41 38 42 39 43 40 44
REMARK SMILES IDX 90 45 41 46 95 47 89 48 91 49 42 50 94 51 88 52 87 53 43 55
REMARK SMILES IDX 75 56 55 57 74 58 56 59 59 60 73 61 92 62 57 63 58 64 72 66
REMARK SMILES IDX 93 67 60 68 44 69 45 70 53 71 46 72 48 73 54 74 47 75 49 76
REMARK SMILES IDX 50 77 51 78 52 79 76 80 77 81 85 82 78 83 80 84 86 85 79 86
REMARK SMILES IDX 81 87 82 88 83 89 84 90 61 91 62 92 70 93 63 94 65 95 71 96
REMARK SMILES IDX 64 97 66 98 67 99 68 100 69 101
REMARK H PARENT 27 7 32 35 91 54 59 65
REMARK Flexibility Score: inf
ROOT
ATOM      1  C   UNL A   1      33.686  29.686  27.258  1.00  0.00     0.023 C 
ENDROOT
BRANCH   1   2
ATOM      2  C   UNL A   1      32.301  30.223  26.881  1.00  0.00     0.023 C 
BRANCH   2   3
ATOM      3  C   UNL A   1      31.835  29.950  25.448  1.00  0.00     0.116 C 
BRANCH   3   4
ATOM      4  N   UNL A   1      32.940  29.650  24.565  1.00  0.00    -0.356 N 
ATOM      5  C   UNL A   1      33.252  28.527  23.871  1.00  0.00     0.225 C 
ATOM      6  O   UNL A   1      34.373  28.479  23.358  1.00  0.00    -0.275 OA
ATOM      7  H   UNL A   1      33.578  30.391  24.446  1.00  0.00     0.163 HD
BRANCH   5   8
ATOM      8  C   UNL A   1      32.324  27.331  23.763  1.00  0.00     0.107 C 
ATOM      9  C   UNL A   1      31.413  27.369  22.521  1.00  0.00     0.057 C 
ATOM     10  C   UNL A   1      31.247  25.910  22.117  1.00  0.00     0.129 C 
ATOM     11  N   UNL A   1      32.502  25.301  22.525  1.00  0.00    -0.337 N 
ATOM     12  C   UNL A   1      33.030  25.973  23.711  1.00  0.00     0.134 C 
BRANCH   9  13
ATOM     13  C   UNL A   1      30.145  28.182  22.631  1.00  0.00    -0.000 A 
ATOM     14  C   UNL A   1      28.949  27.764  23.234  1.00  0.00     0.122 A 
ATOM     15  C   UNL A   1      27.835  28.614  23.258  1.00  0.00     0.047 A 
ATOM     16  C   UNL A   1      27.883  29.875  22.663  1.00  0.00     0.004 A 
ATOM     17  C   UNL A   1      30.167  29.464  22.034  1.00  0.00     0.008 A 
ATOM     18  C   UNL A   1      29.047  30.293  22.033  1.00  0.00     0.001 A 
BRANCH  14  19
ATOM     19  O   UNL A   1      28.711  26.474  23.626  1.00  0.00    -0.496 OA
ATOM     20  C   UNL A   1      29.162  26.157  24.939  1.00  0.00     0.278 C 
ENDBRANCH  14  19
ENDBRANCH   9  13
BRANCH  11  21
ATOM     21  C   UNL A   1      33.076  24.141  22.041  1.00  0.00     0.257 C 
ATOM     22  O   UNL A   1      33.389  24.009  20.861  1.00  0.00    -0.269 OA
BRANCH  21  23
ATOM     23  C   UNL A   1      33.328  23.074  22.988  1.00  0.00     0.085 A 
ATOM     24  C   UNL A   1      32.362  22.301  23.659  1.00  0.00     0.150 A 
ATOM     25  C   UNL A   1      34.530  22.633  23.512  1.00  0.00     0.079 A 
ATOM     26  N   UNL A   1      32.890  21.372  24.460  1.00  0.00    -0.176 NA
ATOM     27  N   UNL A   1      34.231  21.570  24.369  1.00  0.00    -0.240 N 
ATOM     28  C   UNL A   1      35.902  23.002  23.369  1.00  0.00     0.029 A 
ATOM     29  C   UNL A   1      35.230  20.835  25.013  1.00  0.00     0.113 A 
ATOM     30  C   UNL A   1      36.855  22.286  23.994  1.00  0.00     0.004 A 
ATOM     31  C   UNL A   1      36.523  21.152  24.839  1.00  0.00     0.020 A 
ENDBRANCH  21  23
ENDBRANCH  11  21
ENDBRANCH   5   8
ENDBRANCH   3   4
ENDBRANCH   2   3
ENDBRANCH   1   2
BRANCH   1  32
ATOM     32  C   UNL A   1      34.799  30.723  27.219  1.00  0.00     0.116 C 
BRANCH  32  33
ATOM     33  N   UNL A   1      34.595  31.819  28.175  1.00  0.00    -0.352 N 
ATOM     34  C   UNL A   1      35.134  31.950  29.443  1.00  0.00     0.251 C 
ATOM     35  H   UNL A   1      34.004  32.548  27.878  1.00  0.00     0.163 HD
ATOM     36  O   UNL A   1      34.620  32.692  30.278  1.00  0.00    -0.269 OA
BRANCH  34  37
ATOM     37  C   UNL A   1      36.353  31.193  29.757  1.00  0.00     0.039 A 
ATOM     38  C   UNL A   1      36.347  29.838  30.093  1.00  0.00     0.014 A 
ATOM     39  C   UNL A   1      37.548  31.886  29.619  1.00  0.00     0.014 A 
ATOM     40  C   UNL A   1      37.570  29.176  30.202  1.00  0.00     0.010 A 
ATOM     41  C   UNL A   1      38.714  31.191  29.488  1.00  0.00     0.010 A 
ATOM     42  C   UNL A   1      38.751  29.863  29.877  1.00  0.00    -0.014 A 
BRANCH  42  43
ATOM     43  C   UNL A   1      40.053  29.211  29.869  1.00  0.00     0.031 A 
ATOM     44  C   UNL A   1      40.632  28.955  31.213  1.00  0.00     0.074 A 
ATOM     45  C   UNL A   1      40.573  28.675  28.740  1.00  0.00     0.049 A 
ATOM     46  N   UNL A   1      41.667  29.520  31.740  1.00  0.00    -0.248 NA
ATOM     47  C   UNL A   1      39.897  28.082  32.140  1.00  0.00     0.031 C 
ATOM     48  C   UNL A   1      39.953  28.560  27.408  1.00  0.00     0.029 A 
ATOM     49  N   UNL A   1      41.724  27.974  28.584  1.00  0.00    -0.354 N 
ATOM     50  C   UNL A   1      41.854  28.898  32.973  1.00  0.00     0.074 A 
ATOM     51  C   UNL A   1      40.632  28.189  33.250  1.00  0.00     0.031 C 
ATOM     52  C   UNL A   1      40.595  27.614  26.690  1.00  0.00     0.029 A 
ATOM     53  C   UNL A   1      41.777  27.211  27.421  1.00  0.00     0.049 A 
ATOM     54  H   UNL A   1      42.457  28.000  29.239  1.00  0.00     0.167 HD
ATOM     55  C   UNL A   1      43.088  28.821  33.545  1.00  0.00     0.034 A 
ATOM     56  C   UNL A   1      42.713  26.285  27.106  1.00  0.00     0.034 A 
ATOM     57  C   UNL A   1      44.024  29.688  32.873  1.00  0.00     0.049 A 
ATOM     58  C   UNL A   1      43.900  26.579  27.940  1.00  0.00     0.074 A 
ATOM     59  C   UNL A   1      44.113  31.046  32.646  1.00  0.00     0.029 A 
ATOM     60  N   UNL A   1      44.860  29.094  31.958  1.00  0.00    -0.354 N 
ATOM     61  N   UNL A   1      44.601  27.673  27.826  1.00  0.00    -0.248 NA
ATOM     62  C   UNL A   1      44.032  25.876  29.204  1.00  0.00     0.031 C 
ATOM     63  C   UNL A   1      44.611  31.159  31.314  1.00  0.00     0.029 A 
ATOM     64  C   UNL A   1      44.866  29.873  30.832  1.00  0.00     0.049 A 
ATOM     65  H   UNL A   1      45.364  28.258  32.088  1.00  0.00     0.167 HD
ATOM     66  C   UNL A   1      44.879  28.039  29.137  1.00  0.00     0.074 A 
ATOM     67  C   UNL A   1      44.605  26.841  29.930  1.00  0.00     0.031 C 
ATOM     68  C   UNL A   1      45.017  29.352  29.490  1.00  0.00     0.034 A 
BRANCH  55  69
ATOM     69  C   UNL A   1      43.577  27.721  34.461  1.00  0.00     0.023 A 
ATOM     70  C   UNL A   1      44.140  28.118  35.697  1.00  0.00     0.012 A 
ATOM     71  C   UNL A   1      43.770  26.375  34.075  1.00  0.00     0.148 A 
ATOM     72  C   UNL A   1      44.907  27.243  36.473  1.00  0.00     0.002 A 
ATOM     73  C   UNL A   1      44.472  25.489  34.887  1.00  0.00     0.091 A 
ATOM     74  F   UNL A   1      43.394  25.965  32.863  1.00  0.00    -0.205 F 
ATOM     75  C   UNL A   1      45.071  25.926  36.070  1.00  0.00     0.022 A 
BRANCH  73  76
ATOM     76  S   UNL A   1      44.678  23.761  34.438  1.00  0.00     0.127 S 
ATOM     77  O   UNL A   1      45.538  23.865  33.263  1.00  0.00    -0.237 OA
ATOM     78  O   UNL A   1      45.324  23.216  35.633  1.00  0.00    -0.237 OA
ATOM     79  O   UNL A   1      43.332  23.255  34.206  1.00  0.00    -0.744 OA
ENDBRANCH  73  76
ENDBRANCH  55  69
BRANCH  56  80
ATOM     80  C   UNL A   1      42.568  25.018  26.354  1.00  0.00     0.023 A 
ATOM     81  C   UNL A   1      43.522  24.669  25.379  1.00  0.00     0.012 A 
ATOM     82  C   UNL A   1      41.666  24.024  26.793  1.00  0.00     0.148 A 
ATOM     83  C   UNL A   1      43.601  23.362  24.885  1.00  0.00     0.002 A 
ATOM     84  C   UNL A   1      41.746  22.726  26.298  1.00  0.00     0.091 A 
ATOM     85  F   UNL A   1      40.794  24.329  27.765  1.00  0.00    -0.205 F 
ATOM     86  C   UNL A   1      42.722  22.388  25.352  1.00  0.00     0.022 A 
BRANCH  84  87
ATOM     87  S   UNL A   1      40.669  21.407  26.877  1.00  0.00     0.127 S 
ATOM     88  O   UNL A   1      40.952  21.394  28.313  1.00  0.00    -0.237 OA
ATOM     89  O   UNL A   1      39.349  21.917  26.517  1.00  0.00    -0.237 OA
ATOM     90  O   UNL A   1      41.100  20.207  26.171  1.00  0.00    -0.744 OA
ENDBRANCH  84  87
ENDBRANCH  56  80
BRANCH  68  91
ATOM     91  C   UNL A   1      45.088  30.381  28.387  1.00  0.00     0.023 A 
ATOM     92  C   UNL A   1      43.937  30.904  27.758  1.00  0.00     0.012 A 
ATOM     93  C   UNL A   1      46.333  30.975  28.119  1.00  0.00     0.148 A 
ATOM     94  C   UNL A   1      44.029  31.984  26.875  1.00  0.00     0.002 A 
ATOM     95  C   UNL A   1      46.413  32.078  27.279  1.00  0.00     0.091 A 
ATOM     96  F   UNL A   1      47.416  30.470  28.728  1.00  0.00    -0.205 F 
ATOM     97  C   UNL A   1      45.265  32.581  26.647  1.00  0.00     0.022 A 
BRANCH  95  98
ATOM     98  S   UNL A   1      47.952  32.971  27.053  1.00  0.00     0.127 S 
ATOM     99  O   UNL A   1      48.289  33.352  28.423  1.00  0.00    -0.237 OA
ATOM    100  O   UNL A   1      48.824  31.949  26.471  1.00  0.00    -0.237 OA
ATOM    101  O   UNL A   1      47.649  34.076  26.151  1.00  0.00    -0.744 OA
ENDBRANCH  95  98
ENDBRANCH  68  91
ENDBRANCH  42  43
ENDBRANCH  34  37
ENDBRANCH  32  33
ENDBRANCH   1  32
TORSDOF 18
ENDMDL
