MODEL 1
REMARK VINA RESULT:     -11.4      0.000      0.000
REMARK SMILES CN(C)C(=O)CSc1ccc(C(=O)NCCCCNC(=O)c2ccc(-c3c4nc(c(-c5cccc(S(=O)(=O)[O-])c5F)c5ccc([nH]5)c(-c5cccc(S(=O)(=O)[O-])c5F)c5nc(c(-c6cccc(S(=O)(=O)[O-])c6F)c6ccc3[nH]6)C=C5)C=C4)cc2)cc1
REMARK SMILES IDX 16 1 15 2 14 3 12 4 13 5 11 7 8 8 9 9 86 10 10 11 85 12 7 13
REMARK SMILES IDX 6 14 4 15 1 16 2 17 3 18 5 19 17 20 18 21 19 22 20 23 21 25
REMARK SMILES IDX 22 26 23 27 84 28 24 29 83 30 25 31 26 32 27 33 77 34 28 35
REMARK SMILES IDX 82 36 76 37 78 38 29 39 81 40 75 41 74 42 30 44 62 45 42 46
REMARK SMILES IDX 61 47 43 48 46 49 60 50 79 51 44 52 45 53 59 55 80 56 47 57
REMARK SMILES IDX 31 58 32 59 40 60 33 61 35 62 41 63 34 64 36 65 37 66 38 67
REMARK SMILES IDX 39 68 63 69 64 70 72 71 65 72 67 73 73 74 66 75 68 76 69 77
REMARK SMILES IDX 70 78 71 79 48 80 49 81 57 82 50 83 52 84 58 85 51 86 53 87
REMARK SMILES IDX 54 88 55 89 56 90
REMARK H PARENT 14 6 19 24 78 43 46 54
REMARK Flexibility Score: inf
ROOT
ATOM      1  C   UNL A   1      32.527  28.128  23.753  1.00  0.00     0.023 C 
ENDROOT
BRANCH   1   2
ATOM      2  C   UNL A   1      31.496  27.276  23.010  1.00  0.00     0.116 C 
BRANCH   2   3
ATOM      3  N   UNL A   1      32.029  26.819  21.743  1.00  0.00    -0.352 N 
ATOM      4  C   UNL A   1      32.707  25.682  21.388  1.00  0.00     0.251 C 
ATOM      5  O   UNL A   1      33.010  25.543  20.202  1.00  0.00    -0.269 OA
ATOM      6  H   UNL A   1      31.876  27.443  20.997  1.00  0.00     0.163 HD
BRANCH   4   7
ATOM      7  C   UNL A   1      33.041  24.587  22.343  1.00  0.00     0.039 A 
ATOM      8  C   UNL A   1      33.445  22.431  24.149  1.00  0.00     0.008 A 
ATOM      9  C   UNL A   1      32.334  22.460  23.310  1.00  0.00     0.016 A 
ATOM     10  C   UNL A   1      34.375  23.473  24.039  1.00  0.00     0.016 A 
ATOM     11  C   UNL A   1      32.134  23.524  22.421  1.00  0.00     0.015 A 
ATOM     12  C   UNL A   1      34.190  24.524  23.131  1.00  0.00     0.015 A 
BRANCH   8  13
ATOM     13  S   UNL A   1      33.752  21.238  25.439  1.00  0.00    -0.116 SA
BRANCH  13  14
ATOM     14  C   UNL A   1      34.051  19.650  24.592  1.00  0.00     0.175 C 
BRANCH  14  15
ATOM     15  C   UNL A   1      33.203  18.483  25.070  1.00  0.00     0.232 C 
ATOM     16  C   UNL A   1      32.680  16.122  25.186  1.00  0.00     0.146 C 
ATOM     17  N   UNL A   1      33.350  17.222  24.512  1.00  0.00    -0.348 N 
ATOM     18  C   UNL A   1      34.215  16.883  23.396  1.00  0.00     0.146 C 
ATOM     19  O   UNL A   1      32.352  18.687  25.946  1.00  0.00    -0.274 OA
ENDBRANCH  14  15
ENDBRANCH  13  14
ENDBRANCH   8  13
ENDBRANCH   4   7
ENDBRANCH   2   3
ENDBRANCH   1   2
BRANCH   1  20
ATOM     20  C   UNL A   1      31.922  29.175  24.692  1.00  0.00     0.023 C 
BRANCH  20  21
ATOM     21  C   UNL A   1      32.853  29.669  25.794  1.00  0.00     0.116 C 
BRANCH  21  22
ATOM     22  N   UNL A   1      32.548  31.020  26.239  1.00  0.00    -0.352 N 
ATOM     23  C   UNL A   1      33.232  31.795  27.147  1.00  0.00     0.251 C 
ATOM     24  H   UNL A   1      31.749  31.433  25.840  1.00  0.00     0.163 HD
ATOM     25  O   UNL A   1      32.786  32.879  27.495  1.00  0.00    -0.269 OA
BRANCH  23  26
ATOM     26  C   UNL A   1      34.492  31.280  27.726  1.00  0.00     0.039 A 
ATOM     27  C   UNL A   1      35.551  32.168  27.927  1.00  0.00     0.014 A 
ATOM     28  C   UNL A   1      34.609  29.939  28.099  1.00  0.00     0.014 A 
ATOM     29  C   UNL A   1      36.709  31.724  28.567  1.00  0.00     0.010 A 
ATOM     30  C   UNL A   1      35.738  29.515  28.794  1.00  0.00     0.010 A 
ATOM     31  C   UNL A   1      36.798  30.402  29.034  1.00  0.00    -0.014 A 
BRANCH  31  32
ATOM     32  C   UNL A   1      37.982  29.931  29.793  1.00  0.00     0.031 A 
ATOM     33  C   UNL A   1      38.235  30.432  31.189  1.00  0.00     0.074 A 
ATOM     34  C   UNL A   1      38.880  29.127  29.189  1.00  0.00     0.049 A 
ATOM     35  N   UNL A   1      39.242  30.180  31.984  1.00  0.00    -0.248 NA
ATOM     36  C   UNL A   1      37.242  31.361  31.753  1.00  0.00     0.031 C 
ATOM     37  C   UNL A   1      38.790  28.644  27.809  1.00  0.00     0.029 A 
ATOM     38  N   UNL A   1      40.061  28.599  29.648  1.00  0.00    -0.354 N 
ATOM     39  C   UNL A   1      39.026  30.945  33.123  1.00  0.00     0.074 A 
ATOM     40  C   UNL A   1      37.808  31.695  32.905  1.00  0.00     0.031 C 
ATOM     41  C   UNL A   1      39.866  27.890  27.536  1.00  0.00     0.029 A 
ATOM     42  C   UNL A   1      40.734  27.853  28.709  1.00  0.00     0.049 A 
ATOM     43  H   UNL A   1      40.394  28.740  30.564  1.00  0.00     0.167 HD
ATOM     44  C   UNL A   1      39.758  30.997  34.261  1.00  0.00     0.034 A 
ATOM     45  C   UNL A   1      41.917  27.212  28.785  1.00  0.00     0.034 A 
ATOM     46  C   UNL A   1      40.937  30.208  34.495  1.00  0.00     0.049 A 
ATOM     47  C   UNL A   1      42.679  27.238  30.082  1.00  0.00     0.074 A 
ATOM     48  C   UNL A   1      41.691  30.109  35.651  1.00  0.00     0.029 A 
ATOM     49  N   UNL A   1      41.535  29.383  33.556  1.00  0.00    -0.354 N 
ATOM     50  N   UNL A   1      42.366  27.829  31.210  1.00  0.00    -0.248 NA
ATOM     51  C   UNL A   1      43.936  26.479  30.130  1.00  0.00     0.031 C 
ATOM     52  C   UNL A   1      42.753  29.234  35.406  1.00  0.00     0.029 A 
ATOM     53  C   UNL A   1      42.652  28.775  34.103  1.00  0.00     0.049 A 
ATOM     54  H   UNL A   1      41.213  29.248  32.636  1.00  0.00     0.167 HD
ATOM     55  C   UNL A   1      43.367  27.484  32.111  1.00  0.00     0.074 A 
ATOM     56  C   UNL A   1      44.285  26.615  31.403  1.00  0.00     0.031 C 
ATOM     57  C   UNL A   1      43.521  27.865  33.403  1.00  0.00     0.034 A 
BRANCH  44  58
ATOM     58  C   UNL A   1      39.268  31.891  35.369  1.00  0.00     0.023 A 
ATOM     59  C   UNL A   1      38.341  31.385  36.305  1.00  0.00     0.012 A 
ATOM     60  C   UNL A   1      39.761  33.200  35.523  1.00  0.00     0.148 A 
ATOM     61  C   UNL A   1      37.889  32.180  37.357  1.00  0.00     0.002 A 
ATOM     62  C   UNL A   1      39.336  33.972  36.599  1.00  0.00     0.091 A 
ATOM     63  F   UNL A   1      40.623  33.671  34.610  1.00  0.00    -0.205 F 
ATOM     64  C   UNL A   1      38.394  33.468  37.511  1.00  0.00     0.022 A 
BRANCH  62  65
ATOM     65  S   UNL A   1      39.984  35.616  36.926  1.00  0.00     0.127 S 
ATOM     66  O   UNL A   1      39.308  35.955  38.178  1.00  0.00    -0.237 OA
ATOM     67  O   UNL A   1      41.419  35.363  37.058  1.00  0.00    -0.237 OA
ATOM     68  O   UNL A   1      39.616  36.428  35.775  1.00  0.00    -0.744 OA
ENDBRANCH  62  65
ENDBRANCH  44  58
BRANCH  45  69
ATOM     69  C   UNL A   1      42.411  26.421  27.622  1.00  0.00     0.023 A 
ATOM     70  C   UNL A   1      43.234  27.048  26.666  1.00  0.00     0.012 A 
ATOM     71  C   UNL A   1      42.101  25.056  27.472  1.00  0.00     0.148 A 
ATOM     72  C   UNL A   1      43.714  26.339  25.565  1.00  0.00     0.002 A 
ATOM     73  C   UNL A   1      42.624  24.342  26.400  1.00  0.00     0.091 A 
ATOM     74  F   UNL A   1      41.304  24.481  28.384  1.00  0.00    -0.205 F 
ATOM     75  C   UNL A   1      43.417  24.984  25.436  1.00  0.00     0.022 A 
BRANCH  73  76
ATOM     76  S   UNL A   1      42.401  22.568  26.229  1.00  0.00     0.127 S 
ATOM     77  O   UNL A   1      42.971  22.073  27.479  1.00  0.00    -0.237 OA
ATOM     78  O   UNL A   1      40.947  22.451  26.126  1.00  0.00    -0.237 OA
ATOM     79  O   UNL A   1      43.116  22.201  25.014  1.00  0.00    -0.744 OA
ENDBRANCH  73  76
ENDBRANCH  45  69
BRANCH  57  80
ATOM     80  C   UNL A   1      44.709  27.323  34.154  1.00  0.00     0.023 A 
ATOM     81  C   UNL A   1      45.926  28.032  34.140  1.00  0.00     0.012 A 
ATOM     82  C   UNL A   1      44.594  26.159  34.939  1.00  0.00     0.148 A 
ATOM     83  C   UNL A   1      47.020  27.575  34.873  1.00  0.00     0.002 A 
ATOM     84  C   UNL A   1      45.675  25.735  35.704  1.00  0.00     0.091 A 
ATOM     85  F   UNL A   1      43.433  25.488  34.923  1.00  0.00    -0.205 F 
ATOM     86  C   UNL A   1      46.891  26.435  35.664  1.00  0.00     0.022 A 
BRANCH  84  87
ATOM     87  S   UNL A   1      45.566  24.333  36.823  1.00  0.00     0.127 S 
ATOM     88  O   UNL A   1      46.910  24.305  37.397  1.00  0.00    -0.237 OA
ATOM     89  O   UNL A   1      44.514  24.754  37.750  1.00  0.00    -0.237 OA
ATOM     90  O   UNL A   1      45.213  23.188  35.994  1.00  0.00    -0.744 OA
ENDBRANCH  84  87
ENDBRANCH  57  80
ENDBRANCH  31  32
ENDBRANCH  23  26
ENDBRANCH  21  22
ENDBRANCH  20  21
ENDBRANCH   1  20
TORSDOF 17
ENDMDL
MODEL 2
REMARK VINA RESULT:     -11.3      1.759      7.878
REMARK SMILES CN(C)C(=O)CSc1ccc(C(=O)NCCCCNC(=O)c2ccc(-c3c4nc(c(-c5cccc(S(=O)(=O)[O-])c5F)c5ccc([nH]5)c(-c5cccc(S(=O)(=O)[O-])c5F)c5nc(c(-c6cccc(S(=O)(=O)[O-])c6F)c6ccc3[nH]6)C=C5)C=C4)cc2)cc1
REMARK SMILES IDX 16 1 15 2 14 3 12 4 13 5 11 7 8 8 9 9 86 10 10 11 85 12 7 13
REMARK SMILES IDX 6 14 4 15 1 16 2 17 3 18 5 19 17 20 18 21 19 22 20 23 21 25
REMARK SMILES IDX 22 26 23 27 84 28 24 29 83 30 25 31 26 32 27 33 77 34 28 35
REMARK SMILES IDX 82 36 76 37 78 38 29 39 81 40 75 41 74 42 30 44 62 45 42 46
REMARK SMILES IDX 61 47 43 48 46 49 60 50 79 51 44 52 45 53 59 55 80 56 47 57
REMARK SMILES IDX 31 58 32 59 40 60 33 61 35 62 41 63 34 64 36 65 37 66 38 67
REMARK SMILES IDX 39 68 63 69 64 70 72 71 65 72 67 73 73 74 66 75 68 76 69 77
REMARK SMILES IDX 70 78 71 79 48 80 49 81 57 82 50 83 52 84 58 85 51 86 53 87
REMARK SMILES IDX 54 88 55 89 56 90
REMARK H PARENT 14 6 19 24 78 43 46 54
REMARK Flexibility Score: inf
ROOT
ATOM      1  C   UNL A   1      30.932  29.255  23.773  1.00  0.00     0.023 C 
ENDROOT
BRANCH   1   2
ATOM      2  C   UNL A   1      30.619  28.093  22.829  1.00  0.00     0.116 C 
BRANCH   2   3
ATOM      3  N   UNL A   1      31.821  27.643  22.157  1.00  0.00    -0.352 N 
ATOM      4  C   UNL A   1      32.711  26.640  22.440  1.00  0.00     0.251 C 
ATOM      5  O   UNL A   1      33.640  26.460  21.653  1.00  0.00    -0.269 OA
ATOM      6  H   UNL A   1      32.040  28.154  21.345  1.00  0.00     0.163 HD
BRANCH   4   7
ATOM      7  C   UNL A   1      32.578  25.724  23.609  1.00  0.00     0.039 A 
ATOM      8  C   UNL A   1      32.555  24.028  25.890  1.00  0.00     0.008 A 
ATOM      9  C   UNL A   1      33.534  25.006  25.738  1.00  0.00     0.016 A 
ATOM     10  C   UNL A   1      31.560  23.941  24.907  1.00  0.00     0.016 A 
ATOM     11  C   UNL A   1      33.547  25.841  24.613  1.00  0.00     0.015 A 
ATOM     12  C   UNL A   1      31.555  24.794  23.795  1.00  0.00     0.015 A 
BRANCH   8  13
ATOM     13  S   UNL A   1      32.500  22.791  27.173  1.00  0.00    -0.116 SA
BRANCH  13  14
ATOM     14  C   UNL A   1      33.781  21.565  26.743  1.00  0.00     0.175 C 
BRANCH  14  15
ATOM     15  C   UNL A   1      33.363  20.508  25.735  1.00  0.00     0.232 C 
ATOM     16  C   UNL A   1      33.846  18.671  24.234  1.00  0.00     0.146 C 
ATOM     17  N   UNL A   1      34.310  19.822  24.989  1.00  0.00    -0.348 N 
ATOM     18  C   UNL A   1      35.741  20.072  24.998  1.00  0.00     0.146 C 
ATOM     19  O   UNL A   1      32.155  20.292  25.567  1.00  0.00    -0.274 OA
ENDBRANCH  14  15
ENDBRANCH  13  14
ENDBRANCH   8  13
ENDBRANCH   4   7
ENDBRANCH   2   3
ENDBRANCH   1   2
BRANCH   1  20
ATOM     20  C   UNL A   1      31.457  28.831  25.147  1.00  0.00     0.023 C 
BRANCH  20  21
ATOM     21  C   UNL A   1      32.593  29.685  25.696  1.00  0.00     0.116 C 
BRANCH  21  22
ATOM     22  N   UNL A   1      32.158  31.001  26.139  1.00  0.00    -0.352 N 
ATOM     23  C   UNL A   1      32.756  31.835  27.056  1.00  0.00     0.251 C 
ATOM     24  H   UNL A   1      31.328  31.338  25.732  1.00  0.00     0.163 HD
ATOM     25  O   UNL A   1      32.206  32.872  27.399  1.00  0.00    -0.269 OA
BRANCH  23  26
ATOM     26  C   UNL A   1      34.052  31.439  27.648  1.00  0.00     0.039 A 
ATOM     27  C   UNL A   1      35.008  32.428  27.894  1.00  0.00     0.014 A 
ATOM     28  C   UNL A   1      34.303  30.108  27.991  1.00  0.00     0.014 A 
ATOM     29  C   UNL A   1      36.194  32.089  28.547  1.00  0.00     0.010 A 
ATOM     30  C   UNL A   1      35.456  29.786  28.698  1.00  0.00     0.010 A 
ATOM     31  C   UNL A   1      36.413  30.773  28.983  1.00  0.00    -0.014 A 
BRANCH  31  32
ATOM     32  C   UNL A   1      37.626  30.407  29.755  1.00  0.00     0.031 A 
ATOM     33  C   UNL A   1      38.633  29.452  29.175  1.00  0.00     0.074 A 
ATOM     34  C   UNL A   1      37.770  30.859  31.017  1.00  0.00     0.049 A 
ATOM     35  N   UNL A   1      39.720  28.971  29.720  1.00  0.00    -0.248 NA
ATOM     36  C   UNL A   1      38.369  28.949  27.817  1.00  0.00     0.031 C 
ATOM     37  C   UNL A   1      36.817  31.721  31.721  1.00  0.00     0.029 A 
ATOM     38  N   UNL A   1      38.758  30.633  31.942  1.00  0.00    -0.354 N 
ATOM     39  C   UNL A   1      40.248  28.083  28.792  1.00  0.00     0.074 A 
ATOM     40  C   UNL A   1      39.346  28.067  27.660  1.00  0.00     0.031 C 
ATOM     41  C   UNL A   1      37.268  31.952  32.964  1.00  0.00     0.029 A 
ATOM     42  C   UNL A   1      38.527  31.239  33.155  1.00  0.00     0.049 A 
ATOM     43  H   UNL A   1      39.557  30.089  31.755  1.00  0.00     0.167 HD
ATOM     44  C   UNL A   1      41.395  27.367  28.860  1.00  0.00     0.034 A 
ATOM     45  C   UNL A   1      39.250  31.222  34.293  1.00  0.00     0.034 A 
ATOM     46  C   UNL A   1      42.316  27.429  29.963  1.00  0.00     0.049 A 
ATOM     47  C   UNL A   1      40.551  30.466  34.320  1.00  0.00     0.074 A 
ATOM     48  C   UNL A   1      43.555  26.825  30.084  1.00  0.00     0.029 A 
ATOM     49  N   UNL A   1      42.100  28.136  31.135  1.00  0.00    -0.354 N 
ATOM     50  N   UNL A   1      41.121  29.772  33.365  1.00  0.00    -0.248 NA
ATOM     51  C   UNL A   1      41.328  30.524  35.566  1.00  0.00     0.031 C 
ATOM     52  C   UNL A   1      44.082  27.156  31.336  1.00  0.00     0.029 A 
ATOM     53  C   UNL A   1      43.178  27.979  31.988  1.00  0.00     0.049 A 
ATOM     54  H   UNL A   1      41.297  28.671  31.332  1.00  0.00     0.167 HD
ATOM     55  C   UNL A   1      42.337  29.340  33.881  1.00  0.00     0.074 A 
ATOM     56  C   UNL A   1      42.430  29.869  35.227  1.00  0.00     0.031 C 
ATOM     57  C   UNL A   1      43.283  28.562  33.301  1.00  0.00     0.034 A 
BRANCH  44  58
ATOM     58  C   UNL A   1      41.754  26.504  27.680  1.00  0.00     0.023 A 
ATOM     59  C   UNL A   1      42.454  27.074  26.595  1.00  0.00     0.012 A 
ATOM     60  C   UNL A   1      41.458  25.129  27.665  1.00  0.00     0.148 A 
ATOM     61  C   UNL A   1      42.823  26.294  25.500  1.00  0.00     0.002 A 
ATOM     62  C   UNL A   1      41.866  24.349  26.588  1.00  0.00     0.091 A 
ATOM     63  F   UNL A   1      40.772  24.610  28.694  1.00  0.00    -0.205 F 
ATOM     64  C   UNL A   1      42.539  24.932  25.501  1.00  0.00     0.022 A 
BRANCH  62  65
ATOM     65  S   UNL A   1      41.614  22.571  26.529  1.00  0.00     0.127 S 
ATOM     66  O   UNL A   1      42.275  22.221  25.273  1.00  0.00    -0.237 OA
ATOM     67  O   UNL A   1      42.314  22.119  27.733  1.00  0.00    -0.237 OA
ATOM     68  O   UNL A   1      40.172  22.369  26.556  1.00  0.00    -0.744 OA
ENDBRANCH  62  65
ENDBRANCH  44  58
BRANCH  45  69
ATOM     69  C   UNL A   1      38.800  32.013  35.473  1.00  0.00     0.023 A 
ATOM     70  C   UNL A   1      38.961  33.412  35.462  1.00  0.00     0.012 A 
ATOM     71  C   UNL A   1      38.190  31.401  36.585  1.00  0.00     0.148 A 
ATOM     72  C   UNL A   1      38.553  34.185  36.549  1.00  0.00     0.002 A 
ATOM     73  C   UNL A   1      37.739  32.182  37.642  1.00  0.00     0.091 A 
ATOM     74  F   UNL A   1      38.059  30.066  36.583  1.00  0.00    -0.205 F 
ATOM     75  C   UNL A   1      37.933  33.572  37.635  1.00  0.00     0.022 A 
BRANCH  73  76
ATOM     76  S   UNL A   1      36.813  31.490  39.019  1.00  0.00     0.127 S 
ATOM     77  O   UNL A   1      37.777  31.598  40.111  1.00  0.00    -0.237 OA
ATOM     78  O   UNL A   1      35.673  32.403  39.110  1.00  0.00    -0.237 OA
ATOM     79  O   UNL A   1      36.462  30.137  38.610  1.00  0.00    -0.744 OA
ENDBRANCH  73  76
ENDBRANCH  45  69
BRANCH  57  80
ATOM     80  C   UNL A   1      44.523  28.256  34.099  1.00  0.00     0.023 A 
ATOM     81  C   UNL A   1      45.612  29.148  34.066  1.00  0.00     0.012 A 
ATOM     82  C   UNL A   1      44.575  27.130  34.944  1.00  0.00     0.148 A 
ATOM     83  C   UNL A   1      46.746  28.910  34.840  1.00  0.00     0.002 A 
ATOM     84  C   UNL A   1      45.690  26.923  35.748  1.00  0.00     0.091 A 
ATOM     85  F   UNL A   1      43.536  26.282  34.946  1.00  0.00    -0.205 F 
ATOM     86  C   UNL A   1      46.780  27.806  35.690  1.00  0.00     0.022 A 
BRANCH  84  87
ATOM     87  S   UNL A   1      45.778  25.581  36.939  1.00  0.00     0.127 S 
ATOM     88  O   UNL A   1      44.583  25.820  37.746  1.00  0.00    -0.237 OA
ATOM     89  O   UNL A   1      45.709  24.397  36.082  1.00  0.00    -0.237 OA
ATOM     90  O   UNL A   1      47.048  25.747  37.633  1.00  0.00    -0.744 OA
ENDBRANCH  84  87
ENDBRANCH  57  80
ENDBRANCH  31  32
ENDBRANCH  23  26
ENDBRANCH  21  22
ENDBRANCH  20  21
ENDBRANCH   1  20
TORSDOF 17
ENDMDL
MODEL 3
REMARK VINA RESULT:     -11.3      1.600      1.983
REMARK SMILES CN(C)C(=O)CSc1ccc(C(=O)NCCCCNC(=O)c2ccc(-c3c4nc(c(-c5cccc(S(=O)(=O)[O-])c5F)c5ccc([nH]5)c(-c5cccc(S(=O)(=O)[O-])c5F)c5nc(c(-c6cccc(S(=O)(=O)[O-])c6F)c6ccc3[nH]6)C=C5)C=C4)cc2)cc1
REMARK SMILES IDX 16 1 15 2 14 3 12 4 13 5 11 7 8 8 9 9 86 10 10 11 85 12 7 13
REMARK SMILES IDX 6 14 4 15 1 16 2 17 3 18 5 19 17 20 18 21 19 22 20 23 21 25
REMARK SMILES IDX 22 26 23 27 84 28 24 29 83 30 25 31 26 32 27 33 77 34 28 35
REMARK SMILES IDX 82 36 76 37 78 38 29 39 81 40 75 41 74 42 30 44 62 45 42 46
REMARK SMILES IDX 61 47 43 48 46 49 60 50 79 51 44 52 45 53 59 55 80 56 47 57
REMARK SMILES IDX 31 58 32 59 40 60 33 61 35 62 41 63 34 64 36 65 37 66 38 67
REMARK SMILES IDX 39 68 63 69 64 70 72 71 65 72 67 73 73 74 66 75 68 76 69 77
REMARK SMILES IDX 70 78 71 79 48 80 49 81 57 82 50 83 52 84 58 85 51 86 53 87
REMARK SMILES IDX 54 88 55 89 56 90
REMARK H PARENT 14 6 19 24 78 43 46 54
REMARK Flexibility Score: inf
ROOT
ATOM      1  C   UNL A   1      31.172  28.460  25.050  1.00  0.00     0.023 C 
ENDROOT
BRANCH   1   2
ATOM      2  C   UNL A   1      30.939  28.045  23.596  1.00  0.00     0.116 C 
BRANCH   2   3
ATOM      3  N   UNL A   1      32.151  28.204  22.819  1.00  0.00    -0.352 N 
ATOM      4  C   UNL A   1      33.327  27.502  22.798  1.00  0.00     0.251 C 
ATOM      5  O   UNL A   1      34.187  27.851  21.988  1.00  0.00    -0.269 OA
ATOM      6  H   UNL A   1      32.123  28.958  22.187  1.00  0.00     0.163 HD
BRANCH   4   7
ATOM      7  C   UNL A   1      33.594  26.311  23.654  1.00  0.00     0.039 A 
ATOM      8  C   UNL A   1      34.017  23.905  25.106  1.00  0.00     0.008 A 
ATOM      9  C   UNL A   1      33.848  23.884  23.724  1.00  0.00     0.016 A 
ATOM     10  C   UNL A   1      34.016  25.152  25.746  1.00  0.00     0.016 A 
ATOM     11  C   UNL A   1      33.638  25.070  23.008  1.00  0.00     0.015 A 
ATOM     12  C   UNL A   1      33.834  26.341  25.027  1.00  0.00     0.015 A 
BRANCH   8  13
ATOM     13  S   UNL A   1      34.130  22.477  26.169  1.00  0.00    -0.116 SA
BRANCH  13  14
ATOM     14  C   UNL A   1      33.394  21.096  25.232  1.00  0.00     0.175 C 
BRANCH  14  15
ATOM     15  C   UNL A   1      34.339  19.952  24.900  1.00  0.00     0.232 C 
ATOM     16  C   UNL A   1      34.785  17.663  24.251  1.00  0.00     0.146 C 
ATOM     17  N   UNL A   1      33.872  18.649  24.804  1.00  0.00    -0.348 N 
ATOM     18  C   UNL A   1      32.516  18.210  25.085  1.00  0.00     0.146 C 
ATOM     19  O   UNL A   1      35.542  20.201  24.749  1.00  0.00    -0.274 OA
ENDBRANCH  14  15
ENDBRANCH  13  14
ENDBRANCH   8  13
ENDBRANCH   4   7
ENDBRANCH   2   3
ENDBRANCH   1   2
BRANCH   1  20
ATOM     20  C   UNL A   1      32.039  29.710  25.219  1.00  0.00     0.023 C 
BRANCH  20  21
ATOM     21  C   UNL A   1      32.263  30.150  26.662  1.00  0.00     0.116 C 
BRANCH  21  22
ATOM     22  N   UNL A   1      32.209  31.594  26.835  1.00  0.00    -0.352 N 
ATOM     23  C   UNL A   1      33.113  32.412  27.472  1.00  0.00     0.251 C 
ATOM     24  H   UNL A   1      31.424  32.044  26.447  1.00  0.00     0.163 HD
ATOM     25  O   UNL A   1      32.870  33.601  27.624  1.00  0.00    -0.269 OA
BRANCH  23  26
ATOM     26  C   UNL A   1      34.362  31.826  28.004  1.00  0.00     0.039 A 
ATOM     27  C   UNL A   1      35.465  32.659  28.201  1.00  0.00     0.014 A 
ATOM     28  C   UNL A   1      34.426  30.471  28.341  1.00  0.00     0.014 A 
ATOM     29  C   UNL A   1      36.616  32.146  28.800  1.00  0.00     0.010 A 
ATOM     30  C   UNL A   1      35.551  29.979  28.995  1.00  0.00     0.010 A 
ATOM     31  C   UNL A   1      36.656  30.810  29.230  1.00  0.00    -0.014 A 
BRANCH  31  32
ATOM     32  C   UNL A   1      37.836  30.265  29.946  1.00  0.00     0.031 A 
ATOM     33  C   UNL A   1      38.128  30.693  31.358  1.00  0.00     0.074 A 
ATOM     34  C   UNL A   1      38.696  29.460  29.291  1.00  0.00     0.049 A 
ATOM     35  N   UNL A   1      39.139  30.372  32.123  1.00  0.00    -0.248 NA
ATOM     36  C   UNL A   1      37.176  31.628  31.982  1.00  0.00     0.031 C 
ATOM     37  C   UNL A   1      38.567  29.044  27.892  1.00  0.00     0.029 A 
ATOM     38  N   UNL A   1      39.865  28.873  29.705  1.00  0.00    -0.354 N 
ATOM     39  C   UNL A   1      38.967  31.091  33.299  1.00  0.00     0.074 A 
ATOM     40  C   UNL A   1      37.772  31.889  33.137  1.00  0.00     0.031 C 
ATOM     41  C   UNL A   1      39.613  28.268  27.566  1.00  0.00     0.029 A 
ATOM     42  C   UNL A   1      40.497  28.149  28.720  1.00  0.00     0.049 A 
ATOM     43  H   UNL A   1      40.218  28.960  30.619  1.00  0.00     0.167 HD
ATOM     44  C   UNL A   1      39.719  31.066  34.426  1.00  0.00     0.034 A 
ATOM     45  C   UNL A   1      41.659  27.466  28.747  1.00  0.00     0.034 A 
ATOM     46  C   UNL A   1      40.873  30.228  34.603  1.00  0.00     0.049 A 
ATOM     47  C   UNL A   1      42.442  27.408  30.030  1.00  0.00     0.074 A 
ATOM     48  C   UNL A   1      41.642  30.051  35.740  1.00  0.00     0.029 A 
ATOM     49  N   UNL A   1      41.427  29.427  33.617  1.00  0.00    -0.354 N 
ATOM     50  N   UNL A   1      42.168  27.956  31.189  1.00  0.00    -0.248 NA
ATOM     51  C   UNL A   1      43.674  26.605  30.022  1.00  0.00     0.031 C 
ATOM     52  C   UNL A   1      42.670  29.153  35.437  1.00  0.00     0.029 A 
ATOM     53  C   UNL A   1      42.532  28.758  34.116  1.00  0.00     0.049 A 
ATOM     54  H   UNL A   1      41.086  29.346  32.697  1.00  0.00     0.167 HD
ATOM     55  C   UNL A   1      43.171  27.537  32.055  1.00  0.00     0.074 A 
ATOM     56  C   UNL A   1      44.048  26.672  31.293  1.00  0.00     0.031 C 
ATOM     57  C   UNL A   1      43.359  27.853  33.361  1.00  0.00     0.034 A 
BRANCH  44  58
ATOM     58  C   UNL A   1      39.276  31.923  35.582  1.00  0.00     0.023 A 
ATOM     59  C   UNL A   1      39.599  33.297  35.587  1.00  0.00     0.012 A 
ATOM     60  C   UNL A   1      38.497  31.392  36.627  1.00  0.00     0.148 A 
ATOM     61  C   UNL A   1      39.181  34.120  36.631  1.00  0.00     0.002 A 
ATOM     62  C   UNL A   1      38.048  32.229  37.643  1.00  0.00     0.091 A 
ATOM     63  F   UNL A   1      38.220  30.080  36.616  1.00  0.00    -0.205 F 
ATOM     64  C   UNL A   1      38.397  33.590  37.651  1.00  0.00     0.022 A 
BRANCH  62  65
ATOM     65  S   UNL A   1      36.971  31.658  38.962  1.00  0.00     0.127 S 
ATOM     66  O   UNL A   1      35.858  32.601  38.863  1.00  0.00    -0.237 OA
ATOM     67  O   UNL A   1      36.655  30.294  38.537  1.00  0.00    -0.237 OA
ATOM     68  O   UNL A   1      37.757  31.743  40.186  1.00  0.00    -0.744 OA
ENDBRANCH  62  65
ENDBRANCH  44  58
BRANCH  45  69
ATOM     69  C   UNL A   1      42.108  26.713  27.541  1.00  0.00     0.023 A 
ATOM     70  C   UNL A   1      42.799  27.398  26.523  1.00  0.00     0.012 A 
ATOM     71  C   UNL A   1      41.884  25.330  27.408  1.00  0.00     0.148 A 
ATOM     72  C   UNL A   1      43.232  26.726  25.380  1.00  0.00     0.002 A 
ATOM     73  C   UNL A   1      42.363  24.656  26.291  1.00  0.00     0.091 A 
ATOM     74  F   UNL A   1      41.211  24.698  28.381  1.00  0.00    -0.205 F 
ATOM     75  C   UNL A   1      43.023  25.354  25.268  1.00  0.00     0.022 A 
BRANCH  73  76
ATOM     76  S   UNL A   1      42.254  22.870  26.128  1.00  0.00     0.127 S 
ATOM     77  O   UNL A   1      42.894  22.648  24.834  1.00  0.00    -0.237 OA
ATOM     78  O   UNL A   1      43.024  22.410  27.284  1.00  0.00    -0.237 OA
ATOM     79  O   UNL A   1      40.832  22.560  26.197  1.00  0.00    -0.744 OA
ENDBRANCH  73  76
ENDBRANCH  45  69
BRANCH  57  80
ATOM     80  C   UNL A   1      44.539  27.238  34.066  1.00  0.00     0.023 A 
ATOM     81  C   UNL A   1      45.793  27.878  34.015  1.00  0.00     0.012 A 
ATOM     82  C   UNL A   1      44.386  26.074  34.844  1.00  0.00     0.148 A 
ATOM     83  C   UNL A   1      46.884  27.354  34.706  1.00  0.00     0.002 A 
ATOM     84  C   UNL A   1      45.467  25.582  35.567  1.00  0.00     0.091 A 
ATOM     85  F   UNL A   1      43.190  25.468  34.863  1.00  0.00    -0.205 F 
ATOM     86  C   UNL A   1      46.718  26.214  35.492  1.00  0.00     0.022 A 
BRANCH  84  87
ATOM     87  S   UNL A   1      45.318  24.177  36.678  1.00  0.00     0.127 S 
ATOM     88  O   UNL A   1      44.826  23.137  35.777  1.00  0.00    -0.237 OA
ATOM     89  O   UNL A   1      46.697  23.991  37.131  1.00  0.00    -0.237 OA
ATOM     90  O   UNL A   1      44.393  24.593  37.723  1.00  0.00    -0.744 OA
ENDBRANCH  84  87
ENDBRANCH  57  80
ENDBRANCH  31  32
ENDBRANCH  23  26
ENDBRANCH  21  22
ENDBRANCH  20  21
ENDBRANCH   1  20
TORSDOF 17
ENDMDL
