MODEL 1
REMARK VINA RESULT:     -11.5      0.000      0.000
REMARK SMILES CCC(CC)(NC(=O)Nc1cc(Cl)cc(Cl)c1)C(=O)NCCCCNC(=O)c1ccc(-c2c3nc(c(-c4cccc(S(=O)(=O)[O-])c4F)c4ccc([nH]4)c(-c4cccc(S(=O)(=O)[O-])c4F)c4nc(c(-c5cccc(S(=O)(=O)[O-])c5F)c5ccc2[nH]5)C=C4)C=C3)cc1
REMARK SMILES IDX 23 1 22 2 21 3 20 4 18 5 19 6 3 8 2 9 1 10 4 11 5 12 6 13
REMARK SMILES IDX 7 14 8 16 9 17 10 19 11 20 17 21 12 22 15 23 13 24 14 25
REMARK SMILES IDX 16 26 24 27 25 28 26 29 27 31 28 32 29 33 90 34 30 35 89 36
REMARK SMILES IDX 31 37 32 38 33 39 83 40 34 41 88 42 82 43 84 44 35 45 87 46
REMARK SMILES IDX 81 47 80 48 36 50 68 51 48 52 67 53 49 54 52 55 66 56 85 57
REMARK SMILES IDX 50 58 51 59 65 61 86 62 53 63 37 64 38 65 46 66 39 67 41 68
REMARK SMILES IDX 47 69 40 70 42 71 43 72 44 73 45 74 69 75 70 76 78 77 71 78
REMARK SMILES IDX 73 79 79 80 72 81 74 82 75 83 76 84 77 85 54 86 55 87 63 88
REMARK SMILES IDX 56 89 58 90 64 91 57 92 59 93 60 94 61 95 62 96
REMARK H PARENT 20 7 6 15 9 18 25 30 84 49 52 60
REMARK Flexibility Score: inf
ROOT
ATOM      1  C   UNL A   1      31.400  31.799  26.670  1.00  0.00     0.023 C 
ENDROOT
BRANCH   1   2
ATOM      2  C   UNL A   1      31.424  30.705  25.597  1.00  0.00     0.023 C 
BRANCH   2   3
ATOM      3  C   UNL A   1      32.241  29.441  25.924  1.00  0.00     0.116 C 
BRANCH   3   4
ATOM      4  N   UNL A   1      33.302  29.220  24.950  1.00  0.00    -0.354 N 
ATOM      5  C   UNL A   1      33.225  28.684  23.667  1.00  0.00     0.245 C 
ATOM      6  O   UNL A   1      33.442  29.363  22.669  1.00  0.00    -0.272 OA
ATOM      7  H   UNL A   1      34.204  29.489  25.240  1.00  0.00     0.163 HD
BRANCH   5   8
ATOM      8  C   UNL A   1      32.724  27.216  23.597  1.00  0.00     0.120 C 
BRANCH   8   9
ATOM      9  C   UNL A   1      31.353  26.774  24.147  1.00  0.00     0.035 C 
ATOM     10  C   UNL A   1      30.105  27.444  23.618  1.00  0.00     0.007 C 
ENDBRANCH   8   9
BRANCH   8  11
ATOM     11  C   UNL A   1      33.894  26.571  24.447  1.00  0.00     0.035 C 
ATOM     12  C   UNL A   1      33.659  25.927  25.796  1.00  0.00     0.007 C 
ENDBRANCH   8  11
BRANCH   8  13
ATOM     13  N   UNL A   1      32.689  26.876  22.153  1.00  0.00    -0.323 N 
ATOM     14  C   UNL A   1      32.787  25.722  21.459  1.00  0.00     0.320 C 
ATOM     15  H   UNL A   1      32.568  27.664  21.574  1.00  0.00     0.166 HD
ATOM     16  O   UNL A   1      32.936  25.851  20.237  1.00  0.00    -0.248 OA
ATOM     17  N   UNL A   1      32.689  24.447  21.916  1.00  0.00    -0.308 N 
ATOM     18  H   UNL A   1      32.541  23.824  21.168  1.00  0.00     0.171 HD
BRANCH  17  19
ATOM     19  C   UNL A   1      32.736  23.741  23.146  1.00  0.00     0.045 A 
ATOM     20  C   UNL A   1      31.625  23.443  23.945  1.00  0.00     0.046 A 
ATOM     21  C   UNL A   1      33.904  23.030  23.432  1.00  0.00     0.046 A 
ATOM     22  C   UNL A   1      31.747  22.733  25.145  1.00  0.00     0.044 A 
ATOM     23  C   UNL A   1      34.009  22.252  24.594  1.00  0.00     0.044 A 
ATOM     24  Cl  UNL A   1      30.382  22.559  26.181  1.00  0.00    -0.084 Cl
ATOM     25  C   UNL A   1      32.952  22.150  25.490  1.00  0.00     0.041 A 
ATOM     26  Cl  UNL A   1      35.466  21.394  24.914  1.00  0.00    -0.084 Cl
ENDBRANCH  17  19
ENDBRANCH   8  13
ENDBRANCH   5   8
ENDBRANCH   3   4
ENDBRANCH   2   3
ENDBRANCH   1   2
BRANCH   1  27
ATOM     27  C   UNL A   1      32.749  32.442  26.956  1.00  0.00     0.116 C 
BRANCH  27  28
ATOM     28  N   UNL A   1      32.592  33.798  27.450  1.00  0.00    -0.352 N 
ATOM     29  C   UNL A   1      33.176  34.420  28.521  1.00  0.00     0.251 C 
ATOM     30  H   UNL A   1      31.969  34.358  26.933  1.00  0.00     0.163 HD
ATOM     31  O   UNL A   1      32.719  35.492  28.909  1.00  0.00    -0.269 OA
BRANCH  29  32
ATOM     32  C   UNL A   1      34.333  33.812  29.212  1.00  0.00     0.039 A 
ATOM     33  C   UNL A   1      35.599  34.369  29.007  1.00  0.00     0.014 A 
ATOM     34  C   UNL A   1      34.196  32.673  30.010  1.00  0.00     0.014 A 
ATOM     35  C   UNL A   1      36.717  33.808  29.629  1.00  0.00     0.010 A 
ATOM     36  C   UNL A   1      35.298  32.161  30.692  1.00  0.00     0.010 A 
ATOM     37  C   UNL A   1      36.573  32.713  30.497  1.00  0.00    -0.014 A 
BRANCH  37  38
ATOM     38  C   UNL A   1      37.746  32.141  31.209  1.00  0.00     0.031 A 
ATOM     39  C   UNL A   1      38.519  30.996  30.609  1.00  0.00     0.074 A 
ATOM     40  C   UNL A   1      38.075  32.607  32.430  1.00  0.00     0.049 A 
ATOM     41  N   UNL A   1      39.541  30.345  31.101  1.00  0.00    -0.248 NA
ATOM     42  C   UNL A   1      38.073  30.503  29.295  1.00  0.00     0.031 C 
ATOM     43  C   UNL A   1      37.363  33.667  33.149  1.00  0.00     0.029 A 
ATOM     44  N   UNL A   1      39.073  32.232  33.294  1.00  0.00    -0.354 N 
ATOM     45  C   UNL A   1      39.835  29.344  30.181  1.00  0.00     0.074 A 
ATOM     46  C   UNL A   1      38.868  29.458  29.112  1.00  0.00     0.031 C 
ATOM     47  C   UNL A   1      37.952  33.861  34.340  1.00  0.00     0.029 A 
ATOM     48  C   UNL A   1      39.056  32.918  34.486  1.00  0.00     0.049 A 
ATOM     49  H   UNL A   1      39.737  31.539  33.081  1.00  0.00     0.167 HD
ATOM     50  C   UNL A   1      40.835  28.429  30.212  1.00  0.00     0.034 A 
ATOM     51  C   UNL A   1      39.833  32.795  35.580  1.00  0.00     0.034 A 
ATOM     52  C   UNL A   1      41.818  28.344  31.258  1.00  0.00     0.049 A 
ATOM     53  C   UNL A   1      40.951  31.788  35.575  1.00  0.00     0.074 A 
ATOM     54  C   UNL A   1      42.923  27.513  31.333  1.00  0.00     0.029 A 
ATOM     55  N   UNL A   1      41.812  29.103  32.417  1.00  0.00    -0.354 N 
ATOM     56  N   UNL A   1      41.311  30.960  34.625  1.00  0.00    -0.248 NA
ATOM     57  C   UNL A   1      41.793  31.724  36.778  1.00  0.00     0.031 C 
ATOM     58  C   UNL A   1      43.563  27.746  32.555  1.00  0.00     0.029 A 
ATOM     59  C   UNL A   1      42.882  28.751  33.222  1.00  0.00     0.049 A 
ATOM     60  H   UNL A   1      41.144  29.794  32.636  1.00  0.00     0.167 HD
ATOM     61  C   UNL A   1      42.442  30.304  35.099  1.00  0.00     0.074 A 
ATOM     62  C   UNL A   1      42.720  30.848  36.413  1.00  0.00     0.031 C 
ATOM     63  C   UNL A   1      43.178  29.333  34.505  1.00  0.00     0.034 A 
BRANCH  50  64
ATOM     64  C   UNL A   1      40.942  27.465  29.058  1.00  0.00     0.023 A 
ATOM     65  C   UNL A   1      40.122  26.318  29.026  1.00  0.00     0.012 A 
ATOM     66  C   UNL A   1      41.801  27.729  27.972  1.00  0.00     0.148 A 
ATOM     67  C   UNL A   1      40.181  25.431  27.952  1.00  0.00     0.002 A 
ATOM     68  C   UNL A   1      41.819  26.865  26.883  1.00  0.00     0.091 A 
ATOM     69  F   UNL A   1      42.585  28.814  28.027  1.00  0.00    -0.205 F 
ATOM     70  C   UNL A   1      41.020  25.710  26.877  1.00  0.00     0.022 A 
BRANCH  68  71
ATOM     71  S   UNL A   1      42.802  27.180  25.412  1.00  0.00     0.127 S 
ATOM     72  O   UNL A   1      44.141  27.327  25.979  1.00  0.00    -0.237 OA
ATOM     73  O   UNL A   1      42.599  25.953  24.640  1.00  0.00    -0.237 OA
ATOM     74  O   UNL A   1      42.245  28.380  24.805  1.00  0.00    -0.744 OA
ENDBRANCH  68  71
ENDBRANCH  50  64
BRANCH  51  75
ATOM     75  C   UNL A   1      39.618  33.689  36.753  1.00  0.00     0.023 A 
ATOM     76  C   UNL A   1      40.013  35.040  36.676  1.00  0.00     0.012 A 
ATOM     77  C   UNL A   1      39.011  33.218  37.933  1.00  0.00     0.148 A 
ATOM     78  C   UNL A   1      39.842  35.894  37.764  1.00  0.00     0.002 A 
ATOM     79  C   UNL A   1      38.790  34.089  38.994  1.00  0.00     0.091 A 
ATOM     80  F   UNL A   1      38.651  31.928  37.991  1.00  0.00    -0.205 F 
ATOM     81  C   UNL A   1      39.222  35.422  38.919  1.00  0.00     0.022 A 
BRANCH  79  82
ATOM     82  S   UNL A   1      37.884  33.606  40.467  1.00  0.00     0.127 S 
ATOM     83  O   UNL A   1      37.783  34.872  41.185  1.00  0.00    -0.237 OA
ATOM     84  O   UNL A   1      36.629  33.112  39.902  1.00  0.00    -0.237 OA
ATOM     85  O   UNL A   1      38.697  32.578  41.109  1.00  0.00    -0.744 OA
ENDBRANCH  79  82
ENDBRANCH  51  75
BRANCH  63  86
ATOM     86  C   UNL A   1      44.386  28.818  35.244  1.00  0.00     0.023 A 
ATOM     87  C   UNL A   1      45.660  29.361  34.979  1.00  0.00     0.012 A 
ATOM     88  C   UNL A   1      44.247  27.845  36.254  1.00  0.00     0.148 A 
ATOM     89  C   UNL A   1      46.780  28.918  35.682  1.00  0.00     0.002 A 
ATOM     90  C   UNL A   1      45.360  27.447  36.986  1.00  0.00     0.091 A 
ATOM     91  F   UNL A   1      43.031  27.328  36.480  1.00  0.00    -0.205 F 
ATOM     92  C   UNL A   1      46.628  27.972  36.692  1.00  0.00     0.022 A 
BRANCH  90  93
ATOM     93  S   UNL A   1      45.243  26.308  38.370  1.00  0.00     0.127 S 
ATOM     94  O   UNL A   1      46.642  26.194  38.780  1.00  0.00    -0.237 OA
ATOM     95  O   UNL A   1      44.392  27.044  39.306  1.00  0.00    -0.237 OA
ATOM     96  O   UNL A   1      44.646  25.090  37.842  1.00  0.00    -0.744 OA
ENDBRANCH  90  93
ENDBRANCH  63  86
ENDBRANCH  37  38
ENDBRANCH  29  32
ENDBRANCH  27  28
ENDBRANCH   1  27
TORSDOF 18
ENDMDL
MODEL 2
REMARK VINA RESULT:     -11.4      2.379      8.232
REMARK SMILES CCC(CC)(NC(=O)Nc1cc(Cl)cc(Cl)c1)C(=O)NCCCCNC(=O)c1ccc(-c2c3nc(c(-c4cccc(S(=O)(=O)[O-])c4F)c4ccc([nH]4)c(-c4cccc(S(=O)(=O)[O-])c4F)c4nc(c(-c5cccc(S(=O)(=O)[O-])c5F)c5ccc2[nH]5)C=C4)C=C3)cc1
REMARK SMILES IDX 23 1 22 2 21 3 20 4 18 5 19 6 3 8 2 9 1 10 4 11 5 12 6 13
REMARK SMILES IDX 7 14 8 16 9 17 10 19 11 20 17 21 12 22 15 23 13 24 14 25
REMARK SMILES IDX 16 26 24 27 25 28 26 29 27 31 28 32 29 33 90 34 30 35 89 36
REMARK SMILES IDX 31 37 32 38 33 39 83 40 34 41 88 42 82 43 84 44 35 45 87 46
REMARK SMILES IDX 81 47 80 48 36 50 68 51 48 52 67 53 49 54 52 55 66 56 85 57
REMARK SMILES IDX 50 58 51 59 65 61 86 62 53 63 37 64 38 65 46 66 39 67 41 68
REMARK SMILES IDX 47 69 40 70 42 71 43 72 44 73 45 74 69 75 70 76 78 77 71 78
REMARK SMILES IDX 73 79 79 80 72 81 74 82 75 83 76 84 77 85 54 86 55 87 63 88
REMARK SMILES IDX 56 89 58 90 64 91 57 92 59 93 60 94 61 95 62 96
REMARK H PARENT 20 7 6 15 9 18 25 30 84 49 52 60
REMARK Flexibility Score: inf
ROOT
ATOM      1  C   UNL A   1      33.336  28.941  23.665  1.00  0.00     0.023 C 
ENDROOT
BRANCH   1   2
ATOM      2  C   UNL A   1      32.152  28.237  22.994  1.00  0.00     0.023 C 
BRANCH   2   3
ATOM      3  C   UNL A   1      32.451  26.887  22.314  1.00  0.00     0.116 C 
BRANCH   3   4
ATOM      4  N   UNL A   1      31.311  25.983  22.388  1.00  0.00    -0.354 N 
ATOM      5  C   UNL A   1      30.687  25.440  23.507  1.00  0.00     0.245 C 
ATOM      6  O   UNL A   1      29.541  25.746  23.820  1.00  0.00    -0.272 OA
ATOM      7  H   UNL A   1      30.927  25.718  21.521  1.00  0.00     0.163 HD
BRANCH   5   8
ATOM      8  C   UNL A   1      31.587  24.530  24.385  1.00  0.00     0.120 C 
BRANCH   8   9
ATOM      9  C   UNL A   1      32.987  24.957  24.870  1.00  0.00     0.035 C 
ATOM     10  C   UNL A   1      33.101  25.785  26.131  1.00  0.00     0.007 C 
ENDBRANCH   8   9
BRANCH   8  11
ATOM     11  C   UNL A   1      31.700  23.325  23.365  1.00  0.00     0.035 C 
ATOM     12  C   UNL A   1      32.996  22.969  22.668  1.00  0.00     0.007 C 
ENDBRANCH   8  11
BRANCH   8  13
ATOM     13  N   UNL A   1      30.810  24.277  25.624  1.00  0.00    -0.323 N 
ATOM     14  C   UNL A   1      30.800  23.284  26.539  1.00  0.00     0.320 C 
ATOM     15  H   UNL A   1      30.159  24.989  25.823  1.00  0.00     0.166 HD
ATOM     16  O   UNL A   1      29.851  23.305  27.332  1.00  0.00    -0.248 OA
ATOM     17  N   UNL A   1      31.720  22.305  26.736  1.00  0.00    -0.308 N 
ATOM     18  H   UNL A   1      31.593  21.887  27.619  1.00  0.00     0.171 HD
BRANCH  17  19
ATOM     19  C   UNL A   1      32.809  21.701  26.054  1.00  0.00     0.045 A 
ATOM     20  C   UNL A   1      34.159  22.018  26.255  1.00  0.00     0.046 A 
ATOM     21  C   UNL A   1      32.555  20.509  25.373  1.00  0.00     0.046 A 
ATOM     22  C   UNL A   1      35.181  21.373  25.550  1.00  0.00     0.044 A 
ATOM     23  C   UNL A   1      33.588  19.812  24.728  1.00  0.00     0.044 A 
ATOM     24  Cl  UNL A   1      36.804  21.932  25.693  1.00  0.00    -0.084 Cl
ATOM     25  C   UNL A   1      34.897  20.275  24.760  1.00  0.00     0.041 A 
ATOM     26  Cl  UNL A   1      33.234  18.349  23.894  1.00  0.00    -0.084 Cl
ENDBRANCH  17  19
ENDBRANCH   8  13
ENDBRANCH   5   8
ENDBRANCH   3   4
ENDBRANCH   2   3
ENDBRANCH   1   2
BRANCH   1  27
ATOM     27  C   UNL A   1      33.237  29.055  25.179  1.00  0.00     0.116 C 
BRANCH  27  28
ATOM     28  N   UNL A   1      32.805  30.382  25.579  1.00  0.00    -0.352 N 
ATOM     29  C   UNL A   1      33.193  31.151  26.644  1.00  0.00     0.251 C 
ATOM     30  H   UNL A   1      32.129  30.793  24.994  1.00  0.00     0.163 HD
ATOM     31  O   UNL A   1      32.526  32.140  26.939  1.00  0.00    -0.269 OA
BRANCH  29  32
ATOM     32  C   UNL A   1      34.390  30.799  27.437  1.00  0.00     0.039 A 
ATOM     33  C   UNL A   1      34.442  29.540  28.042  1.00  0.00     0.014 A 
ATOM     34  C   UNL A   1      35.433  31.709  27.635  1.00  0.00     0.014 A 
ATOM     35  C   UNL A   1      35.550  29.183  28.814  1.00  0.00     0.010 A 
ATOM     36  C   UNL A   1      36.571  31.324  28.340  1.00  0.00     0.010 A 
ATOM     37  C   UNL A   1      36.636  30.062  28.949  1.00  0.00    -0.014 A 
BRANCH  37  38
ATOM     38  C   UNL A   1      37.845  29.672  29.722  1.00  0.00     0.031 A 
ATOM     39  C   UNL A   1      38.090  30.242  31.095  1.00  0.00     0.074 A 
ATOM     40  C   UNL A   1      38.760  28.859  29.158  1.00  0.00     0.049 A 
ATOM     41  N   UNL A   1      39.105  30.049  31.897  1.00  0.00    -0.248 NA
ATOM     42  C   UNL A   1      37.075  31.165  31.628  1.00  0.00     0.031 C 
ATOM     43  C   UNL A   1      38.672  28.296  27.809  1.00  0.00     0.029 A 
ATOM     44  N   UNL A   1      39.956  28.385  29.638  1.00  0.00    -0.354 N 
ATOM     45  C   UNL A   1      38.872  30.852  33.008  1.00  0.00     0.074 A 
ATOM     46  C   UNL A   1      37.632  31.555  32.766  1.00  0.00     0.031 C 
ATOM     47  C   UNL A   1      39.762  27.549  27.573  1.00  0.00     0.029 A 
ATOM     48  C   UNL A   1      40.643  27.609  28.735  1.00  0.00     0.049 A 
ATOM     49  H   UNL A   1      40.289  28.583  30.542  1.00  0.00     0.167 HD
ATOM     50  C   UNL A   1      39.612  30.975  34.137  1.00  0.00     0.034 A 
ATOM     51  C   UNL A   1      41.851  27.020  28.826  1.00  0.00     0.034 A 
ATOM     52  C   UNL A   1      40.825  30.245  34.391  1.00  0.00     0.049 A 
ATOM     53  C   UNL A   1      42.637  27.153  30.101  1.00  0.00     0.074 A 
ATOM     54  C   UNL A   1      41.595  30.232  35.540  1.00  0.00     0.029 A 
ATOM     55  N   UNL A   1      41.454  29.412  33.480  1.00  0.00    -0.354 N 
ATOM     56  N   UNL A   1      42.322  27.789  31.203  1.00  0.00    -0.248 NA
ATOM     57  C   UNL A   1      43.931  26.456  30.161  1.00  0.00     0.031 C 
ATOM     58  C   UNL A   1      42.709  29.418  35.312  1.00  0.00     0.029 A 
ATOM     59  C   UNL A   1      42.612  28.891  34.034  1.00  0.00     0.049 A 
ATOM     60  H   UNL A   1      41.126  29.217  32.572  1.00  0.00     0.167 HD
ATOM     61  C   UNL A   1      43.356  27.539  32.098  1.00  0.00     0.074 A 
ATOM     62  C   UNL A   1      44.298  26.675  31.416  1.00  0.00     0.031 C 
ATOM     63  C   UNL A   1      43.516  27.992  33.365  1.00  0.00     0.034 A 
BRANCH  50  64
ATOM     64  C   UNL A   1      39.109  31.909  35.209  1.00  0.00     0.023 A 
ATOM     65  C   UNL A   1      39.212  33.303  35.026  1.00  0.00     0.012 A 
ATOM     66  C   UNL A   1      38.472  31.410  36.363  1.00  0.00     0.148 A 
ATOM     67  C   UNL A   1      38.723  34.185  35.989  1.00  0.00     0.002 A 
ATOM     68  C   UNL A   1      37.945  32.296  37.295  1.00  0.00     0.091 A 
ATOM     69  F   UNL A   1      38.399  30.082  36.528  1.00  0.00    -0.205 F 
ATOM     70  C   UNL A   1      38.081  33.682  37.117  1.00  0.00     0.022 A 
BRANCH  68  71
ATOM     71  S   UNL A   1      37.025  31.750  38.739  1.00  0.00     0.127 S 
ATOM     72  O   UNL A   1      37.998  31.969  39.808  1.00  0.00    -0.237 OA
ATOM     73  O   UNL A   1      35.892  32.676  38.748  1.00  0.00    -0.237 OA
ATOM     74  O   UNL A   1      36.673  30.359  38.490  1.00  0.00    -0.744 OA
ENDBRANCH  68  71
ENDBRANCH  50  64
BRANCH  51  75
ATOM     75  C   UNL A   1      42.368  26.199  27.693  1.00  0.00     0.023 A 
ATOM     76  C   UNL A   1      43.283  26.770  26.786  1.00  0.00     0.012 A 
ATOM     77  C   UNL A   1      41.977  24.858  27.520  1.00  0.00     0.148 A 
ATOM     78  C   UNL A   1      43.768  26.032  25.707  1.00  0.00     0.002 A 
ATOM     79  C   UNL A   1      42.509  24.110  26.477  1.00  0.00     0.091 A 
ATOM     80  F   UNL A   1      41.098  24.336  28.389  1.00  0.00    -0.205 F 
ATOM     81  C   UNL A   1      43.390  24.700  25.557  1.00  0.00     0.022 A 
BRANCH  79  82
ATOM     82  S   UNL A   1      42.181  22.355  26.282  1.00  0.00     0.127 S 
ATOM     83  O   UNL A   1      40.730  22.336  26.125  1.00  0.00    -0.237 OA
ATOM     84  O   UNL A   1      42.939  22.038  25.073  1.00  0.00    -0.237 OA
ATOM     85  O   UNL A   1      42.694  21.722  27.494  1.00  0.00    -0.744 OA
ENDBRANCH  79  82
ENDBRANCH  51  75
BRANCH  63  86
ATOM     86  C   UNL A   1      44.733  27.531  34.126  1.00  0.00     0.023 A 
ATOM     87  C   UNL A   1      45.911  28.305  34.108  1.00  0.00     0.012 A 
ATOM     88  C   UNL A   1      44.684  26.366  34.917  1.00  0.00     0.148 A 
ATOM     89  C   UNL A   1      47.031  27.907  34.837  1.00  0.00     0.002 A 
ATOM     90  C   UNL A   1      45.787  26.005  35.682  1.00  0.00     0.091 A 
ATOM     91  F   UNL A   1      43.561  25.634  34.907  1.00  0.00    -0.205 F 
ATOM     92  C   UNL A   1      46.966  26.766  35.632  1.00  0.00     0.022 A 
BRANCH  90  93
ATOM     93  S   UNL A   1      45.759  24.608  36.810  1.00  0.00     0.127 S 
ATOM     94  O   UNL A   1      47.101  24.665  37.388  1.00  0.00    -0.237 OA
ATOM     95  O   UNL A   1      44.682  24.976  37.731  1.00  0.00    -0.237 OA
ATOM     96  O   UNL A   1      45.481  23.435  35.994  1.00  0.00    -0.744 OA
ENDBRANCH  90  93
ENDBRANCH  63  86
ENDBRANCH  37  38
ENDBRANCH  29  32
ENDBRANCH  27  28
ENDBRANCH   1  27
TORSDOF 18
ENDMDL
MODEL 3
REMARK VINA RESULT:     -11.2      6.325     11.066
REMARK SMILES CCC(CC)(NC(=O)Nc1cc(Cl)cc(Cl)c1)C(=O)NCCCCNC(=O)c1ccc(-c2c3nc(c(-c4cccc(S(=O)(=O)[O-])c4F)c4ccc([nH]4)c(-c4cccc(S(=O)(=O)[O-])c4F)c4nc(c(-c5cccc(S(=O)(=O)[O-])c5F)c5ccc2[nH]5)C=C4)C=C3)cc1
REMARK SMILES IDX 23 1 22 2 21 3 20 4 18 5 19 6 3 8 2 9 1 10 4 11 5 12 6 13
REMARK SMILES IDX 7 14 8 16 9 17 10 19 11 20 17 21 12 22 15 23 13 24 14 25
REMARK SMILES IDX 16 26 24 27 25 28 26 29 27 31 28 32 29 33 90 34 30 35 89 36
REMARK SMILES IDX 31 37 32 38 33 39 83 40 34 41 88 42 82 43 84 44 35 45 87 46
REMARK SMILES IDX 81 47 80 48 36 50 68 51 48 52 67 53 49 54 52 55 66 56 85 57
REMARK SMILES IDX 50 58 51 59 65 61 86 62 53 63 37 64 38 65 46 66 39 67 41 68
REMARK SMILES IDX 47 69 40 70 42 71 43 72 44 73 45 74 69 75 70 76 78 77 71 78
REMARK SMILES IDX 73 79 79 80 72 81 74 82 75 83 76 84 77 85 54 86 55 87 63 88
REMARK SMILES IDX 56 89 58 90 64 91 57 92 59 93 60 94 61 95 62 96
REMARK H PARENT 20 7 6 15 9 18 25 30 84 49 52 60
REMARK Flexibility Score: inf
ROOT
ATOM      1  C   UNL A   1      37.628  19.606  24.984  1.00  0.00     0.023 C 
ENDROOT
BRANCH   1   2
ATOM      2  C   UNL A   1      36.298  20.368  25.001  1.00  0.00     0.023 C 
BRANCH   2   3
ATOM      3  C   UNL A   1      36.368  21.865  25.358  1.00  0.00     0.116 C 
BRANCH   3   4
ATOM      4  N   UNL A   1      35.556  22.177  26.526  1.00  0.00    -0.354 N 
ATOM      5  C   UNL A   1      34.204  21.936  26.751  1.00  0.00     0.245 C 
ATOM      6  O   UNL A   1      33.822  21.138  27.601  1.00  0.00    -0.272 OA
ATOM      7  H   UNL A   1      36.032  22.624  27.264  1.00  0.00     0.163 HD
BRANCH   5   8
ATOM      8  C   UNL A   1      33.236  22.650  25.769  1.00  0.00     0.120 C 
BRANCH   8   9
ATOM      9  C   UNL A   1      33.231  22.373  24.252  1.00  0.00     0.035 C 
ATOM     10  C   UNL A   1      32.770  21.019  23.760  1.00  0.00     0.007 C 
ENDBRANCH   8   9
BRANCH   8  11
ATOM     11  C   UNL A   1      33.722  24.129  26.058  1.00  0.00     0.035 C 
ATOM     12  C   UNL A   1      34.422  24.973  25.016  1.00  0.00     0.007 C 
ENDBRANCH   8  11
BRANCH   8  13
ATOM     13  N   UNL A   1      31.870  22.299  26.230  1.00  0.00    -0.323 N 
ATOM     14  C   UNL A   1      30.663  22.897  26.129  1.00  0.00     0.320 C 
ATOM     15  H   UNL A   1      31.836  21.444  26.717  1.00  0.00     0.166 HD
ATOM     16  O   UNL A   1      29.772  22.411  26.835  1.00  0.00    -0.248 OA
ATOM     17  N   UNL A   1      30.290  23.919  25.316  1.00  0.00    -0.308 N 
ATOM     18  H   UNL A   1      29.308  23.976  25.264  1.00  0.00     0.171 HD
BRANCH  17  19
ATOM     19  C   UNL A   1      30.887  24.930  24.519  1.00  0.00     0.045 A 
ATOM     20  C   UNL A   1      31.197  24.803  23.159  1.00  0.00     0.046 A 
ATOM     21  C   UNL A   1      30.884  26.231  25.028  1.00  0.00     0.046 A 
ATOM     22  C   UNL A   1      31.779  25.850  22.434  1.00  0.00     0.044 A 
ATOM     23  C   UNL A   1      31.394  27.301  24.276  1.00  0.00     0.044 A 
ATOM     24  Cl  UNL A   1      32.315  25.578  20.819  1.00  0.00    -0.084 Cl
ATOM     25  C   UNL A   1      31.903  27.105  22.999  1.00  0.00     0.041 A 
ATOM     26  Cl  UNL A   1      31.377  28.888  24.940  1.00  0.00    -0.084 Cl
ENDBRANCH  17  19
ENDBRANCH   8  13
ENDBRANCH   5   8
ENDBRANCH   3   4
ENDBRANCH   2   3
ENDBRANCH   1   2
BRANCH   1  27
ATOM     27  C   UNL A   1      38.765  20.291  25.728  1.00  0.00     0.116 C 
BRANCH  27  28
ATOM     28  N   UNL A   1      39.867  19.375  25.962  1.00  0.00    -0.352 N 
ATOM     29  C   UNL A   1      41.193  19.631  26.192  1.00  0.00     0.251 C 
ATOM     30  H   UNL A   1      39.624  18.421  25.954  1.00  0.00     0.163 HD
ATOM     31  O   UNL A   1      42.000  18.708  26.119  1.00  0.00    -0.269 OA
BRANCH  29  32
ATOM     32  C   UNL A   1      41.655  20.998  26.516  1.00  0.00     0.039 A 
ATOM     33  C   UNL A   1      41.801  21.917  25.471  1.00  0.00     0.014 A 
ATOM     34  C   UNL A   1      41.997  21.367  27.820  1.00  0.00     0.014 A 
ATOM     35  C   UNL A   1      42.253  23.211  25.740  1.00  0.00     0.010 A 
ATOM     36  C   UNL A   1      42.374  22.680  28.097  1.00  0.00     0.010 A 
ATOM     37  C   UNL A   1      42.521  23.612  27.059  1.00  0.00    -0.014 A 
BRANCH  37  38
ATOM     38  C   UNL A   1      42.950  25.002  27.364  1.00  0.00     0.031 A 
ATOM     39  C   UNL A   1      41.983  25.983  27.974  1.00  0.00     0.074 A 
ATOM     40  C   UNL A   1      44.191  25.403  27.026  1.00  0.00     0.049 A 
ATOM     41  N   UNL A   1      42.167  27.243  28.271  1.00  0.00    -0.248 NA
ATOM     42  C   UNL A   1      40.627  25.491  28.270  1.00  0.00     0.031 C 
ATOM     43  C   UNL A   1      45.199  24.568  26.368  1.00  0.00     0.029 A 
ATOM     44  N   UNL A   1      44.809  26.621  27.165  1.00  0.00    -0.354 N 
ATOM     45  C   UNL A   1      40.946  27.705  28.749  1.00  0.00     0.074 A 
ATOM     46  C   UNL A   1      40.020  26.596  28.679  1.00  0.00     0.031 C 
ATOM     47  C   UNL A   1      46.309  25.296  26.167  1.00  0.00     0.029 A 
ATOM     48  C   UNL A   1      46.082  26.655  26.646  1.00  0.00     0.049 A 
ATOM     49  H   UNL A   1      44.381  27.396  27.595  1.00  0.00     0.167 HD
ATOM     50  C   UNL A   1      40.630  28.934  29.225  1.00  0.00     0.034 A 
ATOM     51  C   UNL A   1      46.965  27.669  26.555  1.00  0.00     0.034 A 
ATOM     52  C   UNL A   1      41.563  30.024  29.329  1.00  0.00     0.049 A 
ATOM     53  C   UNL A   1      46.596  29.015  27.115  1.00  0.00     0.074 A 
ATOM     54  C   UNL A   1      41.363  31.277  29.882  1.00  0.00     0.029 A 
ATOM     55  N   UNL A   1      42.866  30.000  28.858  1.00  0.00    -0.354 N 
ATOM     56  N   UNL A   1      45.488  29.386  27.710  1.00  0.00    -0.248 NA
ATOM     57  C   UNL A   1      47.611  30.074  27.025  1.00  0.00     0.031 C 
ATOM     58  C   UNL A   1      42.534  32.022  29.713  1.00  0.00     0.029 A 
ATOM     59  C   UNL A   1      43.478  31.219  29.092  1.00  0.00     0.049 A 
ATOM     60  H   UNL A   1      43.295  29.227  28.421  1.00  0.00     0.167 HD
ATOM     61  C   UNL A   1      45.687  30.706  28.099  1.00  0.00     0.074 A 
ATOM     62  C   UNL A   1      47.030  31.063  27.690  1.00  0.00     0.031 C 
ATOM     63  C   UNL A   1      44.832  31.549  28.727  1.00  0.00     0.034 A 
BRANCH  50  64
ATOM     64  C   UNL A   1      39.220  29.160  29.710  1.00  0.00     0.023 A 
ATOM     65  C   UNL A   1      38.865  28.795  31.025  1.00  0.00     0.012 A 
ATOM     66  C   UNL A   1      38.266  29.795  28.889  1.00  0.00     0.148 A 
ATOM     67  C   UNL A   1      37.576  29.025  31.504  1.00  0.00     0.002 A 
ATOM     68  C   UNL A   1      36.997  30.064  29.390  1.00  0.00     0.091 A 
ATOM     69  F   UNL A   1      38.615  30.118  27.636  1.00  0.00    -0.205 F 
ATOM     70  C   UNL A   1      36.647  29.669  30.692  1.00  0.00     0.022 A 
BRANCH  68  71
ATOM     71  S   UNL A   1      35.755  30.963  28.454  1.00  0.00     0.127 S 
ATOM     72  O   UNL A   1      34.782  31.292  29.494  1.00  0.00    -0.237 OA
ATOM     73  O   UNL A   1      36.519  32.106  27.951  1.00  0.00    -0.237 OA
ATOM     74  O   UNL A   1      35.285  30.047  27.425  1.00  0.00    -0.744 OA
ENDBRANCH  68  71
ENDBRANCH  50  64
BRANCH  51  75
ATOM     75  C   UNL A   1      48.311  27.435  25.957  1.00  0.00     0.023 A 
ATOM     76  C   UNL A   1      48.459  27.453  24.556  1.00  0.00     0.012 A 
ATOM     77  C   UNL A   1      49.444  27.215  26.764  1.00  0.00     0.148 A 
ATOM     78  C   UNL A   1      49.702  27.218  23.969  1.00  0.00     0.002 A 
ATOM     79  C   UNL A   1      50.690  27.040  26.176  1.00  0.00     0.091 A 
ATOM     80  F   UNL A   1      49.280  27.192  28.095  1.00  0.00    -0.205 F 
ATOM     81  C   UNL A   1      50.819  27.021  24.778  1.00  0.00     0.022 A 
BRANCH  79  82
ATOM     82  S   UNL A   1      52.202  26.911  27.136  1.00  0.00     0.127 S 
ATOM     83  O   UNL A   1      52.286  28.236  27.742  1.00  0.00    -0.237 OA
ATOM     84  O   UNL A   1      51.881  25.826  28.062  1.00  0.00    -0.237 OA
ATOM     85  O   UNL A   1      53.252  26.587  26.175  1.00  0.00    -0.744 OA
ENDBRANCH  79  82
ENDBRANCH  51  75
BRANCH  63  86
ATOM     86  C   UNL A   1      45.328  32.933  29.059  1.00  0.00     0.023 A 
ATOM     87  C   UNL A   1      46.042  33.159  30.253  1.00  0.00     0.012 A 
ATOM     88  C   UNL A   1      45.148  33.994  28.150  1.00  0.00     0.148 A 
ATOM     89  C   UNL A   1      46.537  34.428  30.553  1.00  0.00     0.002 A 
ATOM     90  C   UNL A   1      45.690  35.243  28.432  1.00  0.00     0.091 A 
ATOM     91  F   UNL A   1      44.451  33.764  27.028  1.00  0.00    -0.205 F 
ATOM     92  C   UNL A   1      46.372  35.465  29.638  1.00  0.00     0.022 A 
BRANCH  90  93
ATOM     93  S   UNL A   1      45.613  36.610  27.269  1.00  0.00     0.127 S 
ATOM     94  O   UNL A   1      46.339  37.655  27.989  1.00  0.00    -0.237 OA
ATOM     95  O   UNL A   1      46.318  36.068  26.107  1.00  0.00    -0.237 OA
ATOM     96  O   UNL A   1      44.198  36.873  27.049  1.00  0.00    -0.744 OA
ENDBRANCH  90  93
ENDBRANCH  63  86
ENDBRANCH  37  38
ENDBRANCH  29  32
ENDBRANCH  27  28
ENDBRANCH   1  27
TORSDOF 18
ENDMDL
