MODEL 1
REMARK VINA RESULT:     -12.0      0.000      0.000
REMARK SMILES Cc1nc(SCc2cccc(Cl)c2)[nH]c(=O)c1CC(=O)NCCCCNC(=O)c1ccc(-c2c3nc(c(-c4cccc(S(=O)(=O)[O-])c4F)c4ccc([nH]4)c(-c4cccc(S(=O)(=O)[O-])c4F)c4nc(c(-c5cccc(S(=O)(=O)[O-])c5F)c5ccc2[nH]5)C=C4)C=C3)cc1
REMARK SMILES IDX 23 1 22 2 21 3 19 4 20 5 18 7 17 8 1 9 2 10 3 11 4 12 15 13
REMARK SMILES IDX 14 14 16 15 5 17 6 18 7 19 8 20 13 21 9 22 11 23 10 24 12 25
REMARK SMILES IDX 24 26 25 27 26 28 27 29 28 31 29 32 30 33 91 34 31 35 90 36
REMARK SMILES IDX 32 37 33 38 34 39 84 40 35 41 89 42 83 43 85 44 36 45 88 46
REMARK SMILES IDX 82 47 81 48 37 50 69 51 49 52 68 53 50 54 53 55 67 56 86 57
REMARK SMILES IDX 51 58 52 59 66 61 87 62 54 63 38 64 39 65 47 66 40 67 42 68
REMARK SMILES IDX 48 69 41 70 43 71 44 72 45 73 46 74 70 75 71 76 79 77 72 78
REMARK SMILES IDX 74 79 80 80 73 81 75 82 76 83 77 84 78 85 55 86 56 87 64 88
REMARK SMILES IDX 57 89 59 90 65 91 58 92 60 93 61 94 62 95 63 96
REMARK H PARENT 21 6 14 16 26 30 85 49 53 60
REMARK Flexibility Score: inf
ROOT
ATOM      1  C   UNL A   1      35.766  20.966  24.909  1.00  0.00     0.023 C 
ENDROOT
BRANCH   1   2
ATOM      2  C   UNL A   1      35.396  21.518  26.284  1.00  0.00     0.116 C 
BRANCH   2   3
ATOM      3  N   UNL A   1      35.138  22.943  26.240  1.00  0.00    -0.356 N 
ATOM      4  C   UNL A   1      33.981  23.629  26.014  1.00  0.00     0.224 C 
ATOM      5  O   UNL A   1      34.010  24.858  26.119  1.00  0.00    -0.275 OA
ATOM      6  H   UNL A   1      35.928  23.509  26.400  1.00  0.00     0.163 HD
BRANCH   4   7
ATOM      7  C   UNL A   1      32.662  22.901  25.765  1.00  0.00     0.143 C 
BRANCH   7   8
ATOM      8  C   UNL A   1      31.580  23.729  25.136  1.00  0.00     0.048 A 
ATOM      9  C   UNL A   1      32.371  23.414  22.774  1.00  0.00     0.067 C 
ATOM     10  C   UNL A   1      31.436  23.978  23.818  1.00  0.00     0.049 A 
ATOM     11  N   UNL A   1      30.511  24.857  23.305  1.00  0.00    -0.229 NA
ATOM     12  C   UNL A   1      29.830  25.560  24.143  1.00  0.00     0.168 A 
ATOM     13  C   UNL A   1      30.599  24.374  26.045  1.00  0.00     0.255 A 
ATOM     14  N   UNL A   1      29.848  25.361  25.482  1.00  0.00    -0.301 N 
ATOM     15  O   UNL A   1      30.472  24.045  27.213  1.00  0.00    -0.269 OA
ATOM     16  H   UNL A   1      29.305  25.943  26.062  1.00  0.00     0.172 HD
BRANCH  12  17
ATOM     17  S   UNL A   1      28.798  26.866  23.660  1.00  0.00    -0.083 SA
BRANCH  17  18
ATOM     18  C   UNL A   1      29.961  27.961  22.795  1.00  0.00     0.113 C 
BRANCH  18  19
ATOM     19  C   UNL A   1      31.161  28.395  23.608  1.00  0.00    -0.036 A 
ATOM     20  C   UNL A   1      32.418  27.805  23.411  1.00  0.00     0.005 A 
ATOM     21  C   UNL A   1      31.043  29.362  24.619  1.00  0.00     0.025 A 
ATOM     22  C   UNL A   1      33.517  28.180  24.197  1.00  0.00     0.002 A 
ATOM     23  C   UNL A   1      32.140  29.746  25.389  1.00  0.00     0.041 A 
ATOM     24  C   UNL A   1      33.381  29.160  25.181  1.00  0.00     0.020 A 
ATOM     25  Cl  UNL A   1      31.937  30.944  26.609  1.00  0.00    -0.084 Cl
ENDBRANCH  18  19
ENDBRANCH  17  18
ENDBRANCH  12  17
ENDBRANCH   7   8
ENDBRANCH   4   7
ENDBRANCH   2   3
ENDBRANCH   1   2
BRANCH   1  26
ATOM     26  C   UNL A   1      37.180  21.317  24.444  1.00  0.00     0.023 C 
BRANCH  26  27
ATOM     27  C   UNL A   1      38.229  21.413  25.547  1.00  0.00     0.116 C 
BRANCH  27  28
ATOM     28  N   UNL A   1      39.001  20.189  25.727  1.00  0.00    -0.352 N 
ATOM     29  C   UNL A   1      40.313  20.048  26.120  1.00  0.00     0.251 C 
ATOM     30  H   UNL A   1      38.520  19.351  25.541  1.00  0.00     0.163 HD
ATOM     31  O   UNL A   1      40.853  18.946  26.101  1.00  0.00    -0.269 OA
BRANCH  29  32
ATOM     32  C   UNL A   1      41.080  21.247  26.525  1.00  0.00     0.039 A 
ATOM     33  C   UNL A   1      41.789  21.955  25.552  1.00  0.00     0.014 A 
ATOM     34  C   UNL A   1      41.044  21.706  27.844  1.00  0.00     0.014 A 
ATOM     35  C   UNL A   1      42.382  23.177  25.883  1.00  0.00     0.010 A 
ATOM     36  C   UNL A   1      41.565  22.960  28.151  1.00  0.00     0.010 A 
ATOM     37  C   UNL A   1      42.230  23.715  27.172  1.00  0.00    -0.014 A 
BRANCH  37  38
ATOM     38  C   UNL A   1      42.711  25.084  27.502  1.00  0.00     0.031 A 
ATOM     39  C   UNL A   1      41.786  26.086  28.137  1.00  0.00     0.074 A 
ATOM     40  C   UNL A   1      43.954  25.459  27.132  1.00  0.00     0.049 A 
ATOM     41  N   UNL A   1      42.006  27.342  28.426  1.00  0.00    -0.248 NA
ATOM     42  C   UNL A   1      40.427  25.625  28.467  1.00  0.00     0.031 C 
ATOM     43  C   UNL A   1      44.922  24.609  26.435  1.00  0.00     0.029 A 
ATOM     44  N   UNL A   1      44.605  26.661  27.262  1.00  0.00    -0.354 N 
ATOM     45  C   UNL A   1      40.809  27.831  28.933  1.00  0.00     0.074 A 
ATOM     46  C   UNL A   1      39.856  26.744  28.886  1.00  0.00     0.031 C 
ATOM     47  C   UNL A   1      46.039  25.315  26.199  1.00  0.00     0.029 A 
ATOM     48  C   UNL A   1      45.857  26.676  26.691  1.00  0.00     0.049 A 
ATOM     49  H   UNL A   1      44.214  27.439  27.721  1.00  0.00     0.167 HD
ATOM     50  C   UNL A   1      40.533  29.067  29.415  1.00  0.00     0.034 A 
ATOM     51  C   UNL A   1      46.752  27.675  26.558  1.00  0.00     0.034 A 
ATOM     52  C   UNL A   1      41.492  30.136  29.494  1.00  0.00     0.049 A 
ATOM     53  C   UNL A   1      46.428  29.031  27.126  1.00  0.00     0.074 A 
ATOM     54  C   UNL A   1      41.334  31.389  30.061  1.00  0.00     0.029 A 
ATOM     55  N   UNL A   1      42.776  30.088  28.978  1.00  0.00    -0.354 N 
ATOM     56  N   UNL A   1      45.349  29.424  27.759  1.00  0.00    -0.248 NA
ATOM     57  C   UNL A   1      47.457  30.074  26.992  1.00  0.00     0.031 C 
ATOM     58  C   UNL A   1      42.512  32.113  29.852  1.00  0.00     0.029 A 
ATOM     59  C   UNL A   1      43.416  31.297  29.192  1.00  0.00     0.049 A 
ATOM     60  H   UNL A   1      43.175  29.311  28.526  1.00  0.00     0.167 HD
ATOM     61  C   UNL A   1      45.582  30.744  28.126  1.00  0.00     0.074 A 
ATOM     62  C   UNL A   1      46.913  31.078  27.666  1.00  0.00     0.031 C 
ATOM     63  C   UNL A   1      44.760  31.605  28.774  1.00  0.00     0.034 A 
BRANCH  50  64
ATOM     64  C   UNL A   1      39.142  29.324  29.937  1.00  0.00     0.023 A 
ATOM     65  C   UNL A   1      38.789  28.890  31.231  1.00  0.00     0.012 A 
ATOM     66  C   UNL A   1      38.209  30.055  29.175  1.00  0.00     0.148 A 
ATOM     67  C   UNL A   1      37.519  29.148  31.744  1.00  0.00     0.002 A 
ATOM     68  C   UNL A   1      36.964  30.352  29.713  1.00  0.00     0.091 A 
ATOM     69  F   UNL A   1      38.557  30.445  27.940  1.00  0.00    -0.205 F 
ATOM     70  C   UNL A   1      36.612  29.888  30.992  1.00  0.00     0.022 A 
BRANCH  68  71
ATOM     71  S   UNL A   1      35.754  31.368  28.860  1.00  0.00     0.127 S 
ATOM     72  O   UNL A   1      35.116  30.391  27.979  1.00  0.00    -0.237 OA
ATOM     73  O   UNL A   1      34.913  31.836  29.962  1.00  0.00    -0.237 OA
ATOM     74  O   UNL A   1      36.510  32.414  28.185  1.00  0.00    -0.744 OA
ENDBRANCH  68  71
ENDBRANCH  50  64
BRANCH  51  75
ATOM     75  C   UNL A   1      48.061  27.423  25.890  1.00  0.00     0.023 A 
ATOM     76  C   UNL A   1      49.158  26.977  26.654  1.00  0.00     0.012 A 
ATOM     77  C   UNL A   1      48.222  27.607  24.503  1.00  0.00     0.148 A 
ATOM     78  C   UNL A   1      50.398  26.752  26.056  1.00  0.00     0.002 A 
ATOM     79  C   UNL A   1      49.443  27.324  23.903  1.00  0.00     0.091 A 
ATOM     80  F   UNL A   1      47.170  28.042  23.794  1.00  0.00    -0.205 F 
ATOM     81  C   UNL A   1      50.539  26.916  24.680  1.00  0.00     0.022 A 
BRANCH  79  82
ATOM     82  S   UNL A   1      49.679  27.378  22.124  1.00  0.00     0.127 S 
ATOM     83  O   UNL A   1      51.097  27.047  22.000  1.00  0.00    -0.237 OA
ATOM     84  O   UNL A   1      48.759  26.336  21.667  1.00  0.00    -0.237 OA
ATOM     85  O   UNL A   1      49.307  28.727  21.718  1.00  0.00    -0.744 OA
ENDBRANCH  79  82
ENDBRANCH  51  75
BRANCH  63  86
ATOM     86  C   UNL A   1      45.280  32.990  29.066  1.00  0.00     0.023 A 
ATOM     87  C   UNL A   1      45.997  33.237  30.253  1.00  0.00     0.012 A 
ATOM     88  C   UNL A   1      45.128  34.025  28.122  1.00  0.00     0.148 A 
ATOM     89  C   UNL A   1      46.528  34.501  30.510  1.00  0.00     0.002 A 
ATOM     90  C   UNL A   1      45.706  35.266  28.360  1.00  0.00     0.091 A 
ATOM     91  F   UNL A   1      44.429  33.774  27.006  1.00  0.00    -0.205 F 
ATOM     92  C   UNL A   1      46.395  35.510  29.559  1.00  0.00     0.022 A 
BRANCH  90  93
ATOM     93  S   UNL A   1      45.671  36.596  27.153  1.00  0.00     0.127 S 
ATOM     94  O   UNL A   1      46.313  35.969  25.999  1.00  0.00    -0.237 OA
ATOM     95  O   UNL A   1      44.236  36.834  26.998  1.00  0.00    -0.237 OA
ATOM     96  O   UNL A   1      46.408  37.703  27.750  1.00  0.00    -0.744 OA
ENDBRANCH  90  93
ENDBRANCH  63  86
ENDBRANCH  37  38
ENDBRANCH  29  32
ENDBRANCH  27  28
ENDBRANCH  26  27
ENDBRANCH   1  26
TORSDOF 18
ENDMDL
MODEL 2
REMARK VINA RESULT:     -11.7      2.024      7.743
REMARK SMILES Cc1nc(SCc2cccc(Cl)c2)[nH]c(=O)c1CC(=O)NCCCCNC(=O)c1ccc(-c2c3nc(c(-c4cccc(S(=O)(=O)[O-])c4F)c4ccc([nH]4)c(-c4cccc(S(=O)(=O)[O-])c4F)c4nc(c(-c5cccc(S(=O)(=O)[O-])c5F)c5ccc2[nH]5)C=C4)C=C3)cc1
REMARK SMILES IDX 23 1 22 2 21 3 19 4 20 5 18 7 17 8 1 9 2 10 3 11 4 12 15 13
REMARK SMILES IDX 14 14 16 15 5 17 6 18 7 19 8 20 13 21 9 22 11 23 10 24 12 25
REMARK SMILES IDX 24 26 25 27 26 28 27 29 28 31 29 32 30 33 91 34 31 35 90 36
REMARK SMILES IDX 32 37 33 38 34 39 84 40 35 41 89 42 83 43 85 44 36 45 88 46
REMARK SMILES IDX 82 47 81 48 37 50 69 51 49 52 68 53 50 54 53 55 67 56 86 57
REMARK SMILES IDX 51 58 52 59 66 61 87 62 54 63 38 64 39 65 47 66 40 67 42 68
REMARK SMILES IDX 48 69 41 70 43 71 44 72 45 73 46 74 70 75 71 76 79 77 72 78
REMARK SMILES IDX 74 79 80 80 73 81 75 82 76 83 77 84 78 85 55 86 56 87 64 88
REMARK SMILES IDX 57 89 59 90 65 91 58 92 60 93 61 94 62 95 63 96
REMARK H PARENT 21 6 14 16 26 30 85 49 53 60
REMARK Flexibility Score: inf
ROOT
ATOM      1  C   UNL A   1      35.450  22.015  26.260  1.00  0.00     0.023 C 
ENDROOT
BRANCH   1   2
ATOM      2  C   UNL A   1      34.210  21.402  26.905  1.00  0.00     0.116 C 
BRANCH   2   3
ATOM      3  N   UNL A   1      33.653  20.336  26.097  1.00  0.00    -0.356 N 
ATOM      4  C   UNL A   1      32.494  20.279  25.380  1.00  0.00     0.224 C 
ATOM      5  O   UNL A   1      32.289  19.274  24.696  1.00  0.00    -0.275 OA
ATOM      6  H   UNL A   1      34.202  19.519  26.058  1.00  0.00     0.163 HD
BRANCH   4   7
ATOM      7  C   UNL A   1      31.537  21.468  25.322  1.00  0.00     0.143 C 
BRANCH   7   8
ATOM      8  C   UNL A   1      31.990  22.616  24.469  1.00  0.00     0.048 A 
ATOM      9  C   UNL A   1      32.400  24.194  26.378  1.00  0.00     0.067 C 
ATOM     10  C   UNL A   1      32.366  23.833  24.912  1.00  0.00     0.049 A 
ATOM     11  N   UNL A   1      32.638  24.896  24.082  1.00  0.00    -0.229 NA
ATOM     12  C   UNL A   1      32.404  24.742  22.824  1.00  0.00     0.168 A 
ATOM     13  C   UNL A   1      31.982  22.417  22.997  1.00  0.00     0.255 A 
ATOM     14  N   UNL A   1      32.079  23.557  22.257  1.00  0.00    -0.301 N 
ATOM     15  O   UNL A   1      31.895  21.314  22.485  1.00  0.00    -0.269 OA
ATOM     16  H   UNL A   1      31.908  23.518  21.288  1.00  0.00     0.172 HD
BRANCH  12  17
ATOM     17  S   UNL A   1      32.474  26.048  21.684  1.00  0.00    -0.083 SA
BRANCH  17  18
ATOM     18  C   UNL A   1      31.544  27.347  22.548  1.00  0.00     0.113 C 
BRANCH  18  19
ATOM     19  C   UNL A   1      32.195  27.874  23.809  1.00  0.00    -0.036 A 
ATOM     20  C   UNL A   1      33.503  28.382  23.787  1.00  0.00     0.005 A 
ATOM     21  C   UNL A   1      31.532  27.824  25.045  1.00  0.00     0.025 A 
ATOM     22  C   UNL A   1      34.117  28.829  24.965  1.00  0.00     0.002 A 
ATOM     23  C   UNL A   1      32.139  28.284  26.213  1.00  0.00     0.041 A 
ATOM     24  C   UNL A   1      33.430  28.791  26.179  1.00  0.00     0.020 A 
ATOM     25  Cl  UNL A   1      31.273  28.206  27.699  1.00  0.00    -0.084 Cl
ENDBRANCH  18  19
ENDBRANCH  17  18
ENDBRANCH  12  17
ENDBRANCH   7   8
ENDBRANCH   4   7
ENDBRANCH   2   3
ENDBRANCH   1   2
BRANCH   1  26
ATOM     26  C   UNL A   1      35.956  21.271  25.023  1.00  0.00     0.023 C 
BRANCH  26  27
ATOM     27  C   UNL A   1      37.433  21.468  24.696  1.00  0.00     0.116 C 
BRANCH  27  28
ATOM     28  N   UNL A   1      38.295  20.427  25.242  1.00  0.00    -0.352 N 
ATOM     29  C   UNL A   1      39.396  20.561  26.058  1.00  0.00     0.251 C 
ATOM     30  H   UNL A   1      38.059  19.505  24.992  1.00  0.00     0.163 HD
ATOM     31  O   UNL A   1      40.091  19.586  26.329  1.00  0.00    -0.269 OA
BRANCH  29  32
ATOM     32  C   UNL A   1      39.758  21.900  26.572  1.00  0.00     0.039 A 
ATOM     33  C   UNL A   1      40.790  22.009  27.506  1.00  0.00     0.014 A 
ATOM     34  C   UNL A   1      39.126  23.047  26.083  1.00  0.00     0.014 A 
ATOM     35  C   UNL A   1      41.255  23.274  27.878  1.00  0.00     0.010 A 
ATOM     36  C   UNL A   1      39.644  24.302  26.393  1.00  0.00     0.010 A 
ATOM     37  C   UNL A   1      40.721  24.430  27.284  1.00  0.00    -0.014 A 
BRANCH  37  38
ATOM     38  C   UNL A   1      41.306  25.774  27.541  1.00  0.00     0.031 A 
ATOM     39  C   UNL A   1      42.726  26.075  27.148  1.00  0.00     0.074 A 
ATOM     40  C   UNL A   1      40.591  26.691  28.225  1.00  0.00     0.049 A 
ATOM     41  N   UNL A   1      43.427  27.159  27.358  1.00  0.00    -0.248 NA
ATOM     42  C   UNL A   1      43.467  25.010  26.450  1.00  0.00     0.031 C 
ATOM     43  C   UNL A   1      39.231  26.496  28.736  1.00  0.00     0.029 A 
ATOM     44  N   UNL A   1      40.918  27.960  28.637  1.00  0.00    -0.354 N 
ATOM     45  C   UNL A   1      44.695  26.895  26.857  1.00  0.00     0.074 A 
ATOM     46  C   UNL A   1      44.678  25.538  26.357  1.00  0.00     0.031 C 
ATOM     47  C   UNL A   1      38.843  27.601  29.391  1.00  0.00     0.029 A 
ATOM     48  C   UNL A   1      39.934  28.570  29.383  1.00  0.00     0.049 A 
ATOM     49  H   UNL A   1      41.774  28.393  28.419  1.00  0.00     0.167 HD
ATOM     50  C   UNL A   1      45.772  27.716  26.797  1.00  0.00     0.034 A 
ATOM     51  C   UNL A   1      39.917  29.763  30.007  1.00  0.00     0.034 A 
ATOM     52  C   UNL A   1      45.776  29.077  27.262  1.00  0.00     0.049 A 
ATOM     53  C   UNL A   1      41.118  30.664  29.903  1.00  0.00     0.074 A 
ATOM     54  C   UNL A   1      46.786  30.017  27.152  1.00  0.00     0.029 A 
ATOM     55  N   UNL A   1      44.734  29.687  27.940  1.00  0.00    -0.354 N 
ATOM     56  N   UNL A   1      42.249  30.461  29.272  1.00  0.00    -0.248 NA
ATOM     57  C   UNL A   1      41.029  31.974  30.566  1.00  0.00     0.031 C 
ATOM     58  C   UNL A   1      46.368  31.184  27.798  1.00  0.00     0.029 A 
ATOM     59  C   UNL A   1      45.083  30.984  28.276  1.00  0.00     0.049 A 
ATOM     60  H   UNL A   1      43.873  29.261  28.153  1.00  0.00     0.167 HD
ATOM     61  C   UNL A   1      42.992  31.625  29.435  1.00  0.00     0.074 A 
ATOM     62  C   UNL A   1      42.173  32.539  30.203  1.00  0.00     0.031 C 
ATOM     63  C   UNL A   1      44.244  31.904  28.999  1.00  0.00     0.034 A 
BRANCH  50  64
ATOM     64  C   UNL A   1      47.032  27.178  26.169  1.00  0.00     0.023 A 
ATOM     65  C   UNL A   1      47.286  27.411  24.802  1.00  0.00     0.012 A 
ATOM     66  C   UNL A   1      47.996  26.505  26.946  1.00  0.00     0.148 A 
ATOM     67  C   UNL A   1      48.462  26.952  24.210  1.00  0.00     0.002 A 
ATOM     68  C   UNL A   1      49.186  26.095  26.360  1.00  0.00     0.091 A 
ATOM     69  F   UNL A   1      47.728  26.277  28.240  1.00  0.00    -0.205 F 
ATOM     70  C   UNL A   1      49.416  26.305  24.991  1.00  0.00     0.022 A 
BRANCH  68  71
ATOM     71  S   UNL A   1      50.514  25.328  27.295  1.00  0.00     0.127 S 
ATOM     72  O   UNL A   1      51.500  25.067  26.246  1.00  0.00    -0.237 OA
ATOM     73  O   UNL A   1      50.885  26.391  28.229  1.00  0.00    -0.237 OA
ATOM     74  O   UNL A   1      49.938  24.144  27.916  1.00  0.00    -0.744 OA
ENDBRANCH  68  71
ENDBRANCH  50  64
BRANCH  51  75
ATOM     75  C   UNL A   1      38.704  30.196  30.758  1.00  0.00     0.023 A 
ATOM     76  C   UNL A   1      38.578  29.873  32.124  1.00  0.00     0.012 A 
ATOM     77  C   UNL A   1      37.683  30.938  30.133  1.00  0.00     0.148 A 
ATOM     78  C   UNL A   1      37.443  30.250  32.844  1.00  0.00     0.002 A 
ATOM     79  C   UNL A   1      36.583  31.362  30.870  1.00  0.00     0.091 A 
ATOM     80  F   UNL A   1      37.815  31.226  28.830  1.00  0.00    -0.205 F 
ATOM     81  C   UNL A   1      36.451  31.002  32.220  1.00  0.00     0.022 A 
BRANCH  79  82
ATOM     82  S   UNL A   1      35.324  32.445  30.187  1.00  0.00     0.127 S 
ATOM     83  O   UNL A   1      34.830  31.657  29.061  1.00  0.00    -0.237 OA
ATOM     84  O   UNL A   1      34.393  32.569  31.310  1.00  0.00    -0.237 OA
ATOM     85  O   UNL A   1      36.013  33.681  29.840  1.00  0.00    -0.744 OA
ENDBRANCH  79  82
ENDBRANCH  51  75
BRANCH  63  86
ATOM     86  C   UNL A   1      44.807  33.269  29.303  1.00  0.00     0.023 A 
ATOM     87  C   UNL A   1      45.508  33.490  30.505  1.00  0.00     0.012 A 
ATOM     88  C   UNL A   1      44.711  34.310  28.357  1.00  0.00     0.148 A 
ATOM     89  C   UNL A   1      46.079  34.734  30.774  1.00  0.00     0.002 A 
ATOM     90  C   UNL A   1      45.328  35.529  28.608  1.00  0.00     0.091 A 
ATOM     91  F   UNL A   1      44.026  34.084  27.227  1.00  0.00    -0.205 F 
ATOM     92  C   UNL A   1      46.001  35.747  29.821  1.00  0.00     0.022 A 
BRANCH  90  93
ATOM     93  S   UNL A   1      45.365  36.860  27.402  1.00  0.00     0.127 S 
ATOM     94  O   UNL A   1      43.941  37.151  27.236  1.00  0.00    -0.237 OA
ATOM     95  O   UNL A   1      46.120  37.894  28.108  1.00  0.00    -0.237 OA
ATOM     96  O   UNL A   1      46.030  36.320  26.224  1.00  0.00    -0.744 OA
ENDBRANCH  90  93
ENDBRANCH  63  86
ENDBRANCH  37  38
ENDBRANCH  29  32
ENDBRANCH  27  28
ENDBRANCH  26  27
ENDBRANCH   1  26
TORSDOF 18
ENDMDL
MODEL 3
REMARK VINA RESULT:     -11.6      1.855      2.315
REMARK SMILES Cc1nc(SCc2cccc(Cl)c2)[nH]c(=O)c1CC(=O)NCCCCNC(=O)c1ccc(-c2c3nc(c(-c4cccc(S(=O)(=O)[O-])c4F)c4ccc([nH]4)c(-c4cccc(S(=O)(=O)[O-])c4F)c4nc(c(-c5cccc(S(=O)(=O)[O-])c5F)c5ccc2[nH]5)C=C4)C=C3)cc1
REMARK SMILES IDX 23 1 22 2 21 3 19 4 20 5 18 7 17 8 1 9 2 10 3 11 4 12 15 13
REMARK SMILES IDX 14 14 16 15 5 17 6 18 7 19 8 20 13 21 9 22 11 23 10 24 12 25
REMARK SMILES IDX 24 26 25 27 26 28 27 29 28 31 29 32 30 33 91 34 31 35 90 36
REMARK SMILES IDX 32 37 33 38 34 39 84 40 35 41 89 42 83 43 85 44 36 45 88 46
REMARK SMILES IDX 82 47 81 48 37 50 69 51 49 52 68 53 50 54 53 55 67 56 86 57
REMARK SMILES IDX 51 58 52 59 66 61 87 62 54 63 38 64 39 65 47 66 40 67 42 68
REMARK SMILES IDX 48 69 41 70 43 71 44 72 45 73 46 74 70 75 71 76 79 77 72 78
REMARK SMILES IDX 74 79 80 80 73 81 75 82 76 83 77 84 78 85 55 86 56 87 64 88
REMARK SMILES IDX 57 89 59 90 65 91 58 92 60 93 61 94 62 95 63 96
REMARK H PARENT 21 6 14 16 26 30 85 49 53 60
REMARK Flexibility Score: inf
ROOT
ATOM      1  C   UNL A   1      37.417  19.853  24.719  1.00  0.00     0.023 C 
ENDROOT
BRANCH   1   2
ATOM      2  C   UNL A   1      35.907  19.754  24.926  1.00  0.00     0.116 C 
BRANCH   2   3
ATOM      3  N   UNL A   1      35.429  20.734  25.880  1.00  0.00    -0.356 N 
ATOM      4  C   UNL A   1      34.381  21.603  25.810  1.00  0.00     0.224 C 
ATOM      5  O   UNL A   1      34.127  22.282  26.807  1.00  0.00    -0.275 OA
ATOM      6  H   UNL A   1      35.946  20.780  26.717  1.00  0.00     0.163 HD
BRANCH   4   7
ATOM      7  C   UNL A   1      33.468  21.648  24.586  1.00  0.00     0.143 C 
BRANCH   7   8
ATOM      8  C   UNL A   1      33.330  22.993  23.935  1.00  0.00     0.048 A 
ATOM      9  C   UNL A   1      35.640  23.029  22.953  1.00  0.00     0.067 C 
ATOM     10  C   UNL A   1      34.279  23.628  23.218  1.00  0.00     0.049 A 
ATOM     11  N   UNL A   1      34.152  24.920  22.761  1.00  0.00    -0.229 NA
ATOM     12  C   UNL A   1      33.119  25.587  23.145  1.00  0.00     0.168 A 
ATOM     13  C   UNL A   1      32.049  23.718  24.134  1.00  0.00     0.255 A 
ATOM     14  N   UNL A   1      32.077  25.043  23.817  1.00  0.00    -0.301 N 
ATOM     15  O   UNL A   1      31.042  23.170  24.550  1.00  0.00    -0.269 OA
ATOM     16  H   UNL A   1      31.324  25.618  24.083  1.00  0.00     0.172 HD
BRANCH  12  17
ATOM     17  S   UNL A   1      32.928  27.285  22.849  1.00  0.00    -0.083 SA
BRANCH  17  18
ATOM     18  C   UNL A   1      31.708  27.749  24.113  1.00  0.00     0.113 C 
BRANCH  18  19
ATOM     19  C   UNL A   1      32.218  28.685  25.187  1.00  0.00    -0.036 A 
ATOM     20  C   UNL A   1      33.302  28.325  26.002  1.00  0.00     0.005 A 
ATOM     21  C   UNL A   1      31.592  29.916  25.436  1.00  0.00     0.025 A 
ATOM     22  C   UNL A   1      33.743  29.177  27.024  1.00  0.00     0.002 A 
ATOM     23  C   UNL A   1      32.041  30.769  26.443  1.00  0.00     0.041 A 
ATOM     24  C   UNL A   1      33.118  30.406  27.239  1.00  0.00     0.020 A 
ATOM     25  Cl  UNL A   1      31.238  32.271  26.696  1.00  0.00    -0.084 Cl
ENDBRANCH  18  19
ENDBRANCH  17  18
ENDBRANCH  12  17
ENDBRANCH   7   8
ENDBRANCH   4   7
ENDBRANCH   2   3
ENDBRANCH   1   2
BRANCH   1  26
ATOM     26  C   UNL A   1      38.024  21.202  25.109  1.00  0.00     0.023 C 
BRANCH  26  27
ATOM     27  C   UNL A   1      39.136  21.145  26.151  1.00  0.00     0.116 C 
BRANCH  27  28
ATOM     28  N   UNL A   1      39.960  19.946  26.059  1.00  0.00    -0.352 N 
ATOM     29  C   UNL A   1      41.331  19.836  26.118  1.00  0.00     0.251 C 
ATOM     30  H   UNL A   1      39.470  19.101  25.937  1.00  0.00     0.163 HD
ATOM     31  O   UNL A   1      41.880  18.760  25.897  1.00  0.00    -0.269 OA
BRANCH  29  32
ATOM     32  C   UNL A   1      42.142  21.040  26.409  1.00  0.00     0.039 A 
ATOM     33  C   UNL A   1      42.478  21.897  25.358  1.00  0.00     0.014 A 
ATOM     34  C   UNL A   1      42.509  21.354  27.719  1.00  0.00     0.014 A 
ATOM     35  C   UNL A   1      43.099  23.118  25.636  1.00  0.00     0.010 A 
ATOM     36  C   UNL A   1      43.054  22.605  28.001  1.00  0.00     0.010 A 
ATOM     37  C   UNL A   1      43.344  23.505  26.964  1.00  0.00    -0.014 A 
BRANCH  37  38
ATOM     38  C   UNL A   1      43.853  24.864  27.294  1.00  0.00     0.031 A 
ATOM     39  C   UNL A   1      42.922  25.920  27.824  1.00  0.00     0.074 A 
ATOM     40  C   UNL A   1      45.135  25.179  27.014  1.00  0.00     0.049 A 
ATOM     41  N   UNL A   1      43.170  27.175  28.096  1.00  0.00    -0.248 NA
ATOM     42  C   UNL A   1      41.524  25.522  28.058  1.00  0.00     0.031 C 
ATOM     43  C   UNL A   1      46.120  24.272  26.420  1.00  0.00     0.029 A 
ATOM     44  N   UNL A   1      45.823  26.359  27.162  1.00  0.00    -0.354 N 
ATOM     45  C   UNL A   1      41.958  27.725  28.491  1.00  0.00     0.074 A 
ATOM     46  C   UNL A   1      40.967  26.675  28.398  1.00  0.00     0.031 C 
ATOM     47  C   UNL A   1      47.280  24.926  26.255  1.00  0.00     0.029 A 
ATOM     48  C   UNL A   1      47.116  26.308  26.693  1.00  0.00     0.049 A 
ATOM     49  H   UNL A   1      45.428  27.166  27.567  1.00  0.00     0.167 HD
ATOM     50  C   UNL A   1      41.695  28.985  28.915  1.00  0.00     0.034 A 
ATOM     51  C   UNL A   1      48.058  27.268  26.604  1.00  0.00     0.034 A 
ATOM     52  C   UNL A   1      42.688  30.018  29.041  1.00  0.00     0.049 A 
ATOM     53  C   UNL A   1      47.746  28.652  27.106  1.00  0.00     0.074 A 
ATOM     54  C   UNL A   1      42.537  31.293  29.558  1.00  0.00     0.029 A 
ATOM     55  N   UNL A   1      44.006  29.905  28.631  1.00  0.00    -0.354 N 
ATOM     56  N   UNL A   1      46.637  29.105  27.641  1.00  0.00    -0.248 NA
ATOM     57  C   UNL A   1      48.824  29.649  27.027  1.00  0.00     0.031 C 
ATOM     58  C   UNL A   1      43.756  31.965  29.424  1.00  0.00     0.029 A 
ATOM     59  C   UNL A   1      44.676  31.095  28.862  1.00  0.00     0.049 A 
ATOM     60  H   UNL A   1      44.407  29.099  28.234  1.00  0.00     0.167 HD
ATOM     61  C   UNL A   1      46.894  30.426  27.988  1.00  0.00     0.074 A 
ATOM     62  C   UNL A   1      48.270  30.694  27.627  1.00  0.00     0.031 C 
ATOM     63  C   UNL A   1      46.060  31.338  28.544  1.00  0.00     0.034 A 
BRANCH  50  64
ATOM     64  C   UNL A   1      40.279  29.311  29.317  1.00  0.00     0.023 A 
ATOM     65  C   UNL A   1      39.345  29.701  28.335  1.00  0.00     0.012 A 
ATOM     66  C   UNL A   1      39.856  29.163  30.653  1.00  0.00     0.148 A 
ATOM     67  C   UNL A   1      38.023  29.973  28.682  1.00  0.00     0.002 A 
ATOM     68  C   UNL A   1      38.525  29.388  30.981  1.00  0.00     0.091 A 
ATOM     69  F   UNL A   1      40.762  28.808  31.575  1.00  0.00    -0.205 F 
ATOM     70  C   UNL A   1      37.611  29.806  30.000  1.00  0.00     0.022 A 
BRANCH  68  71
ATOM     71  S   UNL A   1      37.874  29.121  32.633  1.00  0.00     0.127 S 
ATOM     72  O   UNL A   1      38.694  30.037  33.425  1.00  0.00    -0.237 OA
ATOM     73  O   UNL A   1      36.477  29.528  32.482  1.00  0.00    -0.237 OA
ATOM     74  O   UNL A   1      38.069  27.706  32.919  1.00  0.00    -0.744 OA
ENDBRANCH  68  71
ENDBRANCH  50  64
BRANCH  51  75
ATOM     75  C   UNL A   1      49.404  26.944  26.050  1.00  0.00     0.023 A 
ATOM     76  C   UNL A   1      50.345  26.272  26.856  1.00  0.00     0.012 A 
ATOM     77  C   UNL A   1      49.752  27.285  24.729  1.00  0.00     0.148 A 
ATOM     78  C   UNL A   1      51.618  25.976  26.367  1.00  0.00     0.002 A 
ATOM     79  C   UNL A   1      51.001  26.934  24.229  1.00  0.00     0.091 A 
ATOM     80  F   UNL A   1      48.848  27.935  23.982  1.00  0.00    -0.205 F 
ATOM     81  C   UNL A   1      51.942  26.297  25.052  1.00  0.00     0.022 A 
BRANCH  79  82
ATOM     82  S   UNL A   1      51.457  27.188  22.511  1.00  0.00     0.127 S 
ATOM     83  O   UNL A   1      50.277  26.688  21.810  1.00  0.00    -0.237 OA
ATOM     84  O   UNL A   1      51.637  28.640  22.460  1.00  0.00    -0.237 OA
ATOM     85  O   UNL A   1      52.682  26.424  22.312  1.00  0.00    -0.744 OA
ENDBRANCH  79  82
ENDBRANCH  51  75
BRANCH  63  86
ATOM     86  C   UNL A   1      46.611  32.710  28.838  1.00  0.00     0.023 A 
ATOM     87  C   UNL A   1      47.280  32.954  30.054  1.00  0.00     0.012 A 
ATOM     88  C   UNL A   1      46.537  33.733  27.872  1.00  0.00     0.148 A 
ATOM     89  C   UNL A   1      47.841  34.204  30.316  1.00  0.00     0.002 A 
ATOM     90  C   UNL A   1      47.144  34.959  28.117  1.00  0.00     0.091 A 
ATOM     91  F   UNL A   1      45.882  33.485  26.729  1.00  0.00    -0.205 F 
ATOM     92  C   UNL A   1      47.785  35.200  29.343  1.00  0.00     0.022 A 
BRANCH  90  93
ATOM     93  S   UNL A   1      47.209  36.268  26.890  1.00  0.00     0.127 S 
ATOM     94  O   UNL A   1      47.985  37.293  27.587  1.00  0.00    -0.237 OA
ATOM     95  O   UNL A   1      47.910  35.619  25.783  1.00  0.00    -0.237 OA
ATOM     96  O   UNL A   1      45.825  36.624  26.605  1.00  0.00    -0.744 OA
ENDBRANCH  90  93
ENDBRANCH  63  86
ENDBRANCH  37  38
ENDBRANCH  29  32
ENDBRANCH  27  28
ENDBRANCH  26  27
ENDBRANCH   1  26
TORSDOF 18
ENDMDL
