MODEL 1
REMARK VINA RESULT:     -11.9      0.000      0.000
REMARK SMILES Cc1c(Cl)ccc2c(OCC(=O)NCCCCNC(=O)c3ccc(-c4c5nc(c(-c6cccc(S(=O)(=O)[O-])c6F)c6ccc([nH]6)c(-c6cccc(S(=O)(=O)[O-])c6F)c6nc(c(-c7cccc(S(=O)(=O)[O-])c7F)c7ccc4[nH]7)C=C6)C=C5)cc3)ccnc12
REMARK SMILES IDX 16 1 15 2 14 3 13 4 11 5 12 6 10 8 9 9 8 10 1 11 2 12 3 13
REMARK SMILES IDX 87 14 4 15 5 16 7 17 86 18 6 19 85 20 84 21 17 22 18 23
REMARK SMILES IDX 19 24 20 26 21 27 22 28 83 29 23 30 82 31 24 32 25 33 26 34
REMARK SMILES IDX 76 35 27 36 81 37 75 38 77 39 28 40 80 41 74 42 73 43 29 45
REMARK SMILES IDX 61 46 41 47 60 48 42 49 45 50 59 51 78 52 43 53 44 54 58 56
REMARK SMILES IDX 79 57 46 58 30 59 31 60 39 61 32 62 34 63 40 64 33 65 35 66
REMARK SMILES IDX 36 67 37 68 38 69 62 70 63 71 71 72 64 73 66 74 72 75 65 76
REMARK SMILES IDX 67 77 68 78 69 79 70 80 47 81 48 82 56 83 49 84 51 85 57 86
REMARK SMILES IDX 50 87 52 88 53 89 54 90 55 91
REMARK H PARENT 13 7 18 25 77 44 45 55
REMARK Flexibility Score: inf
ROOT
ATOM      1  C   UNL A   1      31.681  32.048  26.851  1.00  0.00     0.023 C 
ENDROOT
BRANCH   1   2
ATOM      2  C   UNL A   1      31.881  30.535  26.710  1.00  0.00     0.023 C 
BRANCH   2   3
ATOM      3  C   UNL A   1      31.665  29.976  25.306  1.00  0.00     0.116 C 
BRANCH   3   4
ATOM      4  N   UNL A   1      32.910  29.689  24.622  1.00  0.00    -0.353 N 
ATOM      5  C   UNL A   1      33.117  28.937  23.504  1.00  0.00     0.257 C 
ATOM      6  O   UNL A   1      34.259  28.845  23.049  1.00  0.00    -0.271 OA
ATOM      7  H   UNL A   1      33.716  30.092  25.019  1.00  0.00     0.163 HD
BRANCH   5   8
ATOM      8  C   UNL A   1      31.934  28.259  22.805  1.00  0.00     0.329 C 
BRANCH   8   9
ATOM      9  O   UNL A   1      31.866  26.844  22.852  1.00  0.00    -0.483 OA
BRANCH   9  10
ATOM     10  C   UNL A   1      31.553  26.230  24.041  1.00  0.00     0.131 A 
ATOM     11  C   UNL A   1      32.853  22.942  27.506  1.00  0.00     0.048 C 
ATOM     12  C   UNL A   1      33.185  23.742  26.269  1.00  0.00    -0.006 A 
ATOM     13  C   UNL A   1      34.403  23.539  25.596  1.00  0.00     0.046 A 
ATOM     14  C   UNL A   1      32.241  24.646  25.752  1.00  0.00     0.078 A 
ATOM     15  Cl  UNL A   1      35.590  22.416  26.164  1.00  0.00    -0.084 Cl
ATOM     16  C   UNL A   1      34.698  24.237  24.430  1.00  0.00     0.022 A 
ATOM     17  C   UNL A   1      32.531  25.345  24.557  1.00  0.00     0.043 A 
ATOM     18  N   UNL A   1      31.074  24.830  26.395  1.00  0.00    -0.256 NA
ATOM     19  C   UNL A   1      33.768  25.132  23.914  1.00  0.00     0.016 A 
ATOM     20  C   UNL A   1      30.169  25.691  25.887  1.00  0.00     0.115 A 
ATOM     21  C   UNL A   1      30.363  26.414  24.730  1.00  0.00     0.067 A 
ENDBRANCH   9  10
ENDBRANCH   8   9
ENDBRANCH   5   8
ENDBRANCH   3   4
ENDBRANCH   2   3
ENDBRANCH   1   2
BRANCH   1  22
ATOM     22  C   UNL A   1      32.903  32.840  27.309  1.00  0.00     0.116 C 
BRANCH  22  23
ATOM     23  N   UNL A   1      32.576  34.201  27.707  1.00  0.00    -0.352 N 
ATOM     24  C   UNL A   1      33.124  34.954  28.717  1.00  0.00     0.251 C 
ATOM     25  H   UNL A   1      31.867  34.639  27.184  1.00  0.00     0.163 HD
ATOM     26  O   UNL A   1      32.642  36.047  29.001  1.00  0.00    -0.269 OA
BRANCH  24  27
ATOM     27  C   UNL A   1      34.278  34.429  29.476  1.00  0.00     0.039 A 
ATOM     28  C   UNL A   1      34.047  33.793  30.699  1.00  0.00     0.014 A 
ATOM     29  C   UNL A   1      35.576  34.553  28.975  1.00  0.00     0.014 A 
ATOM     30  C   UNL A   1      35.117  33.226  31.394  1.00  0.00     0.010 A 
ATOM     31  C   UNL A   1      36.637  33.951  29.649  1.00  0.00     0.010 A 
ATOM     32  C   UNL A   1      36.417  33.281  30.863  1.00  0.00    -0.014 A 
BRANCH  32  33
ATOM     33  C   UNL A   1      37.557  32.645  31.565  1.00  0.00     0.031 A 
ATOM     34  C   UNL A   1      38.264  31.474  30.943  1.00  0.00     0.074 A 
ATOM     35  C   UNL A   1      37.914  33.078  32.790  1.00  0.00     0.049 A 
ATOM     36  N   UNL A   1      39.249  30.761  31.423  1.00  0.00    -0.248 NA
ATOM     37  C   UNL A   1      37.796  31.036  29.617  1.00  0.00     0.031 C 
ATOM     38  C   UNL A   1      37.268  34.167  33.524  1.00  0.00     0.029 A 
ATOM     39  N   UNL A   1      38.895  32.639  33.644  1.00  0.00    -0.354 N 
ATOM     40  C   UNL A   1      39.503  29.779  30.475  1.00  0.00     0.074 A 
ATOM     41  C   UNL A   1      38.557  29.974  29.397  1.00  0.00     0.031 C 
ATOM     42  C   UNL A   1      37.868  34.310  34.718  1.00  0.00     0.029 A 
ATOM     43  C   UNL A   1      38.930  33.315  34.841  1.00  0.00     0.049 A 
ATOM     44  H   UNL A   1      39.515  31.907  33.421  1.00  0.00     0.167 HD
ATOM     45  C   UNL A   1      40.459  28.824  30.485  1.00  0.00     0.034 A 
ATOM     46  C   UNL A   1      39.729  33.154  35.913  1.00  0.00     0.034 A 
ATOM     47  C   UNL A   1      41.435  28.663  31.526  1.00  0.00     0.049 A 
ATOM     48  C   UNL A   1      40.807  32.105  35.883  1.00  0.00     0.074 A 
ATOM     49  C   UNL A   1      42.488  27.767  31.583  1.00  0.00     0.029 A 
ATOM     50  N   UNL A   1      41.483  29.416  32.687  1.00  0.00    -0.354 N 
ATOM     51  N   UNL A   1      41.113  31.273  34.919  1.00  0.00    -0.248 NA
ATOM     52  C   UNL A   1      41.667  31.992  37.071  1.00  0.00     0.031 C 
ATOM     53  C   UNL A   1      43.177  27.981  32.780  1.00  0.00     0.029 A 
ATOM     54  C   UNL A   1      42.550  29.008  33.467  1.00  0.00     0.049 A 
ATOM     55  H   UNL A   1      40.851  30.134  32.923  1.00  0.00     0.167 HD
ATOM     56  C   UNL A   1      42.215  30.556  35.371  1.00  0.00     0.074 A 
ATOM     57  C   UNL A   1      42.532  31.060  36.690  1.00  0.00     0.031 C 
ATOM     58  C   UNL A   1      42.891  29.559  34.752  1.00  0.00     0.034 A 
BRANCH  45  59
ATOM     59  C   UNL A   1      40.562  27.918  29.292  1.00  0.00     0.023 A 
ATOM     60  C   UNL A   1      39.699  26.807  29.209  1.00  0.00     0.012 A 
ATOM     61  C   UNL A   1      41.422  28.215  28.218  1.00  0.00     0.148 A 
ATOM     62  C   UNL A   1      39.694  25.997  28.076  1.00  0.00     0.002 A 
ATOM     63  C   UNL A   1      41.393  27.418  27.080  1.00  0.00     0.091 A 
ATOM     64  F   UNL A   1      42.238  29.272  28.330  1.00  0.00    -0.205 F 
ATOM     65  C   UNL A   1      40.534  26.309  27.009  1.00  0.00     0.022 A 
BRANCH  63  66
ATOM     66  S   UNL A   1      42.398  27.753  25.629  1.00  0.00     0.127 S 
ATOM     67  O   UNL A   1      43.744  27.788  26.203  1.00  0.00    -0.237 OA
ATOM     68  O   UNL A   1      42.122  26.585  24.792  1.00  0.00    -0.237 OA
ATOM     69  O   UNL A   1      41.926  29.021  25.093  1.00  0.00    -0.744 OA
ENDBRANCH  63  66
ENDBRANCH  45  59
BRANCH  46  70
ATOM     70  C   UNL A   1      39.588  34.068  37.079  1.00  0.00     0.023 A 
ATOM     71  C   UNL A   1      39.998  35.409  36.951  1.00  0.00     0.012 A 
ATOM     72  C   UNL A   1      39.016  33.633  38.290  1.00  0.00     0.148 A 
ATOM     73  C   UNL A   1      39.854  36.300  38.014  1.00  0.00     0.002 A 
ATOM     74  C   UNL A   1      38.842  34.535  39.334  1.00  0.00     0.091 A 
ATOM     75  F   UNL A   1      38.643  32.349  38.390  1.00  0.00    -0.205 F 
ATOM     76  C   UNL A   1      39.270  35.867  39.201  1.00  0.00     0.022 A 
BRANCH  74  77
ATOM     77  S   UNL A   1      38.013  34.097  40.866  1.00  0.00     0.127 S 
ATOM     78  O   UNL A   1      39.043  33.317  41.549  1.00  0.00    -0.237 OA
ATOM     79  O   UNL A   1      37.747  35.411  41.450  1.00  0.00    -0.237 OA
ATOM     80  O   UNL A   1      36.822  33.359  40.472  1.00  0.00    -0.744 OA
ENDBRANCH  74  77
ENDBRANCH  46  70
BRANCH  58  81
ATOM     81  C   UNL A   1      44.057  28.937  35.468  1.00  0.00     0.023 A 
ATOM     82  C   UNL A   1      45.323  29.544  35.372  1.00  0.00     0.012 A 
ATOM     83  C   UNL A   1      43.867  27.848  36.341  1.00  0.00     0.148 A 
ATOM     84  C   UNL A   1      46.388  29.074  36.137  1.00  0.00     0.002 A 
ATOM     85  C   UNL A   1      44.927  27.406  37.124  1.00  0.00     0.091 A 
ATOM     86  F   UNL A   1      42.652  27.285  36.405  1.00  0.00    -0.205 F 
ATOM     87  C   UNL A   1      46.188  28.016  37.020  1.00  0.00     0.022 A 
BRANCH  85  88
ATOM     88  S   UNL A   1      44.748  26.103  38.348  1.00  0.00     0.127 S 
ATOM     89  O   UNL A   1      43.924  26.760  39.361  1.00  0.00    -0.237 OA
ATOM     90  O   UNL A   1      44.062  25.057  37.588  1.00  0.00    -0.237 OA
ATOM     91  O   UNL A   1      46.098  25.759  38.773  1.00  0.00    -0.744 OA
ENDBRANCH  85  88
ENDBRANCH  58  81
ENDBRANCH  32  33
ENDBRANCH  24  27
ENDBRANCH  22  23
ENDBRANCH   1  22
TORSDOF 16
ENDMDL
MODEL 2
REMARK VINA RESULT:     -11.8      3.792      8.772
REMARK SMILES Cc1c(Cl)ccc2c(OCC(=O)NCCCCNC(=O)c3ccc(-c4c5nc(c(-c6cccc(S(=O)(=O)[O-])c6F)c6ccc([nH]6)c(-c6cccc(S(=O)(=O)[O-])c6F)c6nc(c(-c7cccc(S(=O)(=O)[O-])c7F)c7ccc4[nH]7)C=C6)C=C5)cc3)ccnc12
REMARK SMILES IDX 16 1 15 2 14 3 13 4 11 5 12 6 10 8 9 9 8 10 1 11 2 12 3 13
REMARK SMILES IDX 87 14 4 15 5 16 7 17 86 18 6 19 85 20 84 21 17 22 18 23
REMARK SMILES IDX 19 24 20 26 21 27 22 28 83 29 23 30 82 31 24 32 25 33 26 34
REMARK SMILES IDX 76 35 27 36 81 37 75 38 77 39 28 40 80 41 74 42 73 43 29 45
REMARK SMILES IDX 61 46 41 47 60 48 42 49 45 50 59 51 78 52 43 53 44 54 58 56
REMARK SMILES IDX 79 57 46 58 30 59 31 60 39 61 32 62 34 63 40 64 33 65 35 66
REMARK SMILES IDX 36 67 37 68 38 69 62 70 63 71 71 72 64 73 66 74 72 75 65 76
REMARK SMILES IDX 67 77 68 78 69 79 70 80 47 81 48 82 56 83 49 84 51 85 57 86
REMARK SMILES IDX 50 87 52 88 53 89 54 90 55 91
REMARK H PARENT 13 7 18 25 77 44 45 55
REMARK Flexibility Score: inf
ROOT
ATOM      1  C   UNL A   1      32.860  28.477  25.271  1.00  0.00     0.023 C 
ENDROOT
BRANCH   1   2
ATOM      2  C   UNL A   1      33.741  28.598  24.024  1.00  0.00     0.023 C 
BRANCH   2   3
ATOM      3  C   UNL A   1      32.991  28.612  22.693  1.00  0.00     0.116 C 
BRANCH   3   4
ATOM      4  N   UNL A   1      33.393  27.532  21.815  1.00  0.00    -0.353 N 
ATOM      5  C   UNL A   1      32.800  26.319  21.626  1.00  0.00     0.257 C 
ATOM      6  O   UNL A   1      33.277  25.543  20.795  1.00  0.00    -0.271 OA
ATOM      7  H   UNL A   1      34.205  27.696  21.283  1.00  0.00     0.163 HD
BRANCH   5   8
ATOM      8  C   UNL A   1      31.532  25.955  22.405  1.00  0.00     0.329 C 
BRANCH   8   9
ATOM      9  O   UNL A   1      31.692  25.339  23.672  1.00  0.00    -0.483 OA
BRANCH   9  10
ATOM     10  C   UNL A   1      32.181  24.055  23.732  1.00  0.00     0.131 A 
ATOM     11  C   UNL A   1      35.955  21.081  24.923  1.00  0.00     0.048 C 
ATOM     12  C   UNL A   1      35.307  22.445  24.937  1.00  0.00    -0.006 A 
ATOM     13  C   UNL A   1      35.999  23.557  25.448  1.00  0.00     0.046 A 
ATOM     14  C   UNL A   1      34.031  22.614  24.372  1.00  0.00     0.078 A 
ATOM     15  Cl  UNL A   1      37.586  23.418  26.125  1.00  0.00    -0.084 Cl
ATOM     16  C   UNL A   1      35.430  24.825  25.423  1.00  0.00     0.022 A 
ATOM     17  C   UNL A   1      33.456  23.906  24.330  1.00  0.00     0.043 A 
ATOM     18  N   UNL A   1      33.375  21.549  23.876  1.00  0.00    -0.256 NA
ATOM     19  C   UNL A   1      34.169  24.998  24.866  1.00  0.00     0.016 A 
ATOM     20  C   UNL A   1      32.156  21.721  23.327  1.00  0.00     0.115 A 
ATOM     21  C   UNL A   1      31.518  22.939  23.240  1.00  0.00     0.067 A 
ENDBRANCH   9  10
ENDBRANCH   8   9
ENDBRANCH   5   8
ENDBRANCH   3   4
ENDBRANCH   2   3
ENDBRANCH   1   2
BRANCH   1  22
ATOM     22  C   UNL A   1      33.534  28.819  26.597  1.00  0.00     0.116 C 
BRANCH  22  23
ATOM     23  N   UNL A   1      33.570  30.250  26.858  1.00  0.00    -0.352 N 
ATOM     24  C   UNL A   1      34.505  30.970  27.562  1.00  0.00     0.251 C 
ATOM     25  H   UNL A   1      32.826  30.772  26.480  1.00  0.00     0.163 HD
ATOM     26  O   UNL A   1      34.318  32.161  27.795  1.00  0.00    -0.269 OA
BRANCH  24  27
ATOM     27  C   UNL A   1      35.722  30.296  28.061  1.00  0.00     0.039 A 
ATOM     28  C   UNL A   1      36.861  30.272  27.252  1.00  0.00     0.014 A 
ATOM     29  C   UNL A   1      35.739  29.703  29.327  1.00  0.00     0.014 A 
ATOM     30  C   UNL A   1      38.041  29.705  27.737  1.00  0.00     0.010 A 
ATOM     31  C   UNL A   1      36.928  29.175  29.825  1.00  0.00     0.010 A 
ATOM     32  C   UNL A   1      38.090  29.172  29.036  1.00  0.00    -0.014 A 
BRANCH  32  33
ATOM     33  C   UNL A   1      39.345  28.607  29.584  1.00  0.00     0.031 A 
ATOM     34  C   UNL A   1      39.982  29.224  30.798  1.00  0.00     0.074 A 
ATOM     35  C   UNL A   1      39.950  27.582  28.951  1.00  0.00     0.049 A 
ATOM     36  N   UNL A   1      41.098  28.899  31.393  1.00  0.00    -0.248 NA
ATOM     37  C   UNL A   1      39.281  30.363  31.415  1.00  0.00     0.031 C 
ATOM     38  C   UNL A   1      39.462  26.935  27.732  1.00  0.00     0.029 A 
ATOM     39  N   UNL A   1      41.117  26.918  29.236  1.00  0.00    -0.354 N 
ATOM     40  C   UNL A   1      41.247  29.803  32.437  1.00  0.00     0.074 A 
ATOM     41  C   UNL A   1      40.117  30.704  32.384  1.00  0.00     0.031 C 
ATOM     42  C   UNL A   1      40.324  25.970  27.372  1.00  0.00     0.029 A 
ATOM     43  C   UNL A   1      41.431  25.937  28.324  1.00  0.00     0.049 A 
ATOM     44  H   UNL A   1      41.677  27.125  30.018  1.00  0.00     0.167 HD
ATOM     45  C   UNL A   1      42.220  29.856  33.374  1.00  0.00     0.034 A 
ATOM     46  C   UNL A   1      42.489  25.105  28.264  1.00  0.00     0.034 A 
ATOM     47  C   UNL A   1      43.314  28.929  33.463  1.00  0.00     0.049 A 
ATOM     48  C   UNL A   1      43.539  25.164  29.340  1.00  0.00     0.074 A 
ATOM     49  C   UNL A   1      44.306  28.864  34.425  1.00  0.00     0.029 A 
ATOM     50  N   UNL A   1      43.556  27.905  32.563  1.00  0.00    -0.354 N 
ATOM     51  N   UNL A   1      43.591  25.943  30.392  1.00  0.00    -0.248 NA
ATOM     52  C   UNL A   1      44.657  24.214  29.239  1.00  0.00     0.031 C 
ATOM     53  C   UNL A   1      45.149  27.795  34.108  1.00  0.00     0.029 A 
ATOM     54  C   UNL A   1      44.681  27.199  32.949  1.00  0.00     0.049 A 
ATOM     55  H   UNL A   1      43.010  27.709  31.768  1.00  0.00     0.167 HD
ATOM     56  C   UNL A   1      44.730  25.561  31.092  1.00  0.00     0.074 A 
ATOM     57  C   UNL A   1      45.333  24.473  30.352  1.00  0.00     0.031 C 
ATOM     58  C   UNL A   1      45.237  26.079  32.236  1.00  0.00     0.034 A 
BRANCH  45  59
ATOM     59  C   UNL A   1      42.112  30.905  34.443  1.00  0.00     0.023 A 
ATOM     60  C   UNL A   1      41.492  30.569  35.663  1.00  0.00     0.012 A 
ATOM     61  C   UNL A   1      42.705  32.173  34.287  1.00  0.00     0.148 A 
ATOM     62  C   UNL A   1      41.457  31.482  36.714  1.00  0.00     0.002 A 
ATOM     63  C   UNL A   1      42.689  33.068  35.349  1.00  0.00     0.091 A 
ATOM     64  F   UNL A   1      43.278  32.467  33.112  1.00  0.00    -0.205 F 
ATOM     65  C   UNL A   1      42.064  32.727  36.560  1.00  0.00     0.022 A 
BRANCH  63  66
ATOM     66  S   UNL A   1      43.478  34.681  35.277  1.00  0.00     0.127 S 
ATOM     67  O   UNL A   1      44.865  34.318  34.983  1.00  0.00    -0.237 OA
ATOM     68  O   UNL A   1      42.766  35.319  34.170  1.00  0.00    -0.237 OA
ATOM     69  O   UNL A   1      43.266  35.293  36.581  1.00  0.00    -0.744 OA
ENDBRANCH  63  66
ENDBRANCH  45  59
BRANCH  46  70
ATOM     70  C   UNL A   1      42.563  24.086  27.183  1.00  0.00     0.023 A 
ATOM     71  C   UNL A   1      43.295  24.380  26.015  1.00  0.00     0.012 A 
ATOM     72  C   UNL A   1      41.956  22.823  27.319  1.00  0.00     0.148 A 
ATOM     73  C   UNL A   1      43.409  23.437  24.994  1.00  0.00     0.002 A 
ATOM     74  C   UNL A   1      42.105  21.875  26.312  1.00  0.00     0.091 A 
ATOM     75  F   UNL A   1      41.258  22.572  28.435  1.00  0.00    -0.205 F 
ATOM     76  C   UNL A   1      42.823  22.184  25.145  1.00  0.00     0.022 A 
BRANCH  74  77
ATOM     77  S   UNL A   1      41.469  20.202  26.456  1.00  0.00     0.127 S 
ATOM     78  O   UNL A   1      42.165  19.523  25.365  1.00  0.00    -0.237 OA
ATOM     79  O   UNL A   1      41.912  19.826  27.798  1.00  0.00    -0.237 OA
ATOM     80  O   UNL A   1      40.025  20.315  26.308  1.00  0.00    -0.744 OA
ENDBRANCH  74  77
ENDBRANCH  46  70
BRANCH  58  81
ATOM     81  C   UNL A   1      46.500  25.483  32.790  1.00  0.00     0.023 A 
ATOM     82  C   UNL A   1      47.737  26.064  32.454  1.00  0.00     0.012 A 
ATOM     83  C   UNL A   1      46.449  24.449  33.746  1.00  0.00     0.148 A 
ATOM     84  C   UNL A   1      48.910  25.624  33.063  1.00  0.00     0.002 A 
ATOM     85  C   UNL A   1      47.620  24.039  34.372  1.00  0.00     0.091 A 
ATOM     86  F   UNL A   1      45.258  23.910  34.040  1.00  0.00    -0.205 F 
ATOM     87  C   UNL A   1      48.851  24.622  34.029  1.00  0.00     0.022 A 
BRANCH  85  88
ATOM     88  S   UNL A   1      47.636  22.813  35.686  1.00  0.00     0.127 S 
ATOM     89  O   UNL A   1      49.061  22.736  36.002  1.00  0.00    -0.237 OA
ATOM     90  O   UNL A   1      46.816  23.454  36.715  1.00  0.00    -0.237 OA
ATOM     91  O   UNL A   1      47.059  21.602  35.117  1.00  0.00    -0.744 OA
ENDBRANCH  85  88
ENDBRANCH  58  81
ENDBRANCH  32  33
ENDBRANCH  24  27
ENDBRANCH  22  23
ENDBRANCH   1  22
TORSDOF 16
ENDMDL
MODEL 3
REMARK VINA RESULT:     -11.7      6.383     10.752
REMARK SMILES Cc1c(Cl)ccc2c(OCC(=O)NCCCCNC(=O)c3ccc(-c4c5nc(c(-c6cccc(S(=O)(=O)[O-])c6F)c6ccc([nH]6)c(-c6cccc(S(=O)(=O)[O-])c6F)c6nc(c(-c7cccc(S(=O)(=O)[O-])c7F)c7ccc4[nH]7)C=C6)C=C5)cc3)ccnc12
REMARK SMILES IDX 16 1 15 2 14 3 13 4 11 5 12 6 10 8 9 9 8 10 1 11 2 12 3 13
REMARK SMILES IDX 87 14 4 15 5 16 7 17 86 18 6 19 85 20 84 21 17 22 18 23
REMARK SMILES IDX 19 24 20 26 21 27 22 28 83 29 23 30 82 31 24 32 25 33 26 34
REMARK SMILES IDX 76 35 27 36 81 37 75 38 77 39 28 40 80 41 74 42 73 43 29 45
REMARK SMILES IDX 61 46 41 47 60 48 42 49 45 50 59 51 78 52 43 53 44 54 58 56
REMARK SMILES IDX 79 57 46 58 30 59 31 60 39 61 32 62 34 63 40 64 33 65 35 66
REMARK SMILES IDX 36 67 37 68 38 69 62 70 63 71 71 72 64 73 66 74 72 75 65 76
REMARK SMILES IDX 67 77 68 78 69 79 70 80 47 81 48 82 56 83 49 84 51 85 57 86
REMARK SMILES IDX 50 87 52 88 53 89 54 90 55 91
REMARK H PARENT 13 7 18 25 77 44 45 55
REMARK Flexibility Score: inf
ROOT
ATOM      1  C   UNL A   1      41.379  20.492  27.480  1.00  0.00     0.023 C 
ENDROOT
BRANCH   1   2
ATOM      2  C   UNL A   1      42.258  19.282  27.148  1.00  0.00     0.023 C 
BRANCH   2   3
ATOM      3  C   UNL A   1      42.836  19.263  25.734  1.00  0.00     0.116 C 
BRANCH   3   4
ATOM      4  N   UNL A   1      44.285  19.298  25.724  1.00  0.00    -0.353 N 
ATOM      5  C   UNL A   1      45.112  20.281  25.268  1.00  0.00     0.257 C 
ATOM      6  O   UNL A   1      46.331  20.139  25.385  1.00  0.00    -0.271 OA
ATOM      7  H   UNL A   1      44.732  18.504  26.095  1.00  0.00     0.163 HD
BRANCH   5   8
ATOM      8  C   UNL A   1      44.524  21.561  24.665  1.00  0.00     0.329 C 
BRANCH   8   9
ATOM      9  O   UNL A   1      44.164  22.603  25.556  1.00  0.00    -0.483 OA
BRANCH   9  10
ATOM     10  C   UNL A   1      45.158  23.312  26.188  1.00  0.00     0.131 A 
ATOM     11  C   UNL A   1      46.641  25.671  30.280  1.00  0.00     0.048 C 
ATOM     12  C   UNL A   1      45.646  24.788  29.565  1.00  0.00    -0.006 A 
ATOM     13  C   UNL A   1      44.460  24.388  30.205  1.00  0.00     0.046 A 
ATOM     14  C   UNL A   1      45.879  24.421  28.228  1.00  0.00     0.078 A 
ATOM     15  Cl  UNL A   1      44.102  24.836  31.837  1.00  0.00    -0.084 Cl
ATOM     16  C   UNL A   1      43.517  23.613  29.539  1.00  0.00     0.022 A 
ATOM     17  C   UNL A   1      44.914  23.647  27.543  1.00  0.00     0.043 A 
ATOM     18  N   UNL A   1      47.012  24.813  27.617  1.00  0.00    -0.256 NA
ATOM     19  C   UNL A   1      43.741  23.248  28.217  1.00  0.00     0.016 A 
ATOM     20  C   UNL A   1      47.223  24.465  26.331  1.00  0.00     0.115 A 
ATOM     21  C   UNL A   1      46.340  23.716  25.584  1.00  0.00     0.067 A 
ENDBRANCH   9  10
ENDBRANCH   8   9
ENDBRANCH   5   8
ENDBRANCH   3   4
ENDBRANCH   2   3
ENDBRANCH   1   2
BRANCH   1  22
ATOM     22  C   UNL A   1      41.147  21.478  26.338  1.00  0.00     0.116 C 
BRANCH  22  23
ATOM     23  N   UNL A   1      39.741  21.615  25.988  1.00  0.00    -0.352 N 
ATOM     24  C   UNL A   1      38.911  22.694  26.176  1.00  0.00     0.251 C 
ATOM     25  H   UNL A   1      39.329  20.829  25.562  1.00  0.00     0.163 HD
ATOM     26  O   UNL A   1      37.711  22.598  25.936  1.00  0.00    -0.269 OA
BRANCH  24  27
ATOM     27  C   UNL A   1      39.467  23.962  26.695  1.00  0.00     0.039 A 
ATOM     28  C   UNL A   1      40.024  24.873  25.794  1.00  0.00     0.014 A 
ATOM     29  C   UNL A   1      39.426  24.250  28.062  1.00  0.00     0.014 A 
ATOM     30  C   UNL A   1      40.486  26.106  26.258  1.00  0.00     0.010 A 
ATOM     31  C   UNL A   1      39.850  25.497  28.516  1.00  0.00     0.010 A 
ATOM     32  C   UNL A   1      40.382  26.437  27.619  1.00  0.00    -0.014 A 
BRANCH  32  33
ATOM     33  C   UNL A   1      40.826  27.758  28.121  1.00  0.00     0.031 A 
ATOM     34  C   UNL A   1      42.289  28.106  28.133  1.00  0.00     0.074 A 
ATOM     35  C   UNL A   1      39.923  28.620  28.629  1.00  0.00     0.049 A 
ATOM     36  N   UNL A   1      42.871  29.189  28.574  1.00  0.00    -0.248 NA
ATOM     37  C   UNL A   1      43.220  27.101  27.593  1.00  0.00     0.031 C 
ATOM     38  C   UNL A   1      38.483  28.375  28.727  1.00  0.00     0.029 A 
ATOM     39  N   UNL A   1      40.086  29.868  29.178  1.00  0.00    -0.354 N 
ATOM     40  C   UNL A   1      44.232  28.990  28.389  1.00  0.00     0.074 A 
ATOM     41  C   UNL A   1      44.395  27.673  27.813  1.00  0.00     0.031 C 
ATOM     42  C   UNL A   1      37.894  29.437  29.302  1.00  0.00     0.029 A 
ATOM     43  C   UNL A   1      38.914  30.431  29.627  1.00  0.00     0.049 A 
ATOM     44  H   UNL A   1      40.959  30.316  29.244  1.00  0.00     0.167 HD
ATOM     45  C   UNL A   1      45.252  29.840  28.644  1.00  0.00     0.034 A 
ATOM     46  C   UNL A   1      38.687  31.614  30.230  1.00  0.00     0.034 A 
ATOM     47  C   UNL A   1      45.090  31.169  29.164  1.00  0.00     0.049 A 
ATOM     48  C   UNL A   1      39.837  32.554  30.471  1.00  0.00     0.074 A 
ATOM     49  C   UNL A   1      46.064  32.127  29.385  1.00  0.00     0.029 A 
ATOM     50  N   UNL A   1      43.880  31.729  29.538  1.00  0.00    -0.354 N 
ATOM     51  N   UNL A   1      41.102  32.397  30.167  1.00  0.00    -0.248 NA
ATOM     52  C   UNL A   1      39.527  33.843  31.107  1.00  0.00     0.031 C 
ATOM     53  C   UNL A   1      45.441  33.271  29.890  1.00  0.00     0.029 A 
ATOM     54  C   UNL A   1      44.081  33.022  29.985  1.00  0.00     0.049 A 
ATOM     55  H   UNL A   1      43.008  31.275  29.493  1.00  0.00     0.167 HD
ATOM     56  C   UNL A   1      41.734  33.574  30.551  1.00  0.00     0.074 A 
ATOM     57  C   UNL A   1      40.712  34.442  31.097  1.00  0.00     0.031 C 
ATOM     58  C   UNL A   1      43.047  33.897  30.470  1.00  0.00     0.034 A 
BRANCH  45  59
ATOM     59  C   UNL A   1      46.642  29.398  28.288  1.00  0.00     0.023 A 
ATOM     60  C   UNL A   1      47.053  29.470  26.942  1.00  0.00     0.012 A 
ATOM     61  C   UNL A   1      47.565  29.017  29.281  1.00  0.00     0.148 A 
ATOM     62  C   UNL A   1      48.364  29.163  26.585  1.00  0.00     0.002 A 
ATOM     63  C   UNL A   1      48.878  28.738  28.920  1.00  0.00     0.091 A 
ATOM     64  F   UNL A   1      47.143  28.949  30.551  1.00  0.00    -0.205 F 
ATOM     65  C   UNL A   1      49.277  28.806  27.575  1.00  0.00     0.022 A 
BRANCH  63  66
ATOM     66  S   UNL A   1      50.149  28.312  30.117  1.00  0.00     0.127 S 
ATOM     67  O   UNL A   1      49.586  27.108  30.729  1.00  0.00    -0.237 OA
ATOM     68  O   UNL A   1      51.308  28.075  29.257  1.00  0.00    -0.237 OA
ATOM     69  O   UNL A   1      50.266  29.457  31.008  1.00  0.00    -0.744 OA
ENDBRANCH  63  66
ENDBRANCH  45  59
BRANCH  46  70
ATOM     70  C   UNL A   1      37.295  32.009  30.575  1.00  0.00     0.023 A 
ATOM     71  C   UNL A   1      36.812  31.747  31.872  1.00  0.00     0.012 A 
ATOM     72  C   UNL A   1      36.469  32.676  29.651  1.00  0.00     0.148 A 
ATOM     73  C   UNL A   1      35.522  32.130  32.239  1.00  0.00     0.002 A 
ATOM     74  C   UNL A   1      35.197  33.087  30.035  1.00  0.00     0.091 A 
ATOM     75  F   UNL A   1      36.949  32.904  28.421  1.00  0.00    -0.205 F 
ATOM     76  C   UNL A   1      34.718  32.806  31.325  1.00  0.00     0.022 A 
BRANCH  74  77
ATOM     77  S   UNL A   1      34.124  34.047  28.961  1.00  0.00     0.127 S 
ATOM     78  O   UNL A   1      33.106  34.515  29.899  1.00  0.00    -0.237 OA
ATOM     79  O   UNL A   1      35.035  35.081  28.473  1.00  0.00    -0.237 OA
ATOM     80  O   UNL A   1      33.660  33.121  27.938  1.00  0.00    -0.744 OA
ENDBRANCH  74  77
ENDBRANCH  46  70
BRANCH  58  81
ATOM     81  C   UNL A   1      43.479  35.248  30.966  1.00  0.00     0.023 A 
ATOM     82  C   UNL A   1      44.056  35.356  32.245  1.00  0.00     0.012 A 
ATOM     83  C   UNL A   1      43.447  36.371  30.116  1.00  0.00     0.148 A 
ATOM     84  C   UNL A   1      44.596  36.567  32.674  1.00  0.00     0.002 A 
ATOM     85  C   UNL A   1      44.016  37.566  30.539  1.00  0.00     0.091 A 
ATOM     86  F   UNL A   1      42.884  36.240  28.907  1.00  0.00    -0.205 F 
ATOM     87  C   UNL A   1      44.587  37.667  31.818  1.00  0.00     0.022 A 
BRANCH  85  88
ATOM     88  S   UNL A   1      44.126  39.014  29.480  1.00  0.00     0.127 S 
ATOM     89  O   UNL A   1      45.009  38.538  28.417  1.00  0.00    -0.237 OA
ATOM     90  O   UNL A   1      42.733  39.206  29.075  1.00  0.00    -0.237 OA
ATOM     91  O   UNL A   1      44.670  40.081  30.309  1.00  0.00    -0.744 OA
ENDBRANCH  85  88
ENDBRANCH  58  81
ENDBRANCH  32  33
ENDBRANCH  24  27
ENDBRANCH  22  23
ENDBRANCH   1  22
TORSDOF 16
ENDMDL
