MODEL 1
REMARK VINA RESULT:     -11.9      0.000      0.000
REMARK SMILES C[C@@H]1[C@@H](C(=O)NCCCCNC(=O)c2ccc(-c3c4nc(c(-c5cccc(S(=O)(=O)[O-])c5F)c5ccc([nH]5)c(-c5cccc(S(=O)(=O)[O-])c5F)c5nc(c(-c6cccc(S(=O)(=O)[O-])c6F)c6ccc3[nH]6)C=C5)C=C4)cc2)CCN1C(=O)CN1C(=O)CNC1=O
REMARK SMILES IDX 8 1 7 2 6 3 4 4 5 5 3 7 1 8 2 9 79 10 77 11 78 12 80 13
REMARK SMILES IDX 81 14 82 15 83 16 84 17 88 18 85 19 86 20 87 21 89 22 9 24
REMARK SMILES IDX 10 25 11 26 12 27 13 29 14 30 15 31 76 32 16 33 75 34 17 35
REMARK SMILES IDX 18 36 19 37 69 38 20 39 74 40 68 41 70 42 21 43 73 44 67 45
REMARK SMILES IDX 66 46 22 48 54 49 34 50 53 51 35 52 38 53 52 54 71 55 36 56
REMARK SMILES IDX 37 57 51 59 72 60 39 61 23 62 24 63 32 64 25 65 27 66 33 67
REMARK SMILES IDX 26 68 28 69 29 70 30 71 31 72 55 73 56 74 64 75 57 76 59 77
REMARK SMILES IDX 65 78 58 79 60 80 61 81 62 82 63 83 40 84 41 85 49 86 42 87
REMARK SMILES IDX 44 88 50 89 43 90 45 91 46 92 47 93 48 94
REMARK H PARENT 6 6 87 23 11 28 70 47 38 58
REMARK Flexibility Score: inf
ROOT
ATOM      1  C   UNL A   1      31.649  30.667  25.834  1.00  0.00     0.023 C 
ENDROOT
BRANCH   1   2
ATOM      2  C   UNL A   1      32.941  29.857  25.871  1.00  0.00     0.116 C 
BRANCH   2   3
ATOM      3  N   UNL A   1      33.456  29.580  24.548  1.00  0.00    -0.356 N 
ATOM      4  C   UNL A   1      33.031  28.686  23.615  1.00  0.00     0.225 C 
ATOM      5  O   UNL A   1      33.837  28.394  22.725  1.00  0.00    -0.275 OA
ATOM      6  H   UNL A   1      34.233  30.123  24.281  1.00  0.00     0.163 HD
BRANCH   4   7
ATOM      7  C   UNL A   1      31.708  27.931  23.769  1.00  0.00     0.102 C 
ATOM      8  C   UNL A   1      30.738  26.424  25.564  1.00  0.00     0.032 C 
ATOM      9  C   UNL A   1      31.918  26.649  24.616  1.00  0.00     0.094 C 
ATOM     10  N   UNL A   1      32.022  25.559  23.629  1.00  0.00    -0.338 N 
ATOM     11  C   UNL A   1      31.025  27.374  22.515  1.00  0.00     0.037 C 
ATOM     12  C   UNL A   1      31.642  26.007  22.309  1.00  0.00     0.121 C 
BRANCH  10  13
ATOM     13  C   UNL A   1      32.684  24.345  23.743  1.00  0.00     0.243 C 
ATOM     14  O   UNL A   1      33.820  24.177  23.293  1.00  0.00    -0.273 OA
BRANCH  13  15
ATOM     15  C   UNL A   1      31.989  23.233  24.516  1.00  0.00     0.230 C 
BRANCH  15  16
ATOM     16  N   UNL A   1      32.629  22.829  25.752  1.00  0.00    -0.253 N 
ATOM     17  C   UNL A   1      33.630  21.898  25.782  1.00  0.00     0.250 C 
ATOM     18  C   UNL A   1      32.160  23.047  27.013  1.00  0.00     0.325 C 
ATOM     19  O   UNL A   1      34.239  21.455  24.817  1.00  0.00    -0.272 OA
ATOM     20  C   UNL A   1      33.834  21.442  27.217  1.00  0.00     0.218 C 
ATOM     21  N   UNL A   1      32.837  22.223  27.880  1.00  0.00    -0.329 N 
ATOM     22  O   UNL A   1      31.304  23.833  27.372  1.00  0.00    -0.248 OA
ATOM     23  H   UNL A   1      32.656  22.175  28.847  1.00  0.00     0.165 HD
ENDBRANCH  15  16
ENDBRANCH  13  15
ENDBRANCH  10  13
ENDBRANCH   4   7
ENDBRANCH   2   3
ENDBRANCH   1   2
BRANCH   1  24
ATOM     24  C   UNL A   1      31.513  31.740  26.915  1.00  0.00     0.023 C 
BRANCH  24  25
ATOM     25  C   UNL A   1      32.792  32.498  27.259  1.00  0.00     0.116 C 
BRANCH  25  26
ATOM     26  N   UNL A   1      32.553  33.901  27.569  1.00  0.00    -0.352 N 
ATOM     27  C   UNL A   1      33.138  34.708  28.515  1.00  0.00     0.251 C 
ATOM     28  H   UNL A   1      31.869  34.339  27.014  1.00  0.00     0.163 HD
ATOM     29  O   UNL A   1      32.687  35.834  28.714  1.00  0.00    -0.269 OA
BRANCH  27  30
ATOM     30  C   UNL A   1      34.286  34.220  29.310  1.00  0.00     0.039 A 
ATOM     31  C   UNL A   1      34.042  33.478  30.470  1.00  0.00     0.014 A 
ATOM     32  C   UNL A   1      35.599  34.491  28.919  1.00  0.00     0.014 A 
ATOM     33  C   UNL A   1      35.114  32.946  31.193  1.00  0.00     0.010 A 
ATOM     34  C   UNL A   1      36.659  33.890  29.590  1.00  0.00     0.010 A 
ATOM     35  C   UNL A   1      36.431  33.117  30.738  1.00  0.00    -0.014 A 
BRANCH  35  36
ATOM     36  C   UNL A   1      37.586  32.499  31.443  1.00  0.00     0.031 A 
ATOM     37  C   UNL A   1      38.327  31.348  30.813  1.00  0.00     0.074 A 
ATOM     38  C   UNL A   1      37.907  32.904  32.688  1.00  0.00     0.049 A 
ATOM     39  N   UNL A   1      39.302  30.628  31.304  1.00  0.00    -0.248 NA
ATOM     40  C   UNL A   1      37.893  30.932  29.469  1.00  0.00     0.031 C 
ATOM     41  C   UNL A   1      37.217  33.953  33.442  1.00  0.00     0.029 A 
ATOM     42  N   UNL A   1      38.878  32.462  33.551  1.00  0.00    -0.354 N 
ATOM     43  C   UNL A   1      39.569  29.651  30.352  1.00  0.00     0.074 A 
ATOM     44  C   UNL A   1      38.628  29.847  29.271  1.00  0.00     0.031 C 
ATOM     45  C   UNL A   1      37.789  34.076  34.649  1.00  0.00     0.029 A 
ATOM     46  C   UNL A   1      38.865  33.099  34.771  1.00  0.00     0.049 A 
ATOM     47  H   UNL A   1      39.524  31.755  33.320  1.00  0.00     0.167 HD
ATOM     48  C   UNL A   1      40.530  28.696  30.357  1.00  0.00     0.034 A 
ATOM     49  C   UNL A   1      39.631  32.913  35.865  1.00  0.00     0.034 A 
ATOM     50  C   UNL A   1      41.498  28.535  31.408  1.00  0.00     0.049 A 
ATOM     51  C   UNL A   1      40.726  31.882  35.825  1.00  0.00     0.074 A 
ATOM     52  C   UNL A   1      42.565  27.657  31.469  1.00  0.00     0.029 A 
ATOM     53  N   UNL A   1      41.516  29.268  32.585  1.00  0.00    -0.354 N 
ATOM     54  N   UNL A   1      41.061  31.070  34.852  1.00  0.00    -0.248 NA
ATOM     55  C   UNL A   1      41.575  31.767  37.020  1.00  0.00     0.031 C 
ATOM     56  C   UNL A   1      43.219  27.848  32.691  1.00  0.00     0.029 A 
ATOM     57  C   UNL A   1      42.574  28.864  33.379  1.00  0.00     0.049 A 
ATOM     58  H   UNL A   1      40.872  29.974  32.821  1.00  0.00     0.167 HD
ATOM     59  C   UNL A   1      42.184  30.382  35.298  1.00  0.00     0.074 A 
ATOM     60  C   UNL A   1      42.480  30.883  36.624  1.00  0.00     0.031 C 
ATOM     61  C   UNL A   1      42.897  29.413  34.671  1.00  0.00     0.034 A 
BRANCH  48  62
ATOM     62  C   UNL A   1      40.616  27.785  29.159  1.00  0.00     0.023 A 
ATOM     63  C   UNL A   1      39.749  26.678  29.065  1.00  0.00     0.012 A 
ATOM     64  C   UNL A   1      41.516  28.049  28.108  1.00  0.00     0.148 A 
ATOM     65  C   UNL A   1      39.804  25.821  27.966  1.00  0.00     0.002 A 
ATOM     66  C   UNL A   1      41.531  27.218  26.993  1.00  0.00     0.091 A 
ATOM     67  F   UNL A   1      42.348  29.094  28.222  1.00  0.00    -0.205 F 
ATOM     68  C   UNL A   1      40.687  26.097  26.926  1.00  0.00     0.022 A 
BRANCH  66  69
ATOM     69  S   UNL A   1      42.573  27.535  25.564  1.00  0.00     0.127 S 
ATOM     70  O   UNL A   1      43.895  27.641  26.180  1.00  0.00    -0.237 OA
ATOM     71  O   UNL A   1      42.371  26.329  24.760  1.00  0.00    -0.237 OA
ATOM     72  O   UNL A   1      42.064  28.759  24.960  1.00  0.00    -0.744 OA
ENDBRANCH  66  69
ENDBRANCH  48  62
BRANCH  49  73
ATOM     73  C   UNL A   1      39.441  33.781  37.062  1.00  0.00     0.023 A 
ATOM     74  C   UNL A   1      39.884  35.119  37.019  1.00  0.00     0.012 A 
ATOM     75  C   UNL A   1      38.805  33.306  38.225  1.00  0.00     0.148 A 
ATOM     76  C   UNL A   1      39.726  35.957  38.123  1.00  0.00     0.002 A 
ATOM     77  C   UNL A   1      38.602  34.162  39.302  1.00  0.00     0.091 A 
ATOM     78  F   UNL A   1      38.400  32.028  38.249  1.00  0.00    -0.205 F 
ATOM     79  C   UNL A   1      39.078  35.482  39.260  1.00  0.00     0.022 A 
BRANCH  77  80
ATOM     80  S   UNL A   1      37.665  33.678  40.755  1.00  0.00     0.127 S 
ATOM     81  O   UNL A   1      38.570  32.724  41.391  1.00  0.00    -0.237 OA
ATOM     82  O   UNL A   1      37.519  34.952  41.459  1.00  0.00    -0.237 OA
ATOM     83  O   UNL A   1      36.415  33.125  40.251  1.00  0.00    -0.744 OA
ENDBRANCH  77  80
ENDBRANCH  49  73
BRANCH  61  84
ATOM     84  C   UNL A   1      44.102  28.858  35.382  1.00  0.00     0.023 A 
ATOM     85  C   UNL A   1      45.373  29.425  35.161  1.00  0.00     0.012 A 
ATOM     86  C   UNL A   1      43.961  27.825  36.330  1.00  0.00     0.148 A 
ATOM     87  C   UNL A   1      46.490  28.949  35.848  1.00  0.00     0.002 A 
ATOM     88  C   UNL A   1      45.069  27.390  37.047  1.00  0.00     0.091 A 
ATOM     89  F   UNL A   1      42.748  27.285  36.511  1.00  0.00    -0.205 F 
ATOM     90  C   UNL A   1      46.336  27.942  36.799  1.00  0.00     0.022 A 
BRANCH  88  91
ATOM     91  S   UNL A   1      44.946  26.168  38.358  1.00  0.00     0.127 S 
ATOM     92  O   UNL A   1      44.470  24.995  37.628  1.00  0.00    -0.237 OA
ATOM     93  O   UNL A   1      46.328  26.074  38.828  1.00  0.00    -0.237 OA
ATOM     94  O   UNL A   1      44.015  26.721  39.332  1.00  0.00    -0.744 OA
ENDBRANCH  88  91
ENDBRANCH  61  84
ENDBRANCH  35  36
ENDBRANCH  27  30
ENDBRANCH  25  26
ENDBRANCH  24  25
ENDBRANCH   1  24
TORSDOF 17
ENDMDL
MODEL 2
REMARK VINA RESULT:     -11.8      5.264      8.849
REMARK SMILES C[C@@H]1[C@@H](C(=O)NCCCCNC(=O)c2ccc(-c3c4nc(c(-c5cccc(S(=O)(=O)[O-])c5F)c5ccc([nH]5)c(-c5cccc(S(=O)(=O)[O-])c5F)c5nc(c(-c6cccc(S(=O)(=O)[O-])c6F)c6ccc3[nH]6)C=C5)C=C4)cc2)CCN1C(=O)CN1C(=O)CNC1=O
REMARK SMILES IDX 8 1 7 2 6 3 4 4 5 5 3 7 1 8 2 9 79 10 77 11 78 12 80 13
REMARK SMILES IDX 81 14 82 15 83 16 84 17 88 18 85 19 86 20 87 21 89 22 9 24
REMARK SMILES IDX 10 25 11 26 12 27 13 29 14 30 15 31 76 32 16 33 75 34 17 35
REMARK SMILES IDX 18 36 19 37 69 38 20 39 74 40 68 41 70 42 21 43 73 44 67 45
REMARK SMILES IDX 66 46 22 48 54 49 34 50 53 51 35 52 38 53 52 54 71 55 36 56
REMARK SMILES IDX 37 57 51 59 72 60 39 61 23 62 24 63 32 64 25 65 27 66 33 67
REMARK SMILES IDX 26 68 28 69 29 70 30 71 31 72 55 73 56 74 64 75 57 76 59 77
REMARK SMILES IDX 65 78 58 79 60 80 61 81 62 82 63 83 40 84 41 85 49 86 42 87
REMARK SMILES IDX 44 88 50 89 43 90 45 91 46 92 47 93 48 94
REMARK H PARENT 6 6 87 23 11 28 70 47 38 58
REMARK Flexibility Score: inf
ROOT
ATOM      1  C   UNL A   1      36.033  21.066  24.640  1.00  0.00     0.023 C 
ENDROOT
BRANCH   1   2
ATOM      2  C   UNL A   1      34.730  20.542  25.234  1.00  0.00     0.116 C 
BRANCH   2   3
ATOM      3  N   UNL A   1      34.438  21.125  26.525  1.00  0.00    -0.356 N 
ATOM      4  C   UNL A   1      33.443  21.977  26.894  1.00  0.00     0.225 C 
ATOM      5  O   UNL A   1      33.614  22.600  27.947  1.00  0.00    -0.275 OA
ATOM      6  H   UNL A   1      35.054  20.866  27.248  1.00  0.00     0.163 HD
BRANCH   4   7
ATOM      7  C   UNL A   1      32.273  22.298  25.960  1.00  0.00     0.102 C 
ATOM      8  C   UNL A   1      32.100  23.008  23.531  1.00  0.00     0.032 C 
ATOM      9  C   UNL A   1      32.707  23.340  24.896  1.00  0.00     0.094 C 
ATOM     10  N   UNL A   1      32.200  24.628  25.403  1.00  0.00    -0.338 N 
ATOM     11  C   UNL A   1      31.017  22.950  26.549  1.00  0.00     0.037 C 
ATOM     12  C   UNL A   1      31.295  24.437  26.513  1.00  0.00     0.121 C 
BRANCH  10  13
ATOM     13  C   UNL A   1      32.688  25.905  25.168  1.00  0.00     0.243 C 
ATOM     14  O   UNL A   1      33.884  26.116  24.949  1.00  0.00    -0.273 OA
BRANCH  13  15
ATOM     15  C   UNL A   1      31.682  27.046  25.113  1.00  0.00     0.230 C 
BRANCH  15  16
ATOM     16  N   UNL A   1      32.031  28.231  25.870  1.00  0.00    -0.253 N 
ATOM     17  C   UNL A   1      32.830  29.214  25.356  1.00  0.00     0.250 C 
ATOM     18  C   UNL A   1      31.902  28.395  27.217  1.00  0.00     0.325 C 
ATOM     19  O   UNL A   1      33.171  29.336  24.187  1.00  0.00    -0.272 OA
ATOM     20  C   UNL A   1      33.288  30.118  26.489  1.00  0.00     0.218 C 
ATOM     21  N   UNL A   1      32.654  29.480  27.600  1.00  0.00    -0.329 N 
ATOM     22  O   UNL A   1      31.238  27.737  27.995  1.00  0.00    -0.248 OA
ATOM     23  H   UNL A   1      32.746  29.784  28.532  1.00  0.00     0.165 HD
ENDBRANCH  15  16
ENDBRANCH  13  15
ENDBRANCH  10  13
ENDBRANCH   4   7
ENDBRANCH   2   3
ENDBRANCH   1   2
BRANCH   1  24
ATOM     24  C   UNL A   1      36.080  22.573  24.381  1.00  0.00     0.023 C 
BRANCH  24  25
ATOM     25  C   UNL A   1      37.274  23.310  24.980  1.00  0.00     0.116 C 
BRANCH  25  26
ATOM     26  N   UNL A   1      38.234  22.415  25.612  1.00  0.00    -0.352 N 
ATOM     27  C   UNL A   1      39.335  22.702  26.383  1.00  0.00     0.251 C 
ATOM     28  H   UNL A   1      38.067  21.456  25.466  1.00  0.00     0.163 HD
ATOM     29  O   UNL A   1      40.105  21.798  26.700  1.00  0.00    -0.269 OA
BRANCH  27  30
ATOM     30  C   UNL A   1      39.611  24.093  26.806  1.00  0.00     0.039 A 
ATOM     31  C   UNL A   1      39.352  24.463  28.129  1.00  0.00     0.014 A 
ATOM     32  C   UNL A   1      40.120  25.030  25.906  1.00  0.00     0.014 A 
ATOM     33  C   UNL A   1      39.674  25.751  28.565  1.00  0.00     0.010 A 
ATOM     34  C   UNL A   1      40.519  26.282  26.362  1.00  0.00     0.010 A 
ATOM     35  C   UNL A   1      40.295  26.661  27.694  1.00  0.00    -0.014 A 
BRANCH  35  36
ATOM     36  C   UNL A   1      40.720  28.011  28.151  1.00  0.00     0.031 A 
ATOM     37  C   UNL A   1      42.182  28.371  28.186  1.00  0.00     0.074 A 
ATOM     38  C   UNL A   1      39.803  28.878  28.625  1.00  0.00     0.049 A 
ATOM     39  N   UNL A   1      42.752  29.463  28.626  1.00  0.00    -0.248 NA
ATOM     40  C   UNL A   1      43.130  27.359  27.692  1.00  0.00     0.031 C 
ATOM     41  C   UNL A   1      38.364  28.621  28.721  1.00  0.00     0.029 A 
ATOM     42  N   UNL A   1      39.948  30.141  29.143  1.00  0.00    -0.354 N 
ATOM     43  C   UNL A   1      44.121  29.253  28.503  1.00  0.00     0.074 A 
ATOM     44  C   UNL A   1      44.297  27.915  27.982  1.00  0.00     0.031 C 
ATOM     45  C   UNL A   1      37.760  29.693  29.258  1.00  0.00     0.029 A 
ATOM     46  C   UNL A   1      38.767  30.701  29.574  1.00  0.00     0.049 A 
ATOM     47  H   UNL A   1      40.815  30.603  29.203  1.00  0.00     0.167 HD
ATOM     48  C   UNL A   1      45.141  30.105  28.767  1.00  0.00     0.034 A 
ATOM     49  C   UNL A   1      38.523  31.889  30.161  1.00  0.00     0.034 A 
ATOM     50  C   UNL A   1      44.962  31.452  29.236  1.00  0.00     0.049 A 
ATOM     51  C   UNL A   1      39.667  32.839  30.394  1.00  0.00     0.074 A 
ATOM     52  C   UNL A   1      45.924  32.423  29.451  1.00  0.00     0.029 A 
ATOM     53  N   UNL A   1      43.740  32.020  29.564  1.00  0.00    -0.354 N 
ATOM     54  N   UNL A   1      40.940  32.679  30.126  1.00  0.00    -0.248 NA
ATOM     55  C   UNL A   1      39.337  34.149  30.974  1.00  0.00     0.031 C 
ATOM     56  C   UNL A   1      45.284  33.573  29.925  1.00  0.00     0.029 A 
ATOM     57  C   UNL A   1      43.921  33.327  29.980  1.00  0.00     0.049 A 
ATOM     58  H   UNL A   1      42.871  31.560  29.508  1.00  0.00     0.167 HD
ATOM     59  C   UNL A   1      41.555  33.880  30.463  1.00  0.00     0.074 A 
ATOM     60  C   UNL A   1      40.511  34.763  30.940  1.00  0.00     0.031 C 
ATOM     61  C   UNL A   1      42.867  34.216  30.394  1.00  0.00     0.034 A 
BRANCH  48  62
ATOM     62  C   UNL A   1      46.543  29.620  28.499  1.00  0.00     0.023 A 
ATOM     63  C   UNL A   1      47.130  29.857  27.239  1.00  0.00     0.012 A 
ATOM     64  C   UNL A   1      47.294  28.976  29.501  1.00  0.00     0.148 A 
ATOM     65  C   UNL A   1      48.427  29.424  26.965  1.00  0.00     0.002 A 
ATOM     66  C   UNL A   1      48.604  28.589  29.235  1.00  0.00     0.091 A 
ATOM     67  F   UNL A   1      46.714  28.740  30.686  1.00  0.00    -0.205 F 
ATOM     68  C   UNL A   1      49.166  28.799  27.965  1.00  0.00     0.022 A 
BRANCH  66  69
ATOM     69  S   UNL A   1      49.667  27.853  30.483  1.00  0.00     0.127 S 
ATOM     70  O   UNL A   1      50.870  27.556  29.707  1.00  0.00    -0.237 OA
ATOM     71  O   UNL A   1      49.817  28.947  31.444  1.00  0.00    -0.237 OA
ATOM     72  O   UNL A   1      48.947  26.694  30.991  1.00  0.00    -0.744 OA
ENDBRANCH  66  69
ENDBRANCH  48  62
BRANCH  49  73
ATOM     73  C   UNL A   1      37.123  32.282  30.493  1.00  0.00     0.023 A 
ATOM     74  C   UNL A   1      36.636  32.057  31.796  1.00  0.00     0.012 A 
ATOM     75  C   UNL A   1      36.285  32.898  29.543  1.00  0.00     0.148 A 
ATOM     76  C   UNL A   1      35.330  32.408  32.138  1.00  0.00     0.002 A 
ATOM     77  C   UNL A   1      35.003  33.295  29.906  1.00  0.00     0.091 A 
ATOM     78  F   UNL A   1      36.764  33.094  28.306  1.00  0.00    -0.205 F 
ATOM     79  C   UNL A   1      34.517  33.035  31.198  1.00  0.00     0.022 A 
BRANCH  77  80
ATOM     80  S   UNL A   1      33.932  34.223  28.803  1.00  0.00     0.127 S 
ATOM     81  O   UNL A   1      32.859  34.636  29.704  1.00  0.00    -0.237 OA
ATOM     82  O   UNL A   1      34.815  35.303  28.362  1.00  0.00    -0.237 OA
ATOM     83  O   UNL A   1      33.550  33.292  27.749  1.00  0.00    -0.744 OA
ENDBRANCH  77  80
ENDBRANCH  49  73
BRANCH  61  84
ATOM     84  C   UNL A   1      43.254  35.615  30.796  1.00  0.00     0.023 A 
ATOM     85  C   UNL A   1      43.591  35.895  32.135  1.00  0.00     0.012 A 
ATOM     86  C   UNL A   1      43.361  36.634  29.829  1.00  0.00     0.148 A 
ATOM     87  C   UNL A   1      43.995  37.176  32.510  1.00  0.00     0.002 A 
ATOM     88  C   UNL A   1      43.812  37.894  30.200  1.00  0.00     0.091 A 
ATOM     89  F   UNL A   1      43.017  36.353  28.564  1.00  0.00    -0.205 F 
ATOM     90  C   UNL A   1      44.118  38.171  31.543  1.00  0.00     0.022 A 
BRANCH  88  91
ATOM     91  S   UNL A   1      44.094  39.205  29.005  1.00  0.00     0.127 S 
ATOM     92  O   UNL A   1      45.064  38.583  28.104  1.00  0.00    -0.237 OA
ATOM     93  O   UNL A   1      42.763  39.395  28.430  1.00  0.00    -0.237 OA
ATOM     94  O   UNL A   1      44.589  40.342  29.769  1.00  0.00    -0.744 OA
ENDBRANCH  88  91
ENDBRANCH  61  84
ENDBRANCH  35  36
ENDBRANCH  27  30
ENDBRANCH  25  26
ENDBRANCH  24  25
ENDBRANCH   1  24
TORSDOF 17
ENDMDL
MODEL 3
REMARK VINA RESULT:     -11.7      1.733      2.238
REMARK SMILES C[C@@H]1[C@@H](C(=O)NCCCCNC(=O)c2ccc(-c3c4nc(c(-c5cccc(S(=O)(=O)[O-])c5F)c5ccc([nH]5)c(-c5cccc(S(=O)(=O)[O-])c5F)c5nc(c(-c6cccc(S(=O)(=O)[O-])c6F)c6ccc3[nH]6)C=C5)C=C4)cc2)CCN1C(=O)CN1C(=O)CNC1=O
REMARK SMILES IDX 8 1 7 2 6 3 4 4 5 5 3 7 1 8 2 9 79 10 77 11 78 12 80 13
REMARK SMILES IDX 81 14 82 15 83 16 84 17 88 18 85 19 86 20 87 21 89 22 9 24
REMARK SMILES IDX 10 25 11 26 12 27 13 29 14 30 15 31 76 32 16 33 75 34 17 35
REMARK SMILES IDX 18 36 19 37 69 38 20 39 74 40 68 41 70 42 21 43 73 44 67 45
REMARK SMILES IDX 66 46 22 48 54 49 34 50 53 51 35 52 38 53 52 54 71 55 36 56
REMARK SMILES IDX 37 57 51 59 72 60 39 61 23 62 24 63 32 64 25 65 27 66 33 67
REMARK SMILES IDX 26 68 28 69 29 70 30 71 31 72 55 73 56 74 64 75 57 76 59 77
REMARK SMILES IDX 65 78 58 79 60 80 61 81 62 82 63 83 40 84 41 85 49 86 42 87
REMARK SMILES IDX 44 88 50 89 43 90 45 91 46 92 47 93 48 94
REMARK H PARENT 6 6 87 23 11 28 70 47 38 58
REMARK Flexibility Score: inf
ROOT
ATOM      1  C   UNL A   1      31.834  30.401  26.091  1.00  0.00     0.023 C 
ENDROOT
BRANCH   1   2
ATOM      2  C   UNL A   1      32.412  29.448  27.133  1.00  0.00     0.116 C 
BRANCH   2   3
ATOM      3  N   UNL A   1      31.612  28.253  27.292  1.00  0.00    -0.356 N 
ATOM      4  C   UNL A   1      31.575  27.121  26.538  1.00  0.00     0.225 C 
ATOM      5  O   UNL A   1      30.575  26.407  26.666  1.00  0.00    -0.275 OA
ATOM      6  H   UNL A   1      31.001  28.260  28.064  1.00  0.00     0.163 HD
BRANCH   4   7
ATOM      7  C   UNL A   1      32.613  26.848  25.446  1.00  0.00     0.102 C 
ATOM      8  C   UNL A   1      32.469  26.125  23.019  1.00  0.00     0.032 C 
ATOM      9  C   UNL A   1      32.082  25.777  24.458  1.00  0.00     0.094 C 
ATOM     10  N   UNL A   1      32.719  24.519  24.890  1.00  0.00    -0.338 N 
ATOM     11  C   UNL A   1      33.972  26.263  25.848  1.00  0.00     0.037 C 
ATOM     12  C   UNL A   1      33.764  24.764  25.857  1.00  0.00     0.121 C 
BRANCH  10  13
ATOM     13  C   UNL A   1      32.265  23.218  24.730  1.00  0.00     0.243 C 
ATOM     14  O   UNL A   1      31.105  22.894  24.999  1.00  0.00    -0.273 OA
BRANCH  13  15
ATOM     15  C   UNL A   1      33.230  22.202  24.136  1.00  0.00     0.230 C 
BRANCH  15  16
ATOM     16  N   UNL A   1      33.260  20.907  24.785  1.00  0.00    -0.253 N 
ATOM     17  C   UNL A   1      32.646  19.810  24.248  1.00  0.00     0.250 C 
ATOM     18  C   UNL A   1      33.596  20.662  26.084  1.00  0.00     0.325 C 
ATOM     19  O   UNL A   1      32.193  19.712  23.115  1.00  0.00    -0.272 OA
ATOM     20  C   UNL A   1      32.554  18.728  25.312  1.00  0.00     0.218 C 
ATOM     21  N   UNL A   1      33.166  19.399  26.416  1.00  0.00    -0.329 N 
ATOM     22  O   UNL A   1      34.189  21.389  26.857  1.00  0.00    -0.248 OA
ATOM     23  H   UNL A   1      33.267  19.002  27.312  1.00  0.00     0.165 HD
ENDBRANCH  15  16
ENDBRANCH  13  15
ENDBRANCH  10  13
ENDBRANCH   4   7
ENDBRANCH   2   3
ENDBRANCH   1   2
BRANCH   1  24
ATOM     24  C   UNL A   1      31.594  31.834  26.569  1.00  0.00     0.023 C 
BRANCH  24  25
ATOM     25  C   UNL A   1      32.753  32.482  27.320  1.00  0.00     0.116 C 
BRANCH  25  26
ATOM     26  N   UNL A   1      32.522  33.891  27.612  1.00  0.00    -0.352 N 
ATOM     27  C   UNL A   1      33.120  34.711  28.538  1.00  0.00     0.251 C 
ATOM     28  H   UNL A   1      31.832  34.322  27.059  1.00  0.00     0.163 HD
ATOM     29  O   UNL A   1      32.674  35.841  28.726  1.00  0.00    -0.269 OA
BRANCH  27  30
ATOM     30  C   UNL A   1      34.278  34.232  29.326  1.00  0.00     0.039 A 
ATOM     31  C   UNL A   1      34.047  33.491  30.489  1.00  0.00     0.014 A 
ATOM     32  C   UNL A   1      35.585  34.510  28.924  1.00  0.00     0.014 A 
ATOM     33  C   UNL A   1      35.127  32.968  31.205  1.00  0.00     0.010 A 
ATOM     34  C   UNL A   1      36.655  33.918  29.589  1.00  0.00     0.010 A 
ATOM     35  C   UNL A   1      36.440  33.146  30.740  1.00  0.00    -0.014 A 
BRANCH  35  36
ATOM     36  C   UNL A   1      37.604  32.537  31.438  1.00  0.00     0.031 A 
ATOM     37  C   UNL A   1      38.350  31.393  30.804  1.00  0.00     0.074 A 
ATOM     38  C   UNL A   1      37.929  32.945  32.681  1.00  0.00     0.049 A 
ATOM     39  N   UNL A   1      39.335  30.681  31.288  1.00  0.00    -0.248 NA
ATOM     40  C   UNL A   1      37.912  30.973  29.462  1.00  0.00     0.031 C 
ATOM     41  C   UNL A   1      37.235  33.988  33.439  1.00  0.00     0.029 A 
ATOM     42  N   UNL A   1      38.909  32.510  33.538  1.00  0.00    -0.354 N 
ATOM     43  C   UNL A   1      39.604  29.706  30.334  1.00  0.00     0.074 A 
ATOM     44  C   UNL A   1      38.655  29.895  29.260  1.00  0.00     0.031 C 
ATOM     45  C   UNL A   1      37.813  34.116  34.644  1.00  0.00     0.029 A 
ATOM     46  C   UNL A   1      38.898  33.147  34.759  1.00  0.00     0.049 A 
ATOM     47  H   UNL A   1      39.559  31.809  33.304  1.00  0.00     0.167 HD
ATOM     48  C   UNL A   1      40.572  28.759  30.334  1.00  0.00     0.034 A 
ATOM     49  C   UNL A   1      39.671  32.967  35.848  1.00  0.00     0.034 A 
ATOM     50  C   UNL A   1      41.547  28.605  31.379  1.00  0.00     0.049 A 
ATOM     51  C   UNL A   1      40.775  31.945  35.801  1.00  0.00     0.074 A 
ATOM     52  C   UNL A   1      42.622  27.736  31.433  1.00  0.00     0.029 A 
ATOM     53  N   UNL A   1      41.567  29.339  32.556  1.00  0.00    -0.354 N 
ATOM     54  N   UNL A   1      41.111  31.136  34.826  1.00  0.00    -0.248 NA
ATOM     55  C   UNL A   1      41.632  31.837  36.991  1.00  0.00     0.031 C 
ATOM     56  C   UNL A   1      43.282  27.932  32.651  1.00  0.00     0.029 A 
ATOM     57  C   UNL A   1      42.633  28.942  33.344  1.00  0.00     0.049 A 
ATOM     58  H   UNL A   1      40.918  30.039  32.796  1.00  0.00     0.167 HD
ATOM     59  C   UNL A   1      42.242  30.457  35.265  1.00  0.00     0.074 A 
ATOM     60  C   UNL A   1      42.542  30.960  36.590  1.00  0.00     0.031 C 
ATOM     61  C   UNL A   1      42.959  29.494  34.634  1.00  0.00     0.034 A 
BRANCH  48  62
ATOM     62  C   UNL A   1      40.659  27.849  29.135  1.00  0.00     0.023 A 
ATOM     63  C   UNL A   1      39.814  26.723  29.056  1.00  0.00     0.012 A 
ATOM     64  C   UNL A   1      41.535  28.131  28.069  1.00  0.00     0.148 A 
ATOM     65  C   UNL A   1      39.870  25.867  27.957  1.00  0.00     0.002 A 
ATOM     66  C   UNL A   1      41.550  27.299  26.955  1.00  0.00     0.091 A 
ATOM     67  F   UNL A   1      42.346  29.194  28.170  1.00  0.00    -0.205 F 
ATOM     68  C   UNL A   1      40.730  26.160  26.903  1.00  0.00     0.022 A 
BRANCH  66  69
ATOM     69  S   UNL A   1      42.562  27.638  25.509  1.00  0.00     0.127 S 
ATOM     70  O   UNL A   1      42.294  26.464  24.679  1.00  0.00    -0.237 OA
ATOM     71  O   UNL A   1      41.978  28.883  25.008  1.00  0.00    -0.237 OA
ATOM     72  O   UNL A   1      43.928  27.762  25.995  1.00  0.00    -0.744 OA
ENDBRANCH  66  69
ENDBRANCH  48  62
BRANCH  49  73
ATOM     73  C   UNL A   1      39.482  33.834  37.046  1.00  0.00     0.023 A 
ATOM     74  C   UNL A   1      39.924  35.171  37.005  1.00  0.00     0.012 A 
ATOM     75  C   UNL A   1      38.847  33.356  38.209  1.00  0.00     0.148 A 
ATOM     76  C   UNL A   1      39.767  36.008  38.110  1.00  0.00     0.002 A 
ATOM     77  C   UNL A   1      38.645  34.210  39.287  1.00  0.00     0.091 A 
ATOM     78  F   UNL A   1      38.443  32.078  38.232  1.00  0.00    -0.205 F 
ATOM     79  C   UNL A   1      39.119  35.531  39.247  1.00  0.00     0.022 A 
BRANCH  77  80
ATOM     80  S   UNL A   1      37.708  33.724  40.740  1.00  0.00     0.127 S 
ATOM     81  O   UNL A   1      37.544  34.999  41.432  1.00  0.00    -0.237 OA
ATOM     82  O   UNL A   1      36.485  33.184  40.145  1.00  0.00    -0.237 OA
ATOM     83  O   UNL A   1      38.529  32.733  41.424  1.00  0.00    -0.744 OA
ENDBRANCH  77  80
ENDBRANCH  49  73
BRANCH  61  84
ATOM     84  C   UNL A   1      44.173  28.949  35.338  1.00  0.00     0.023 A 
ATOM     85  C   UNL A   1      44.060  27.807  36.154  1.00  0.00     0.012 A 
ATOM     86  C   UNL A   1      45.442  29.524  35.125  1.00  0.00     0.148 A 
ATOM     87  C   UNL A   1      45.186  27.266  36.775  1.00  0.00     0.002 A 
ATOM     88  C   UNL A   1      46.566  28.951  35.706  1.00  0.00     0.091 A 
ATOM     89  F   UNL A   1      45.526  30.623  34.361  1.00  0.00    -0.205 F 
ATOM     90  C   UNL A   1      46.439  27.829  36.541  1.00  0.00     0.022 A 
BRANCH  88  91
ATOM     91  S   UNL A   1      48.228  29.550  35.380  1.00  0.00     0.127 S 
ATOM     92  O   UNL A   1      48.206  30.858  36.033  1.00  0.00    -0.237 OA
ATOM     93  O   UNL A   1      49.058  28.548  36.050  1.00  0.00    -0.237 OA
ATOM     94  O   UNL A   1      48.366  29.575  33.930  1.00  0.00    -0.744 OA
ENDBRANCH  88  91
ENDBRANCH  61  84
ENDBRANCH  35  36
ENDBRANCH  27  30
ENDBRANCH  25  26
ENDBRANCH  24  25
ENDBRANCH   1  24
TORSDOF 17
ENDMDL
