MODEL 1
REMARK VINA RESULT:     -11.0      0.000      0.000
REMARK SMILES COCC[C@]1(C(=O)NCCCCNC(=O)c2ccc(-c3c4nc(c(-c5cccc(S(=O)(=O)[O-])c5F)c5ccc([nH]5)c(-c5cccc(S(=O)(=O)[O-])c5F)c5nc(c(-c6cccc(S(=O)(=O)[O-])c6F)c6ccc3[nH]6)C=C5)C=C4)cc2)CCCN(C(=O)Cc2c(C)nc(C)[nH]c2=O)C1
REMARK SMILES IDX 10 1 9 2 8 3 6 4 7 5 5 7 79 8 95 9 80 10 82 11 81 12 4 13
REMARK SMILES IDX 3 14 2 15 1 16 83 17 84 18 85 19 86 20 87 21 93 22 88 23
REMARK SMILES IDX 89 24 92 25 94 26 90 27 91 29 11 30 12 31 13 32 14 33 15 35
REMARK SMILES IDX 16 36 17 37 78 38 18 39 77 40 19 41 20 42 21 43 71 44 22 45
REMARK SMILES IDX 76 46 70 47 72 48 23 49 75 50 69 51 68 52 24 54 56 55 36 56
REMARK SMILES IDX 55 57 37 58 40 59 54 60 73 61 38 62 39 63 53 65 74 66 41 67
REMARK SMILES IDX 25 68 26 69 34 70 27 71 29 72 35 73 28 74 30 75 31 76 32 77
REMARK SMILES IDX 33 78 57 79 58 80 66 81 59 82 61 83 67 84 60 85 62 86 63 87
REMARK SMILES IDX 64 88 65 89 42 90 43 91 51 92 44 93 46 94 52 95 45 96 47 97
REMARK SMILES IDX 48 98 49 99 50 100
REMARK H PARENT 8 6 92 28 13 34 72 53 40 64
REMARK Flexibility Score: inf
ROOT
ATOM      1  C   UNL A   1      33.688  28.836  24.962  1.00  0.00     0.023 C 
ENDROOT
BRANCH   1   2
ATOM      2  C   UNL A   1      32.210  29.236  24.750  1.00  0.00     0.116 C 
BRANCH   2   3
ATOM      3  N   UNL A   1      31.441  28.773  23.548  1.00  0.00    -0.356 N 
ATOM      4  C   UNL A   1      30.648  27.667  23.195  1.00  0.00     0.228 C 
ATOM      5  O   UNL A   1      29.828  27.797  22.288  1.00  0.00    -0.274 OA
ATOM      6  H   UNL A   1      31.509  29.419  22.808  1.00  0.00     0.163 HD
BRANCH   4   7
ATOM      7  C   UNL A   1      30.972  26.301  23.811  1.00  0.00     0.069 C 
ATOM      8  C   UNL A   1      30.542  26.626  25.300  1.00  0.00     0.021 C 
ATOM      9  C   UNL A   1      30.245  24.893  23.715  1.00  0.00     0.136 C 
ATOM     10  C   UNL A   1      30.936  25.707  26.436  1.00  0.00     0.023 C 
ATOM     11  N   UNL A   1      30.854  23.978  24.792  1.00  0.00    -0.341 N 
ATOM     12  C   UNL A   1      30.463  24.307  26.144  1.00  0.00     0.119 C 
BRANCH   7  13
ATOM     13  C   UNL A   1      32.300  25.957  23.002  1.00  0.00     0.047 C 
BRANCH  13  14
ATOM     14  C   UNL A   1      32.395  25.580  21.498  1.00  0.00     0.161 C 
BRANCH  14  15
ATOM     15  O   UNL A   1      33.439  26.331  20.866  1.00  0.00    -0.385 OA
ATOM     16  C   UNL A   1      33.983  27.298  21.750  1.00  0.00     0.194 C 
ENDBRANCH  14  15
ENDBRANCH  13  14
ENDBRANCH   7  13
BRANCH  11  17
ATOM     17  C   UNL A   1      31.927  23.118  24.522  1.00  0.00     0.227 C 
ATOM     18  O   UNL A   1      32.113  22.700  23.375  1.00  0.00    -0.275 OA
BRANCH  17  19
ATOM     19  C   UNL A   1      32.833  22.571  25.690  1.00  0.00     0.143 C 
BRANCH  19  20
ATOM     20  C   UNL A   1      34.353  22.673  25.673  1.00  0.00     0.048 A 
ATOM     21  C   UNL A   1      35.239  21.676  25.435  1.00  0.00     0.049 A 
ATOM     22  C   UNL A   1      34.993  23.995  25.747  1.00  0.00     0.254 A 
ATOM     23  C   UNL A   1      34.834  20.320  24.922  1.00  0.00     0.067 C 
ATOM     24  N   UNL A   1      36.613  21.790  25.570  1.00  0.00    -0.240 NA
ATOM     25  N   UNL A   1      36.327  24.054  25.940  1.00  0.00    -0.311 N 
ATOM     26  O   UNL A   1      34.361  25.032  25.579  1.00  0.00    -0.269 OA
ATOM     27  C   UNL A   1      37.105  22.952  25.833  1.00  0.00     0.105 A 
ATOM     28  H   UNL A   1      36.743  24.917  26.164  1.00  0.00     0.171 HD
ATOM     29  C   UNL A   1      38.579  23.174  26.032  1.00  0.00     0.087 C 
ENDBRANCH  19  20
ENDBRANCH  17  19
ENDBRANCH  11  17
ENDBRANCH   4   7
ENDBRANCH   2   3
ENDBRANCH   1   2
BRANCH   1  30
ATOM     30  C   UNL A   1      34.022  28.327  26.360  1.00  0.00     0.023 C 
BRANCH  30  31
ATOM     31  C   UNL A   1      33.228  28.933  27.501  1.00  0.00     0.116 C 
BRANCH  31  32
ATOM     32  N   UNL A   1      33.410  30.371  27.665  1.00  0.00    -0.352 N 
ATOM     33  C   UNL A   1      34.521  31.077  28.091  1.00  0.00     0.251 C 
ATOM     34  H   UNL A   1      32.626  30.922  27.438  1.00  0.00     0.163 HD
ATOM     35  O   UNL A   1      34.444  32.293  28.245  1.00  0.00    -0.269 OA
BRANCH  33  36
ATOM     36  C   UNL A   1      35.779  30.363  28.414  1.00  0.00     0.039 A 
ATOM     37  C   UNL A   1      36.903  30.535  27.602  1.00  0.00     0.014 A 
ATOM     38  C   UNL A   1      35.867  29.566  29.555  1.00  0.00     0.014 A 
ATOM     39  C   UNL A   1      38.129  29.984  27.989  1.00  0.00     0.010 A 
ATOM     40  C   UNL A   1      37.111  29.162  30.017  1.00  0.00     0.010 A 
ATOM     41  C   UNL A   1      38.255  29.331  29.227  1.00  0.00    -0.014 A 
BRANCH  41  42
ATOM     42  C   UNL A   1      39.546  28.767  29.703  1.00  0.00     0.031 A 
ATOM     43  C   UNL A   1      40.281  29.444  30.835  1.00  0.00     0.074 A 
ATOM     44  C   UNL A   1      40.106  27.718  29.066  1.00  0.00     0.049 A 
ATOM     45  N   UNL A   1      41.459  29.175  31.333  1.00  0.00    -0.248 NA
ATOM     46  C   UNL A   1      39.627  30.609  31.460  1.00  0.00     0.031 C 
ATOM     47  C   UNL A   1      39.546  27.036  27.896  1.00  0.00     0.029 A 
ATOM     48  N   UNL A   1      41.286  27.055  29.298  1.00  0.00    -0.354 N 
ATOM     49  C   UNL A   1      41.707  30.165  32.278  1.00  0.00     0.074 A 
ATOM     50  C   UNL A   1      40.585  31.073  32.247  1.00  0.00     0.031 C 
ATOM     51  C   UNL A   1      40.371  26.042  27.526  1.00  0.00     0.029 A 
ATOM     52  C   UNL A   1      41.537  26.040  28.405  1.00  0.00     0.049 A 
ATOM     53  H   UNL A   1      41.896  27.286  30.035  1.00  0.00     0.167 HD
ATOM     54  C   UNL A   1      42.753  30.289  33.128  1.00  0.00     0.034 A 
ATOM     55  C   UNL A   1      42.591  25.206  28.300  1.00  0.00     0.034 A 
ATOM     56  C   UNL A   1      43.827  29.342  33.207  1.00  0.00     0.049 A 
ATOM     57  C   UNL A   1      43.709  25.322  29.300  1.00  0.00     0.074 A 
ATOM     58  C   UNL A   1      44.876  29.307  34.106  1.00  0.00     0.029 A 
ATOM     59  N   UNL A   1      43.993  28.266  32.351  1.00  0.00    -0.354 N 
ATOM     60  N   UNL A   1      43.844  26.170  30.292  1.00  0.00    -0.248 NA
ATOM     61  C   UNL A   1      44.803  24.346  29.192  1.00  0.00     0.031 C 
ATOM     62  C   UNL A   1      45.699  28.227  33.770  1.00  0.00     0.029 A 
ATOM     63  C   UNL A   1      45.135  27.565  32.691  1.00  0.00     0.049 A 
ATOM     64  H   UNL A   1      43.387  28.033  31.610  1.00  0.00     0.167 HD
ATOM     65  C   UNL A   1      45.015  25.807  30.947  1.00  0.00     0.074 A 
ATOM     66  C   UNL A   1      45.539  24.648  30.252  1.00  0.00     0.031 C 
ATOM     67  C   UNL A   1      45.611  26.385  32.018  1.00  0.00     0.034 A 
BRANCH  54  68
ATOM     68  C   UNL A   1      42.757  31.462  34.074  1.00  0.00     0.023 A 
ATOM     69  C   UNL A   1      43.397  32.663  33.706  1.00  0.00     0.012 A 
ATOM     70  C   UNL A   1      42.080  31.391  35.307  1.00  0.00     0.148 A 
ATOM     71  C   UNL A   1      43.399  33.761  34.565  1.00  0.00     0.002 A 
ATOM     72  C   UNL A   1      42.041  32.506  36.135  1.00  0.00     0.091 A 
ATOM     73  F   UNL A   1      41.496  30.235  35.651  1.00  0.00    -0.205 F 
ATOM     74  C   UNL A   1      42.712  33.686  35.774  1.00  0.00     0.022 A 
BRANCH  72  75
ATOM     75  S   UNL A   1      41.112  32.542  37.672  1.00  0.00     0.127 S 
ATOM     76  O   UNL A   1      41.955  31.726  38.544  1.00  0.00    -0.237 OA
ATOM     77  O   UNL A   1      41.107  33.971  37.990  1.00  0.00    -0.237 OA
ATOM     78  O   UNL A   1      39.804  31.980  37.366  1.00  0.00    -0.744 OA
ENDBRANCH  72  75
ENDBRANCH  54  68
BRANCH  55  79
ATOM     79  C   UNL A   1      42.617  24.155  27.241  1.00  0.00     0.023 A 
ATOM     80  C   UNL A   1      43.231  24.426  26.003  1.00  0.00     0.012 A 
ATOM     81  C   UNL A   1      42.048  22.885  27.461  1.00  0.00     0.148 A 
ATOM     82  C   UNL A   1      43.244  23.468  24.989  1.00  0.00     0.002 A 
ATOM     83  C   UNL A   1      42.117  21.916  26.467  1.00  0.00     0.091 A 
ATOM     84  F   UNL A   1      41.461  22.649  28.642  1.00  0.00    -0.205 F 
ATOM     85  C   UNL A   1      42.696  22.210  25.224  1.00  0.00     0.022 A 
BRANCH  83  86
ATOM     86  S   UNL A   1      41.557  20.230  26.729  1.00  0.00     0.127 S 
ATOM     87  O   UNL A   1      41.884  19.605  25.449  1.00  0.00    -0.237 OA
ATOM     88  O   UNL A   1      42.394  19.808  27.854  1.00  0.00    -0.237 OA
ATOM     89  O   UNL A   1      40.139  20.333  27.040  1.00  0.00    -0.744 OA
ENDBRANCH  83  86
ENDBRANCH  55  79
BRANCH  67  90
ATOM     90  C   UNL A   1      46.870  25.750  32.546  1.00  0.00     0.023 A 
ATOM     91  C   UNL A   1      48.128  26.177  32.077  1.00  0.00     0.012 A 
ATOM     92  C   UNL A   1      46.801  24.784  33.569  1.00  0.00     0.148 A 
ATOM     93  C   UNL A   1      49.298  25.624  32.594  1.00  0.00     0.002 A 
ATOM     94  C   UNL A   1      47.972  24.280  34.118  1.00  0.00     0.091 A 
ATOM     95  F   UNL A   1      45.593  24.382  33.989  1.00  0.00    -0.205 F 
ATOM     96  C   UNL A   1      49.221  24.687  33.622  1.00  0.00     0.022 A 
BRANCH  94  97
ATOM     97  S   UNL A   1      47.972  23.151  35.515  1.00  0.00     0.127 S 
ATOM     98  O   UNL A   1      49.344  23.280  36.002  1.00  0.00    -0.237 OA
ATOM     99  O   UNL A   1      46.956  23.741  36.387  1.00  0.00    -0.237 OA
ATOM    100  O   UNL A   1      47.622  21.843  34.976  1.00  0.00    -0.744 OA
ENDBRANCH  94  97
ENDBRANCH  67  90
ENDBRANCH  41  42
ENDBRANCH  33  36
ENDBRANCH  31  32
ENDBRANCH  30  31
ENDBRANCH   1  30
TORSDOF 20
ENDMDL
MODEL 2
REMARK VINA RESULT:     -10.9      5.084      8.702
REMARK SMILES COCC[C@]1(C(=O)NCCCCNC(=O)c2ccc(-c3c4nc(c(-c5cccc(S(=O)(=O)[O-])c5F)c5ccc([nH]5)c(-c5cccc(S(=O)(=O)[O-])c5F)c5nc(c(-c6cccc(S(=O)(=O)[O-])c6F)c6ccc3[nH]6)C=C5)C=C4)cc2)CCCN(C(=O)Cc2c(C)nc(C)[nH]c2=O)C1
REMARK SMILES IDX 10 1 9 2 8 3 6 4 7 5 5 7 79 8 95 9 80 10 82 11 81 12 4 13
REMARK SMILES IDX 3 14 2 15 1 16 83 17 84 18 85 19 86 20 87 21 93 22 88 23
REMARK SMILES IDX 89 24 92 25 94 26 90 27 91 29 11 30 12 31 13 32 14 33 15 35
REMARK SMILES IDX 16 36 17 37 78 38 18 39 77 40 19 41 20 42 21 43 71 44 22 45
REMARK SMILES IDX 76 46 70 47 72 48 23 49 75 50 69 51 68 52 24 54 56 55 36 56
REMARK SMILES IDX 55 57 37 58 40 59 54 60 73 61 38 62 39 63 53 65 74 66 41 67
REMARK SMILES IDX 25 68 26 69 34 70 27 71 29 72 35 73 28 74 30 75 31 76 32 77
REMARK SMILES IDX 33 78 57 79 58 80 66 81 59 82 61 83 67 84 60 85 62 86 63 87
REMARK SMILES IDX 64 88 65 89 42 90 43 91 51 92 44 93 46 94 52 95 45 96 47 97
REMARK SMILES IDX 48 98 49 99 50 100
REMARK H PARENT 8 6 92 28 13 34 72 53 40 64
REMARK Flexibility Score: inf
ROOT
ATOM      1  C   UNL A   1      36.022  20.508  24.625  1.00  0.00     0.023 C 
ENDROOT
BRANCH   1   2
ATOM      2  C   UNL A   1      34.721  20.250  25.418  1.00  0.00     0.116 C 
BRANCH   2   3
ATOM      3  N   UNL A   1      34.378  21.051  26.639  1.00  0.00    -0.356 N 
ATOM      4  C   UNL A   1      33.525  22.120  26.965  1.00  0.00     0.228 C 
ATOM      5  O   UNL A   1      33.178  22.259  28.136  1.00  0.00    -0.274 OA
ATOM      6  H   UNL A   1      34.889  20.746  27.423  1.00  0.00     0.163 HD
BRANCH   4   7
ATOM      7  C   UNL A   1      33.224  23.175  25.894  1.00  0.00     0.069 C 
ATOM      8  C   UNL A   1      34.523  24.059  26.087  1.00  0.00     0.021 C 
ATOM      9  C   UNL A   1      33.274  23.124  24.308  1.00  0.00     0.136 C 
ATOM     10  C   UNL A   1      34.616  25.441  25.479  1.00  0.00     0.023 C 
ATOM     11  N   UNL A   1      33.172  24.569  23.790  1.00  0.00    -0.341 N 
ATOM     12  C   UNL A   1      34.363  25.361  23.996  1.00  0.00     0.119 C 
BRANCH   7  13
ATOM     13  C   UNL A   1      31.650  23.311  26.095  1.00  0.00     0.047 C 
BRANCH  13  14
ATOM     14  C   UNL A   1      30.559  22.367  25.518  1.00  0.00     0.161 C 
BRANCH  14  15
ATOM     15  O   UNL A   1      29.686  21.924  26.564  1.00  0.00    -0.385 OA
ATOM     16  C   UNL A   1      29.327  22.996  27.421  1.00  0.00     0.194 C 
ENDBRANCH  14  15
ENDBRANCH  13  14
ENDBRANCH   7  13
BRANCH  11  17
ATOM     17  C   UNL A   1      31.947  25.154  23.445  1.00  0.00     0.227 C 
ATOM     18  O   UNL A   1      31.347  24.785  22.431  1.00  0.00    -0.275 OA
BRANCH  17  19
ATOM     19  C   UNL A   1      31.377  26.373  24.266  1.00  0.00     0.143 C 
BRANCH  19  20
ATOM     20  C   UNL A   1      30.646  27.540  23.613  1.00  0.00     0.048 A 
ATOM     21  C   UNL A   1      29.317  27.641  23.370  1.00  0.00     0.049 A 
ATOM     22  C   UNL A   1      31.368  28.793  23.348  1.00  0.00     0.254 A 
ATOM     23  C   UNL A   1      28.303  26.675  23.920  1.00  0.00     0.067 C 
ATOM     24  N   UNL A   1      28.721  28.661  22.647  1.00  0.00    -0.240 NA
ATOM     25  N   UNL A   1      30.769  29.732  22.588  1.00  0.00    -0.311 N 
ATOM     26  O   UNL A   1      32.464  29.028  23.847  1.00  0.00    -0.269 OA
ATOM     27  C   UNL A   1      29.457  29.650  22.268  1.00  0.00     0.105 A 
ATOM     28  H   UNL A   1      31.297  30.494  22.259  1.00  0.00     0.171 HD
ATOM     29  C   UNL A   1      28.913  30.788  21.451  1.00  0.00     0.087 C 
ENDBRANCH  19  20
ENDBRANCH  17  19
ENDBRANCH  11  17
ENDBRANCH   4   7
ENDBRANCH   2   3
ENDBRANCH   1   2
BRANCH   1  30
ATOM     30  C   UNL A   1      37.183  19.584  24.977  1.00  0.00     0.023 C 
BRANCH  30  31
ATOM     31  C   UNL A   1      38.432  20.252  25.519  1.00  0.00     0.116 C 
BRANCH  31  32
ATOM     32  N   UNL A   1      39.563  19.352  25.709  1.00  0.00    -0.352 N 
ATOM     33  C   UNL A   1      40.842  19.624  26.158  1.00  0.00     0.251 C 
ATOM     34  H   UNL A   1      39.390  18.408  25.484  1.00  0.00     0.163 HD
ATOM     35  O   UNL A   1      41.685  18.731  26.166  1.00  0.00    -0.269 OA
BRANCH  33  36
ATOM     36  C   UNL A   1      41.209  20.999  26.575  1.00  0.00     0.039 A 
ATOM     37  C   UNL A   1      42.069  21.189  27.660  1.00  0.00     0.014 A 
ATOM     38  C   UNL A   1      40.750  22.101  25.856  1.00  0.00     0.014 A 
ATOM     39  C   UNL A   1      42.534  22.474  27.958  1.00  0.00     0.010 A 
ATOM     40  C   UNL A   1      41.337  23.343  26.051  1.00  0.00     0.010 A 
ATOM     41  C   UNL A   1      42.209  23.558  27.126  1.00  0.00    -0.014 A 
BRANCH  41  42
ATOM     42  C   UNL A   1      42.715  24.934  27.376  1.00  0.00     0.031 A 
ATOM     43  C   UNL A   1      41.824  25.940  28.063  1.00  0.00     0.074 A 
ATOM     44  C   UNL A   1      43.923  25.310  26.906  1.00  0.00     0.049 A 
ATOM     45  N   UNL A   1      42.032  27.212  28.287  1.00  0.00    -0.248 NA
ATOM     46  C   UNL A   1      40.502  25.470  28.517  1.00  0.00     0.031 C 
ATOM     47  C   UNL A   1      44.839  24.462  26.139  1.00  0.00     0.029 A 
ATOM     48  N   UNL A   1      44.577  26.515  26.983  1.00  0.00    -0.354 N 
ATOM     49  C   UNL A   1      40.855  27.696  28.847  1.00  0.00     0.074 A 
ATOM     50  C   UNL A   1      39.916  26.600  28.879  1.00  0.00     0.031 C 
ATOM     51  C   UNL A   1      45.942  25.166  25.834  1.00  0.00     0.029 A 
ATOM     52  C   UNL A   1      45.797  26.524  26.347  1.00  0.00     0.049 A 
ATOM     53  H   UNL A   1      44.208  27.299  27.450  1.00  0.00     0.167 HD
ATOM     54  C   UNL A   1      40.587  28.930  29.332  1.00  0.00     0.034 A 
ATOM     55  C   UNL A   1      46.694  27.518  26.187  1.00  0.00     0.034 A 
ATOM     56  C   UNL A   1      41.549  29.995  29.368  1.00  0.00     0.049 A 
ATOM     57  C   UNL A   1      46.401  28.863  26.795  1.00  0.00     0.074 A 
ATOM     58  C   UNL A   1      41.424  31.247  29.939  1.00  0.00     0.029 A 
ATOM     59  N   UNL A   1      42.813  29.933  28.804  1.00  0.00    -0.354 N 
ATOM     60  N   UNL A   1      45.343  29.253  27.465  1.00  0.00    -0.248 NA
ATOM     61  C   UNL A   1      47.438  29.896  26.659  1.00  0.00     0.031 C 
ATOM     62  C   UNL A   1      42.601  31.957  29.689  1.00  0.00     0.029 A 
ATOM     63  C   UNL A   1      43.476  31.130  29.001  1.00  0.00     0.049 A 
ATOM     64  H   UNL A   1      43.185  29.152  28.333  1.00  0.00     0.167 HD
ATOM     65  C   UNL A   1      45.602  30.560  27.862  1.00  0.00     0.074 A 
ATOM     66  C   UNL A   1      46.927  30.887  27.375  1.00  0.00     0.031 C 
ATOM     67  C   UNL A   1      44.813  31.417  28.554  1.00  0.00     0.034 A 
BRANCH  54  68
ATOM     68  C   UNL A   1      39.218  29.179  29.911  1.00  0.00     0.023 A 
ATOM     69  C   UNL A   1      38.913  28.741  31.216  1.00  0.00     0.012 A 
ATOM     70  C   UNL A   1      38.249  29.893  29.179  1.00  0.00     0.148 A 
ATOM     71  C   UNL A   1      37.655  28.974  31.769  1.00  0.00     0.002 A 
ATOM     72  C   UNL A   1      37.016  30.169  29.757  1.00  0.00     0.091 A 
ATOM     73  F   UNL A   1      38.548  30.283  27.932  1.00  0.00    -0.205 F 
ATOM     74  C   UNL A   1      36.711  29.697  31.045  1.00  0.00     0.022 A 
BRANCH  72  75
ATOM     75  S   UNL A   1      35.764  31.165  28.944  1.00  0.00     0.127 S 
ATOM     76  O   UNL A   1      35.120  30.179  28.077  1.00  0.00    -0.237 OA
ATOM     77  O   UNL A   1      34.947  31.609  30.074  1.00  0.00    -0.237 OA
ATOM     78  O   UNL A   1      36.479  32.228  28.253  1.00  0.00    -0.744 OA
ENDBRANCH  72  75
ENDBRANCH  54  68
BRANCH  55  79
ATOM     79  C   UNL A   1      47.975  27.267  25.465  1.00  0.00     0.023 A 
ATOM     80  C   UNL A   1      49.078  26.738  26.164  1.00  0.00     0.012 A 
ATOM     81  C   UNL A   1      48.101  27.537  24.089  1.00  0.00     0.148 A 
ATOM     82  C   UNL A   1      50.294  26.520  25.516  1.00  0.00     0.002 A 
ATOM     83  C   UNL A   1      49.297  27.262  23.437  1.00  0.00     0.091 A 
ATOM     84  F   UNL A   1      47.044  28.048  23.443  1.00  0.00    -0.205 F 
ATOM     85  C   UNL A   1      50.402  26.772  24.151  1.00  0.00     0.022 A 
BRANCH  83  86
ATOM     86  S   UNL A   1      49.485  27.431  21.659  1.00  0.00     0.127 S 
ATOM     87  O   UNL A   1      49.442  28.881  21.491  1.00  0.00    -0.237 OA
ATOM     88  O   UNL A   1      50.798  26.822  21.438  1.00  0.00    -0.237 OA
ATOM     89  O   UNL A   1      48.374  26.692  21.077  1.00  0.00    -0.744 OA
ENDBRANCH  83  86
ENDBRANCH  55  79
BRANCH  67  90
ATOM     90  C   UNL A   1      45.373  32.776  28.878  1.00  0.00     0.023 A 
ATOM     91  C   UNL A   1      46.168  32.958  30.026  1.00  0.00     0.012 A 
ATOM     92  C   UNL A   1      45.172  33.854  27.994  1.00  0.00     0.148 A 
ATOM     93  C   UNL A   1      46.726  34.205  30.308  1.00  0.00     0.002 A 
ATOM     94  C   UNL A   1      45.777  35.077  28.252  1.00  0.00     0.091 A 
ATOM     95  F   UNL A   1      44.398  33.662  26.916  1.00  0.00    -0.205 F 
ATOM     96  C   UNL A   1      46.541  35.258  29.416  1.00  0.00     0.022 A 
BRANCH  94  97
ATOM     97  S   UNL A   1      45.682  36.458  27.107  1.00  0.00     0.127 S 
ATOM     98  O   UNL A   1      46.302  35.893  25.909  1.00  0.00    -0.237 OA
ATOM     99  O   UNL A   1      44.239  36.675  27.004  1.00  0.00    -0.237 OA
ATOM    100  O   UNL A   1      46.416  37.550  27.732  1.00  0.00    -0.744 OA
ENDBRANCH  94  97
ENDBRANCH  67  90
ENDBRANCH  41  42
ENDBRANCH  33  36
ENDBRANCH  31  32
ENDBRANCH  30  31
ENDBRANCH   1  30
TORSDOF 20
ENDMDL
MODEL 3
REMARK VINA RESULT:     -10.6      3.290      8.599
REMARK SMILES COCC[C@]1(C(=O)NCCCCNC(=O)c2ccc(-c3c4nc(c(-c5cccc(S(=O)(=O)[O-])c5F)c5ccc([nH]5)c(-c5cccc(S(=O)(=O)[O-])c5F)c5nc(c(-c6cccc(S(=O)(=O)[O-])c6F)c6ccc3[nH]6)C=C5)C=C4)cc2)CCCN(C(=O)Cc2c(C)nc(C)[nH]c2=O)C1
REMARK SMILES IDX 10 1 9 2 8 3 6 4 7 5 5 7 79 8 95 9 80 10 82 11 81 12 4 13
REMARK SMILES IDX 3 14 2 15 1 16 83 17 84 18 85 19 86 20 87 21 93 22 88 23
REMARK SMILES IDX 89 24 92 25 94 26 90 27 91 29 11 30 12 31 13 32 14 33 15 35
REMARK SMILES IDX 16 36 17 37 78 38 18 39 77 40 19 41 20 42 21 43 71 44 22 45
REMARK SMILES IDX 76 46 70 47 72 48 23 49 75 50 69 51 68 52 24 54 56 55 36 56
REMARK SMILES IDX 55 57 37 58 40 59 54 60 73 61 38 62 39 63 53 65 74 66 41 67
REMARK SMILES IDX 25 68 26 69 34 70 27 71 29 72 35 73 28 74 30 75 31 76 32 77
REMARK SMILES IDX 33 78 57 79 58 80 66 81 59 82 61 83 67 84 60 85 62 86 63 87
REMARK SMILES IDX 64 88 65 89 42 90 43 91 51 92 44 93 46 94 52 95 45 96 47 97
REMARK SMILES IDX 48 98 49 99 50 100
REMARK H PARENT 8 6 92 28 13 34 72 53 40 64
REMARK Flexibility Score: inf
ROOT
ATOM      1  C   UNL A   1      31.933  30.194  26.660  1.00  0.00     0.023 C 
ENDROOT
BRANCH   1   2
ATOM      2  C   UNL A   1      31.962  29.650  25.214  1.00  0.00     0.116 C 
BRANCH   2   3
ATOM      3  N   UNL A   1      30.840  28.815  24.671  1.00  0.00    -0.356 N 
ATOM      4  C   UNL A   1      30.562  27.447  24.498  1.00  0.00     0.228 C 
ATOM      5  O   UNL A   1      29.389  27.092  24.413  1.00  0.00    -0.274 OA
ATOM      6  H   UNL A   1      30.097  29.376  24.350  1.00  0.00     0.163 HD
BRANCH   4   7
ATOM      7  C   UNL A   1      31.727  26.488  24.226  1.00  0.00     0.069 C 
ATOM      8  C   UNL A   1      31.676  26.527  22.644  1.00  0.00     0.021 C 
ATOM      9  C   UNL A   1      33.299  26.661  24.362  1.00  0.00     0.136 C 
ATOM     10  C   UNL A   1      32.430  25.505  21.821  1.00  0.00     0.023 C 
ATOM     11  N   UNL A   1      33.963  25.468  23.651  1.00  0.00    -0.341 N 
ATOM     12  C   UNL A   1      33.886  25.516  22.209  1.00  0.00     0.119 C 
BRANCH   7  13
ATOM     13  C   UNL A   1      31.484  25.441  25.401  1.00  0.00     0.047 C 
BRANCH  13  14
ATOM     14  C   UNL A   1      30.948  23.990  25.251  1.00  0.00     0.161 C 
BRANCH  14  15
ATOM     15  O   UNL A   1      30.690  23.423  26.542  1.00  0.00    -0.385 OA
ATOM     16  C   UNL A   1      31.884  22.945  27.140  1.00  0.00     0.194 C 
ENDBRANCH  14  15
ENDBRANCH  13  14
ENDBRANCH   7  13
BRANCH  11  17
ATOM     17  C   UNL A   1      34.323  24.298  24.333  1.00  0.00     0.227 C 
ATOM     18  O   UNL A   1      34.562  24.335  25.544  1.00  0.00    -0.275 OA
BRANCH  17  19
ATOM     19  C   UNL A   1      34.552  22.949  23.551  1.00  0.00     0.143 C 
BRANCH  19  20
ATOM     20  C   UNL A   1      34.025  21.608  24.046  1.00  0.00     0.048 A 
ATOM     21  C   UNL A   1      32.846  21.022  23.725  1.00  0.00     0.049 A 
ATOM     22  C   UNL A   1      34.907  20.722  24.819  1.00  0.00     0.254 A 
ATOM     23  C   UNL A   1      31.946  21.527  22.630  1.00  0.00     0.067 C 
ATOM     24  N   UNL A   1      32.351  19.868  24.311  1.00  0.00    -0.240 NA
ATOM     25  N   UNL A   1      34.366  19.642  25.422  1.00  0.00    -0.311 N 
ATOM     26  O   UNL A   1      36.119  20.903  24.879  1.00  0.00    -0.269 OA
ATOM     27  C   UNL A   1      33.107  19.235  25.142  1.00  0.00     0.105 A 
ATOM     28  H   UNL A   1      34.900  19.141  26.079  1.00  0.00     0.171 HD
ATOM     29  C   UNL A   1      32.650  17.993  25.856  1.00  0.00     0.087 C 
ENDBRANCH  19  20
ENDBRANCH  17  19
ENDBRANCH  11  17
ENDBRANCH   4   7
ENDBRANCH   2   3
ENDBRANCH   1   2
BRANCH   1  30
ATOM     30  C   UNL A   1      31.756  31.704  26.774  1.00  0.00     0.023 C 
BRANCH  30  31
ATOM     31  C   UNL A   1      32.935  32.477  27.334  1.00  0.00     0.116 C 
BRANCH  31  32
ATOM     32  N   UNL A   1      32.645  33.871  27.651  1.00  0.00    -0.352 N 
ATOM     33  C   UNL A   1      33.222  34.699  28.596  1.00  0.00     0.251 C 
ATOM     34  H   UNL A   1      31.933  34.285  27.111  1.00  0.00     0.163 HD
ATOM     35  O   UNL A   1      32.773  35.830  28.767  1.00  0.00    -0.269 OA
BRANCH  33  36
ATOM     36  C   UNL A   1      34.340  34.207  29.436  1.00  0.00     0.039 A 
ATOM     37  C   UNL A   1      34.067  33.444  30.576  1.00  0.00     0.014 A 
ATOM     38  C   UNL A   1      35.662  34.449  29.067  1.00  0.00     0.014 A 
ATOM     39  C   UNL A   1      35.121  32.854  31.281  1.00  0.00     0.010 A 
ATOM     40  C   UNL A   1      36.687  33.734  29.669  1.00  0.00     0.010 A 
ATOM     41  C   UNL A   1      36.439  32.954  30.807  1.00  0.00    -0.014 A 
BRANCH  41  42
ATOM     42  C   UNL A   1      37.587  32.308  31.498  1.00  0.00     0.031 A 
ATOM     43  C   UNL A   1      38.356  31.214  30.797  1.00  0.00     0.074 A 
ATOM     44  C   UNL A   1      37.878  32.628  32.776  1.00  0.00     0.049 A 
ATOM     45  N   UNL A   1      39.320  30.458  31.255  1.00  0.00    -0.248 NA
ATOM     46  C   UNL A   1      37.958  30.890  29.414  1.00  0.00     0.031 C 
ATOM     47  C   UNL A   1      37.150  33.597  33.598  1.00  0.00     0.029 A 
ATOM     48  N   UNL A   1      38.853  32.151  33.617  1.00  0.00    -0.354 N 
ATOM     49  C   UNL A   1      39.595  29.543  30.245  1.00  0.00     0.074 A 
ATOM     50  C   UNL A   1      38.664  29.797  29.173  1.00  0.00     0.031 C 
ATOM     51  C   UNL A   1      37.713  33.657  34.816  1.00  0.00     0.029 A 
ATOM     52  C   UNL A   1      38.816  32.703  34.877  1.00  0.00     0.049 A 
ATOM     53  H   UNL A   1      39.515  31.476  33.345  1.00  0.00     0.167 HD
ATOM     54  C   UNL A   1      40.564  28.600  30.192  1.00  0.00     0.034 A 
ATOM     55  C   UNL A   1      39.580  32.463  35.961  1.00  0.00     0.034 A 
ATOM     56  C   UNL A   1      41.536  28.401  31.229  1.00  0.00     0.049 A 
ATOM     57  C   UNL A   1      40.694  31.457  35.854  1.00  0.00     0.074 A 
ATOM     58  C   UNL A   1      42.630  27.555  31.231  1.00  0.00     0.029 A 
ATOM     59  N   UNL A   1      41.529  29.054  32.451  1.00  0.00    -0.354 N 
ATOM     60  N   UNL A   1      41.040  30.715  34.830  1.00  0.00    -0.248 NA
ATOM     61  C   UNL A   1      41.548  31.280  37.038  1.00  0.00     0.031 C 
ATOM     62  C   UNL A   1      43.264  27.670  32.472  1.00  0.00     0.029 A 
ATOM     63  C   UNL A   1      42.591  28.621  33.223  1.00  0.00     0.049 A 
ATOM     64  H   UNL A   1      40.866  29.727  32.729  1.00  0.00     0.167 HD
ATOM     65  C   UNL A   1      42.170  30.013  35.231  1.00  0.00     0.074 A 
ATOM     66  C   UNL A   1      42.463  30.435  36.586  1.00  0.00     0.031 C 
ATOM     67  C   UNL A   1      42.894  29.092  34.549  1.00  0.00     0.034 A 
BRANCH  54  68
ATOM     68  C   UNL A   1      40.652  27.748  28.952  1.00  0.00     0.023 A 
ATOM     69  C   UNL A   1      39.765  26.667  28.774  1.00  0.00     0.012 A 
ATOM     70  C   UNL A   1      41.582  28.051  27.938  1.00  0.00     0.148 A 
ATOM     71  C   UNL A   1      39.825  25.877  27.627  1.00  0.00     0.002 A 
ATOM     72  C   UNL A   1      41.601  27.293  26.774  1.00  0.00     0.091 A 
ATOM     73  F   UNL A   1      42.432  29.068  28.133  1.00  0.00    -0.205 F 
ATOM     74  C   UNL A   1      40.735  26.197  26.622  1.00  0.00     0.022 A 
BRANCH  72  75
ATOM     75  S   UNL A   1      42.673  27.674  25.385  1.00  0.00     0.127 S 
ATOM     76  O   UNL A   1      42.600  26.437  24.609  1.00  0.00    -0.237 OA
ATOM     77  O   UNL A   1      41.990  28.817  24.777  1.00  0.00    -0.237 OA
ATOM     78  O   UNL A   1      43.979  27.975  25.954  1.00  0.00    -0.744 OA
ENDBRANCH  72  75
ENDBRANCH  54  68
BRANCH  55  79
ATOM     79  C   UNL A   1      39.353  33.222  37.225  1.00  0.00     0.023 A 
ATOM     80  C   UNL A   1      38.396  32.765  38.152  1.00  0.00     0.012 A 
ATOM     81  C   UNL A   1      40.090  34.386  37.519  1.00  0.00     0.148 A 
ATOM     82  C   UNL A   1      38.148  33.474  39.328  1.00  0.00     0.002 A 
ATOM     83  C   UNL A   1      39.880  35.053  38.719  1.00  0.00     0.091 A 
ATOM     84  F   UNL A   1      40.990  34.809  36.621  1.00  0.00    -0.205 F 
ATOM     85  C   UNL A   1      38.896  34.612  39.617  1.00  0.00     0.022 A 
BRANCH  83  86
ATOM     86  S   UNL A   1      40.887  36.448  39.234  1.00  0.00     0.127 S 
ATOM     87  O   UNL A   1      40.273  37.548  38.495  1.00  0.00    -0.237 OA
ATOM     88  O   UNL A   1      40.654  36.468  40.679  1.00  0.00    -0.237 OA
ATOM     89  O   UNL A   1      42.250  36.109  38.849  1.00  0.00    -0.744 OA
ENDBRANCH  83  86
ENDBRANCH  55  79
BRANCH  67  90
ATOM     90  C   UNL A   1      44.106  28.512  35.227  1.00  0.00     0.023 A 
ATOM     91  C   UNL A   1      45.383  29.054  34.978  1.00  0.00     0.012 A 
ATOM     92  C   UNL A   1      43.962  27.479  36.173  1.00  0.00     0.148 A 
ATOM     93  C   UNL A   1      46.503  28.550  35.637  1.00  0.00     0.002 A 
ATOM     94  C   UNL A   1      45.075  27.021  36.867  1.00  0.00     0.091 A 
ATOM     95  F   UNL A   1      42.740  26.969  36.382  1.00  0.00    -0.205 F 
ATOM     96  C   UNL A   1      46.348  27.544  36.589  1.00  0.00     0.022 A 
BRANCH  94  97
ATOM     97  S   UNL A   1      44.955  25.807  38.184  1.00  0.00     0.127 S 
ATOM     98  O   UNL A   1      46.329  25.774  38.684  1.00  0.00    -0.237 OA
ATOM     99  O   UNL A   1      43.989  26.428  39.090  1.00  0.00    -0.237 OA
ATOM    100  O   UNL A   1      44.491  24.576  37.556  1.00  0.00    -0.744 OA
ENDBRANCH  94  97
ENDBRANCH  67  90
ENDBRANCH  41  42
ENDBRANCH  33  36
ENDBRANCH  31  32
ENDBRANCH  30  31
ENDBRANCH   1  30
TORSDOF 20
ENDMDL
