MODEL 1
REMARK VINA RESULT:      -9.4      0.000      0.000
REMARK SMILES N#CCC[NH+]1CCN(c2ccc(NS(=O)(=O)c3ccccc3Cl)cc2C(=O)NCCCCNC(=O)c2ccc(-c3c4nc(c(-c5cccc(S(=O)(=O)[O-])c5F)c5ccc([nH]5)c(-c5cccc(S(=O)(=O)[O-])c5F)c5nc(c(-c6cccc(S(=O)(=O)[O-])c6F)c6ccc3[nH]6)C=C5)C=C4)cc2)CC1
REMARK SMILES IDX 30 1 29 2 28 3 26 4 27 5 25 7 9 8 10 9 11 10 24 11 12 12
REMARK SMILES IDX 8 13 5 14 6 15 100 16 7 18 99 19 4 20 3 21 2 22 1 23 13 24
REMARK SMILES IDX 14 26 15 27 16 28 17 29 18 30 22 31 19 32 21 33 23 34 20 35
REMARK SMILES IDX 31 36 32 37 33 38 34 39 35 41 36 42 37 43 98 44 38 45 97 46
REMARK SMILES IDX 39 47 40 48 41 49 91 50 42 51 96 52 90 53 92 54 43 55 95 56
REMARK SMILES IDX 89 57 88 58 44 60 76 61 56 62 75 63 57 64 60 65 74 66 93 67
REMARK SMILES IDX 58 68 59 69 73 71 94 72 61 73 45 74 46 75 54 76 47 77 49 78
REMARK SMILES IDX 55 79 48 80 50 81 51 82 52 83 53 84 77 85 78 86 86 87 79 88
REMARK SMILES IDX 81 89 87 90 80 91 82 92 83 93 84 94 85 95 62 96 63 97 71 98
REMARK SMILES IDX 64 99 66 100 72 101 65 102 67 103 68 104 69 105 70 106
REMARK H PARENT 28 6 5 17 13 25 33 40 92 59 60 70
REMARK Flexibility Score: inf
ROOT
ATOM      1  C   UNL A   1      46.935  27.209  24.737  1.00  0.00     0.023 C 
ENDROOT
BRANCH   1   2
ATOM      2  C   UNL A   1      45.593  26.612  25.226  1.00  0.00     0.116 C 
BRANCH   2   3
ATOM      3  N   UNL A   1      44.414  27.295  24.703  1.00  0.00    -0.352 N 
ATOM      4  C   UNL A   1      43.092  27.421  25.071  1.00  0.00     0.253 C 
ATOM      5  O   UNL A   1      42.435  28.212  24.379  1.00  0.00    -0.269 OA
ATOM      6  H   UNL A   1      44.613  27.792  23.878  1.00  0.00     0.163 HD
BRANCH   4   7
ATOM      7  C   UNL A   1      42.295  26.707  26.128  1.00  0.00     0.065 A 
ATOM      8  C   UNL A   1      42.746  25.622  26.903  1.00  0.00     0.050 A 
ATOM      9  C   UNL A   1      42.347  25.513  28.248  1.00  0.00     0.029 A 
ATOM     10  C   UNL A   1      41.370  26.323  28.779  1.00  0.00     0.029 A 
ATOM     11  C   UNL A   1      41.237  27.476  26.677  1.00  0.00     0.042 A 
ATOM     12  C   UNL A   1      40.698  27.201  27.948  1.00  0.00     0.050 A 
BRANCH   8  13
ATOM     13  N   UNL A   1      43.253  24.451  26.411  1.00  0.00    -0.360 N 
ATOM     14  N   UNL A   1      42.724  21.762  26.196  1.00  0.00    -0.331 N 
ATOM     15  C   UNL A   1      43.069  22.335  27.494  1.00  0.00     0.284 C 
ATOM     16  C   UNL A   1      43.128  22.495  24.969  1.00  0.00     0.284 C 
ATOM     17  H   UNL A   1      41.731  21.992  26.224  1.00  0.00     0.348 HD
ATOM     18  C   UNL A   1      43.924  23.576  27.361  1.00  0.00     0.178 C 
ATOM     19  C   UNL A   1      43.194  24.037  25.038  1.00  0.00     0.178 C 
BRANCH  14  20
ATOM     20  C   UNL A   1      42.683  20.327  26.084  1.00  0.00     0.277 C 
BRANCH  20  21
ATOM     21  C   UNL A   1      41.590  19.576  26.740  1.00  0.00     0.181 C 
BRANCH  21  22
ATOM     22  C   UNL A   1      40.281  19.377  25.992  1.00  0.00     0.068 C 
ATOM     23  N   UNL A   1      39.196  19.212  25.371  1.00  0.00    -0.198 NA
ENDBRANCH  21  22
ENDBRANCH  20  21
ENDBRANCH  14  20
ENDBRANCH   8  13
BRANCH  12  24
ATOM     24  N   UNL A   1      39.505  27.866  28.364  1.00  0.00    -0.280 N 
ATOM     25  H   UNL A   1      38.642  27.485  28.085  1.00  0.00     0.180 HD
BRANCH  24  26
ATOM     26  S   UNL A   1      39.489  29.268  29.305  1.00  0.00     0.263 S 
ATOM     27  O   UNL A   1      39.343  28.848  30.696  1.00  0.00    -0.201 OA
ATOM     28  O   UNL A   1      40.607  30.076  28.910  1.00  0.00    -0.201 OA
BRANCH  26  29
ATOM     29  C   UNL A   1      38.001  30.160  28.884  1.00  0.00     0.106 A 
ATOM     30  C   UNL A   1      36.994  29.477  28.173  1.00  0.00     0.024 A 
ATOM     31  C   UNL A   1      37.839  31.512  29.182  1.00  0.00     0.061 A 
ATOM     32  C   UNL A   1      35.862  30.154  27.716  1.00  0.00     0.002 A 
ATOM     33  C   UNL A   1      36.693  32.181  28.726  1.00  0.00     0.022 A 
ATOM     34  Cl  UNL A   1      38.978  32.440  30.085  1.00  0.00    -0.083 Cl
ATOM     35  C   UNL A   1      35.715  31.510  27.986  1.00  0.00     0.002 A 
ENDBRANCH  26  29
ENDBRANCH  24  26
ENDBRANCH  12  24
ENDBRANCH   4   7
ENDBRANCH   2   3
ENDBRANCH   1   2
BRANCH   1  36
ATOM     36  C   UNL A   1      48.080  26.223  24.373  1.00  0.00     0.023 C 
BRANCH  36  37
ATOM     37  C   UNL A   1      49.472  26.498  24.986  1.00  0.00     0.116 C 
BRANCH  37  38
ATOM     38  N   UNL A   1      49.838  25.554  26.045  1.00  0.00    -0.352 N 
ATOM     39  C   UNL A   1      49.491  25.382  27.359  1.00  0.00     0.251 C 
ATOM     40  H   UNL A   1      50.491  24.883  25.739  1.00  0.00     0.163 HD
ATOM     41  O   UNL A   1      50.156  24.669  28.108  1.00  0.00    -0.269 OA
BRANCH  39  42
ATOM     42  C   UNL A   1      48.291  26.005  27.883  1.00  0.00     0.039 A 
ATOM     43  C   UNL A   1      47.095  25.280  27.980  1.00  0.00     0.014 A 
ATOM     44  C   UNL A   1      48.365  27.353  28.203  1.00  0.00     0.014 A 
ATOM     45  C   UNL A   1      45.971  25.908  28.497  1.00  0.00     0.010 A 
ATOM     46  C   UNL A   1      47.281  27.946  28.796  1.00  0.00     0.010 A 
ATOM     47  C   UNL A   1      46.084  27.229  28.946  1.00  0.00    -0.014 A 
BRANCH  47  48
ATOM     48  C   UNL A   1      44.999  27.950  29.626  1.00  0.00     0.031 A 
ATOM     49  C   UNL A   1      44.683  29.335  29.150  1.00  0.00     0.074 A 
ATOM     50  C   UNL A   1      44.570  27.465  30.804  1.00  0.00     0.049 A 
ATOM     51  N   UNL A   1      44.113  30.313  29.789  1.00  0.00    -0.248 NA
ATOM     52  C   UNL A   1      45.180  29.691  27.807  1.00  0.00     0.031 C 
ATOM     53  C   UNL A   1      44.942  26.166  31.376  1.00  0.00     0.029 A 
ATOM     54  N   UNL A   1      43.795  28.044  31.770  1.00  0.00    -0.354 N 
ATOM     55  C   UNL A   1      44.260  31.425  28.969  1.00  0.00     0.074 A 
ATOM     56  C   UNL A   1      44.998  31.005  27.800  1.00  0.00     0.031 C 
ATOM     57  C   UNL A   1      44.411  26.056  32.603  1.00  0.00     0.029 A 
ATOM     58  C   UNL A   1      43.699  27.287  32.914  1.00  0.00     0.049 A 
ATOM     59  H   UNL A   1      43.350  28.915  31.657  1.00  0.00     0.167 HD
ATOM     60  C   UNL A   1      43.796  32.679  29.178  1.00  0.00     0.034 A 
ATOM     61  C   UNL A   1      43.111  27.579  34.087  1.00  0.00     0.034 A 
ATOM     62  C   UNL A   1      42.990  33.019  30.317  1.00  0.00     0.049 A 
ATOM     63  C   UNL A   1      42.446  28.919  34.215  1.00  0.00     0.074 A 
ATOM     64  C   UNL A   1      42.334  34.203  30.593  1.00  0.00     0.029 A 
ATOM     65  N   UNL A   1      42.713  32.150  31.364  1.00  0.00    -0.354 N 
ATOM     66  N   UNL A   1      42.462  29.926  33.373  1.00  0.00    -0.248 NA
ATOM     67  C   UNL A   1      41.647  29.151  35.422  1.00  0.00     0.031 C 
ATOM     68  C   UNL A   1      41.647  34.042  31.803  1.00  0.00     0.029 A 
ATOM     69  C   UNL A   1      41.871  32.757  32.275  1.00  0.00     0.049 A 
ATOM     70  H   UNL A   1      43.063  31.234  31.445  1.00  0.00     0.167 HD
ATOM     71  C   UNL A   1      41.644  30.900  33.928  1.00  0.00     0.074 A 
ATOM     72  C   UNL A   1      41.136  30.348  35.171  1.00  0.00     0.031 C 
ATOM     73  C   UNL A   1      41.348  32.141  33.469  1.00  0.00     0.034 A 
BRANCH  60  74
ATOM     74  C   UNL A   1      44.081  33.720  28.125  1.00  0.00     0.023 A 
ATOM     75  C   UNL A   1      43.191  33.872  27.041  1.00  0.00     0.012 A 
ATOM     76  C   UNL A   1      45.210  34.559  28.209  1.00  0.00     0.148 A 
ATOM     77  C   UNL A   1      43.443  34.800  26.032  1.00  0.00     0.002 A 
ATOM     78  C   UNL A   1      45.428  35.520  27.225  1.00  0.00     0.091 A 
ATOM     79  F   UNL A   1      46.061  34.390  29.231  1.00  0.00    -0.205 F 
ATOM     80  C   UNL A   1      44.555  35.630  26.130  1.00  0.00     0.022 A 
BRANCH  78  81
ATOM     81  S   UNL A   1      46.786  36.694  27.295  1.00  0.00     0.127 S 
ATOM     82  O   UNL A   1      46.593  37.290  28.617  1.00  0.00    -0.237 OA
ATOM     83  O   UNL A   1      47.954  35.818  27.188  1.00  0.00    -0.237 OA
ATOM     84  O   UNL A   1      46.596  37.594  26.167  1.00  0.00    -0.744 OA
ENDBRANCH  78  81
ENDBRANCH  60  74
BRANCH  61  85
ATOM     85  C   UNL A   1      43.025  26.540  35.150  1.00  0.00     0.023 A 
ATOM     86  C   UNL A   1      42.003  25.575  35.062  1.00  0.00     0.012 A 
ATOM     87  C   UNL A   1      43.976  26.440  36.184  1.00  0.00     0.148 A 
ATOM     88  C   UNL A   1      41.906  24.549  36.001  1.00  0.00     0.002 A 
ATOM     89  C   UNL A   1      43.903  25.386  37.090  1.00  0.00     0.091 A 
ATOM     90  F   UNL A   1      44.945  27.364  36.249  1.00  0.00    -0.205 F 
ATOM     91  C   UNL A   1      42.861  24.449  37.009  1.00  0.00     0.022 A 
BRANCH  89  92
ATOM     92  S   UNL A   1      45.165  25.100  38.337  1.00  0.00     0.127 S 
ATOM     93  O   UNL A   1      44.552  25.689  39.524  1.00  0.00    -0.237 OA
ATOM     94  O   UNL A   1      45.256  23.639  38.353  1.00  0.00    -0.237 OA
ATOM     95  O   UNL A   1      46.360  25.767  37.839  1.00  0.00    -0.744 OA
ENDBRANCH  89  92
ENDBRANCH  61  85
BRANCH  73  96
ATOM     96  C   UNL A   1      40.403  32.963  34.298  1.00  0.00     0.023 A 
ATOM     97  C   UNL A   1      40.916  33.877  35.238  1.00  0.00     0.012 A 
ATOM     98  C   UNL A   1      39.015  32.883  34.084  1.00  0.00     0.148 A 
ATOM     99  C   UNL A   1      40.053  34.682  35.977  1.00  0.00     0.002 A 
ATOM    100  C   UNL A   1      38.165  33.723  34.790  1.00  0.00     0.091 A 
ATOM    101  F   UNL A   1      38.552  31.986  33.200  1.00  0.00    -0.205 F 
ATOM    102  C   UNL A   1      38.681  34.615  35.744  1.00  0.00     0.022 A 
BRANCH 100 103
ATOM    103  S   UNL A   1      36.399  33.769  34.475  1.00  0.00     0.127 S 
ATOM    104  O   UNL A   1      35.868  34.081  35.801  1.00  0.00    -0.237 OA
ATOM    105  O   UNL A   1      36.282  34.853  33.499  1.00  0.00    -0.237 OA
ATOM    106  O   UNL A   1      36.054  32.453  33.952  1.00  0.00    -0.744 OA
ENDBRANCH 100 103
ENDBRANCH  73  96
ENDBRANCH  47  48
ENDBRANCH  39  42
ENDBRANCH  37  38
ENDBRANCH  36  37
ENDBRANCH   1  36
TORSDOF 21
ENDMDL
MODEL 2
REMARK VINA RESULT:      -9.0      5.735     10.473
REMARK SMILES N#CCC[NH+]1CCN(c2ccc(NS(=O)(=O)c3ccccc3Cl)cc2C(=O)NCCCCNC(=O)c2ccc(-c3c4nc(c(-c5cccc(S(=O)(=O)[O-])c5F)c5ccc([nH]5)c(-c5cccc(S(=O)(=O)[O-])c5F)c5nc(c(-c6cccc(S(=O)(=O)[O-])c6F)c6ccc3[nH]6)C=C5)C=C4)cc2)CC1
REMARK SMILES IDX 30 1 29 2 28 3 26 4 27 5 25 7 9 8 10 9 11 10 24 11 12 12
REMARK SMILES IDX 8 13 5 14 6 15 100 16 7 18 99 19 4 20 3 21 2 22 1 23 13 24
REMARK SMILES IDX 14 26 15 27 16 28 17 29 18 30 22 31 19 32 21 33 23 34 20 35
REMARK SMILES IDX 31 36 32 37 33 38 34 39 35 41 36 42 37 43 98 44 38 45 97 46
REMARK SMILES IDX 39 47 40 48 41 49 91 50 42 51 96 52 90 53 92 54 43 55 95 56
REMARK SMILES IDX 89 57 88 58 44 60 76 61 56 62 75 63 57 64 60 65 74 66 93 67
REMARK SMILES IDX 58 68 59 69 73 71 94 72 61 73 45 74 46 75 54 76 47 77 49 78
REMARK SMILES IDX 55 79 48 80 50 81 51 82 52 83 53 84 77 85 78 86 86 87 79 88
REMARK SMILES IDX 81 89 87 90 80 91 82 92 83 93 84 94 85 95 62 96 63 97 71 98
REMARK SMILES IDX 64 99 66 100 72 101 65 102 67 103 68 104 69 105 70 106
REMARK H PARENT 28 6 5 17 13 25 33 40 92 59 60 70
REMARK Flexibility Score: inf
ROOT
ATOM      1  C   UNL A   1      38.549  24.248  26.427  1.00  0.00     0.023 C 
ENDROOT
BRANCH   1   2
ATOM      2  C   UNL A   1      38.228  22.840  25.870  1.00  0.00     0.116 C 
BRANCH   2   3
ATOM      3  N   UNL A   1      37.739  22.843  24.495  1.00  0.00    -0.352 N 
ATOM      4  C   UNL A   1      36.549  23.131  23.863  1.00  0.00     0.253 C 
ATOM      5  O   UNL A   1      36.602  23.109  22.625  1.00  0.00    -0.269 OA
ATOM      6  H   UNL A   1      38.437  22.571  23.857  1.00  0.00     0.163 HD
BRANCH   4   7
ATOM      7  C   UNL A   1      35.180  23.399  24.424  1.00  0.00     0.065 A 
ATOM      8  C   UNL A   1      34.352  22.453  25.057  1.00  0.00     0.050 A 
ATOM      9  C   UNL A   1      33.546  22.846  26.141  1.00  0.00     0.029 A 
ATOM     10  C   UNL A   1      33.388  24.170  26.480  1.00  0.00     0.029 A 
ATOM     11  C   UNL A   1      34.939  24.760  24.743  1.00  0.00     0.042 A 
ATOM     12  C   UNL A   1      33.958  25.143  25.679  1.00  0.00     0.050 A 
BRANCH   8  13
ATOM     13  N   UNL A   1      33.963  21.254  24.524  1.00  0.00    -0.360 N 
ATOM     14  N   UNL A   1      32.737  18.878  25.158  1.00  0.00    -0.331 N 
ATOM     15  C   UNL A   1      34.076  19.164  25.665  1.00  0.00     0.284 C 
ATOM     16  C   UNL A   1      32.264  19.608  23.955  1.00  0.00     0.284 C 
ATOM     17  H   UNL A   1      32.224  19.378  25.884  1.00  0.00     0.348 HD
ATOM     18  C   UNL A   1      34.835  20.115  24.766  1.00  0.00     0.178 C 
ATOM     19  C   UNL A   1      32.784  21.046  23.732  1.00  0.00     0.178 C 
BRANCH  14  20
ATOM     20  C   UNL A   1      32.230  17.540  25.319  1.00  0.00     0.277 C 
BRANCH  20  21
ATOM     21  C   UNL A   1      33.107  16.387  25.016  1.00  0.00     0.181 C 
BRANCH  21  22
ATOM     22  C   UNL A   1      33.812  16.331  23.670  1.00  0.00     0.068 C 
ATOM     23  N   UNL A   1      34.397  16.285  22.554  1.00  0.00    -0.198 NA
ENDBRANCH  21  22
ENDBRANCH  20  21
ENDBRANCH  14  20
ENDBRANCH   8  13
BRANCH  12  24
ATOM     24  N   UNL A   1      33.615  26.522  25.810  1.00  0.00    -0.280 N 
ATOM     25  H   UNL A   1      34.066  27.046  26.510  1.00  0.00     0.180 HD
BRANCH  24  26
ATOM     26  S   UNL A   1      32.481  27.307  24.835  1.00  0.00     0.263 S 
ATOM     27  O   UNL A   1      33.093  27.477  23.519  1.00  0.00    -0.201 OA
ATOM     28  O   UNL A   1      31.234  26.611  24.963  1.00  0.00    -0.201 OA
BRANCH  26  29
ATOM     29  C   UNL A   1      32.259  28.944  25.509  1.00  0.00     0.106 A 
ATOM     30  C   UNL A   1      33.055  29.325  26.608  1.00  0.00     0.024 A 
ATOM     31  C   UNL A   1      31.290  29.820  25.022  1.00  0.00     0.061 A 
ATOM     32  C   UNL A   1      32.845  30.548  27.249  1.00  0.00     0.002 A 
ATOM     33  C   UNL A   1      31.093  31.050  25.668  1.00  0.00     0.022 A 
ATOM     34  Cl  UNL A   1      30.291  29.485  23.657  1.00  0.00    -0.083 Cl
ATOM     35  C   UNL A   1      31.856  31.408  26.783  1.00  0.00     0.002 A 
ENDBRANCH  26  29
ENDBRANCH  24  26
ENDBRANCH  12  24
ENDBRANCH   4   7
ENDBRANCH   2   3
ENDBRANCH   1   2
BRANCH   1  36
ATOM     36  C   UNL A   1      39.282  24.340  27.795  1.00  0.00     0.023 C 
BRANCH  36  37
ATOM     37  C   UNL A   1      40.789  24.681  27.769  1.00  0.00     0.116 C 
BRANCH  37  38
ATOM     38  N   UNL A   1      41.622  23.597  27.242  1.00  0.00    -0.352 N 
ATOM     39  C   UNL A   1      42.901  23.498  26.760  1.00  0.00     0.251 C 
ATOM     40  H   UNL A   1      41.149  22.733  27.232  1.00  0.00     0.163 HD
ATOM     41  O   UNL A   1      43.269  22.514  26.122  1.00  0.00    -0.269 OA
BRANCH  39  42
ATOM     42  C   UNL A   1      43.868  24.541  27.040  1.00  0.00     0.039 A 
ATOM     43  C   UNL A   1      44.334  24.749  28.346  1.00  0.00     0.014 A 
ATOM     44  C   UNL A   1      44.240  25.359  25.984  1.00  0.00     0.014 A 
ATOM     45  C   UNL A   1      45.268  25.750  28.571  1.00  0.00     0.010 A 
ATOM     46  C   UNL A   1      45.227  26.288  26.191  1.00  0.00     0.010 A 
ATOM     47  C   UNL A   1      45.745  26.486  27.480  1.00  0.00    -0.014 A 
BRANCH  47  48
ATOM     48  C   UNL A   1      46.823  27.480  27.580  1.00  0.00     0.031 A 
ATOM     49  C   UNL A   1      46.438  28.927  27.524  1.00  0.00     0.074 A 
ATOM     50  C   UNL A   1      48.085  27.050  27.408  1.00  0.00     0.049 A 
ATOM     51  N   UNL A   1      47.155  29.954  27.175  1.00  0.00    -0.248 NA
ATOM     52  C   UNL A   1      45.020  29.235  27.793  1.00  0.00     0.031 C 
ATOM     53  C   UNL A   1      48.504  25.646  27.334  1.00  0.00     0.029 A 
ATOM     54  N   UNL A   1      49.235  27.753  27.179  1.00  0.00    -0.354 N 
ATOM     55  C   UNL A   1      46.262  31.016  27.093  1.00  0.00     0.074 A 
ATOM     56  C   UNL A   1      44.948  30.500  27.402  1.00  0.00     0.031 C 
ATOM     57  C   UNL A   1      49.815  25.591  27.057  1.00  0.00     0.029 A 
ATOM     58  C   UNL A   1      50.314  26.949  26.897  1.00  0.00     0.049 A 
ATOM     59  H   UNL A   1      49.285  28.736  27.213  1.00  0.00     0.167 HD
ATOM     60  C   UNL A   1      46.533  32.310  26.804  1.00  0.00     0.034 A 
ATOM     61  C   UNL A   1      51.562  27.288  26.530  1.00  0.00     0.034 A 
ATOM     62  C   UNL A   1      47.873  32.784  26.594  1.00  0.00     0.049 A 
ATOM     63  C   UNL A   1      51.872  28.751  26.397  1.00  0.00     0.074 A 
ATOM     64  C   UNL A   1      48.318  34.082  26.432  1.00  0.00     0.029 A 
ATOM     65  N   UNL A   1      48.992  31.964  26.542  1.00  0.00    -0.354 N 
ATOM     66  N   UNL A   1      51.051  29.773  26.464  1.00  0.00    -0.248 NA
ATOM     67  C   UNL A   1      53.277  29.115  26.186  1.00  0.00     0.031 C 
ATOM     68  C   UNL A   1      49.711  34.045  26.297  1.00  0.00     0.029 A 
ATOM     69  C   UNL A   1      50.133  32.725  26.381  1.00  0.00     0.049 A 
ATOM     70  H   UNL A   1      48.976  30.982  26.612  1.00  0.00     0.167 HD
ATOM     71  C   UNL A   1      51.842  30.907  26.343  1.00  0.00     0.074 A 
ATOM     72  C   UNL A   1      53.211  30.439  26.217  1.00  0.00     0.031 C 
ATOM     73  C   UNL A   1      51.479  32.213  26.320  1.00  0.00     0.034 A 
BRANCH  60  74
ATOM     74  C   UNL A   1      45.383  33.283  26.785  1.00  0.00     0.023 A 
ATOM     75  C   UNL A   1      44.666  33.487  25.587  1.00  0.00     0.012 A 
ATOM     76  C   UNL A   1      44.995  33.984  27.944  1.00  0.00     0.148 A 
ATOM     77  C   UNL A   1      43.620  34.405  25.526  1.00  0.00     0.002 A 
ATOM     78  C   UNL A   1      43.915  34.862  27.889  1.00  0.00     0.091 A 
ATOM     79  F   UNL A   1      45.698  33.801  29.071  1.00  0.00    -0.205 F 
ATOM     80  C   UNL A   1      43.238  35.084  26.678  1.00  0.00     0.022 A 
BRANCH  78  81
ATOM     81  S   UNL A   1      43.290  35.729  29.333  1.00  0.00     0.127 S 
ATOM     82  O   UNL A   1      44.514  36.317  29.877  1.00  0.00    -0.237 OA
ATOM     83  O   UNL A   1      42.365  36.692  28.735  1.00  0.00    -0.237 OA
ATOM     84  O   UNL A   1      42.658  34.716  30.166  1.00  0.00    -0.744 OA
ENDBRANCH  78  81
ENDBRANCH  60  74
BRANCH  61  85
ATOM     85  C   UNL A   1      52.607  26.236  26.400  1.00  0.00     0.023 A 
ATOM     86  C   UNL A   1      52.626  25.451  25.231  1.00  0.00     0.012 A 
ATOM     87  C   UNL A   1      53.621  26.059  27.361  1.00  0.00     0.148 A 
ATOM     88  C   UNL A   1      53.615  24.487  25.033  1.00  0.00     0.002 A 
ATOM     89  C   UNL A   1      54.632  25.129  27.137  1.00  0.00     0.091 A 
ATOM     90  F   UNL A   1      53.590  26.819  28.466  1.00  0.00    -0.205 F 
ATOM     91  C   UNL A   1      54.621  24.332  25.981  1.00  0.00     0.022 A 
BRANCH  89  92
ATOM     92  S   UNL A   1      56.042  24.956  28.238  1.00  0.00     0.127 S 
ATOM     93  O   UNL A   1      55.428  25.163  29.546  1.00  0.00    -0.237 OA
ATOM     94  O   UNL A   1      56.473  23.582  27.971  1.00  0.00    -0.237 OA
ATOM     95  O   UNL A   1      56.994  25.973  27.810  1.00  0.00    -0.744 OA
ENDBRANCH  89  92
ENDBRANCH  61  85
BRANCH  73  96
ATOM     96  C   UNL A   1      52.583  33.222  26.194  1.00  0.00     0.023 A 
ATOM     97  C   UNL A   1      53.122  33.814  27.351  1.00  0.00     0.012 A 
ATOM     98  C   UNL A   1      53.135  33.518  24.933  1.00  0.00     0.148 A 
ATOM     99  C   UNL A   1      54.181  34.713  27.252  1.00  0.00     0.002 A 
ATOM    100  C   UNL A   1      54.221  34.378  24.848  1.00  0.00     0.091 A 
ATOM    101  F   UNL A   1      52.585  32.959  23.845  1.00  0.00    -0.205 F 
ATOM    102  C   UNL A   1      54.738  34.985  26.004  1.00  0.00     0.022 A 
BRANCH 100 103
ATOM    103  S   UNL A   1      55.058  34.699  23.293  1.00  0.00     0.127 S 
ATOM    104  O   UNL A   1      56.197  35.504  23.728  1.00  0.00    -0.237 OA
ATOM    105  O   UNL A   1      55.400  33.351  22.836  1.00  0.00    -0.237 OA
ATOM    106  O   UNL A   1      54.085  35.387  22.453  1.00  0.00    -0.744 OA
ENDBRANCH 100 103
ENDBRANCH  73  96
ENDBRANCH  47  48
ENDBRANCH  39  42
ENDBRANCH  37  38
ENDBRANCH  36  37
ENDBRANCH   1  36
TORSDOF 21
ENDMDL
MODEL 3
REMARK VINA RESULT:      -9.0      5.109      9.547
REMARK SMILES N#CCC[NH+]1CCN(c2ccc(NS(=O)(=O)c3ccccc3Cl)cc2C(=O)NCCCCNC(=O)c2ccc(-c3c4nc(c(-c5cccc(S(=O)(=O)[O-])c5F)c5ccc([nH]5)c(-c5cccc(S(=O)(=O)[O-])c5F)c5nc(c(-c6cccc(S(=O)(=O)[O-])c6F)c6ccc3[nH]6)C=C5)C=C4)cc2)CC1
REMARK SMILES IDX 30 1 29 2 28 3 26 4 27 5 25 7 9 8 10 9 11 10 24 11 12 12
REMARK SMILES IDX 8 13 5 14 6 15 100 16 7 18 99 19 4 20 3 21 2 22 1 23 13 24
REMARK SMILES IDX 14 26 15 27 16 28 17 29 18 30 22 31 19 32 21 33 23 34 20 35
REMARK SMILES IDX 31 36 32 37 33 38 34 39 35 41 36 42 37 43 98 44 38 45 97 46
REMARK SMILES IDX 39 47 40 48 41 49 91 50 42 51 96 52 90 53 92 54 43 55 95 56
REMARK SMILES IDX 89 57 88 58 44 60 76 61 56 62 75 63 57 64 60 65 74 66 93 67
REMARK SMILES IDX 58 68 59 69 73 71 94 72 61 73 45 74 46 75 54 76 47 77 49 78
REMARK SMILES IDX 55 79 48 80 50 81 51 82 52 83 53 84 77 85 78 86 86 87 79 88
REMARK SMILES IDX 81 89 87 90 80 91 82 92 83 93 84 94 85 95 62 96 63 97 71 98
REMARK SMILES IDX 64 99 66 100 72 101 65 102 67 103 68 104 69 105 70 106
REMARK H PARENT 28 6 5 17 13 25 33 40 92 59 60 70
REMARK Flexibility Score: inf
ROOT
ATOM      1  C   UNL A   1      38.078  24.138  26.364  1.00  0.00     0.023 C 
ENDROOT
BRANCH   1   2
ATOM      2  C   UNL A   1      37.685  22.782  25.729  1.00  0.00     0.116 C 
BRANCH   2   3
ATOM      3  N   UNL A   1      37.333  22.868  24.315  1.00  0.00    -0.352 N 
ATOM      4  C   UNL A   1      36.210  23.199  23.588  1.00  0.00     0.253 C 
ATOM      5  O   UNL A   1      36.384  23.249  22.362  1.00  0.00    -0.269 OA
ATOM      6  H   UNL A   1      38.091  22.631  23.733  1.00  0.00     0.163 HD
BRANCH   4   7
ATOM      7  C   UNL A   1      34.793  23.440  24.027  1.00  0.00     0.065 A 
ATOM      8  C   UNL A   1      33.977  22.520  24.713  1.00  0.00     0.050 A 
ATOM      9  C   UNL A   1      33.078  22.980  25.691  1.00  0.00     0.029 A 
ATOM     10  C   UNL A   1      32.822  24.321  25.864  1.00  0.00     0.029 A 
ATOM     11  C   UNL A   1      34.454  24.811  24.171  1.00  0.00     0.042 A 
ATOM     12  C   UNL A   1      33.391  25.233  24.993  1.00  0.00     0.050 A 
BRANCH   8  13
ATOM     13  N   UNL A   1      33.694  21.247  24.299  1.00  0.00    -0.360 N 
ATOM     14  N   UNL A   1      32.595  18.872  25.138  1.00  0.00    -0.331 N 
ATOM     15  C   UNL A   1      33.886  19.304  25.667  1.00  0.00     0.284 C 
ATOM     16  C   UNL A   1      32.137  19.434  23.843  1.00  0.00     0.284 C 
ATOM     17  H   UNL A   1      32.016  19.410  25.783  1.00  0.00     0.348 HD
ATOM     18  C   UNL A   1      34.626  20.205  24.701  1.00  0.00     0.178 C 
ATOM     19  C   UNL A   1      32.572  20.874  23.485  1.00  0.00     0.178 C 
BRANCH  14  20
ATOM     20  C   UNL A   1      32.170  17.527  25.424  1.00  0.00     0.277 C 
BRANCH  20  21
ATOM     21  C   UNL A   1      33.107  16.403  25.204  1.00  0.00     0.181 C 
BRANCH  21  22
ATOM     22  C   UNL A   1      33.820  16.290  23.866  1.00  0.00     0.068 C 
ATOM     23  N   UNL A   1      34.411  16.196  22.756  1.00  0.00    -0.198 NA
ENDBRANCH  21  22
ENDBRANCH  20  21
ENDBRANCH  14  20
ENDBRANCH   8  13
BRANCH  12  24
ATOM     24  N   UNL A   1      32.962  26.593  24.941  1.00  0.00    -0.280 N 
ATOM     25  H   UNL A   1      33.405  27.240  25.536  1.00  0.00     0.180 HD
BRANCH  24  26
ATOM     26  S   UNL A   1      31.741  27.157  23.921  1.00  0.00     0.263 S 
ATOM     27  O   UNL A   1      32.317  27.265  22.582  1.00  0.00    -0.201 OA
ATOM     28  O   UNL A   1      30.576  26.349  24.140  1.00  0.00    -0.201 OA
BRANCH  26  29
ATOM     29  C   UNL A   1      31.353  28.819  24.442  1.00  0.00     0.106 A 
ATOM     30  C   UNL A   1      32.053  29.351  25.544  1.00  0.00     0.024 A 
ATOM     31  C   UNL A   1      30.346  29.569  23.837  1.00  0.00     0.061 A 
ATOM     32  C   UNL A   1      31.711  30.599  26.068  1.00  0.00     0.002 A 
ATOM     33  C   UNL A   1      30.016  30.826  24.367  1.00  0.00     0.022 A 
ATOM     34  Cl  UNL A   1      29.454  29.044  22.458  1.00  0.00    -0.083 Cl
ATOM     35  C   UNL A   1      30.685  31.334  25.484  1.00  0.00     0.002 A 
ENDBRANCH  26  29
ENDBRANCH  24  26
ENDBRANCH  12  24
ENDBRANCH   4   7
ENDBRANCH   2   3
ENDBRANCH   1   2
BRANCH   1  36
ATOM     36  C   UNL A   1      39.283  24.161  27.345  1.00  0.00     0.023 C 
BRANCH  36  37
ATOM     37  C   UNL A   1      40.119  25.459  27.408  1.00  0.00     0.116 C 
BRANCH  37  38
ATOM     38  N   UNL A   1      41.010  25.634  26.259  1.00  0.00    -0.352 N 
ATOM     39  C   UNL A   1      41.886  26.604  25.844  1.00  0.00     0.251 C 
ATOM     40  H   UNL A   1      40.971  24.873  25.635  1.00  0.00     0.163 HD
ATOM     41  O   UNL A   1      42.312  26.630  24.691  1.00  0.00    -0.269 OA
BRANCH  39  42
ATOM     42  C   UNL A   1      42.368  27.600  26.781  1.00  0.00     0.039 A 
ATOM     43  C   UNL A   1      43.360  27.277  27.717  1.00  0.00     0.014 A 
ATOM     44  C   UNL A   1      41.751  28.842  26.758  1.00  0.00     0.014 A 
ATOM     45  C   UNL A   1      43.803  28.260  28.590  1.00  0.00     0.010 A 
ATOM     46  C   UNL A   1      42.250  29.837  27.559  1.00  0.00     0.010 A 
ATOM     47  C   UNL A   1      43.275  29.552  28.474  1.00  0.00    -0.014 A 
BRANCH  47  48
ATOM     48  C   UNL A   1      43.758  30.699  29.256  1.00  0.00     0.031 A 
ATOM     49  C   UNL A   1      42.903  31.174  30.389  1.00  0.00     0.074 A 
ATOM     50  C   UNL A   1      44.757  31.432  28.734  1.00  0.00     0.049 A 
ATOM     51  N   UNL A   1      42.855  32.348  30.946  1.00  0.00    -0.248 NA
ATOM     52  C   UNL A   1      41.887  30.222  30.883  1.00  0.00     0.031 C 
ATOM     53  C   UNL A   1      45.550  31.073  27.553  1.00  0.00     0.029 A 
ATOM     54  N   UNL A   1      45.218  32.671  29.081  1.00  0.00    -0.354 N 
ATOM     55  C   UNL A   1      41.751  32.311  31.791  1.00  0.00     0.074 A 
ATOM     56  C   UNL A   1      41.143  31.007  31.650  1.00  0.00     0.031 C 
ATOM     57  C   UNL A   1      46.387  32.080  27.262  1.00  0.00     0.029 A 
ATOM     58  C   UNL A   1      46.160  33.163  28.208  1.00  0.00     0.049 A 
ATOM     59  H   UNL A   1      44.908  33.162  29.876  1.00  0.00     0.167 HD
ATOM     60  C   UNL A   1      41.308  33.282  32.622  1.00  0.00     0.034 A 
ATOM     61  C   UNL A   1      46.753  34.369  28.177  1.00  0.00     0.034 A 
ATOM     62  C   UNL A   1      42.005  34.527  32.788  1.00  0.00     0.049 A 
ATOM     63  C   UNL A   1      46.361  35.361  29.234  1.00  0.00     0.074 A 
ATOM     64  C   UNL A   1      41.760  35.545  33.689  1.00  0.00     0.029 A 
ATOM     65  N   UNL A   1      43.112  34.908  32.039  1.00  0.00    -0.354 N 
ATOM     66  N   UNL A   1      45.409  35.268  30.134  1.00  0.00    -0.248 NA
ATOM     67  C   UNL A   1      47.148  36.596  29.309  1.00  0.00     0.031 C 
ATOM     68  C   UNL A   1      42.730  36.536  33.492  1.00  0.00     0.029 A 
ATOM     69  C   UNL A   1      43.581  36.131  32.474  1.00  0.00     0.049 A 
ATOM     70  H   UNL A   1      43.504  34.382  31.306  1.00  0.00     0.167 HD
ATOM     71  C   UNL A   1      45.504  36.416  30.908  1.00  0.00     0.074 A 
ATOM     72  C   UNL A   1      46.622  37.176  30.379  1.00  0.00     0.031 C 
ATOM     73  C   UNL A   1      44.735  36.818  31.950  1.00  0.00     0.034 A 
BRANCH  60  74
ATOM     74  C   UNL A   1      40.082  32.995  33.450  1.00  0.00     0.023 A 
ATOM     75  C   UNL A   1      40.212  32.271  34.654  1.00  0.00     0.012 A 
ATOM     76  C   UNL A   1      38.808  33.449  33.058  1.00  0.00     0.148 A 
ATOM     77  C   UNL A   1      39.095  31.958  35.426  1.00  0.00     0.002 A 
ATOM     78  C   UNL A   1      37.702  33.178  33.860  1.00  0.00     0.091 A 
ATOM     79  F   UNL A   1      38.692  34.116  31.900  1.00  0.00    -0.205 F 
ATOM     80  C   UNL A   1      37.843  32.420  35.035  1.00  0.00     0.022 A 
BRANCH  78  81
ATOM     81  S   UNL A   1      36.056  33.793  33.490  1.00  0.00     0.127 S 
ATOM     82  O   UNL A   1      35.321  33.414  34.696  1.00  0.00    -0.237 OA
ATOM     83  O   UNL A   1      36.291  35.231  33.349  1.00  0.00    -0.237 OA
ATOM     84  O   UNL A   1      35.642  33.122  32.266  1.00  0.00    -0.744 OA
ENDBRANCH  78  81
ENDBRANCH  60  74
BRANCH  61  85
ATOM     85  C   UNL A   1      47.847  34.632  27.202  1.00  0.00     0.023 A 
ATOM     86  C   UNL A   1      47.519  35.244  25.977  1.00  0.00     0.012 A 
ATOM     87  C   UNL A   1      49.198  34.369  27.499  1.00  0.00     0.148 A 
ATOM     88  C   UNL A   1      48.512  35.560  25.049  1.00  0.00     0.002 A 
ATOM     89  C   UNL A   1      50.188  34.731  26.589  1.00  0.00     0.091 A 
ATOM     90  F   UNL A   1      49.492  33.791  28.673  1.00  0.00    -0.205 F 
ATOM     91  C   UNL A   1      49.845  35.312  25.359  1.00  0.00     0.022 A 
BRANCH  89  92
ATOM     92  S   UNL A   1      51.939  34.574  26.961  1.00  0.00     0.127 S 
ATOM     93  O   UNL A   1      52.067  33.140  27.203  1.00  0.00    -0.237 OA
ATOM     94  O   UNL A   1      52.560  35.046  25.721  1.00  0.00    -0.237 OA
ATOM     95  O   UNL A   1      52.171  35.439  28.110  1.00  0.00    -0.744 OA
ENDBRANCH  89  92
ENDBRANCH  61  85
BRANCH  73  96
ATOM     96  C   UNL A   1      45.106  38.118  32.604  1.00  0.00     0.023 A 
ATOM     97  C   UNL A   1      46.119  38.143  33.580  1.00  0.00     0.012 A 
ATOM     98  C   UNL A   1      44.502  39.320  32.190  1.00  0.00     0.148 A 
ATOM     99  C   UNL A   1      46.508  39.349  34.159  1.00  0.00     0.002 A 
ATOM    100  C   UNL A   1      44.929  40.522  32.736  1.00  0.00     0.091 A 
ATOM    101  F   UNL A   1      43.521  39.264  31.277  1.00  0.00    -0.205 F 
ATOM    102  C   UNL A   1      45.924  40.538  33.728  1.00  0.00     0.022 A 
BRANCH 100 103
ATOM    103  S   UNL A   1      44.299  42.102  32.163  1.00  0.00     0.127 S 
ATOM    104  O   UNL A   1      45.364  43.014  32.573  1.00  0.00    -0.237 OA
ATOM    105  O   UNL A   1      44.194  41.893  30.718  1.00  0.00    -0.237 OA
ATOM    106  O   UNL A   1      43.018  42.286  32.836  1.00  0.00    -0.744 OA
ENDBRANCH 100 103
ENDBRANCH  73  96
ENDBRANCH  47  48
ENDBRANCH  39  42
ENDBRANCH  37  38
ENDBRANCH  36  37
ENDBRANCH   1  36
TORSDOF 21
ENDMDL
