MODEL 1
REMARK VINA RESULT:     -12.6      0.000      0.000
REMARK SMILES O=C(NCCCCNC(=O)c1ccc(F)cc1-c1ccc(F)c(Cl)c1)c1ccc(-c2c3nc(c(-c4cccc(S(=O)(=O)[O-])c4F)c4ccc([nH]4)c(-c4cccc(S(=O)(=O)[O-])c4F)c4nc(c(-c5cccc(S(=O)(=O)[O-])c5F)c5ccc2[nH]5)C=C4)C=C3)cc1
REMARK SMILES IDX 4 1 3 2 1 3 2 4 26 6 27 7 88 8 28 9 87 10 29 11 30 12 31 13
REMARK SMILES IDX 81 14 32 15 86 16 80 17 82 18 33 19 85 20 79 21 78 22 34 24
REMARK SMILES IDX 66 25 46 26 65 27 47 28 50 29 64 30 83 31 48 32 49 33 63 35
REMARK SMILES IDX 84 36 51 37 35 38 36 39 44 40 37 41 39 42 45 43 38 44 40 45
REMARK SMILES IDX 41 46 42 47 43 48 67 49 68 50 76 51 69 52 71 53 77 54 70 55
REMARK SMILES IDX 72 56 73 57 74 58 75 59 52 60 53 61 61 62 54 63 56 64 62 65
REMARK SMILES IDX 55 66 57 67 58 68 59 69 60 70 5 71 6 72 7 73 8 74 9 75 10 77
REMARK SMILES IDX 11 78 12 79 17 80 13 81 16 82 14 83 15 84 18 85 19 86 25 87
REMARK SMILES IDX 20 88 23 89 21 90 24 91 22 92
REMARK H PARENT 3 5 82 23 50 34 8 76
REMARK Flexibility Score: inf
ROOT
ATOM      1  C   UNL A   1      31.915  30.134  26.899  1.00  0.00     0.116 C 
ENDROOT
BRANCH   1   2
ATOM      2  N   UNL A   1      31.885  31.587  26.849  1.00  0.00    -0.352 N 
ATOM      3  O   UNL A   1      32.524  33.694  27.318  1.00  0.00    -0.269 OA
ATOM      4  C   UNL A   1      32.789  32.496  27.350  1.00  0.00     0.251 C 
ATOM      5  H   UNL A   1      31.105  31.978  26.392  1.00  0.00     0.163 HD
BRANCH   4   6
ATOM      6  C   UNL A   1      34.055  32.023  27.955  1.00  0.00     0.039 A 
ATOM      7  C   UNL A   1      34.274  30.663  28.188  1.00  0.00     0.014 A 
ATOM      8  C   UNL A   1      35.036  32.958  28.301  1.00  0.00     0.014 A 
ATOM      9  C   UNL A   1      35.397  30.257  28.902  1.00  0.00     0.010 A 
ATOM     10  C   UNL A   1      36.204  32.536  28.945  1.00  0.00     0.010 A 
ATOM     11  C   UNL A   1      36.377  31.187  29.283  1.00  0.00    -0.014 A 
BRANCH  11  12
ATOM     12  C   UNL A   1      37.605  30.710  29.971  1.00  0.00     0.031 A 
ATOM     13  C   UNL A   1      37.900  31.080  31.399  1.00  0.00     0.074 A 
ATOM     14  C   UNL A   1      38.457  29.917  29.292  1.00  0.00     0.049 A 
ATOM     15  N   UNL A   1      38.907  30.711  32.149  1.00  0.00    -0.248 NA
ATOM     16  C   UNL A   1      36.953  31.982  32.074  1.00  0.00     0.031 C 
ATOM     17  C   UNL A   1      38.294  29.523  27.890  1.00  0.00     0.029 A 
ATOM     18  N   UNL A   1      39.615  29.294  29.679  1.00  0.00    -0.354 N 
ATOM     19  C   UNL A   1      38.736  31.357  33.367  1.00  0.00     0.074 A 
ATOM     20  C   UNL A   1      37.531  32.150  33.257  1.00  0.00     0.031 C 
ATOM     21  C   UNL A   1      39.294  28.701  27.546  1.00  0.00     0.029 A 
ATOM     22  C   UNL A   1      40.195  28.545  28.682  1.00  0.00     0.049 A 
ATOM     23  H   UNL A   1      39.995  29.376  30.584  1.00  0.00     0.167 HD
ATOM     24  C   UNL A   1      39.504  31.278  34.481  1.00  0.00     0.034 A 
ATOM     25  C   UNL A   1      41.329  27.818  28.676  1.00  0.00     0.034 A 
ATOM     26  C   UNL A   1      40.677  30.452  34.599  1.00  0.00     0.049 A 
ATOM     27  C   UNL A   1      42.145  27.728  29.933  1.00  0.00     0.074 A 
ATOM     28  C   UNL A   1      41.482  30.261  35.708  1.00  0.00     0.029 A 
ATOM     29  N   UNL A   1      41.213  29.682  33.579  1.00  0.00    -0.354 N 
ATOM     30  N   UNL A   1      41.900  28.252  31.109  1.00  0.00    -0.248 NA
ATOM     31  C   UNL A   1      43.379  26.932  29.872  1.00  0.00     0.031 C 
ATOM     32  C   UNL A   1      42.513  29.386  35.355  1.00  0.00     0.029 A 
ATOM     33  C   UNL A   1      42.344  29.021  34.030  1.00  0.00     0.049 A 
ATOM     34  H   UNL A   1      40.846  29.615  32.668  1.00  0.00     0.167 HD
ATOM     35  C   UNL A   1      42.938  27.839  31.934  1.00  0.00     0.074 A 
ATOM     36  C   UNL A   1      43.801  26.997  31.129  1.00  0.00     0.031 C 
ATOM     37  C   UNL A   1      43.168  28.150  33.233  1.00  0.00     0.034 A 
BRANCH  24  38
ATOM     38  C   UNL A   1      39.080  32.060  35.696  1.00  0.00     0.023 A 
ATOM     39  C   UNL A   1      39.350  33.443  35.754  1.00  0.00     0.012 A 
ATOM     40  C   UNL A   1      38.318  31.461  36.718  1.00  0.00     0.148 A 
ATOM     41  C   UNL A   1      38.880  34.213  36.816  1.00  0.00     0.002 A 
ATOM     42  C   UNL A   1      37.822  32.242  37.756  1.00  0.00     0.091 A 
ATOM     43  F   UNL A   1      38.088  30.141  36.654  1.00  0.00    -0.205 F 
ATOM     44  C   UNL A   1      38.107  33.617  37.809  1.00  0.00     0.022 A 
BRANCH  42  45
ATOM     45  S   UNL A   1      36.755  31.584  39.043  1.00  0.00     0.127 S 
ATOM     46  O   UNL A   1      37.647  31.597  40.201  1.00  0.00    -0.237 OA
ATOM     47  O   UNL A   1      35.680  32.576  39.091  1.00  0.00    -0.237 OA
ATOM     48  O   UNL A   1      36.343  30.265  38.587  1.00  0.00    -0.744 OA
ENDBRANCH  42  45
ENDBRANCH  24  38
BRANCH  25  49
ATOM     49  C   UNL A   1      41.705  27.068  27.445  1.00  0.00     0.023 A 
ATOM     50  C   UNL A   1      42.300  27.757  26.372  1.00  0.00     0.012 A 
ATOM     51  C   UNL A   1      41.567  25.668  27.372  1.00  0.00     0.148 A 
ATOM     52  C   UNL A   1      42.745  27.066  25.244  1.00  0.00     0.002 A 
ATOM     53  C   UNL A   1      42.068  24.980  26.273  1.00  0.00     0.091 A 
ATOM     54  F   UNL A   1      40.979  25.032  28.395  1.00  0.00    -0.205 F 
ATOM     55  C   UNL A   1      42.645  25.678  25.202  1.00  0.00     0.022 A 
BRANCH  53  56
ATOM     56  S   UNL A   1      42.128  23.185  26.217  1.00  0.00     0.127 S 
ATOM     57  O   UNL A   1      40.712  22.836  26.304  1.00  0.00    -0.237 OA
ATOM     58  O   UNL A   1      42.745  22.940  24.912  1.00  0.00    -0.237 OA
ATOM     59  O   UNL A   1      42.954  22.788  27.350  1.00  0.00    -0.744 OA
ENDBRANCH  53  56
ENDBRANCH  25  49
BRANCH  37  60
ATOM     60  C   UNL A   1      44.402  27.582  33.882  1.00  0.00     0.023 A 
ATOM     61  C   UNL A   1      45.605  28.313  33.832  1.00  0.00     0.012 A 
ATOM     62  C   UNL A   1      44.344  26.388  34.626  1.00  0.00     0.148 A 
ATOM     63  C   UNL A   1      46.738  27.855  34.502  1.00  0.00     0.002 A 
ATOM     64  C   UNL A   1      45.467  25.960  35.326  1.00  0.00     0.091 A 
ATOM     65  F   UNL A   1      43.194  25.699  34.644  1.00  0.00    -0.205 F 
ATOM     66  C   UNL A   1      46.666  26.688  35.258  1.00  0.00     0.022 A 
BRANCH  64  67
ATOM     67  S   UNL A   1      45.439  24.520  36.400  1.00  0.00     0.127 S 
ATOM     68  O   UNL A   1      45.134  23.448  35.454  1.00  0.00    -0.237 OA
ATOM     69  O   UNL A   1      46.804  24.497  36.928  1.00  0.00    -0.237 OA
ATOM     70  O   UNL A   1      44.411  24.785  37.397  1.00  0.00    -0.744 OA
ENDBRANCH  64  67
ENDBRANCH  37  60
ENDBRANCH  11  12
ENDBRANCH   4   6
ENDBRANCH   1   2
BRANCH   1  71
ATOM     71  C   UNL A   1      31.915  29.486  25.519  1.00  0.00     0.023 C 
BRANCH  71  72
ATOM     72  C   UNL A   1      33.283  29.068  24.985  1.00  0.00     0.023 C 
BRANCH  72  73
ATOM     73  C   UNL A   1      33.739  27.664  25.371  1.00  0.00     0.116 C 
BRANCH  73  74
ATOM     74  N   UNL A   1      32.772  26.953  26.194  1.00  0.00    -0.352 N 
ATOM     75  C   UNL A   1      32.154  25.747  25.967  1.00  0.00     0.251 C 
ATOM     76  H   UNL A   1      32.523  27.402  27.034  1.00  0.00     0.163 HD
ATOM     77  O   UNL A   1      31.363  25.284  26.781  1.00  0.00    -0.269 OA
BRANCH  75  78
ATOM     78  C   UNL A   1      32.458  25.004  24.725  1.00  0.00     0.047 A 
ATOM     79  C   UNL A   1      33.442  24.002  24.789  1.00  0.00     0.017 A 
ATOM     80  C   UNL A   1      31.762  25.269  23.526  1.00  0.00    -0.003 A 
ATOM     81  C   UNL A   1      33.806  23.307  23.639  1.00  0.00     0.040 A 
ATOM     82  C   UNL A   1      32.153  24.552  22.379  1.00  0.00     0.048 A 
ATOM     83  C   UNL A   1      33.166  23.598  22.443  1.00  0.00     0.123 A 
ATOM     84  F   UNL A   1      33.521  22.942  21.331  1.00  0.00    -0.207 F 
BRANCH  80  85
ATOM     85  C   UNL A   1      30.641  26.222  23.427  1.00  0.00    -0.016 A 
ATOM     86  C   UNL A   1      29.378  25.945  23.977  1.00  0.00     0.012 A 
ATOM     87  C   UNL A   1      30.826  27.451  22.764  1.00  0.00     0.032 A 
ATOM     88  C   UNL A   1      28.330  26.865  23.861  1.00  0.00     0.041 A 
ATOM     89  C   UNL A   1      29.781  28.371  22.656  1.00  0.00     0.077 A 
ATOM     90  C   UNL A   1      28.538  28.072  23.204  1.00  0.00     0.141 A 
ATOM     91  Cl  UNL A   1      30.053  29.868  21.851  1.00  0.00    -0.081 Cl
ATOM     92  F   UNL A   1      27.523  28.945  23.116  1.00  0.00    -0.205 F 
ENDBRANCH  80  85
ENDBRANCH  75  78
ENDBRANCH  73  74
ENDBRANCH  72  73
ENDBRANCH  71  72
ENDBRANCH   1  71
TORSDOF 15
ENDMDL
MODEL 2
REMARK VINA RESULT:     -12.6      2.128      3.224
REMARK SMILES O=C(NCCCCNC(=O)c1ccc(F)cc1-c1ccc(F)c(Cl)c1)c1ccc(-c2c3nc(c(-c4cccc(S(=O)(=O)[O-])c4F)c4ccc([nH]4)c(-c4cccc(S(=O)(=O)[O-])c4F)c4nc(c(-c5cccc(S(=O)(=O)[O-])c5F)c5ccc2[nH]5)C=C4)C=C3)cc1
REMARK SMILES IDX 4 1 3 2 1 3 2 4 26 6 27 7 88 8 28 9 87 10 29 11 30 12 31 13
REMARK SMILES IDX 81 14 32 15 86 16 80 17 82 18 33 19 85 20 79 21 78 22 34 24
REMARK SMILES IDX 66 25 46 26 65 27 47 28 50 29 64 30 83 31 48 32 49 33 63 35
REMARK SMILES IDX 84 36 51 37 35 38 36 39 44 40 37 41 39 42 45 43 38 44 40 45
REMARK SMILES IDX 41 46 42 47 43 48 67 49 68 50 76 51 69 52 71 53 77 54 70 55
REMARK SMILES IDX 72 56 73 57 74 58 75 59 52 60 53 61 61 62 54 63 56 64 62 65
REMARK SMILES IDX 55 66 57 67 58 68 59 69 60 70 5 71 6 72 7 73 8 74 9 75 10 77
REMARK SMILES IDX 11 78 12 79 17 80 13 81 16 82 14 83 15 84 18 85 19 86 25 87
REMARK SMILES IDX 20 88 23 89 21 90 24 91 22 92
REMARK H PARENT 3 5 82 23 50 34 8 76
REMARK Flexibility Score: inf
ROOT
ATOM      1  C   UNL A   1      32.746  29.532  25.435  1.00  0.00     0.116 C 
ENDROOT
BRANCH   1   2
ATOM      2  N   UNL A   1      32.302  30.827  25.924  1.00  0.00    -0.352 N 
ATOM      3  O   UNL A   1      32.252  32.635  27.264  1.00  0.00    -0.269 OA
ATOM      4  C   UNL A   1      32.849  31.625  26.903  1.00  0.00     0.251 C 
ATOM      5  H   UNL A   1      31.492  31.185  25.493  1.00  0.00     0.163 HD
BRANCH   4   6
ATOM      6  C   UNL A   1      34.130  31.242  27.539  1.00  0.00     0.039 A 
ATOM      7  C   UNL A   1      34.384  29.916  27.896  1.00  0.00     0.014 A 
ATOM      8  C   UNL A   1      35.088  32.229  27.789  1.00  0.00     0.014 A 
ATOM      9  C   UNL A   1      35.521  29.605  28.635  1.00  0.00     0.010 A 
ATOM     10  C   UNL A   1      36.270  31.898  28.460  1.00  0.00     0.010 A 
ATOM     11  C   UNL A   1      36.480  30.591  28.920  1.00  0.00    -0.014 A 
BRANCH  11  12
ATOM     12  C   UNL A   1      37.723  30.210  29.640  1.00  0.00     0.031 A 
ATOM     13  C   UNL A   1      38.004  30.697  31.036  1.00  0.00     0.074 A 
ATOM     14  C   UNL A   1      38.603  29.399  29.020  1.00  0.00     0.049 A 
ATOM     15  N   UNL A   1      39.023  30.420  31.809  1.00  0.00    -0.248 NA
ATOM     16  C   UNL A   1      37.025  31.612  31.643  1.00  0.00     0.031 C 
ATOM     17  C   UNL A   1      38.456  28.897  27.652  1.00  0.00     0.029 A 
ATOM     18  N   UNL A   1      39.783  28.849  29.450  1.00  0.00    -0.354 N 
ATOM     19  C   UNL A   1      38.828  31.148  32.976  1.00  0.00     0.074 A 
ATOM     20  C   UNL A   1      37.596  31.888  32.809  1.00  0.00     0.031 C 
ATOM     21  C   UNL A   1      39.485  28.087  27.368  1.00  0.00     0.029 A 
ATOM     22  C   UNL A   1      40.390  28.048  28.511  1.00  0.00     0.049 A 
ATOM     23  H   UNL A   1      40.159  29.012  30.345  1.00  0.00     0.167 HD
ATOM     24  C   UNL A   1      39.597  31.181  34.091  1.00  0.00     0.034 A 
ATOM     25  C   UNL A   1      41.549  27.364  28.557  1.00  0.00     0.034 A 
ATOM     26  C   UNL A   1      40.799  30.408  34.268  1.00  0.00     0.049 A 
ATOM     27  C   UNL A   1      42.367  27.398  29.816  1.00  0.00     0.074 A 
ATOM     28  C   UNL A   1      41.609  30.329  35.387  1.00  0.00     0.029 A 
ATOM     29  N   UNL A   1      41.363  29.584  33.307  1.00  0.00    -0.354 N 
ATOM     30  N   UNL A   1      42.102  27.999  30.950  1.00  0.00    -0.248 NA
ATOM     31  C   UNL A   1      43.628  26.643  29.812  1.00  0.00     0.031 C 
ATOM     32  C   UNL A   1      42.671  29.468  35.098  1.00  0.00     0.029 A 
ATOM     33  C   UNL A   1      42.516  28.999  33.805  1.00  0.00     0.049 A 
ATOM     34  H   UNL A   1      40.999  29.436  32.405  1.00  0.00     0.167 HD
ATOM     35  C   UNL A   1      43.154  27.686  31.801  1.00  0.00     0.074 A 
ATOM     36  C   UNL A   1      44.047  26.817  31.060  1.00  0.00     0.031 C 
ATOM     37  C   UNL A   1      43.371  28.100  33.073  1.00  0.00     0.034 A 
BRANCH  24  38
ATOM     38  C   UNL A   1      39.145  32.035  35.246  1.00  0.00     0.023 A 
ATOM     39  C   UNL A   1      38.293  31.479  36.221  1.00  0.00     0.012 A 
ATOM     40  C   UNL A   1      39.648  33.338  35.429  1.00  0.00     0.148 A 
ATOM     41  C   UNL A   1      37.940  32.210  37.355  1.00  0.00     0.002 A 
ATOM     42  C   UNL A   1      39.321  34.048  36.579  1.00  0.00     0.091 A 
ATOM     43  F   UNL A   1      40.442  33.856  34.479  1.00  0.00    -0.205 F 
ATOM     44  C   UNL A   1      38.464  33.487  37.540  1.00  0.00     0.022 A 
BRANCH  42  45
ATOM     45  S   UNL A   1      40.002  35.669  36.946  1.00  0.00     0.127 S 
ATOM     46  O   UNL A   1      39.380  35.965  38.235  1.00  0.00    -0.237 OA
ATOM     47  O   UNL A   1      41.438  35.395  37.012  1.00  0.00    -0.237 OA
ATOM     48  O   UNL A   1      39.599  36.532  35.845  1.00  0.00    -0.744 OA
ENDBRANCH  42  45
ENDBRANCH  24  38
BRANCH  25  49
ATOM     49  C   UNL A   1      41.952  26.538  27.385  1.00  0.00     0.023 A 
ATOM     50  C   UNL A   1      42.712  27.126  26.355  1.00  0.00     0.012 A 
ATOM     51  C   UNL A   1      41.674  25.159  27.332  1.00  0.00     0.148 A 
ATOM     52  C   UNL A   1      43.180  26.355  25.290  1.00  0.00     0.002 A 
ATOM     53  C   UNL A   1      42.196  24.385  26.301  1.00  0.00     0.091 A 
ATOM     54  F   UNL A   1      40.931  24.621  28.311  1.00  0.00    -0.205 F 
ATOM     55  C   UNL A   1      42.937  24.984  25.273  1.00  0.00     0.022 A 
BRANCH  53  56
ATOM     56  S   UNL A   1      42.069  22.593  26.295  1.00  0.00     0.127 S 
ATOM     57  O   UNL A   1      40.622  22.396  26.307  1.00  0.00    -0.237 OA
ATOM     58  O   UNL A   1      42.729  22.245  25.035  1.00  0.00    -0.237 OA
ATOM     59  O   UNL A   1      42.784  22.148  27.484  1.00  0.00    -0.744 OA
ENDBRANCH  53  56
ENDBRANCH  25  49
BRANCH  37  60
ATOM     60  C   UNL A   1      44.624  27.626  33.760  1.00  0.00     0.023 A 
ATOM     61  C   UNL A   1      45.777  28.435  33.725  1.00  0.00     0.012 A 
ATOM     62  C   UNL A   1      44.628  26.443  34.525  1.00  0.00     0.148 A 
ATOM     63  C   UNL A   1      46.922  28.065  34.428  1.00  0.00     0.002 A 
ATOM     64  C   UNL A   1      45.759  26.103  35.257  1.00  0.00     0.091 A 
ATOM     65  F   UNL A   1      43.525  25.679  34.528  1.00  0.00    -0.205 F 
ATOM     66  C   UNL A   1      46.909  26.908  35.204  1.00  0.00     0.022 A 
BRANCH  64  67
ATOM     67  S   UNL A   1      45.801  24.682  36.356  1.00  0.00     0.127 S 
ATOM     68  O   UNL A   1      45.631  23.574  35.418  1.00  0.00    -0.237 OA
ATOM     69  O   UNL A   1      47.137  24.782  36.947  1.00  0.00    -0.237 OA
ATOM     70  O   UNL A   1      44.708  24.875  37.300  1.00  0.00    -0.744 OA
ENDBRANCH  64  67
ENDBRANCH  37  60
ENDBRANCH  11  12
ENDBRANCH   4   6
ENDBRANCH   1   2
BRANCH   1  71
ATOM     71  C   UNL A   1      31.653  28.471  25.466  1.00  0.00     0.023 C 
BRANCH  71  72
ATOM     72  C   UNL A   1      31.726  27.479  26.624  1.00  0.00     0.023 C 
BRANCH  72  73
ATOM     73  C   UNL A   1      32.612  26.258  26.392  1.00  0.00     0.116 C 
BRANCH  73  74
ATOM     74  N   UNL A   1      31.867  25.010  26.349  1.00  0.00    -0.352 N 
ATOM     75  C   UNL A   1      31.515  24.242  25.265  1.00  0.00     0.251 C 
ATOM     76  H   UNL A   1      31.572  24.665  27.222  1.00  0.00     0.163 HD
ATOM     77  O   UNL A   1      30.888  23.199  25.411  1.00  0.00    -0.269 OA
BRANCH  75  78
ATOM     78  C   UNL A   1      31.908  24.686  23.910  1.00  0.00     0.047 A 
ATOM     79  C   UNL A   1      31.054  25.583  23.244  1.00  0.00     0.017 A 
ATOM     80  C   UNL A   1      33.114  24.250  23.320  1.00  0.00    -0.003 A 
ATOM     81  C   UNL A   1      31.348  25.993  21.947  1.00  0.00     0.040 A 
ATOM     82  C   UNL A   1      33.382  24.680  22.006  1.00  0.00     0.048 A 
ATOM     83  C   UNL A   1      32.503  25.527  21.336  1.00  0.00     0.123 A 
ATOM     84  F   UNL A   1      32.784  25.908  20.083  1.00  0.00    -0.207 F 
BRANCH  80  85
ATOM     85  C   UNL A   1      34.104  23.407  24.013  1.00  0.00    -0.016 A 
ATOM     86  C   UNL A   1      34.007  22.005  24.028  1.00  0.00     0.012 A 
ATOM     87  C   UNL A   1      35.185  24.009  24.687  1.00  0.00     0.032 A 
ATOM     88  C   UNL A   1      34.958  21.230  24.700  1.00  0.00     0.041 A 
ATOM     89  C   UNL A   1      36.135  23.233  25.353  1.00  0.00     0.077 A 
ATOM     90  C   UNL A   1      36.017  21.847  25.357  1.00  0.00     0.141 A 
ATOM     91  Cl  UNL A   1      37.450  24.008  26.152  1.00  0.00    -0.081 Cl
ATOM     92  F   UNL A   1      36.923  21.083  25.985  1.00  0.00    -0.205 F 
ENDBRANCH  80  85
ENDBRANCH  75  78
ENDBRANCH  73  74
ENDBRANCH  72  73
ENDBRANCH  71  72
ENDBRANCH   1  71
TORSDOF 15
ENDMDL
MODEL 3
REMARK VINA RESULT:     -12.5      5.337     10.227
REMARK SMILES O=C(NCCCCNC(=O)c1ccc(F)cc1-c1ccc(F)c(Cl)c1)c1ccc(-c2c3nc(c(-c4cccc(S(=O)(=O)[O-])c4F)c4ccc([nH]4)c(-c4cccc(S(=O)(=O)[O-])c4F)c4nc(c(-c5cccc(S(=O)(=O)[O-])c5F)c5ccc2[nH]5)C=C4)C=C3)cc1
REMARK SMILES IDX 4 1 3 2 1 3 2 4 26 6 27 7 88 8 28 9 87 10 29 11 30 12 31 13
REMARK SMILES IDX 81 14 32 15 86 16 80 17 82 18 33 19 85 20 79 21 78 22 34 24
REMARK SMILES IDX 66 25 46 26 65 27 47 28 50 29 64 30 83 31 48 32 49 33 63 35
REMARK SMILES IDX 84 36 51 37 35 38 36 39 44 40 37 41 39 42 45 43 38 44 40 45
REMARK SMILES IDX 41 46 42 47 43 48 67 49 68 50 76 51 69 52 71 53 77 54 70 55
REMARK SMILES IDX 72 56 73 57 74 58 75 59 52 60 53 61 61 62 54 63 56 64 62 65
REMARK SMILES IDX 55 66 57 67 58 68 59 69 60 70 5 71 6 72 7 73 8 74 9 75 10 77
REMARK SMILES IDX 11 78 12 79 17 80 13 81 16 82 14 83 15 84 18 85 19 86 25 87
REMARK SMILES IDX 20 88 23 89 21 90 24 91 22 92
REMARK H PARENT 3 5 82 23 50 34 8 76
REMARK Flexibility Score: inf
ROOT
ATOM      1  C   UNL A   1      36.072  21.866  25.919  1.00  0.00     0.116 C 
ENDROOT
BRANCH   1   2
ATOM      2  N   UNL A   1      37.083  20.849  25.678  1.00  0.00    -0.352 N 
ATOM      3  O   UNL A   1      39.148  20.004  25.387  1.00  0.00    -0.269 OA
ATOM      4  C   UNL A   1      38.454  20.948  25.751  1.00  0.00     0.251 C 
ATOM      5  H   UNL A   1      36.737  19.962  25.426  1.00  0.00     0.163 HD
BRANCH   4   6
ATOM      6  C   UNL A   1      39.081  22.200  26.231  1.00  0.00     0.039 A 
ATOM      7  C   UNL A   1      38.632  23.444  25.782  1.00  0.00     0.014 A 
ATOM      8  C   UNL A   1      40.141  22.126  27.140  1.00  0.00     0.014 A 
ATOM      9  C   UNL A   1      39.336  24.596  26.118  1.00  0.00     0.010 A 
ATOM     10  C   UNL A   1      40.795  23.295  27.543  1.00  0.00     0.010 A 
ATOM     11  C   UNL A   1      40.422  24.535  27.007  1.00  0.00    -0.014 A 
BRANCH  11  12
ATOM     12  C   UNL A   1      41.101  25.793  27.413  1.00  0.00     0.031 A 
ATOM     13  C   UNL A   1      42.515  26.093  26.994  1.00  0.00     0.074 A 
ATOM     14  C   UNL A   1      40.418  26.682  28.160  1.00  0.00     0.049 A 
ATOM     15  N   UNL A   1      43.229  27.163  27.233  1.00  0.00    -0.248 NA
ATOM     16  C   UNL A   1      43.222  25.066  26.213  1.00  0.00     0.031 C 
ATOM     17  C   UNL A   1      39.055  26.481  28.659  1.00  0.00     0.029 A 
ATOM     18  N   UNL A   1      40.761  27.925  28.626  1.00  0.00    -0.354 N 
ATOM     19  C   UNL A   1      44.476  26.928  26.665  1.00  0.00     0.074 A 
ATOM     20  C   UNL A   1      44.425  25.608  26.073  1.00  0.00     0.031 C 
ATOM     21  C   UNL A   1      38.667  27.575  29.329  1.00  0.00     0.029 A 
ATOM     22  C   UNL A   1      39.765  28.535  29.351  1.00  0.00     0.049 A 
ATOM     23  H   UNL A   1      41.638  28.341  28.456  1.00  0.00     0.167 HD
ATOM     24  C   UNL A   1      45.554  27.746  26.625  1.00  0.00     0.034 A 
ATOM     25  C   UNL A   1      39.736  29.728  29.975  1.00  0.00     0.034 A 
ATOM     26  C   UNL A   1      45.583  29.076  27.176  1.00  0.00     0.049 A 
ATOM     27  C   UNL A   1      40.938  30.625  29.890  1.00  0.00     0.074 A 
ATOM     28  C   UNL A   1      46.611  30.001  27.127  1.00  0.00     0.029 A 
ATOM     29  N   UNL A   1      44.544  29.670  27.875  1.00  0.00    -0.354 N 
ATOM     30  N   UNL A   1      42.063  30.430  29.245  1.00  0.00    -0.248 NA
ATOM     31  C   UNL A   1      40.861  31.912  30.595  1.00  0.00     0.031 C 
ATOM     32  C   UNL A   1      46.199  31.149  27.809  1.00  0.00     0.029 A 
ATOM     33  C   UNL A   1      44.909  30.946  28.270  1.00  0.00     0.049 A 
ATOM     34  H   UNL A   1      43.675  29.247  28.063  1.00  0.00     0.167 HD
ATOM     35  C   UNL A   1      42.823  31.573  29.454  1.00  0.00     0.074 A 
ATOM     36  C   UNL A   1      42.019  32.469  30.261  1.00  0.00     0.031 C 
ATOM     37  C   UNL A   1      44.082  31.845  29.034  1.00  0.00     0.034 A 
BRANCH  24  38
ATOM     38  C   UNL A   1      46.790  27.263  25.911  1.00  0.00     0.023 A 
ATOM     39  C   UNL A   1      47.617  26.308  26.536  1.00  0.00     0.012 A 
ATOM     40  C   UNL A   1      47.068  27.659  24.589  1.00  0.00     0.148 A 
ATOM     41  C   UNL A   1      48.709  25.765  25.861  1.00  0.00     0.002 A 
ATOM     42  C   UNL A   1      48.137  27.087  23.908  1.00  0.00     0.091 A 
ATOM     43  F   UNL A   1      46.280  28.583  24.019  1.00  0.00    -0.205 F 
ATOM     44  C   UNL A   1      48.961  26.144  24.545  1.00  0.00     0.022 A 
BRANCH  42  45
ATOM     45  S   UNL A   1      48.502  27.453  22.187  1.00  0.00     0.127 S 
ATOM     46  O   UNL A   1      49.747  28.209  22.304  1.00  0.00    -0.237 OA
ATOM     47  O   UNL A   1      48.653  26.116  21.612  1.00  0.00    -0.237 OA
ATOM     48  O   UNL A   1      47.359  28.203  21.686  1.00  0.00    -0.744 OA
ENDBRANCH  42  45
ENDBRANCH  24  38
BRANCH  25  49
ATOM     49  C   UNL A   1      38.490  30.155  30.671  1.00  0.00     0.023 A 
ATOM     50  C   UNL A   1      38.336  29.875  32.042  1.00  0.00     0.012 A 
ATOM     51  C   UNL A   1      37.509  30.918  30.010  1.00  0.00     0.148 A 
ATOM     52  C   UNL A   1      37.221  30.341  32.740  1.00  0.00     0.002 A 
ATOM     53  C   UNL A   1      36.433  31.432  30.725  1.00  0.00     0.091 A 
ATOM     54  F   UNL A   1      37.663  31.157  28.699  1.00  0.00    -0.205 F 
ATOM     55  C   UNL A   1      36.280  31.133  32.086  1.00  0.00     0.022 A 
BRANCH  53  56
ATOM     56  S   UNL A   1      35.271  32.593  29.997  1.00  0.00     0.127 S 
ATOM     57  O   UNL A   1      34.397  32.891  31.129  1.00  0.00    -0.237 OA
ATOM     58  O   UNL A   1      36.150  33.691  29.591  1.00  0.00    -0.237 OA
ATOM     59  O   UNL A   1      34.655  31.882  28.885  1.00  0.00    -0.744 OA
ENDBRANCH  53  56
ENDBRANCH  25  49
BRANCH  37  60
ATOM     60  C   UNL A   1      44.685  33.165  29.434  1.00  0.00     0.023 A 
ATOM     61  C   UNL A   1      45.472  33.238  30.600  1.00  0.00     0.012 A 
ATOM     62  C   UNL A   1      44.563  34.298  28.605  1.00  0.00     0.148 A 
ATOM     63  C   UNL A   1      46.117  34.425  30.944  1.00  0.00     0.002 A 
ATOM     64  C   UNL A   1      45.243  35.465  28.933  1.00  0.00     0.091 A 
ATOM     65  F   UNL A   1      43.794  34.210  27.510  1.00  0.00    -0.205 F 
ATOM     66  C   UNL A   1      46.014  35.533  30.106  1.00  0.00     0.022 A 
BRANCH  64  67
ATOM     67  S   UNL A   1      45.243  36.910  27.866  1.00  0.00     0.127 S 
ATOM     68  O   UNL A   1      45.641  36.332  26.583  1.00  0.00    -0.237 OA
ATOM     69  O   UNL A   1      43.849  37.349  27.932  1.00  0.00    -0.237 OA
ATOM     70  O   UNL A   1      46.197  37.841  28.454  1.00  0.00    -0.744 OA
ENDBRANCH  64  67
ENDBRANCH  37  60
ENDBRANCH  11  12
ENDBRANCH   4   6
ENDBRANCH   1   2
BRANCH   1  71
ATOM     71  C   UNL A   1      35.103  22.037  24.755  1.00  0.00     0.023 C 
BRANCH  71  72
ATOM     72  C   UNL A   1      35.457  23.135  23.755  1.00  0.00     0.023 C 
BRANCH  72  73
ATOM     73  C   UNL A   1      34.860  24.509  24.047  1.00  0.00     0.116 C 
BRANCH  73  74
ATOM     74  N   UNL A   1      33.877  24.927  23.060  1.00  0.00    -0.352 N 
ATOM     75  C   UNL A   1      32.505  24.869  23.117  1.00  0.00     0.251 C 
ATOM     76  H   UNL A   1      34.248  25.306  22.230  1.00  0.00     0.163 HD
ATOM     77  O   UNL A   1      31.820  25.280  22.188  1.00  0.00    -0.269 OA
BRANCH  75  78
ATOM     78  C   UNL A   1      31.858  24.305  24.321  1.00  0.00     0.047 A 
ATOM     79  C   UNL A   1      31.625  22.918  24.348  1.00  0.00     0.017 A 
ATOM     80  C   UNL A   1      31.516  25.125  25.418  1.00  0.00    -0.003 A 
ATOM     81  C   UNL A   1      30.972  22.342  25.434  1.00  0.00     0.040 A 
ATOM     82  C   UNL A   1      30.855  24.514  26.501  1.00  0.00     0.048 A 
ATOM     83  C   UNL A   1      30.583  23.148  26.494  1.00  0.00     0.123 A 
ATOM     84  F   UNL A   1      29.942  22.601  27.535  1.00  0.00    -0.207 F 
BRANCH  80  85
ATOM     85  C   UNL A   1      31.842  26.560  25.497  1.00  0.00    -0.016 A 
ATOM     86  C   UNL A   1      31.028  27.541  24.906  1.00  0.00     0.012 A 
ATOM     87  C   UNL A   1      33.001  26.977  26.181  1.00  0.00     0.032 A 
ATOM     88  C   UNL A   1      31.366  28.897  24.990  1.00  0.00     0.041 A 
ATOM     89  C   UNL A   1      33.333  28.331  26.269  1.00  0.00     0.077 A 
ATOM     90  C   UNL A   1      32.514  29.284  25.672  1.00  0.00     0.141 A 
ATOM     91  Cl  UNL A   1      34.751  28.799  27.127  1.00  0.00    -0.081 Cl
ATOM     92  F   UNL A   1      32.812  30.589  25.750  1.00  0.00    -0.205 F 
ENDBRANCH  80  85
ENDBRANCH  75  78
ENDBRANCH  73  74
ENDBRANCH  72  73
ENDBRANCH  71  72
ENDBRANCH   1  71
TORSDOF 15
ENDMDL
