MODEL 1
REMARK VINA RESULT:     -12.1      0.000      0.000
REMARK SMILES O=C(CC1(CN2CC3(CCCCC3)CC2=O)CCCCC1)NCCCCNC(=O)c1ccc(-c2c3nc(c(-c4cccc(S(=O)(=O)[O-])c4F)c4ccc([nH]4)c(-c4cccc(S(=O)(=O)[O-])c4F)c4nc(c(-c5cccc(S(=O)(=O)[O-])c5F)c5ccc2[nH]5)C=C4)C=C3)cc1
REMARK SMILES IDX 24 1 23 2 22 3 1 4 2 5 3 7 4 8 17 9 21 10 18 11 20 12 19 13
REMARK SMILES IDX 5 14 6 15 7 16 15 17 8 18 14 19 16 20 9 21 13 22 10 23 12 24
REMARK SMILES IDX 11 25 25 26 26 27 27 28 28 29 29 31 30 32 31 33 92 34 32 35
REMARK SMILES IDX 91 36 33 37 34 38 35 39 85 40 36 41 90 42 84 43 86 44 37 45
REMARK SMILES IDX 89 46 83 47 82 48 38 50 70 51 50 52 69 53 51 54 54 55 68 56
REMARK SMILES IDX 87 57 52 58 53 59 67 61 88 62 55 63 39 64 40 65 48 66 41 67
REMARK SMILES IDX 43 68 49 69 42 70 44 71 45 72 46 73 47 74 71 75 72 76 80 77
REMARK SMILES IDX 73 78 75 79 81 80 74 81 76 82 77 83 78 84 79 85 56 86 57 87
REMARK SMILES IDX 65 88 58 89 60 90 66 91 59 92 61 93 62 94 63 95 64 96
REMARK H PARENT 22 6 27 30 86 49 54 60
REMARK Flexibility Score: inf
ROOT
ATOM      1  C   UNL A   1      31.795  27.562  25.732  1.00  0.00     0.023 C 
ENDROOT
BRANCH   1   2
ATOM      2  C   UNL A   1      30.952  26.393  26.241  1.00  0.00     0.116 C 
BRANCH   2   3
ATOM      3  N   UNL A   1      31.748  25.253  26.639  1.00  0.00    -0.356 N 
ATOM      4  O   UNL A   1      31.051  23.891  24.925  1.00  0.00    -0.275 OA
ATOM      5  C   UNL A   1      31.729  24.073  25.932  1.00  0.00     0.220 C 
ATOM      6  H   UNL A   1      32.318  25.324  27.437  1.00  0.00     0.163 HD
BRANCH   5   7
ATOM      7  C   UNL A   1      32.614  22.989  26.522  1.00  0.00     0.108 C 
BRANCH   7   8
ATOM      8  C   UNL A   1      33.846  22.599  25.667  1.00  0.00    -0.003 C 
ATOM      9  C   UNL A   1      34.579  23.937  25.290  1.00  0.00     0.009 C 
ATOM     10  C   UNL A   1      34.860  21.810  26.535  1.00  0.00     0.009 C 
ATOM     11  C   UNL A   1      35.943  23.739  24.612  1.00  0.00     0.001 C 
ATOM     12  C   UNL A   1      36.201  21.562  25.848  1.00  0.00     0.001 C 
ATOM     13  C   UNL A   1      36.873  22.865  25.442  1.00  0.00     0.000 C 
BRANCH   8  14
ATOM     14  C   UNL A   1      33.395  21.949  24.317  1.00  0.00     0.127 C 
BRANCH  14  15
ATOM     15  N   UNL A   1      32.442  20.844  24.245  1.00  0.00    -0.342 N 
ATOM     16  C   UNL A   1      32.316  19.805  25.230  1.00  0.00     0.127 C 
ATOM     17  C   UNL A   1      32.196  20.274  22.980  1.00  0.00     0.223 C 
ATOM     18  C   UNL A   1      32.785  18.536  24.508  1.00  0.00    -0.003 C 
ATOM     19  C   UNL A   1      32.104  18.761  23.143  1.00  0.00     0.109 C 
ATOM     20  O   UNL A   1      32.104  20.878  21.923  1.00  0.00    -0.275 OA
ATOM     21  C   UNL A   1      34.331  18.585  24.378  1.00  0.00     0.009 C 
ATOM     22  C   UNL A   1      32.281  17.303  25.283  1.00  0.00     0.009 C 
ATOM     23  C   UNL A   1      35.004  17.254  24.113  1.00  0.00     0.001 C 
ATOM     24  C   UNL A   1      33.087  16.021  25.086  1.00  0.00     0.001 C 
ATOM     25  C   UNL A   1      34.586  16.261  25.181  1.00  0.00     0.000 C 
ENDBRANCH  14  15
ENDBRANCH   8  14
ENDBRANCH   7   8
ENDBRANCH   5   7
ENDBRANCH   2   3
ENDBRANCH   1   2
BRANCH   1  26
ATOM     26  C   UNL A   1      33.080  27.847  26.519  1.00  0.00     0.023 C 
BRANCH  26  27
ATOM     27  C   UNL A   1      33.964  28.960  25.963  1.00  0.00     0.116 C 
BRANCH  27  28
ATOM     28  N   UNL A   1      33.804  30.223  26.665  1.00  0.00    -0.352 N 
ATOM     29  C   UNL A   1      34.571  30.794  27.653  1.00  0.00     0.251 C 
ATOM     30  H   UNL A   1      33.022  30.755  26.388  1.00  0.00     0.163 HD
ATOM     31  O   UNL A   1      34.183  31.838  28.177  1.00  0.00    -0.269 OA
BRANCH  29  32
ATOM     32  C   UNL A   1      35.833  30.168  28.122  1.00  0.00     0.039 A 
ATOM     33  C   UNL A   1      36.965  30.265  27.304  1.00  0.00     0.014 A 
ATOM     34  C   UNL A   1      35.916  29.463  29.325  1.00  0.00     0.014 A 
ATOM     35  C   UNL A   1      38.185  29.721  27.721  1.00  0.00     0.010 A 
ATOM     36  C   UNL A   1      37.148  28.971  29.769  1.00  0.00     0.010 A 
ATOM     37  C   UNL A   1      38.297  29.099  28.975  1.00  0.00    -0.014 A 
BRANCH  37  38
ATOM     38  C   UNL A   1      39.614  28.623  29.483  1.00  0.00     0.031 A 
ATOM     39  C   UNL A   1      40.341  29.365  30.572  1.00  0.00     0.074 A 
ATOM     40  C   UNL A   1      40.200  27.556  28.902  1.00  0.00     0.049 A 
ATOM     41  N   UNL A   1      41.507  29.107  31.108  1.00  0.00    -0.248 NA
ATOM     42  C   UNL A   1      39.683  30.562  31.118  1.00  0.00     0.031 C 
ATOM     43  C   UNL A   1      39.643  26.793  27.783  1.00  0.00     0.029 A 
ATOM     44  N   UNL A   1      41.406  26.946  29.151  1.00  0.00    -0.354 N 
ATOM     45  C   UNL A   1      41.737  30.120  32.031  1.00  0.00     0.074 A 
ATOM     46  C   UNL A   1      40.599  31.012  31.966  1.00  0.00     0.031 C 
ATOM     47  C   UNL A   1      40.505  25.822  27.441  1.00  0.00     0.029 A 
ATOM     48  C   UNL A   1      41.684  25.905  28.297  1.00  0.00     0.049 A 
ATOM     49  H   UNL A   1      42.013  27.229  29.872  1.00  0.00     0.167 HD
ATOM     50  C   UNL A   1      42.785  30.280  32.876  1.00  0.00     0.034 A 
ATOM     51  C   UNL A   1      42.767  25.107  28.207  1.00  0.00     0.034 A 
ATOM     52  C   UNL A   1      43.898  29.373  32.974  1.00  0.00     0.049 A 
ATOM     53  C   UNL A   1      43.898  25.281  29.185  1.00  0.00     0.074 A 
ATOM     54  C   UNL A   1      44.959  29.406  33.863  1.00  0.00     0.029 A 
ATOM     55  N   UNL A   1      44.101  28.274  32.154  1.00  0.00    -0.354 N 
ATOM     56  N   UNL A   1      44.013  26.142  30.167  1.00  0.00    -0.248 NA
ATOM     57  C   UNL A   1      45.029  24.350  29.068  1.00  0.00     0.031 C 
ATOM     58  C   UNL A   1      45.811  28.335  33.571  1.00  0.00     0.029 A 
ATOM     59  C   UNL A   1      45.273  27.626  32.511  1.00  0.00     0.049 A 
ATOM     60  H   UNL A   1      43.500  27.995  31.426  1.00  0.00     0.167 HD
ATOM     61  C   UNL A   1      45.210  25.836  30.804  1.00  0.00     0.074 A 
ATOM     62  C   UNL A   1      45.773  24.695  30.110  1.00  0.00     0.031 C 
ATOM     63  C   UNL A   1      45.799  26.456  31.855  1.00  0.00     0.034 A 
BRANCH  50  64
ATOM     64  C   UNL A   1      42.749  31.453  33.821  1.00  0.00     0.023 A 
ATOM     65  C   UNL A   1      43.278  32.690  33.403  1.00  0.00     0.012 A 
ATOM     66  C   UNL A   1      42.133  31.357  35.085  1.00  0.00     0.148 A 
ATOM     67  C   UNL A   1      43.222  33.807  34.236  1.00  0.00     0.002 A 
ATOM     68  C   UNL A   1      42.046  32.484  35.896  1.00  0.00     0.091 A 
ATOM     69  F   UNL A   1      41.653  30.167  35.475  1.00  0.00    -0.205 F 
ATOM     70  C   UNL A   1      42.597  33.706  35.477  1.00  0.00     0.022 A 
BRANCH  68  71
ATOM     71  S   UNL A   1      41.198  32.472  37.480  1.00  0.00     0.127 S 
ATOM     72  O   UNL A   1      39.894  31.922  37.111  1.00  0.00    -0.237 OA
ATOM     73  O   UNL A   1      42.035  31.573  38.275  1.00  0.00    -0.237 OA
ATOM     74  O   UNL A   1      41.190  33.854  37.938  1.00  0.00    -0.744 OA
ENDBRANCH  68  71
ENDBRANCH  50  64
BRANCH  51  75
ATOM     75  C   UNL A   1      42.799  24.014  27.193  1.00  0.00     0.023 A 
ATOM     76  C   UNL A   1      43.496  24.216  25.987  1.00  0.00     0.012 A 
ATOM     77  C   UNL A   1      42.175  22.773  27.427  1.00  0.00     0.148 A 
ATOM     78  C   UNL A   1      43.550  23.213  25.019  1.00  0.00     0.002 A 
ATOM     79  C   UNL A   1      42.277  21.759  26.481  1.00  0.00     0.091 A 
ATOM     80  F   UNL A   1      41.502  22.606  28.575  1.00  0.00    -0.205 F 
ATOM     81  C   UNL A   1      42.951  21.982  25.270  1.00  0.00     0.022 A 
BRANCH  79  82
ATOM     82  S   UNL A   1      41.647  20.103  26.777  1.00  0.00     0.127 S 
ATOM     83  O   UNL A   1      40.289  20.378  27.241  1.00  0.00    -0.237 OA
ATOM     84  O   UNL A   1      41.732  19.501  25.446  1.00  0.00    -0.237 OA
ATOM     85  O   UNL A   1      42.546  19.512  27.759  1.00  0.00    -0.744 OA
ENDBRANCH  79  82
ENDBRANCH  51  75
BRANCH  63  86
ATOM     86  C   UNL A   1      47.111  25.906  32.350  1.00  0.00     0.023 A 
ATOM     87  C   UNL A   1      48.318  26.400  31.816  1.00  0.00     0.012 A 
ATOM     88  C   UNL A   1      47.154  24.960  33.393  1.00  0.00     0.148 A 
ATOM     89  C   UNL A   1      49.546  25.938  32.291  1.00  0.00     0.002 A 
ATOM     90  C   UNL A   1      48.381  24.536  33.892  1.00  0.00     0.091 A 
ATOM     91  F   UNL A   1      45.996  24.485  33.874  1.00  0.00    -0.205 F 
ATOM     92  C   UNL A   1      49.577  25.017  33.335  1.00  0.00     0.022 A 
BRANCH  90  93
ATOM     93  S   UNL A   1      48.515  23.421  35.294  1.00  0.00     0.127 S 
ATOM     94  O   UNL A   1      47.915  22.200  34.762  1.00  0.00    -0.237 OA
ATOM     95  O   UNL A   1      49.962  23.349  35.501  1.00  0.00    -0.237 OA
ATOM     96  O   UNL A   1      47.784  24.059  36.381  1.00  0.00    -0.744 OA
ENDBRANCH  90  93
ENDBRANCH  63  86
ENDBRANCH  37  38
ENDBRANCH  29  32
ENDBRANCH  27  28
ENDBRANCH  26  27
ENDBRANCH   1  26
TORSDOF 17
ENDMDL
MODEL 2
REMARK VINA RESULT:     -11.9      2.965      8.425
REMARK SMILES O=C(CC1(CN2CC3(CCCCC3)CC2=O)CCCCC1)NCCCCNC(=O)c1ccc(-c2c3nc(c(-c4cccc(S(=O)(=O)[O-])c4F)c4ccc([nH]4)c(-c4cccc(S(=O)(=O)[O-])c4F)c4nc(c(-c5cccc(S(=O)(=O)[O-])c5F)c5ccc2[nH]5)C=C4)C=C3)cc1
REMARK SMILES IDX 24 1 23 2 22 3 1 4 2 5 3 7 4 8 17 9 21 10 18 11 20 12 19 13
REMARK SMILES IDX 5 14 6 15 7 16 15 17 8 18 14 19 16 20 9 21 13 22 10 23 12 24
REMARK SMILES IDX 11 25 25 26 26 27 27 28 28 29 29 31 30 32 31 33 92 34 32 35
REMARK SMILES IDX 91 36 33 37 34 38 35 39 85 40 36 41 90 42 84 43 86 44 37 45
REMARK SMILES IDX 89 46 83 47 82 48 38 50 70 51 50 52 69 53 51 54 54 55 68 56
REMARK SMILES IDX 87 57 52 58 53 59 67 61 88 62 55 63 39 64 40 65 48 66 41 67
REMARK SMILES IDX 43 68 49 69 42 70 44 71 45 72 46 73 47 74 71 75 72 76 80 77
REMARK SMILES IDX 73 78 75 79 81 80 74 81 76 82 77 83 78 84 79 85 56 86 57 87
REMARK SMILES IDX 65 88 58 89 60 90 66 91 59 92 61 93 62 94 63 95 64 96
REMARK H PARENT 22 6 27 30 86 49 54 60
REMARK Flexibility Score: inf
ROOT
ATOM      1  C   UNL A   1      30.155  32.117  24.986  1.00  0.00     0.023 C 
ENDROOT
BRANCH   1   2
ATOM      2  C   UNL A   1      29.707  31.066  23.971  1.00  0.00     0.116 C 
BRANCH   2   3
ATOM      3  N   UNL A   1      30.723  30.073  23.700  1.00  0.00    -0.356 N 
ATOM      4  O   UNL A   1      29.249  28.371  23.246  1.00  0.00    -0.275 OA
ATOM      5  C   UNL A   1      30.400  28.781  23.353  1.00  0.00     0.220 C 
ATOM      6  H   UNL A   1      31.671  30.328  23.766  1.00  0.00     0.163 HD
BRANCH   5   7
ATOM      7  C   UNL A   1      31.606  27.885  23.133  1.00  0.00     0.108 C 
BRANCH   7   8
ATOM      8  C   UNL A   1      32.443  27.573  24.399  1.00  0.00    -0.003 C 
ATOM      9  C   UNL A   1      33.293  28.859  24.709  1.00  0.00     0.009 C 
ATOM     10  C   UNL A   1      31.504  27.402  25.621  1.00  0.00     0.009 C 
ATOM     11  C   UNL A   1      34.036  28.814  26.052  1.00  0.00     0.001 C 
ATOM     12  C   UNL A   1      32.239  27.302  26.956  1.00  0.00     0.001 C 
ATOM     13  C   UNL A   1      33.097  28.531  27.217  1.00  0.00     0.000 C 
BRANCH   8  14
ATOM     14  C   UNL A   1      33.469  26.427  24.112  1.00  0.00     0.127 C 
BRANCH  14  15
ATOM     15  N   UNL A   1      33.066  25.051  23.831  1.00  0.00    -0.342 N 
ATOM     16  C   UNL A   1      33.143  23.966  24.771  1.00  0.00     0.127 C 
ATOM     17  C   UNL A   1      33.349  24.535  22.551  1.00  0.00     0.223 C 
ATOM     18  C   UNL A   1      34.218  23.038  24.194  1.00  0.00    -0.003 C 
ATOM     19  C   UNL A   1      33.822  23.094  22.705  1.00  0.00     0.109 C 
ATOM     20  O   UNL A   1      33.263  25.142  21.494  1.00  0.00    -0.275 OA
ATOM     21  C   UNL A   1      35.608  23.684  24.431  1.00  0.00     0.009 C 
ATOM     22  C   UNL A   1      34.079  21.647  24.844  1.00  0.00     0.009 C 
ATOM     23  C   UNL A   1      36.789  22.739  24.347  1.00  0.00     0.001 C 
ATOM     24  C   UNL A   1      35.344  20.792  24.856  1.00  0.00     0.001 C 
ATOM     25  C   UNL A   1      36.569  21.579  25.299  1.00  0.00     0.000 C 
ENDBRANCH  14  15
ENDBRANCH   8  14
ENDBRANCH   7   8
ENDBRANCH   5   7
ENDBRANCH   2   3
ENDBRANCH   1   2
BRANCH   1  26
ATOM     26  C   UNL A   1      30.830  31.574  26.251  1.00  0.00     0.023 C 
BRANCH  26  27
ATOM     27  C   UNL A   1      32.215  32.138  26.559  1.00  0.00     0.116 C 
BRANCH  27  28
ATOM     28  N   UNL A   1      32.177  33.486  27.102  1.00  0.00    -0.352 N 
ATOM     29  C   UNL A   1      32.992  34.093  28.028  1.00  0.00     0.251 C 
ATOM     30  H   UNL A   1      31.453  34.053  26.751  1.00  0.00     0.163 HD
ATOM     31  O   UNL A   1      32.707  35.226  28.418  1.00  0.00    -0.269 OA
BRANCH  29  32
ATOM     32  C   UNL A   1      34.184  33.408  28.588  1.00  0.00     0.039 A 
ATOM     33  C   UNL A   1      35.388  34.120  28.655  1.00  0.00     0.014 A 
ATOM     34  C   UNL A   1      34.151  32.078  29.014  1.00  0.00     0.014 A 
ATOM     35  C   UNL A   1      36.529  33.526  29.208  1.00  0.00     0.010 A 
ATOM     36  C   UNL A   1      35.273  31.505  29.621  1.00  0.00     0.010 A 
ATOM     37  C   UNL A   1      36.473  32.223  29.729  1.00  0.00    -0.014 A 
BRANCH  37  38
ATOM     38  C   UNL A   1      37.644  31.624  30.428  1.00  0.00     0.031 A 
ATOM     39  C   UNL A   1      38.491  30.573  29.764  1.00  0.00     0.074 A 
ATOM     40  C   UNL A   1      37.900  31.974  31.706  1.00  0.00     0.049 A 
ATOM     41  N   UNL A   1      39.525  29.926  30.240  1.00  0.00    -0.248 NA
ATOM     42  C   UNL A   1      38.120  30.184  28.395  1.00  0.00     0.031 C 
ATOM     43  C   UNL A   1      37.111  32.920  32.496  1.00  0.00     0.029 A 
ATOM     44  N   UNL A   1      38.878  31.551  32.574  1.00  0.00    -0.354 N 
ATOM     45  C   UNL A   1      39.911  29.035  29.246  1.00  0.00     0.074 A 
ATOM     46  C   UNL A   1      38.984  29.208  28.146  1.00  0.00     0.031 C 
ATOM     47  C   UNL A   1      37.632  33.004  33.731  1.00  0.00     0.029 A 
ATOM     48  C   UNL A   1      38.776  32.102  33.830  1.00  0.00     0.049 A 
ATOM     49  H   UNL A   1      39.583  30.913  32.322  1.00  0.00     0.167 HD
ATOM     50  C   UNL A   1      40.956  28.172  29.234  1.00  0.00     0.034 A 
ATOM     51  C   UNL A   1      39.514  31.904  34.940  1.00  0.00     0.034 A 
ATOM     52  C   UNL A   1      41.903  28.027  30.307  1.00  0.00     0.049 A 
ATOM     53  C   UNL A   1      40.694  30.970  34.887  1.00  0.00     0.074 A 
ATOM     54  C   UNL A   1      43.045  27.243  30.347  1.00  0.00     0.029 A 
ATOM     55  N   UNL A   1      41.822  28.671  31.531  1.00  0.00    -0.354 N 
ATOM     56  N   UNL A   1      41.144  30.268  33.875  1.00  0.00    -0.248 NA
ATOM     57  C   UNL A   1      41.490  30.833  36.115  1.00  0.00     0.031 C 
ATOM     58  C   UNL A   1      43.645  27.404  31.601  1.00  0.00     0.029 A 
ATOM     59  C   UNL A   1      42.886  28.299  32.336  1.00  0.00     0.049 A 
ATOM     60  H   UNL A   1      41.112  29.303  31.790  1.00  0.00     0.167 HD
ATOM     61  C   UNL A   1      42.291  29.631  34.334  1.00  0.00     0.074 A 
ATOM     62  C   UNL A   1      42.482  30.050  35.708  1.00  0.00     0.031 C 
ATOM     63  C   UNL A   1      43.103  28.764  33.682  1.00  0.00     0.034 A 
BRANCH  50  64
ATOM     64  C   UNL A   1      41.175  27.356  27.987  1.00  0.00     0.023 A 
ATOM     65  C   UNL A   1      41.726  27.976  26.847  1.00  0.00     0.012 A 
ATOM     66  C   UNL A   1      40.909  25.972  27.960  1.00  0.00     0.148 A 
ATOM     67  C   UNL A   1      41.983  27.240  25.691  1.00  0.00     0.002 A 
ATOM     68  C   UNL A   1      41.202  25.237  26.816  1.00  0.00     0.091 A 
ATOM     69  F   UNL A   1      40.366  25.403  29.046  1.00  0.00    -0.205 F 
ATOM     70  C   UNL A   1      41.731  25.870  25.679  1.00  0.00     0.022 A 
BRANCH  68  71
ATOM     71  S   UNL A   1      40.981  23.456  26.728  1.00  0.00     0.127 S 
ATOM     72  O   UNL A   1      41.442  23.037  28.051  1.00  0.00    -0.237 OA
ATOM     73  O   UNL A   1      39.538  23.332  26.519  1.00  0.00    -0.237 OA
ATOM     74  O   UNL A   1      41.795  23.008  25.608  1.00  0.00    -0.744 OA
ENDBRANCH  68  71
ENDBRANCH  50  64
BRANCH  51  75
ATOM     75  C   UNL A   1      39.203  32.667  36.182  1.00  0.00     0.023 A 
ATOM     76  C   UNL A   1      39.636  34.002  36.295  1.00  0.00     0.012 A 
ATOM     77  C   UNL A   1      38.458  32.095  37.232  1.00  0.00     0.148 A 
ATOM     78  C   UNL A   1      39.358  34.746  37.441  1.00  0.00     0.002 A 
ATOM     79  C   UNL A   1      38.138  32.858  38.349  1.00  0.00     0.091 A 
ATOM     80  F   UNL A   1      38.069  30.817  37.112  1.00  0.00    -0.205 F 
ATOM     81  C   UNL A   1      38.600  34.179  38.463  1.00  0.00     0.022 A 
BRANCH  79  82
ATOM     82  S   UNL A   1      37.060  32.250  39.651  1.00  0.00     0.127 S 
ATOM     83  O   UNL A   1      36.825  33.461  40.435  1.00  0.00    -0.237 OA
ATOM     84  O   UNL A   1      35.903  31.774  38.892  1.00  0.00    -0.237 OA
ATOM     85  O   UNL A   1      37.811  31.197  40.320  1.00  0.00    -0.744 OA
ENDBRANCH  79  82
ENDBRANCH  51  75
BRANCH  63  86
ATOM     86  C   UNL A   1      44.295  28.221  34.427  1.00  0.00     0.023 A 
ATOM     87  C   UNL A   1      45.509  28.936  34.414  1.00  0.00     0.012 A 
ATOM     88  C   UNL A   1      44.193  27.048  35.200  1.00  0.00     0.148 A 
ATOM     89  C   UNL A   1      46.611  28.476  35.134  1.00  0.00     0.002 A 
ATOM     90  C   UNL A   1      45.283  26.619  35.951  1.00  0.00     0.091 A 
ATOM     91  F   UNL A   1      43.037  26.369  35.184  1.00  0.00    -0.205 F 
ATOM     92  C   UNL A   1      46.495  27.327  35.911  1.00  0.00     0.022 A 
BRANCH  90  93
ATOM     93  S   UNL A   1      45.193  25.199  37.049  1.00  0.00     0.127 S 
ATOM     94  O   UNL A   1      46.582  25.073  37.487  1.00  0.00    -0.237 OA
ATOM     95  O   UNL A   1      44.267  25.662  38.084  1.00  0.00    -0.237 OA
ATOM     96  O   UNL A   1      44.687  24.100  36.238  1.00  0.00    -0.744 OA
ENDBRANCH  90  93
ENDBRANCH  63  86
ENDBRANCH  37  38
ENDBRANCH  29  32
ENDBRANCH  27  28
ENDBRANCH  26  27
ENDBRANCH   1  26
TORSDOF 17
ENDMDL
MODEL 3
REMARK VINA RESULT:     -11.9      4.368      9.642
REMARK SMILES O=C(CC1(CN2CC3(CCCCC3)CC2=O)CCCCC1)NCCCCNC(=O)c1ccc(-c2c3nc(c(-c4cccc(S(=O)(=O)[O-])c4F)c4ccc([nH]4)c(-c4cccc(S(=O)(=O)[O-])c4F)c4nc(c(-c5cccc(S(=O)(=O)[O-])c5F)c5ccc2[nH]5)C=C4)C=C3)cc1
REMARK SMILES IDX 24 1 23 2 22 3 1 4 2 5 3 7 4 8 17 9 21 10 18 11 20 12 19 13
REMARK SMILES IDX 5 14 6 15 7 16 15 17 8 18 14 19 16 20 9 21 13 22 10 23 12 24
REMARK SMILES IDX 11 25 25 26 26 27 27 28 28 29 29 31 30 32 31 33 92 34 32 35
REMARK SMILES IDX 91 36 33 37 34 38 35 39 85 40 36 41 90 42 84 43 86 44 37 45
REMARK SMILES IDX 89 46 83 47 82 48 38 50 70 51 50 52 69 53 51 54 54 55 68 56
REMARK SMILES IDX 87 57 52 58 53 59 67 61 88 62 55 63 39 64 40 65 48 66 41 67
REMARK SMILES IDX 43 68 49 69 42 70 44 71 45 72 46 73 47 74 71 75 72 76 80 77
REMARK SMILES IDX 73 78 75 79 81 80 74 81 76 82 77 83 78 84 79 85 56 86 57 87
REMARK SMILES IDX 65 88 58 89 60 90 66 91 59 92 61 93 62 94 63 95 64 96
REMARK H PARENT 22 6 27 30 86 49 54 60
REMARK Flexibility Score: inf
ROOT
ATOM      1  C   UNL A   1      31.695  30.182  27.249  1.00  0.00     0.023 C 
ENDROOT
BRANCH   1   2
ATOM      2  C   UNL A   1      33.046  29.473  27.340  1.00  0.00     0.116 C 
BRANCH   2   3
ATOM      3  N   UNL A   1      33.122  28.294  26.504  1.00  0.00    -0.356 N 
ATOM      4  O   UNL A   1      31.380  27.193  27.520  1.00  0.00    -0.275 OA
ATOM      5  C   UNL A   1      32.264  27.231  26.669  1.00  0.00     0.220 C 
ATOM      6  H   UNL A   1      33.806  28.252  25.799  1.00  0.00     0.163 HD
BRANCH   5   7
ATOM      7  C   UNL A   1      32.520  26.082  25.710  1.00  0.00     0.108 C 
BRANCH   7   8
ATOM      8  C   UNL A   1      32.217  26.379  24.220  1.00  0.00    -0.003 C 
ATOM      9  C   UNL A   1      33.595  26.685  23.529  1.00  0.00     0.009 C 
ATOM     10  C   UNL A   1      31.689  25.097  23.525  1.00  0.00     0.009 C 
ATOM     11  C   UNL A   1      33.521  26.804  22.000  1.00  0.00     0.001 C 
ATOM     12  C   UNL A   1      31.561  25.225  22.009  1.00  0.00     0.001 C 
ATOM     13  C   UNL A   1      32.893  25.572  21.360  1.00  0.00     0.000 C 
BRANCH   8  14
ATOM     14  C   UNL A   1      31.358  27.679  24.083  1.00  0.00     0.127 C 
BRANCH  14  15
ATOM     15  N   UNL A   1      30.333  27.850  23.055  1.00  0.00    -0.342 N 
ATOM     16  C   UNL A   1      30.331  28.890  22.064  1.00  0.00     0.127 C 
ATOM     17  C   UNL A   1      28.995  27.595  23.418  1.00  0.00     0.223 C 
ATOM     18  C   UNL A   1      29.126  29.765  22.431  1.00  0.00    -0.003 C 
ATOM     19  C   UNL A   1      28.110  28.657  22.775  1.00  0.00     0.109 C 
ATOM     20  O   UNL A   1      28.605  26.698  24.149  1.00  0.00    -0.275 OA
ATOM     21  C   UNL A   1      29.488  30.603  23.685  1.00  0.00     0.009 C 
ATOM     22  C   UNL A   1      28.746  30.630  21.213  1.00  0.00     0.009 C 
ATOM     23  C   UNL A   1      28.626  31.826  23.923  1.00  0.00     0.001 C 
ATOM     24  C   UNL A   1      27.999  31.925  21.528  1.00  0.00     0.001 C 
ATOM     25  C   UNL A   1      28.633  32.692  22.678  1.00  0.00     0.000 C 
ENDBRANCH  14  15
ENDBRANCH   8  14
ENDBRANCH   7   8
ENDBRANCH   5   7
ENDBRANCH   2   3
ENDBRANCH   1   2
BRANCH   1  26
ATOM     26  C   UNL A   1      31.724  31.591  26.645  1.00  0.00     0.023 C 
BRANCH  26  27
ATOM     27  C   UNL A   1      32.948  32.436  26.990  1.00  0.00     0.116 C 
BRANCH  27  28
ATOM     28  N   UNL A   1      32.610  33.766  27.470  1.00  0.00    -0.352 N 
ATOM     29  C   UNL A   1      33.150  34.503  28.497  1.00  0.00     0.251 C 
ATOM     30  H   UNL A   1      31.878  34.209  26.982  1.00  0.00     0.163 HD
ATOM     31  O   UNL A   1      32.631  35.580  28.792  1.00  0.00    -0.269 OA
BRANCH  29  32
ATOM     32  C   UNL A   1      34.319  34.020  29.275  1.00  0.00     0.039 A 
ATOM     33  C   UNL A   1      34.087  33.157  30.353  1.00  0.00     0.014 A 
ATOM     34  C   UNL A   1      35.625  34.424  28.990  1.00  0.00     0.014 A 
ATOM     35  C   UNL A   1      35.161  32.649  31.092  1.00  0.00     0.010 A 
ATOM     36  C   UNL A   1      36.702  33.870  29.689  1.00  0.00     0.010 A 
ATOM     37  C   UNL A   1      36.483  32.973  30.745  1.00  0.00    -0.014 A 
BRANCH  37  38
ATOM     38  C   UNL A   1      37.638  32.345  31.446  1.00  0.00     0.031 A 
ATOM     39  C   UNL A   1      38.386  31.193  30.831  1.00  0.00     0.074 A 
ATOM     40  C   UNL A   1      37.967  32.765  32.685  1.00  0.00     0.049 A 
ATOM     41  N   UNL A   1      39.393  30.512  31.317  1.00  0.00    -0.248 NA
ATOM     42  C   UNL A   1      37.937  30.735  29.507  1.00  0.00     0.031 C 
ATOM     43  C   UNL A   1      37.274  33.817  33.430  1.00  0.00     0.029 A 
ATOM     44  N   UNL A   1      38.947  32.338  33.547  1.00  0.00    -0.354 N 
ATOM     45  C   UNL A   1      39.680  29.529  30.377  1.00  0.00     0.074 A 
ATOM     46  C   UNL A   1      38.724  29.687  29.301  1.00  0.00     0.031 C 
ATOM     47  C   UNL A   1      37.847  33.951  34.637  1.00  0.00     0.029 A 
ATOM     48  C   UNL A   1      38.931  32.982  34.762  1.00  0.00     0.049 A 
ATOM     49  H   UNL A   1      39.598  31.637  33.318  1.00  0.00     0.167 HD
ATOM     50  C   UNL A   1      40.664  28.597  30.393  1.00  0.00     0.034 A 
ATOM     51  C   UNL A   1      39.698  32.812  35.858  1.00  0.00     0.034 A 
ATOM     52  C   UNL A   1      41.641  28.463  31.440  1.00  0.00     0.049 A 
ATOM     53  C   UNL A   1      40.810  31.798  35.832  1.00  0.00     0.074 A 
ATOM     54  C   UNL A   1      42.729  27.607  31.498  1.00  0.00     0.029 A 
ATOM     55  N   UNL A   1      41.651  29.196  32.616  1.00  0.00    -0.354 N 
ATOM     56  N   UNL A   1      41.172  30.996  34.860  1.00  0.00    -0.248 NA
ATOM     57  C   UNL A   1      41.643  31.692  37.039  1.00  0.00     0.031 C 
ATOM     58  C   UNL A   1      43.387  27.814  32.715  1.00  0.00     0.029 A 
ATOM     59  C   UNL A   1      42.719  28.809  33.409  1.00  0.00     0.049 A 
ATOM     60  H   UNL A   1      40.995  29.891  32.853  1.00  0.00     0.167 HD
ATOM     61  C   UNL A   1      42.293  30.316  35.324  1.00  0.00     0.074 A 
ATOM     62  C   UNL A   1      42.564  30.817  36.657  1.00  0.00     0.031 C 
ATOM     63  C   UNL A   1      43.019  29.351  34.709  1.00  0.00     0.034 A 
BRANCH  50  64
ATOM     64  C   UNL A   1      40.780  27.682  29.202  1.00  0.00     0.023 A 
ATOM     65  C   UNL A   1      39.979  26.523  29.143  1.00  0.00     0.012 A 
ATOM     66  C   UNL A   1      41.618  27.997  28.114  1.00  0.00     0.148 A 
ATOM     67  C   UNL A   1      40.030  25.678  28.036  1.00  0.00     0.002 A 
ATOM     68  C   UNL A   1      41.636  27.170  26.996  1.00  0.00     0.091 A 
ATOM     69  F   UNL A   1      42.388  29.092  28.195  1.00  0.00    -0.205 F 
ATOM     70  C   UNL A   1      40.850  26.006  26.959  1.00  0.00     0.022 A 
BRANCH  68  71
ATOM     71  S   UNL A   1      42.605  27.546  25.530  1.00  0.00     0.127 S 
ATOM     72  O   UNL A   1      42.343  26.374  24.696  1.00  0.00    -0.237 OA
ATOM     73  O   UNL A   1      41.982  28.782  25.055  1.00  0.00    -0.237 OA
ATOM     74  O   UNL A   1      43.978  27.697  25.988  1.00  0.00    -0.744 OA
ENDBRANCH  68  71
ENDBRANCH  50  64
BRANCH  51  75
ATOM     75  C   UNL A   1      39.487  33.681  37.051  1.00  0.00     0.023 A 
ATOM     76  C   UNL A   1      39.917  35.021  37.010  1.00  0.00     0.012 A 
ATOM     77  C   UNL A   1      38.839  33.201  38.206  1.00  0.00     0.148 A 
ATOM     78  C   UNL A   1      39.731  35.861  38.107  1.00  0.00     0.002 A 
ATOM     79  C   UNL A   1      38.609  34.059  39.276  1.00  0.00     0.091 A 
ATOM     80  F   UNL A   1      38.452  31.918  38.232  1.00  0.00    -0.205 F 
ATOM     81  C   UNL A   1      39.068  35.385  39.235  1.00  0.00     0.022 A 
BRANCH  79  82
ATOM     82  S   UNL A   1      37.651  33.566  40.714  1.00  0.00     0.127 S 
ATOM     83  O   UNL A   1      38.485  32.509  41.281  1.00  0.00    -0.237 OA
ATOM     84  O   UNL A   1      37.611  34.804  41.493  1.00  0.00    -0.237 OA
ATOM     85  O   UNL A   1      36.357  33.144  40.194  1.00  0.00    -0.744 OA
ENDBRANCH  79  82
ENDBRANCH  51  75
BRANCH  63  86
ATOM     86  C   UNL A   1      44.200  28.781  35.451  1.00  0.00     0.023 A 
ATOM     87  C   UNL A   1      45.477  29.348  35.267  1.00  0.00     0.012 A 
ATOM     88  C   UNL A   1      44.036  27.739  36.384  1.00  0.00     0.148 A 
ATOM     89  C   UNL A   1      46.576  28.866  35.977  1.00  0.00     0.002 A 
ATOM     90  C   UNL A   1      45.128  27.292  37.121  1.00  0.00     0.091 A 
ATOM     91  F   UNL A   1      42.818  27.197  36.531  1.00  0.00    -0.205 F 
ATOM     92  C   UNL A   1      46.400  27.849  36.911  1.00  0.00     0.022 A 
BRANCH  90  93
ATOM     93  S   UNL A   1      44.974  26.049  38.408  1.00  0.00     0.127 S 
ATOM     94  O   UNL A   1      44.328  24.953  37.689  1.00  0.00    -0.237 OA
ATOM     95  O   UNL A   1      46.370  25.800  38.772  1.00  0.00    -0.237 OA
ATOM     96  O   UNL A   1      44.180  26.664  39.464  1.00  0.00    -0.744 OA
ENDBRANCH  90  93
ENDBRANCH  63  86
ENDBRANCH  37  38
ENDBRANCH  29  32
ENDBRANCH  27  28
ENDBRANCH  26  27
ENDBRANCH   1  26
TORSDOF 17
ENDMDL
