MODEL 1
REMARK VINA RESULT:     -12.5      0.000      0.000
REMARK SMILES CC(C)(C)c1cc2c(cc1Cl)C=C(C(=O)NCCCCNC(=O)c1ccc(-c3c4nc(c(-c5cccc(S(=O)(=O)[O-])c5F)c5ccc([nH]5)c(-c5cccc(S(=O)(=O)[O-])c5F)c5nc(c(-c6cccc(S(=O)(=O)[O-])c6F)c6ccc3[nH]6)C=C5)C=C4)cc1)[C@@H](C(F)(F)F)O2
REMARK SMILES IDX 19 1 18 2 17 3 16 4 14 5 15 6 13 8 5 9 6 10 10 11 7 12 9 13
REMARK SMILES IDX 11 14 8 15 92 16 12 17 87 18 2 19 1 20 3 21 4 22 88 23 89 24
REMARK SMILES IDX 90 25 91 26 20 27 21 28 22 29 23 31 24 32 25 33 86 34 26 35
REMARK SMILES IDX 85 36 27 37 28 38 29 39 79 40 30 41 84 42 78 43 80 44 31 45
REMARK SMILES IDX 83 46 77 47 76 48 32 50 64 51 44 52 63 53 45 54 48 55 62 56
REMARK SMILES IDX 81 57 46 58 47 59 61 61 82 62 49 63 33 64 34 65 42 66 35 67
REMARK SMILES IDX 37 68 43 69 36 70 38 71 39 72 40 73 41 74 65 75 66 76 74 77
REMARK SMILES IDX 67 78 69 79 75 80 68 81 70 82 71 83 72 84 73 85 50 86 51 87
REMARK SMILES IDX 59 88 52 89 54 90 60 91 53 92 55 93 56 94 57 95 58 96
REMARK H PARENT 16 7 21 30 80 49 48 60
REMARK Flexibility Score: inf
ROOT
ATOM      1  C   UNL A   1      37.089  22.220  24.385  1.00  0.00     0.023 C 
ENDROOT
BRANCH   1   2
ATOM      2  C   UNL A   1      35.775  21.549  23.977  1.00  0.00     0.023 C 
BRANCH   2   3
ATOM      3  C   UNL A   1      35.366  20.377  24.865  1.00  0.00     0.116 C 
BRANCH   3   4
ATOM      4  N   UNL A   1      33.945  20.086  24.773  1.00  0.00    -0.352 N 
ATOM      5  C   UNL A   1      32.785  20.754  24.977  1.00  0.00     0.251 C 
ATOM      6  O   UNL A   1      31.756  20.103  24.774  1.00  0.00    -0.270 OA
ATOM      7  H   UNL A   1      33.783  19.158  24.488  1.00  0.00     0.163 HD
BRANCH   5   8
ATOM      8  C   UNL A   1      32.676  22.176  25.422  1.00  0.00     0.067 C 
ATOM      9  C   UNL A   1      32.459  27.268  25.531  1.00  0.00    -0.020 A 
ATOM     10  C   UNL A   1      32.139  26.213  26.414  1.00  0.00     0.053 A 
ATOM     11  C   UNL A   1      32.942  26.879  24.258  1.00  0.00     0.045 A 
ATOM     12  C   UNL A   1      32.299  24.870  26.065  1.00  0.00     0.128 A 
ATOM     13  C   UNL A   1      33.104  25.522  23.915  1.00  0.00     0.032 A 
ATOM     14  Cl  UNL A   1      33.335  27.987  22.987  1.00  0.00    -0.084 Cl
ATOM     15  C   UNL A   1      32.777  24.513  24.816  1.00  0.00     0.019 A 
ATOM     16  O   UNL A   1      31.902  23.956  26.996  1.00  0.00    -0.475 OA
ATOM     17  C   UNL A   1      32.865  23.103  24.462  1.00  0.00     0.025 C 
ATOM     18  C   UNL A   1      32.415  22.603  26.839  1.00  0.00     0.314 C 
BRANCH   9  19
ATOM     19  C   UNL A   1      32.215  28.731  25.980  1.00  0.00    -0.012 C 
ATOM     20  C   UNL A   1      31.270  29.495  25.026  1.00  0.00     0.016 C 
ATOM     21  C   UNL A   1      33.513  29.587  26.027  1.00  0.00     0.016 C 
ATOM     22  C   UNL A   1      31.647  28.738  27.416  1.00  0.00     0.016 C 
ENDBRANCH   9  19
BRANCH  18  23
ATOM     23  C   UNL A   1      33.647  22.432  27.746  1.00  0.00     0.429 C 
ATOM     24  F   UNL A   1      33.381  22.891  28.995  1.00  0.00    -0.167 F 
ATOM     25  F   UNL A   1      34.020  21.139  27.883  1.00  0.00    -0.167 F 
ATOM     26  F   UNL A   1      34.726  23.109  27.288  1.00  0.00    -0.167 F 
ENDBRANCH  18  23
ENDBRANCH   5   8
ENDBRANCH   3   4
ENDBRANCH   2   3
ENDBRANCH   1   2
BRANCH   1  27
ATOM     27  C   UNL A   1      37.589  21.889  25.790  1.00  0.00     0.116 C 
BRANCH  27  28
ATOM     28  N   UNL A   1      38.722  20.974  25.825  1.00  0.00    -0.352 N 
ATOM     29  C   UNL A   1      39.976  21.202  26.350  1.00  0.00     0.251 C 
ATOM     30  H   UNL A   1      38.575  20.086  25.425  1.00  0.00     0.163 HD
ATOM     31  O   UNL A   1      40.857  20.357  26.245  1.00  0.00    -0.269 OA
BRANCH  29  32
ATOM     32  C   UNL A   1      40.247  22.508  26.987  1.00  0.00     0.039 A 
ATOM     33  C   UNL A   1      39.708  23.675  26.443  1.00  0.00     0.014 A 
ATOM     34  C   UNL A   1      41.130  22.570  28.067  1.00  0.00     0.014 A 
ATOM     35  C   UNL A   1      40.196  24.907  26.858  1.00  0.00     0.010 A 
ATOM     36  C   UNL A   1      41.555  23.814  28.539  1.00  0.00     0.010 A 
ATOM     37  C   UNL A   1      41.140  24.992  27.897  1.00  0.00    -0.014 A 
BRANCH  37  38
ATOM     38  C   UNL A   1      41.683  26.322  28.270  1.00  0.00     0.031 A 
ATOM     39  C   UNL A   1      43.057  26.753  27.829  1.00  0.00     0.074 A 
ATOM     40  C   UNL A   1      40.897  27.178  28.952  1.00  0.00     0.049 A 
ATOM     41  N   UNL A   1      43.644  27.910  27.995  1.00  0.00    -0.248 NA
ATOM     42  C   UNL A   1      43.884  25.764  27.115  1.00  0.00     0.031 C 
ATOM     43  C   UNL A   1      39.556  26.867  29.452  1.00  0.00     0.029 A 
ATOM     44  N   UNL A   1      41.094  28.486  29.315  1.00  0.00    -0.354 N 
ATOM     45  C   UNL A   1      44.915  27.779  27.448  1.00  0.00     0.074 A 
ATOM     46  C   UNL A   1      45.021  26.427  26.944  1.00  0.00     0.031 C 
ATOM     47  C   UNL A   1      39.028  27.970  30.003  1.00  0.00     0.029 A 
ATOM     48  C   UNL A   1      40.006  29.051  29.935  1.00  0.00     0.049 A 
ATOM     49  H   UNL A   1      41.933  28.972  29.146  1.00  0.00     0.167 HD
ATOM     50  C   UNL A   1      45.895  28.707  27.353  1.00  0.00     0.034 A 
ATOM     51  C   UNL A   1      39.810  30.302  30.396  1.00  0.00     0.034 A 
ATOM     52  C   UNL A   1      45.767  30.069  27.788  1.00  0.00     0.049 A 
ATOM     53  C   UNL A   1      40.902  31.320  30.250  1.00  0.00     0.074 A 
ATOM     54  C   UNL A   1      46.687  31.097  27.669  1.00  0.00     0.029 A 
ATOM     55  N   UNL A   1      44.652  30.599  28.417  1.00  0.00    -0.354 N 
ATOM     56  N   UNL A   1      42.060  31.197  29.648  1.00  0.00    -0.248 NA
ATOM     57  C   UNL A   1      40.662  32.645  30.836  1.00  0.00     0.031 C 
ATOM     58  C   UNL A   1      46.128  32.250  28.227  1.00  0.00     0.029 A 
ATOM     59  C   UNL A   1      44.862  31.938  28.696  1.00  0.00     0.049 A 
ATOM     60  H   UNL A   1      43.833  30.098  28.631  1.00  0.00     0.167 HD
ATOM     61  C   UNL A   1      42.689  32.427  29.784  1.00  0.00     0.074 A 
ATOM     62  C   UNL A   1      41.773  33.292  30.499  1.00  0.00     0.031 C 
ATOM     63  C   UNL A   1      43.926  32.796  29.373  1.00  0.00     0.034 A 
BRANCH  50  64
ATOM     64  C   UNL A   1      47.187  28.309  26.694  1.00  0.00     0.023 A 
ATOM     65  C   UNL A   1      48.288  27.960  27.499  1.00  0.00     0.012 A 
ATOM     66  C   UNL A   1      47.277  28.175  25.293  1.00  0.00     0.148 A 
ATOM     67  C   UNL A   1      49.465  27.487  26.922  1.00  0.00     0.002 A 
ATOM     68  C   UNL A   1      48.446  27.680  24.727  1.00  0.00     0.091 A 
ATOM     69  F   UNL A   1      46.219  28.528  24.550  1.00  0.00    -0.205 F 
ATOM     70  C   UNL A   1      49.541  27.337  25.540  1.00  0.00     0.022 A 
BRANCH  68  71
ATOM     71  S   UNL A   1      48.632  27.401  22.962  1.00  0.00     0.127 S 
ATOM     72  O   UNL A   1      47.531  28.199  22.423  1.00  0.00    -0.237 OA
ATOM     73  O   UNL A   1      49.964  27.946  22.703  1.00  0.00    -0.237 OA
ATOM     74  O   UNL A   1      48.509  25.964  22.766  1.00  0.00    -0.744 OA
ENDBRANCH  68  71
ENDBRANCH  50  64
BRANCH  51  75
ATOM     75  C   UNL A   1      38.489  30.657  30.980  1.00  0.00     0.023 A 
ATOM     76  C   UNL A   1      38.267  30.440  32.353  1.00  0.00     0.012 A 
ATOM     77  C   UNL A   1      37.499  31.296  30.210  1.00  0.00     0.148 A 
ATOM     78  C   UNL A   1      37.077  30.860  32.951  1.00  0.00     0.002 A 
ATOM     79  C   UNL A   1      36.338  31.752  30.821  1.00  0.00     0.091 A 
ATOM     80  F   UNL A   1      37.735  31.480  28.903  1.00  0.00    -0.205 F 
ATOM     81  C   UNL A   1      36.121  31.526  32.189  1.00  0.00     0.022 A 
BRANCH  79  82
ATOM     82  S   UNL A   1      35.111  32.732  29.949  1.00  0.00     0.127 S 
ATOM     83  O   UNL A   1      34.619  31.779  28.957  1.00  0.00    -0.237 OA
ATOM     84  O   UNL A   1      34.166  33.051  31.019  1.00  0.00    -0.237 OA
ATOM     85  O   UNL A   1      35.829  33.882  29.417  1.00  0.00    -0.744 OA
ENDBRANCH  79  82
ENDBRANCH  51  75
BRANCH  63  86
ATOM     86  C   UNL A   1      44.391  34.187  29.698  1.00  0.00     0.023 A 
ATOM     87  C   UNL A   1      45.190  34.387  30.839  1.00  0.00     0.012 A 
ATOM     88  C   UNL A   1      44.154  35.256  28.813  1.00  0.00     0.148 A 
ATOM     89  C   UNL A   1      45.749  35.636  31.098  1.00  0.00     0.002 A 
ATOM     90  C   UNL A   1      44.738  36.492  29.063  1.00  0.00     0.091 A 
ATOM     91  F   UNL A   1      43.385  35.035  27.737  1.00  0.00    -0.205 F 
ATOM     92  C   UNL A   1      45.533  36.684  30.206  1.00  0.00     0.022 A 
BRANCH  90  93
ATOM     93  S   UNL A   1      44.579  37.886  27.942  1.00  0.00     0.127 S 
ATOM     94  O   UNL A   1      43.129  37.961  27.764  1.00  0.00    -0.237 OA
ATOM     95  O   UNL A   1      45.156  38.978  28.726  1.00  0.00    -0.237 OA
ATOM     96  O   UNL A   1      45.329  37.531  26.745  1.00  0.00    -0.744 OA
ENDBRANCH  90  93
ENDBRANCH  63  86
ENDBRANCH  37  38
ENDBRANCH  29  32
ENDBRANCH  27  28
ENDBRANCH   1  27
TORSDOF 16
ENDMDL
MODEL 2
REMARK VINA RESULT:     -12.5      4.810      8.152
REMARK SMILES CC(C)(C)c1cc2c(cc1Cl)C=C(C(=O)NCCCCNC(=O)c1ccc(-c3c4nc(c(-c5cccc(S(=O)(=O)[O-])c5F)c5ccc([nH]5)c(-c5cccc(S(=O)(=O)[O-])c5F)c5nc(c(-c6cccc(S(=O)(=O)[O-])c6F)c6ccc3[nH]6)C=C5)C=C4)cc1)[C@@H](C(F)(F)F)O2
REMARK SMILES IDX 19 1 18 2 17 3 16 4 14 5 15 6 13 8 5 9 6 10 10 11 7 12 9 13
REMARK SMILES IDX 11 14 8 15 92 16 12 17 87 18 2 19 1 20 3 21 4 22 88 23 89 24
REMARK SMILES IDX 90 25 91 26 20 27 21 28 22 29 23 31 24 32 25 33 86 34 26 35
REMARK SMILES IDX 85 36 27 37 28 38 29 39 79 40 30 41 84 42 78 43 80 44 31 45
REMARK SMILES IDX 83 46 77 47 76 48 32 50 64 51 44 52 63 53 45 54 48 55 62 56
REMARK SMILES IDX 81 57 46 58 47 59 61 61 82 62 49 63 33 64 34 65 42 66 35 67
REMARK SMILES IDX 37 68 43 69 36 70 38 71 39 72 40 73 41 74 65 75 66 76 74 77
REMARK SMILES IDX 67 78 69 79 75 80 68 81 70 82 71 83 72 84 73 85 50 86 51 87
REMARK SMILES IDX 59 88 52 89 54 90 60 91 53 92 55 93 56 94 57 95 58 96
REMARK H PARENT 16 7 21 30 80 49 48 60
REMARK Flexibility Score: inf
ROOT
ATOM      1  C   UNL A   1      33.174  29.070  27.248  1.00  0.00     0.023 C 
ENDROOT
BRANCH   1   2
ATOM      2  C   UNL A   1      31.729  29.406  26.871  1.00  0.00     0.023 C 
BRANCH   2   3
ATOM      3  C   UNL A   1      31.583  30.145  25.543  1.00  0.00     0.116 C 
BRANCH   3   4
ATOM      4  N   UNL A   1      30.683  29.461  24.629  1.00  0.00    -0.352 N 
ATOM      5  C   UNL A   1      30.696  28.322  23.897  1.00  0.00     0.251 C 
ATOM      6  O   UNL A   1      29.679  28.110  23.229  1.00  0.00    -0.270 OA
ATOM      7  H   UNL A   1      29.841  29.958  24.510  1.00  0.00     0.163 HD
BRANCH   5   8
ATOM      8  C   UNL A   1      31.824  27.344  23.845  1.00  0.00     0.067 C 
ATOM      9  C   UNL A   1      35.033  23.513  24.851  1.00  0.00    -0.020 A 
ATOM     10  C   UNL A   1      34.756  24.349  23.747  1.00  0.00     0.053 A 
ATOM     11  C   UNL A   1      34.227  23.721  25.998  1.00  0.00     0.045 A 
ATOM     12  C   UNL A   1      33.760  25.328  23.781  1.00  0.00     0.128 A 
ATOM     13  C   UNL A   1      33.227  24.713  26.024  1.00  0.00     0.032 A 
ATOM     14  Cl  UNL A   1      34.335  22.776  27.444  1.00  0.00    -0.084 Cl
ATOM     15  C   UNL A   1      32.987  25.517  24.914  1.00  0.00     0.019 A 
ATOM     16  O   UNL A   1      33.565  26.028  22.627  1.00  0.00    -0.475 OA
ATOM     17  C   UNL A   1      31.912  26.499  24.890  1.00  0.00     0.025 C 
ATOM     18  C   UNL A   1      32.846  27.288  22.743  1.00  0.00     0.314 C 
BRANCH   9  19
ATOM     19  C   UNL A   1      36.128  22.424  24.719  1.00  0.00    -0.012 C 
ATOM     20  C   UNL A   1      37.256  22.587  25.762  1.00  0.00     0.016 C 
ATOM     21  C   UNL A   1      36.851  22.439  23.341  1.00  0.00     0.016 C 
ATOM     22  C   UNL A   1      35.479  21.029  24.844  1.00  0.00     0.016 C 
ENDBRANCH   9  19
BRANCH  18  23
ATOM     23  C   UNL A   1      33.868  28.436  22.825  1.00  0.00     0.429 C 
ATOM     24  F   UNL A   1      34.472  28.445  24.041  1.00  0.00    -0.167 F 
ATOM     25  F   UNL A   1      34.855  28.323  21.907  1.00  0.00    -0.167 F 
ATOM     26  F   UNL A   1      33.300  29.651  22.648  1.00  0.00    -0.167 F 
ENDBRANCH  18  23
ENDBRANCH   5   8
ENDBRANCH   3   4
ENDBRANCH   2   3
ENDBRANCH   1   2
BRANCH   1  27
ATOM     27  C   UNL A   1      34.173  30.218  27.115  1.00  0.00     0.116 C 
BRANCH  27  28
ATOM     28  N   UNL A   1      34.044  31.249  28.137  1.00  0.00    -0.352 N 
ATOM     29  C   UNL A   1      34.941  31.566  29.134  1.00  0.00     0.251 C 
ATOM     30  H   UNL A   1      33.217  31.782  28.112  1.00  0.00     0.163 HD
ATOM     31  O   UNL A   1      34.664  32.418  29.970  1.00  0.00    -0.269 OA
BRANCH  29  32
ATOM     32  C   UNL A   1      36.212  30.816  29.206  1.00  0.00     0.039 A 
ATOM     33  C   UNL A   1      36.294  29.652  29.972  1.00  0.00     0.014 A 
ATOM     34  C   UNL A   1      37.349  31.340  28.588  1.00  0.00     0.014 A 
ATOM     35  C   UNL A   1      37.541  29.122  30.273  1.00  0.00     0.010 A 
ATOM     36  C   UNL A   1      38.595  30.753  28.825  1.00  0.00     0.010 A 
ATOM     37  C   UNL A   1      38.709  29.677  29.719  1.00  0.00    -0.014 A 
BRANCH  37  38
ATOM     38  C   UNL A   1      40.027  29.120  30.113  1.00  0.00     0.031 A 
ATOM     39  C   UNL A   1      40.664  28.002  29.330  1.00  0.00     0.074 A 
ATOM     40  C   UNL A   1      40.689  29.680  31.145  1.00  0.00     0.049 A 
ATOM     41  N   UNL A   1      41.846  27.464  29.487  1.00  0.00    -0.248 NA
ATOM     42  C   UNL A   1      39.881  27.407  28.232  1.00  0.00     0.031 C 
ATOM     43  C   UNL A   1      40.165  30.753  31.993  1.00  0.00     0.029 A 
ATOM     44  N   UNL A   1      41.948  29.450  31.637  1.00  0.00    -0.354 N 
ATOM     45  C   UNL A   1      41.933  26.446  28.545  1.00  0.00     0.074 A 
ATOM     46  C   UNL A   1      40.684  26.436  27.816  1.00  0.00     0.031 C 
ATOM     47  C   UNL A   1      41.116  31.130  32.860  1.00  0.00     0.029 A 
ATOM     48  C   UNL A   1      42.298  30.297  32.661  1.00  0.00     0.049 A 
ATOM     49  H   UNL A   1      42.543  28.747  31.289  1.00  0.00     0.167 HD
ATOM     50  C   UNL A   1      42.969  25.612  28.294  1.00  0.00     0.034 A 
ATOM     51  C   UNL A   1      43.444  30.400  33.361  1.00  0.00     0.034 A 
ATOM     52  C   UNL A   1      44.236  25.667  28.967  1.00  0.00     0.049 A 
ATOM     53  C   UNL A   1      44.588  29.483  33.041  1.00  0.00     0.074 A 
ATOM     54  C   UNL A   1      45.366  24.903  28.730  1.00  0.00     0.029 A 
ATOM     55  N   UNL A   1      44.547  26.534  30.001  1.00  0.00    -0.354 N 
ATOM     56  N   UNL A   1      44.678  28.590  32.086  1.00  0.00    -0.248 NA
ATOM     57  C   UNL A   1      45.785  29.590  33.886  1.00  0.00     0.031 C 
ATOM     58  C   UNL A   1      46.362  25.309  29.622  1.00  0.00     0.029 A 
ATOM     59  C   UNL A   1      45.850  26.322  30.417  1.00  0.00     0.049 A 
ATOM     60  H   UNL A   1      43.933  27.202  30.383  1.00  0.00     0.167 HD
ATOM     61  C   UNL A   1      45.941  28.027  32.214  1.00  0.00     0.074 A 
ATOM     62  C   UNL A   1      46.592  28.698  33.320  1.00  0.00     0.031 C 
ATOM     63  C   UNL A   1      46.497  27.024  31.493  1.00  0.00     0.034 A 
BRANCH  50  64
ATOM     64  C   UNL A   1      42.812  24.596  27.196  1.00  0.00     0.023 A 
ATOM     65  C   UNL A   1      43.341  24.878  25.922  1.00  0.00     0.012 A 
ATOM     66  C   UNL A   1      42.245  23.332  27.452  1.00  0.00     0.148 A 
ATOM     67  C   UNL A   1      43.305  23.917  24.913  1.00  0.00     0.002 A 
ATOM     68  C   UNL A   1      42.234  22.371  26.447  1.00  0.00     0.091 A 
ATOM     69  F   UNL A   1      41.736  23.095  28.668  1.00  0.00    -0.205 F 
ATOM     70  C   UNL A   1      42.763  22.663  25.177  1.00  0.00     0.022 A 
BRANCH  68  71
ATOM     71  S   UNL A   1      41.605  20.707  26.697  1.00  0.00     0.127 S 
ATOM     72  O   UNL A   1      40.160  20.936  26.688  1.00  0.00    -0.237 OA
ATOM     73  O   UNL A   1      42.117  20.004  25.521  1.00  0.00    -0.237 OA
ATOM     74  O   UNL A   1      42.153  20.255  27.967  1.00  0.00    -0.744 OA
ENDBRANCH  68  71
ENDBRANCH  50  64
BRANCH  51  75
ATOM     75  C   UNL A   1      43.567  31.466  34.392  1.00  0.00     0.023 A 
ATOM     76  C   UNL A   1      44.168  32.690  34.045  1.00  0.00     0.012 A 
ATOM     77  C   UNL A   1      43.003  31.309  35.673  1.00  0.00     0.148 A 
ATOM     78  C   UNL A   1      44.203  33.744  34.958  1.00  0.00     0.002 A 
ATOM     79  C   UNL A   1      43.001  32.378  36.560  1.00  0.00     0.091 A 
ATOM     80  F   UNL A   1      42.447  30.128  35.979  1.00  0.00    -0.205 F 
ATOM     81  C   UNL A   1      43.608  33.593  36.208  1.00  0.00     0.022 A 
BRANCH  79  82
ATOM     82  S   UNL A   1      42.147  32.317  38.139  1.00  0.00     0.127 S 
ATOM     83  O   UNL A   1      42.851  31.231  38.817  1.00  0.00    -0.237 OA
ATOM     84  O   UNL A   1      42.412  33.653  38.675  1.00  0.00    -0.237 OA
ATOM     85  O   UNL A   1      40.749  32.062  37.823  1.00  0.00    -0.744 OA
ENDBRANCH  79  82
ENDBRANCH  51  75
BRANCH  63  86
ATOM     86  C   UNL A   1      47.873  26.561  31.876  1.00  0.00     0.023 A 
ATOM     87  C   UNL A   1      48.003  25.545  32.842  1.00  0.00     0.012 A 
ATOM     88  C   UNL A   1      49.013  27.027  31.194  1.00  0.00     0.148 A 
ATOM     89  C   UNL A   1      49.252  24.997  33.126  1.00  0.00     0.002 A 
ATOM     90  C   UNL A   1      50.251  26.456  31.462  1.00  0.00     0.091 A 
ATOM     91  F   UNL A   1      48.858  27.999  30.283  1.00  0.00    -0.205 F 
ATOM     92  C   UNL A   1      50.373  25.444  32.429  1.00  0.00     0.022 A 
BRANCH  90  93
ATOM     93  S   UNL A   1      51.744  26.912  30.572  1.00  0.00     0.127 S 
ATOM     94  O   UNL A   1      52.738  26.037  31.192  1.00  0.00    -0.237 OA
ATOM     95  O   UNL A   1      51.398  26.562  29.194  1.00  0.00    -0.237 OA
ATOM     96  O   UNL A   1      51.939  28.335  30.811  1.00  0.00    -0.744 OA
ENDBRANCH  90  93
ENDBRANCH  63  86
ENDBRANCH  37  38
ENDBRANCH  29  32
ENDBRANCH  27  28
ENDBRANCH   1  27
TORSDOF 16
ENDMDL
MODEL 3
REMARK VINA RESULT:     -12.4      5.247      9.925
REMARK SMILES CC(C)(C)c1cc2c(cc1Cl)C=C(C(=O)NCCCCNC(=O)c1ccc(-c3c4nc(c(-c5cccc(S(=O)(=O)[O-])c5F)c5ccc([nH]5)c(-c5cccc(S(=O)(=O)[O-])c5F)c5nc(c(-c6cccc(S(=O)(=O)[O-])c6F)c6ccc3[nH]6)C=C5)C=C4)cc1)[C@@H](C(F)(F)F)O2
REMARK SMILES IDX 19 1 18 2 17 3 16 4 14 5 15 6 13 8 5 9 6 10 10 11 7 12 9 13
REMARK SMILES IDX 11 14 8 15 92 16 12 17 87 18 2 19 1 20 3 21 4 22 88 23 89 24
REMARK SMILES IDX 90 25 91 26 20 27 21 28 22 29 23 31 24 32 25 33 86 34 26 35
REMARK SMILES IDX 85 36 27 37 28 38 29 39 79 40 30 41 84 42 78 43 80 44 31 45
REMARK SMILES IDX 83 46 77 47 76 48 32 50 64 51 44 52 63 53 45 54 48 55 62 56
REMARK SMILES IDX 81 57 46 58 47 59 61 61 82 62 49 63 33 64 34 65 42 66 35 67
REMARK SMILES IDX 37 68 43 69 36 70 38 71 39 72 40 73 41 74 65 75 66 76 74 77
REMARK SMILES IDX 67 78 69 79 75 80 68 81 70 82 71 83 72 84 73 85 50 86 51 87
REMARK SMILES IDX 59 88 52 89 54 90 60 91 53 92 55 93 56 94 57 95 58 96
REMARK H PARENT 16 7 21 30 80 49 48 60
REMARK Flexibility Score: inf
ROOT
ATOM      1  C   UNL A   1      33.192  29.173  27.169  1.00  0.00     0.023 C 
ENDROOT
BRANCH   1   2
ATOM      2  C   UNL A   1      31.723  29.337  26.770  1.00  0.00     0.023 C 
BRANCH   2   3
ATOM      3  C   UNL A   1      31.509  30.095  25.463  1.00  0.00     0.116 C 
BRANCH   3   4
ATOM      4  N   UNL A   1      30.624  29.385  24.554  1.00  0.00    -0.352 N 
ATOM      5  C   UNL A   1      30.661  28.241  23.832  1.00  0.00     0.251 C 
ATOM      6  O   UNL A   1      29.650  28.002  23.165  1.00  0.00    -0.270 OA
ATOM      7  H   UNL A   1      29.773  29.864  24.430  1.00  0.00     0.163 HD
BRANCH   5   8
ATOM      8  C   UNL A   1      31.809  27.286  23.789  1.00  0.00     0.067 C 
ATOM      9  C   UNL A   1      35.091  23.525  24.828  1.00  0.00    -0.020 A 
ATOM     10  C   UNL A   1      34.801  24.351  23.719  1.00  0.00     0.053 A 
ATOM     11  C   UNL A   1      34.275  23.722  25.970  1.00  0.00     0.045 A 
ATOM     12  C   UNL A   1      33.786  25.310  23.744  1.00  0.00     0.128 A 
ATOM     13  C   UNL A   1      33.255  24.693  25.987  1.00  0.00     0.032 A 
ATOM     14  Cl  UNL A   1      34.395  22.786  27.421  1.00  0.00    -0.084 Cl
ATOM     15  C   UNL A   1      33.004  25.487  24.872  1.00  0.00     0.019 A 
ATOM     16  O   UNL A   1      33.583  26.000  22.585  1.00  0.00    -0.475 OA
ATOM     17  C   UNL A   1      31.909  26.447  24.839  1.00  0.00     0.025 C 
ATOM     18  C   UNL A   1      32.837  27.246  22.693  1.00  0.00     0.314 C 
BRANCH   9  19
ATOM     19  C   UNL A   1      36.208  22.458  24.706  1.00  0.00    -0.012 C 
ATOM     20  C   UNL A   1      35.700  21.031  25.010  1.00  0.00     0.016 C 
ATOM     21  C   UNL A   1      37.387  22.682  25.696  1.00  0.00     0.016 C 
ATOM     22  C   UNL A   1      36.822  22.519  23.291  1.00  0.00     0.016 C 
ENDBRANCH   9  19
BRANCH  18  23
ATOM     23  C   UNL A   1      33.835  28.415  22.774  1.00  0.00     0.429 C 
ATOM     24  F   UNL A   1      34.780  28.296  21.807  1.00  0.00    -0.167 F 
ATOM     25  F   UNL A   1      33.246  29.618  22.590  1.00  0.00    -0.167 F 
ATOM     26  F   UNL A   1      34.479  28.466  23.963  1.00  0.00    -0.167 F 
ENDBRANCH  18  23
ENDBRANCH   5   8
ENDBRANCH   3   4
ENDBRANCH   2   3
ENDBRANCH   1   2
BRANCH   1  27
ATOM     27  C   UNL A   1      34.051  30.431  27.053  1.00  0.00     0.116 C 
BRANCH  27  28
ATOM     28  N   UNL A   1      33.847  31.398  28.123  1.00  0.00    -0.352 N 
ATOM     29  C   UNL A   1      34.709  31.712  29.152  1.00  0.00     0.251 C 
ATOM     30  H   UNL A   1      32.992  31.886  28.110  1.00  0.00     0.163 HD
ATOM     31  O   UNL A   1      34.372  32.502  30.026  1.00  0.00    -0.269 OA
BRANCH  29  32
ATOM     32  C   UNL A   1      36.019  31.030  29.209  1.00  0.00     0.039 A 
ATOM     33  C   UNL A   1      36.130  29.783  29.829  1.00  0.00     0.014 A 
ATOM     34  C   UNL A   1      37.153  31.690  28.734  1.00  0.00     0.014 A 
ATOM     35  C   UNL A   1      37.390  29.289  30.138  1.00  0.00     0.010 A 
ATOM     36  C   UNL A   1      38.418  31.147  28.974  1.00  0.00     0.010 A 
ATOM     37  C   UNL A   1      38.549  29.973  29.733  1.00  0.00    -0.014 A 
BRANCH  37  38
ATOM     38  C   UNL A   1      39.877  29.444  30.136  1.00  0.00     0.031 A 
ATOM     39  C   UNL A   1      40.544  29.903  31.405  1.00  0.00     0.074 A 
ATOM     40  C   UNL A   1      40.451  28.485  29.384  1.00  0.00     0.049 A 
ATOM     41  N   UNL A   1      41.657  29.478  31.944  1.00  0.00    -0.248 NA
ATOM     42  C   UNL A   1      39.886  30.978  32.170  1.00  0.00     0.031 C 
ATOM     43  C   UNL A   1      39.911  27.974  28.122  1.00  0.00     0.029 A 
ATOM     44  N   UNL A   1      41.590  27.747  29.583  1.00  0.00    -0.354 N 
ATOM     45  C   UNL A   1      41.856  30.254  33.080  1.00  0.00     0.074 A 
ATOM     46  C   UNL A   1      40.749  31.182  33.157  1.00  0.00     0.031 C 
ATOM     47  C   UNL A   1      40.685  26.968  27.690  1.00  0.00     0.029 A 
ATOM     48  C   UNL A   1      41.798  26.791  28.618  1.00  0.00     0.049 A 
ATOM     49  H   UNL A   1      42.199  27.890  30.343  1.00  0.00     0.167 HD
ATOM     50  C   UNL A   1      42.856  30.183  33.989  1.00  0.00     0.034 A 
ATOM     51  C   UNL A   1      42.771  25.868  28.493  1.00  0.00     0.034 A 
ATOM     52  C   UNL A   1      43.917  29.215  33.954  1.00  0.00     0.049 A 
ATOM     53  C   UNL A   1      43.851  25.791  29.531  1.00  0.00     0.074 A 
ATOM     54  C   UNL A   1      44.937  29.028  34.871  1.00  0.00     0.029 A 
ATOM     55  N   UNL A   1      44.094  28.269  32.957  1.00  0.00    -0.354 N 
ATOM     56  N   UNL A   1      43.967  26.475  30.643  1.00  0.00    -0.248 NA
ATOM     57  C   UNL A   1      44.926  24.816  29.304  1.00  0.00     0.031 C 
ATOM     58  C   UNL A   1      45.732  27.967  34.429  1.00  0.00     0.029 A 
ATOM     59  C   UNL A   1      45.209  27.498  33.235  1.00  0.00     0.049 A 
ATOM     60  H   UNL A   1      43.513  28.162  32.170  1.00  0.00     0.167 HD
ATOM     61  C   UNL A   1      45.128  26.016  31.249  1.00  0.00     0.074 A 
ATOM     62  C   UNL A   1      45.665  24.975  30.397  1.00  0.00     0.031 C 
ATOM     63  C   UNL A   1      45.709  26.439  32.398  1.00  0.00     0.034 A 
BRANCH  50  64
ATOM     64  C   UNL A   1      42.829  31.138  35.150  1.00  0.00     0.023 A 
ATOM     65  C   UNL A   1      42.286  30.711  36.376  1.00  0.00     0.012 A 
ATOM     66  C   UNL A   1      43.437  32.407  35.060  1.00  0.00     0.148 A 
ATOM     67  C   UNL A   1      42.340  31.534  37.499  1.00  0.00     0.002 A 
ATOM     68  C   UNL A   1      43.508  33.212  36.192  1.00  0.00     0.091 A 
ATOM     69  F   UNL A   1      43.934  32.794  33.878  1.00  0.00    -0.205 F 
ATOM     70  C   UNL A   1      42.959  32.778  37.411  1.00  0.00     0.022 A 
BRANCH  68  71
ATOM     71  S   UNL A   1      44.328  34.811  36.199  1.00  0.00     0.127 S 
ATOM     72  O   UNL A   1      45.706  34.434  35.887  1.00  0.00    -0.237 OA
ATOM     73  O   UNL A   1      43.631  35.519  35.126  1.00  0.00    -0.237 OA
ATOM     74  O   UNL A   1      44.122  35.363  37.530  1.00  0.00    -0.744 OA
ENDBRANCH  68  71
ENDBRANCH  50  64
BRANCH  51  75
ATOM     75  C   UNL A   1      42.711  24.906  27.359  1.00  0.00     0.023 A 
ATOM     76  C   UNL A   1      43.321  25.248  26.138  1.00  0.00     0.012 A 
ATOM     77  C   UNL A   1      42.148  23.626  27.518  1.00  0.00     0.148 A 
ATOM     78  C   UNL A   1      43.374  24.326  25.092  1.00  0.00     0.002 A 
ATOM     79  C   UNL A   1      42.244  22.697  26.489  1.00  0.00     0.091 A 
ATOM     80  F   UNL A   1      41.564  23.332  28.689  1.00  0.00    -0.205 F 
ATOM     81  C   UNL A   1      42.849  23.049  25.272  1.00  0.00     0.022 A 
BRANCH  79  82
ATOM     82  S   UNL A   1      41.713  20.992  26.677  1.00  0.00     0.127 S 
ATOM     83  O   UNL A   1      42.432  20.588  27.883  1.00  0.00    -0.237 OA
ATOM     84  O   UNL A   1      40.267  21.146  26.844  1.00  0.00    -0.237 OA
ATOM     85  O   UNL A   1      42.109  20.317  25.450  1.00  0.00    -0.744 OA
ENDBRANCH  79  82
ENDBRANCH  51  75
BRANCH  63  86
ATOM     86  C   UNL A   1      47.006  25.804  32.807  1.00  0.00     0.023 A 
ATOM     87  C   UNL A   1      48.214  26.407  32.408  1.00  0.00     0.012 A 
ATOM     88  C   UNL A   1      47.031  24.705  33.687  1.00  0.00     0.148 A 
ATOM     89  C   UNL A   1      49.433  25.925  32.878  1.00  0.00     0.002 A 
ATOM     90  C   UNL A   1      48.249  24.247  34.175  1.00  0.00     0.091 A 
ATOM     91  F   UNL A   1      45.865  24.150  34.046  1.00  0.00    -0.205 F 
ATOM     92  C   UNL A   1      49.451  24.854  33.769  1.00  0.00     0.022 A 
BRANCH  90  93
ATOM     93  S   UNL A   1      48.376  22.920  35.378  1.00  0.00     0.127 S 
ATOM     94  O   UNL A   1      49.816  22.662  35.385  1.00  0.00    -0.237 OA
ATOM     95  O   UNL A   1      47.864  23.556  36.592  1.00  0.00    -0.237 OA
ATOM     96  O   UNL A   1      47.557  21.830  34.868  1.00  0.00    -0.744 OA
ENDBRANCH  90  93
ENDBRANCH  63  86
ENDBRANCH  37  38
ENDBRANCH  29  32
ENDBRANCH  27  28
ENDBRANCH   1  27
TORSDOF 16
ENDMDL
