MODEL 1
REMARK VINA RESULT:     -11.7      0.000      0.000
REMARK SMILES COCCNc1cc(C)nc2cc(C(=O)NCCCCNC(=O)c3ccc(-c4c5nc(c(-c6cccc(S(=O)(=O)[O-])c6F)c6ccc([nH]6)c(-c6cccc(S(=O)(=O)[O-])c6F)c6nc(c(-c7cccc(S(=O)(=O)[O-])c7F)c7ccc4[nH]7)C=C6)C=C5)cc3)ccc12
REMARK SMILES IDX 18 1 17 2 16 3 14 4 15 5 13 7 6 8 7 9 89 10 8 11 11 12 88 13
REMARK SMILES IDX 9 14 10 15 12 16 87 17 5 18 4 20 3 21 2 22 1 23 19 24 20 25
REMARK SMILES IDX 21 26 22 27 23 29 24 30 25 31 86 32 26 33 85 34 27 35 28 36
REMARK SMILES IDX 29 37 79 38 30 39 84 40 78 41 80 42 31 43 83 44 77 45 76 46
REMARK SMILES IDX 32 48 64 49 44 50 63 51 45 52 48 53 62 54 81 55 46 56 47 57
REMARK SMILES IDX 61 59 82 60 49 61 33 62 34 63 42 64 35 65 37 66 43 67 36 68
REMARK SMILES IDX 38 69 39 70 40 71 41 72 65 73 66 74 74 75 67 76 69 77 75 78
REMARK SMILES IDX 68 79 70 80 71 81 72 82 73 83 50 84 51 85 59 86 52 87 54 88
REMARK SMILES IDX 60 89 53 90 55 91 56 92 57 93 58 94
REMARK H PARENT 16 6 5 19 21 28 80 47 48 58
REMARK Flexibility Score: inf
ROOT
ATOM      1  C   UNL A   1      34.333  21.425  25.130  1.00  0.00     0.023 C 
ENDROOT
BRANCH   1   2
ATOM      2  C   UNL A   1      33.163  22.244  24.578  1.00  0.00     0.116 C 
BRANCH   2   3
ATOM      3  N   UNL A   1      31.989  22.086  25.411  1.00  0.00    -0.352 N 
ATOM      4  C   UNL A   1      30.991  22.951  25.781  1.00  0.00     0.251 C 
ATOM      5  O   UNL A   1      30.095  22.505  26.500  1.00  0.00    -0.269 OA
ATOM      6  H   UNL A   1      31.887  21.181  25.785  1.00  0.00     0.163 HD
BRANCH   4   7
ATOM      7  C   UNL A   1      30.899  24.372  25.330  1.00  0.00     0.041 A 
ATOM      8  C   UNL A   1      30.738  28.319  23.785  1.00  0.00     0.045 A 
ATOM      9  C   UNL A   1      31.222  29.338  24.605  1.00  0.00     0.049 A 
ATOM     10  C   UNL A   1      30.744  26.993  24.278  1.00  0.00     0.023 A 
ATOM     11  C   UNL A   1      31.654  29.031  25.887  1.00  0.00     0.040 A 
ATOM     12  C   UNL A   1      31.188  26.782  25.595  1.00  0.00     0.073 A 
ATOM     13  C   UNL A   1      30.364  25.877  23.505  1.00  0.00     0.013 A 
ATOM     14  C   UNL A   1      32.224  30.086  26.785  1.00  0.00     0.067 C 
ATOM     15  N   UNL A   1      31.620  27.776  26.385  1.00  0.00    -0.253 NA
ATOM     16  C   UNL A   1      31.205  25.492  26.105  1.00  0.00     0.042 A 
ATOM     17  C   UNL A   1      30.458  24.584  24.020  1.00  0.00     0.014 A 
BRANCH   8  18
ATOM     18  N   UNL A   1      30.199  28.595  22.537  1.00  0.00    -0.382 N 
ATOM     19  H   UNL A   1      30.320  27.926  21.825  1.00  0.00     0.160 HD
BRANCH  18  20
ATOM     20  C   UNL A   1      29.469  29.808  22.213  1.00  0.00     0.141 C 
BRANCH  20  21
ATOM     21  C   UNL A   1      27.953  29.560  22.267  1.00  0.00     0.181 C 
BRANCH  21  22
ATOM     22  O   UNL A   1      27.306  30.213  23.366  1.00  0.00    -0.383 OA
ATOM     23  C   UNL A   1      27.649  31.585  23.501  1.00  0.00     0.194 C 
ENDBRANCH  21  22
ENDBRANCH  20  21
ENDBRANCH  18  20
ENDBRANCH   8  18
ENDBRANCH   4   7
ENDBRANCH   2   3
ENDBRANCH   1   2
BRANCH   1  24
ATOM     24  C   UNL A   1      35.670  21.691  24.435  1.00  0.00     0.023 C 
BRANCH  24  25
ATOM     25  C   UNL A   1      36.822  22.040  25.371  1.00  0.00     0.116 C 
BRANCH  25  26
ATOM     26  N   UNL A   1      37.761  20.943  25.567  1.00  0.00    -0.352 N 
ATOM     27  C   UNL A   1      39.031  20.999  26.089  1.00  0.00     0.251 C 
ATOM     28  H   UNL A   1      37.447  20.053  25.291  1.00  0.00     0.163 HD
ATOM     29  O   UNL A   1      39.742  19.998  26.103  1.00  0.00    -0.269 OA
BRANCH  27  30
ATOM     30  C   UNL A   1      39.544  22.289  26.591  1.00  0.00     0.039 A 
ATOM     31  C   UNL A   1      40.643  22.286  27.454  1.00  0.00     0.014 A 
ATOM     32  C   UNL A   1      38.977  23.493  26.168  1.00  0.00     0.014 A 
ATOM     33  C   UNL A   1      41.219  23.498  27.837  1.00  0.00     0.010 A 
ATOM     34  C   UNL A   1      39.592  24.695  26.496  1.00  0.00     0.010 A 
ATOM     35  C   UNL A   1      40.720  24.709  27.330  1.00  0.00    -0.014 A 
BRANCH  35  36
ATOM     36  C   UNL A   1      41.385  26.001  27.633  1.00  0.00     0.031 A 
ATOM     37  C   UNL A   1      40.663  27.061  28.417  1.00  0.00     0.074 A 
ATOM     38  C   UNL A   1      42.594  26.263  27.100  1.00  0.00     0.049 A 
ATOM     39  N   UNL A   1      41.059  28.268  28.727  1.00  0.00    -0.248 NA
ATOM     40  C   UNL A   1      39.305  26.736  28.885  1.00  0.00     0.031 C 
ATOM     41  C   UNL A   1      43.346  25.356  26.231  1.00  0.00     0.029 A 
ATOM     42  N   UNL A   1      43.386  27.380  27.179  1.00  0.00    -0.354 N 
ATOM     43  C   UNL A   1      39.988  28.860  29.384  1.00  0.00     0.074 A 
ATOM     44  C   UNL A   1      38.915  27.891  29.403  1.00  0.00     0.031 C 
ATOM     45  C   UNL A   1      44.485  25.957  25.848  1.00  0.00     0.029 A 
ATOM     46  C   UNL A   1      44.534  27.296  26.428  1.00  0.00     0.049 A 
ATOM     47  H   UNL A   1      43.153  28.169  27.721  1.00  0.00     0.167 HD
ATOM     48  C   UNL A   1      39.915  30.091  29.946  1.00  0.00     0.034 A 
ATOM     49  C   UNL A   1      45.516  28.197  26.224  1.00  0.00     0.034 A 
ATOM     50  C   UNL A   1      41.005  31.027  29.975  1.00  0.00     0.049 A 
ATOM     51  C   UNL A   1      45.450  29.523  26.929  1.00  0.00     0.074 A 
ATOM     52  C   UNL A   1      41.080  32.241  30.635  1.00  0.00     0.029 A 
ATOM     53  N   UNL A   1      42.208  30.861  29.305  1.00  0.00    -0.354 N 
ATOM     54  N   UNL A   1      44.515  29.988  27.721  1.00  0.00    -0.248 NA
ATOM     55  C   UNL A   1      46.589  30.433  26.747  1.00  0.00     0.031 C 
ATOM     56  C   UNL A   1      42.322  32.818  30.348  1.00  0.00     0.029 A 
ATOM     57  C   UNL A   1      43.027  31.956  29.523  1.00  0.00     0.049 A 
ATOM     58  H   UNL A   1      42.445  30.080  28.756  1.00  0.00     0.167 HD
ATOM     59  C   UNL A   1      44.961  31.231  28.153  1.00  0.00     0.074 A 
ATOM     60  C   UNL A   1      46.264  31.436  27.553  1.00  0.00     0.031 C 
ATOM     61  C   UNL A   1      44.341  32.129  28.958  1.00  0.00     0.034 A 
BRANCH  48  62
ATOM     62  C   UNL A   1      38.628  30.470  30.629  1.00  0.00     0.023 A 
ATOM     63  C   UNL A   1      38.424  30.107  31.977  1.00  0.00     0.012 A 
ATOM     64  C   UNL A   1      37.640  31.217  29.958  1.00  0.00     0.148 A 
ATOM     65  C   UNL A   1      37.243  30.448  32.634  1.00  0.00     0.002 A 
ATOM     66  C   UNL A   1      36.485  31.590  30.634  1.00  0.00     0.091 A 
ATOM     67  F   UNL A   1      37.839  31.531  28.670  1.00  0.00    -0.205 F 
ATOM     68  C   UNL A   1      36.279  31.198  31.966  1.00  0.00     0.022 A 
BRANCH  66  69
ATOM     69  S   UNL A   1      35.221  32.622  29.880  1.00  0.00     0.127 S 
ATOM     70  O   UNL A   1      36.006  33.770  29.432  1.00  0.00    -0.237 OA
ATOM     71  O   UNL A   1      34.723  31.766  28.802  1.00  0.00    -0.237 OA
ATOM     72  O   UNL A   1      34.249  32.891  30.931  1.00  0.00    -0.744 OA
ENDBRANCH  66  69
ENDBRANCH  48  62
BRANCH  49  73
ATOM     73  C   UNL A   1      46.679  27.832  25.369  1.00  0.00     0.023 A 
ATOM     74  C   UNL A   1      46.641  28.119  23.991  1.00  0.00     0.012 A 
ATOM     75  C   UNL A   1      47.844  27.264  25.920  1.00  0.00     0.148 A 
ATOM     76  C   UNL A   1      47.733  27.826  23.173  1.00  0.00     0.002 A 
ATOM     77  C   UNL A   1      48.948  27.025  25.111  1.00  0.00     0.091 A 
ATOM     78  F   UNL A   1      47.855  26.990  27.233  1.00  0.00    -0.205 F 
ATOM     79  C   UNL A   1      48.889  27.291  23.733  1.00  0.00     0.022 A 
BRANCH  77  80
ATOM     80  S   UNL A   1      50.524  26.467  25.769  1.00  0.00     0.127 S 
ATOM     81  O   UNL A   1      51.332  26.360  24.558  1.00  0.00    -0.237 OA
ATOM     82  O   UNL A   1      50.888  27.571  26.658  1.00  0.00    -0.237 OA
ATOM     83  O   UNL A   1      50.240  25.214  26.455  1.00  0.00    -0.744 OA
ENDBRANCH  77  80
ENDBRANCH  49  73
BRANCH  61  84
ATOM     84  C   UNL A   1      45.062  33.417  29.256  1.00  0.00     0.023 A 
ATOM     85  C   UNL A   1      45.907  33.497  30.381  1.00  0.00     0.012 A 
ATOM     86  C   UNL A   1      44.971  34.517  28.380  1.00  0.00     0.148 A 
ATOM     87  C   UNL A   1      46.628  34.660  30.643  1.00  0.00     0.002 A 
ATOM     88  C   UNL A   1      45.728  35.657  28.623  1.00  0.00     0.091 A 
ATOM     89  F   UNL A   1      44.146  34.428  27.326  1.00  0.00    -0.205 F 
ATOM     90  C   UNL A   1      46.550  35.734  29.758  1.00  0.00     0.022 A 
BRANCH  88  91
ATOM     91  S   UNL A   1      45.760  37.048  27.486  1.00  0.00     0.127 S 
ATOM     92  O   UNL A   1      46.820  37.875  28.058  1.00  0.00    -0.237 OA
ATOM     93  O   UNL A   1      46.105  36.406  26.216  1.00  0.00    -0.237 OA
ATOM     94  O   UNL A   1      44.423  37.624  27.524  1.00  0.00    -0.744 OA
ENDBRANCH  88  91
ENDBRANCH  61  84
ENDBRANCH  35  36
ENDBRANCH  27  30
ENDBRANCH  25  26
ENDBRANCH  24  25
ENDBRANCH   1  24
TORSDOF 18
ENDMDL
MODEL 2
REMARK VINA RESULT:     -11.7      2.034      7.909
REMARK SMILES COCCNc1cc(C)nc2cc(C(=O)NCCCCNC(=O)c3ccc(-c4c5nc(c(-c6cccc(S(=O)(=O)[O-])c6F)c6ccc([nH]6)c(-c6cccc(S(=O)(=O)[O-])c6F)c6nc(c(-c7cccc(S(=O)(=O)[O-])c7F)c7ccc4[nH]7)C=C6)C=C5)cc3)ccc12
REMARK SMILES IDX 18 1 17 2 16 3 14 4 15 5 13 7 6 8 7 9 89 10 8 11 11 12 88 13
REMARK SMILES IDX 9 14 10 15 12 16 87 17 5 18 4 20 3 21 2 22 1 23 19 24 20 25
REMARK SMILES IDX 21 26 22 27 23 29 24 30 25 31 86 32 26 33 85 34 27 35 28 36
REMARK SMILES IDX 29 37 79 38 30 39 84 40 78 41 80 42 31 43 83 44 77 45 76 46
REMARK SMILES IDX 32 48 64 49 44 50 63 51 45 52 48 53 62 54 81 55 46 56 47 57
REMARK SMILES IDX 61 59 82 60 49 61 33 62 34 63 42 64 35 65 37 66 43 67 36 68
REMARK SMILES IDX 38 69 39 70 40 71 41 72 65 73 66 74 74 75 67 76 69 77 75 78
REMARK SMILES IDX 68 79 70 80 71 81 72 82 73 83 50 84 51 85 59 86 52 87 54 88
REMARK SMILES IDX 60 89 53 90 55 91 56 92 57 93 58 94
REMARK H PARENT 16 6 5 19 21 28 80 47 48 58
REMARK Flexibility Score: inf
ROOT
ATOM      1  C   UNL A   1      34.974  21.643  24.763  1.00  0.00     0.023 C 
ENDROOT
BRANCH   1   2
ATOM      2  C   UNL A   1      33.818  22.351  24.051  1.00  0.00     0.116 C 
BRANCH   2   3
ATOM      3  N   UNL A   1      32.583  22.184  24.789  1.00  0.00    -0.352 N 
ATOM      4  C   UNL A   1      31.669  23.080  25.283  1.00  0.00     0.251 C 
ATOM      5  O   UNL A   1      30.684  22.620  25.863  1.00  0.00    -0.269 OA
ATOM      6  H   UNL A   1      32.354  21.244  24.972  1.00  0.00     0.163 HD
BRANCH   4   7
ATOM      7  C   UNL A   1      31.770  24.561  25.121  1.00  0.00     0.041 A 
ATOM      8  C   UNL A   1      32.070  28.724  24.366  1.00  0.00     0.045 A 
ATOM      9  C   UNL A   1      32.934  29.454  25.183  1.00  0.00     0.049 A 
ATOM     10  C   UNL A   1      31.918  27.339  24.608  1.00  0.00     0.023 A 
ATOM     11  C   UNL A   1      33.582  28.813  26.229  1.00  0.00     0.040 A 
ATOM     12  C   UNL A   1      32.605  26.781  25.700  1.00  0.00     0.073 A 
ATOM     13  C   UNL A   1      31.145  26.490  23.790  1.00  0.00     0.013 A 
ATOM     14  C   UNL A   1      34.553  29.546  27.104  1.00  0.00     0.067 C 
ATOM     15  N   UNL A   1      33.407  27.501  26.498  1.00  0.00    -0.253 NA
ATOM     16  C   UNL A   1      32.475  25.425  25.961  1.00  0.00     0.042 A 
ATOM     17  C   UNL A   1      31.088  25.118  24.035  1.00  0.00     0.014 A 
BRANCH   8  18
ATOM     18  N   UNL A   1      31.323  29.344  23.376  1.00  0.00    -0.382 N 
ATOM     19  H   UNL A   1      31.746  29.484  22.498  1.00  0.00     0.160 HD
BRANCH  18  20
ATOM     20  C   UNL A   1      29.955  29.802  23.551  1.00  0.00     0.141 C 
BRANCH  20  21
ATOM     21  C   UNL A   1      29.096  29.422  22.334  1.00  0.00     0.181 C 
BRANCH  21  22
ATOM     22  O   UNL A   1      27.999  30.315  22.108  1.00  0.00    -0.383 OA
ATOM     23  C   UNL A   1      28.388  31.588  21.612  1.00  0.00     0.194 C 
ENDBRANCH  21  22
ENDBRANCH  20  21
ENDBRANCH  18  20
ENDBRANCH   8  18
ENDBRANCH   4   7
ENDBRANCH   2   3
ENDBRANCH   1   2
BRANCH   1  24
ATOM     24  C   UNL A   1      35.553  22.419  25.948  1.00  0.00     0.023 C 
BRANCH  24  25
ATOM     25  C   UNL A   1      36.896  23.091  25.679  1.00  0.00     0.116 C 
BRANCH  25  26
ATOM     26  N   UNL A   1      38.038  22.228  25.950  1.00  0.00    -0.352 N 
ATOM     27  C   UNL A   1      39.261  22.580  26.469  1.00  0.00     0.251 C 
ATOM     28  H   UNL A   1      37.920  21.276  25.735  1.00  0.00     0.163 HD
ATOM     29  O   UNL A   1      40.163  21.751  26.552  1.00  0.00    -0.269 OA
BRANCH  27  30
ATOM     30  C   UNL A   1      39.488  23.978  26.883  1.00  0.00     0.039 A 
ATOM     31  C   UNL A   1      39.202  24.345  28.201  1.00  0.00     0.014 A 
ATOM     32  C   UNL A   1      40.032  24.905  25.991  1.00  0.00     0.014 A 
ATOM     33  C   UNL A   1      39.528  25.628  28.644  1.00  0.00     0.010 A 
ATOM     34  C   UNL A   1      40.418  26.158  26.452  1.00  0.00     0.010 A 
ATOM     35  C   UNL A   1      40.173  26.531  27.782  1.00  0.00    -0.014 A 
BRANCH  35  36
ATOM     36  C   UNL A   1      40.630  27.858  28.263  1.00  0.00     0.031 A 
ATOM     37  C   UNL A   1      42.097  28.153  28.397  1.00  0.00     0.074 A 
ATOM     38  C   UNL A   1      39.720  28.755  28.690  1.00  0.00     0.049 A 
ATOM     39  N   UNL A   1      42.682  29.230  28.852  1.00  0.00    -0.248 NA
ATOM     40  C   UNL A   1      43.031  27.086  28.000  1.00  0.00     0.031 C 
ATOM     41  C   UNL A   1      38.272  28.542  28.713  1.00  0.00     0.029 A 
ATOM     42  N   UNL A   1      39.879  30.010  29.221  1.00  0.00    -0.354 N 
ATOM     43  C   UNL A   1      44.043  28.957  28.840  1.00  0.00     0.074 A 
ATOM     44  C   UNL A   1      44.198  27.602  28.358  1.00  0.00     0.031 C 
ATOM     45  C   UNL A   1      37.676  29.623  29.241  1.00  0.00     0.029 A 
ATOM     46  C   UNL A   1      38.699  30.597  29.611  1.00  0.00     0.049 A 
ATOM     47  H   UNL A   1      40.756  30.448  29.316  1.00  0.00     0.167 HD
ATOM     48  C   UNL A   1      45.074  29.770  29.172  1.00  0.00     0.034 A 
ATOM     49  C   UNL A   1      38.465  31.784  30.205  1.00  0.00     0.034 A 
ATOM     50  C   UNL A   1      44.917  31.136  29.593  1.00  0.00     0.049 A 
ATOM     51  C   UNL A   1      39.622  32.703  30.484  1.00  0.00     0.074 A 
ATOM     52  C   UNL A   1      45.897  32.085  29.821  1.00  0.00     0.029 A 
ATOM     53  N   UNL A   1      43.701  31.745  29.863  1.00  0.00    -0.354 N 
ATOM     54  N   UNL A   1      40.899  32.505  30.271  1.00  0.00    -0.248 NA
ATOM     55  C   UNL A   1      39.304  34.023  31.048  1.00  0.00     0.031 C 
ATOM     56  C   UNL A   1      45.275  33.263  30.247  1.00  0.00     0.029 A 
ATOM     57  C   UNL A   1      43.905  33.052  30.269  1.00  0.00     0.049 A 
ATOM     58  H   UNL A   1      42.822  31.311  29.778  1.00  0.00     0.167 HD
ATOM     59  C   UNL A   1      41.537  33.681  30.648  1.00  0.00     0.074 A 
ATOM     60  C   UNL A   1      40.500  34.596  31.081  1.00  0.00     0.031 C 
ATOM     61  C   UNL A   1      42.863  33.969  30.653  1.00  0.00     0.034 A 
BRANCH  48  62
ATOM     62  C   UNL A   1      46.469  29.220  29.033  1.00  0.00     0.023 A 
ATOM     63  C   UNL A   1      47.143  28.742  30.176  1.00  0.00     0.012 A 
ATOM     64  C   UNL A   1      47.096  29.135  27.776  1.00  0.00     0.148 A 
ATOM     65  C   UNL A   1      48.433  28.225  30.076  1.00  0.00     0.002 A 
ATOM     66  C   UNL A   1      48.366  28.578  27.678  1.00  0.00     0.091 A 
ATOM     67  F   UNL A   1      46.452  29.617  26.704  1.00  0.00    -0.205 F 
ATOM     68  C   UNL A   1      49.040  28.133  28.826  1.00  0.00     0.022 A 
BRANCH  66  69
ATOM     69  S   UNL A   1      49.196  28.348  26.100  1.00  0.00     0.127 S 
ATOM     70  O   UNL A   1      50.030  29.546  26.029  1.00  0.00    -0.237 OA
ATOM     71  O   UNL A   1      49.935  27.103  26.315  1.00  0.00    -0.237 OA
ATOM     72  O   UNL A   1      48.137  28.255  25.105  1.00  0.00    -0.744 OA
ENDBRANCH  66  69
ENDBRANCH  48  62
BRANCH  49  73
ATOM     73  C   UNL A   1      37.063  32.192  30.501  1.00  0.00     0.023 A 
ATOM     74  C   UNL A   1      36.561  32.041  31.808  1.00  0.00     0.012 A 
ATOM     75  C   UNL A   1      36.250  32.784  29.516  1.00  0.00     0.148 A 
ATOM     76  C   UNL A   1      35.265  32.453  32.124  1.00  0.00     0.002 A 
ATOM     77  C   UNL A   1      34.980  33.241  29.850  1.00  0.00     0.091 A 
ATOM     78  F   UNL A   1      36.744  32.909  28.276  1.00  0.00    -0.205 F 
ATOM     79  C   UNL A   1      34.480  33.063  31.150  1.00  0.00     0.022 A 
BRANCH  77  80
ATOM     80  S   UNL A   1      33.953  34.161  28.699  1.00  0.00     0.127 S 
ATOM     81  O   UNL A   1      34.865  35.213  28.258  1.00  0.00    -0.237 OA
ATOM     82  O   UNL A   1      33.647  33.147  27.689  1.00  0.00    -0.237 OA
ATOM     83  O   UNL A   1      32.800  34.604  29.471  1.00  0.00    -0.744 OA
ENDBRANCH  77  80
ENDBRANCH  49  73
BRANCH  61  84
ATOM     84  C   UNL A   1      43.278  35.337  31.129  1.00  0.00     0.023 A 
ATOM     85  C   UNL A   1      43.601  35.531  32.486  1.00  0.00     0.012 A 
ATOM     86  C   UNL A   1      43.430  36.403  30.221  1.00  0.00     0.148 A 
ATOM     87  C   UNL A   1      44.044  36.774  32.937  1.00  0.00     0.002 A 
ATOM     88  C   UNL A   1      43.915  37.626  30.670  1.00  0.00     0.091 A 
ATOM     89  F   UNL A   1      43.098  36.203  28.937  1.00  0.00    -0.205 F 
ATOM     90  C   UNL A   1      44.213  37.816  32.028  1.00  0.00     0.022 A 
BRANCH  88  91
ATOM     91  S   UNL A   1      44.253  38.993  29.553  1.00  0.00     0.127 S 
ATOM     92  O   UNL A   1      44.863  39.969  30.453  1.00  0.00    -0.237 OA
ATOM     93  O   UNL A   1      45.176  38.389  28.590  1.00  0.00    -0.237 OA
ATOM     94  O   UNL A   1      42.965  39.376  28.990  1.00  0.00    -0.744 OA
ENDBRANCH  88  91
ENDBRANCH  61  84
ENDBRANCH  35  36
ENDBRANCH  27  30
ENDBRANCH  25  26
ENDBRANCH  24  25
ENDBRANCH   1  24
TORSDOF 18
ENDMDL
MODEL 3
REMARK VINA RESULT:     -11.7      0.792      7.776
REMARK SMILES COCCNc1cc(C)nc2cc(C(=O)NCCCCNC(=O)c3ccc(-c4c5nc(c(-c6cccc(S(=O)(=O)[O-])c6F)c6ccc([nH]6)c(-c6cccc(S(=O)(=O)[O-])c6F)c6nc(c(-c7cccc(S(=O)(=O)[O-])c7F)c7ccc4[nH]7)C=C6)C=C5)cc3)ccc12
REMARK SMILES IDX 18 1 17 2 16 3 14 4 15 5 13 7 6 8 7 9 89 10 8 11 11 12 88 13
REMARK SMILES IDX 9 14 10 15 12 16 87 17 5 18 4 20 3 21 2 22 1 23 19 24 20 25
REMARK SMILES IDX 21 26 22 27 23 29 24 30 25 31 86 32 26 33 85 34 27 35 28 36
REMARK SMILES IDX 29 37 79 38 30 39 84 40 78 41 80 42 31 43 83 44 77 45 76 46
REMARK SMILES IDX 32 48 64 49 44 50 63 51 45 52 48 53 62 54 81 55 46 56 47 57
REMARK SMILES IDX 61 59 82 60 49 61 33 62 34 63 42 64 35 65 37 66 43 67 36 68
REMARK SMILES IDX 38 69 39 70 40 71 41 72 65 73 66 74 74 75 67 76 69 77 75 78
REMARK SMILES IDX 68 79 70 80 71 81 72 82 73 83 50 84 51 85 59 86 52 87 54 88
REMARK SMILES IDX 60 89 53 90 55 91 56 92 57 93 58 94
REMARK H PARENT 16 6 5 19 21 28 80 47 48 58
REMARK Flexibility Score: inf
ROOT
ATOM      1  C   UNL A   1      35.007  21.483  26.083  1.00  0.00     0.023 C 
ENDROOT
BRANCH   1   2
ATOM      2  C   UNL A   1      33.968  22.559  26.408  1.00  0.00     0.116 C 
BRANCH   2   3
ATOM      3  N   UNL A   1      32.626  22.027  26.293  1.00  0.00    -0.352 N 
ATOM      4  C   UNL A   1      31.422  22.606  25.980  1.00  0.00     0.251 C 
ATOM      5  O   UNL A   1      30.435  21.869  25.941  1.00  0.00    -0.269 OA
ATOM      6  H   UNL A   1      32.565  21.061  26.474  1.00  0.00     0.163 HD
BRANCH   4   7
ATOM      7  C   UNL A   1      31.245  24.049  25.641  1.00  0.00     0.041 A 
ATOM      8  C   UNL A   1      30.810  28.081  24.396  1.00  0.00     0.045 A 
ATOM      9  C   UNL A   1      31.376  29.059  25.213  1.00  0.00     0.049 A 
ATOM     10  C   UNL A   1      30.906  26.727  24.795  1.00  0.00     0.023 A 
ATOM     11  C   UNL A   1      31.976  28.683  26.406  1.00  0.00     0.040 A 
ATOM     12  C   UNL A   1      31.520  26.445  26.027  1.00  0.00     0.073 A 
ATOM     13  C   UNL A   1      30.450  25.652  24.004  1.00  0.00     0.013 A 
ATOM     14  C   UNL A   1      32.637  29.694  27.293  1.00  0.00     0.067 C 
ATOM     15  N   UNL A   1      32.031  27.398  26.819  1.00  0.00    -0.253 NA
ATOM     16  C   UNL A   1      31.628  25.126  26.444  1.00  0.00     0.042 A 
ATOM     17  C   UNL A   1      30.635  24.332  24.415  1.00  0.00     0.014 A 
BRANCH   8  18
ATOM     18  N   UNL A   1      30.109  28.420  23.248  1.00  0.00    -0.382 N 
ATOM     19  H   UNL A   1      29.994  27.729  22.557  1.00  0.00     0.160 HD
BRANCH  18  20
ATOM     20  C   UNL A   1      29.535  29.732  23.000  1.00  0.00     0.141 C 
BRANCH  20  21
ATOM     21  C   UNL A   1      28.160  29.603  22.325  1.00  0.00     0.181 C 
BRANCH  21  22
ATOM     22  O   UNL A   1      28.137  30.087  20.976  1.00  0.00    -0.383 OA
ATOM     23  C   UNL A   1      28.210  31.502  20.874  1.00  0.00     0.194 C 
ENDBRANCH  21  22
ENDBRANCH  20  21
ENDBRANCH  18  20
ENDBRANCH   8  18
ENDBRANCH   4   7
ENDBRANCH   2   3
ENDBRANCH   1   2
BRANCH   1  24
ATOM     24  C   UNL A   1      35.661  21.636  24.708  1.00  0.00     0.023 C 
BRANCH  24  25
ATOM     25  C   UNL A   1      37.148  21.975  24.739  1.00  0.00     0.116 C 
BRANCH  25  26
ATOM     26  N   UNL A   1      37.983  20.874  25.199  1.00  0.00    -0.352 N 
ATOM     27  C   UNL A   1      39.123  20.937  25.965  1.00  0.00     0.251 C 
ATOM     28  H   UNL A   1      37.696  19.973  24.929  1.00  0.00     0.163 HD
ATOM     29  O   UNL A   1      39.775  19.923  26.194  1.00  0.00    -0.269 OA
BRANCH  27  30
ATOM     30  C   UNL A   1      39.576  22.249  26.469  1.00  0.00     0.039 A 
ATOM     31  C   UNL A   1      40.665  22.294  27.342  1.00  0.00     0.014 A 
ATOM     32  C   UNL A   1      38.963  23.427  26.036  1.00  0.00     0.014 A 
ATOM     33  C   UNL A   1      41.186  23.530  27.728  1.00  0.00     0.010 A 
ATOM     34  C   UNL A   1      39.524  24.654  26.368  1.00  0.00     0.010 A 
ATOM     35  C   UNL A   1      40.641  24.719  27.214  1.00  0.00    -0.014 A 
BRANCH  35  36
ATOM     36  C   UNL A   1      41.248  26.038  27.520  1.00  0.00     0.031 A 
ATOM     37  C   UNL A   1      42.671  26.328  27.137  1.00  0.00     0.074 A 
ATOM     38  C   UNL A   1      40.551  26.931  28.250  1.00  0.00     0.049 A 
ATOM     39  N   UNL A   1      43.386  27.396  27.372  1.00  0.00    -0.248 NA
ATOM     40  C   UNL A   1      43.399  25.264  26.424  1.00  0.00     0.031 C 
ATOM     41  C   UNL A   1      39.201  26.720  28.776  1.00  0.00     0.029 A 
ATOM     42  N   UNL A   1      40.895  28.177  28.708  1.00  0.00    -0.354 N 
ATOM     43  C   UNL A   1      44.655  27.120  26.880  1.00  0.00     0.074 A 
ATOM     44  C   UNL A   1      44.621  25.771  26.358  1.00  0.00     0.031 C 
ATOM     45  C   UNL A   1      38.835  27.796  29.493  1.00  0.00     0.029 A 
ATOM     46  C   UNL A   1      39.930  28.762  29.494  1.00  0.00     0.049 A 
ATOM     47  H   UNL A   1      41.753  28.612  28.496  1.00  0.00     0.167 HD
ATOM     48  C   UNL A   1      45.743  27.926  26.841  1.00  0.00     0.034 A 
ATOM     49  C   UNL A   1      39.928  29.941  30.148  1.00  0.00     0.034 A 
ATOM     50  C   UNL A   1      45.753  29.285  27.309  1.00  0.00     0.049 A 
ATOM     51  C   UNL A   1      41.116  30.853  30.016  1.00  0.00     0.074 A 
ATOM     52  C   UNL A   1      46.758  30.229  27.191  1.00  0.00     0.029 A 
ATOM     53  N   UNL A   1      44.712  29.893  27.995  1.00  0.00    -0.354 N 
ATOM     54  N   UNL A   1      42.237  30.655  29.366  1.00  0.00    -0.248 NA
ATOM     55  C   UNL A   1      41.025  32.165  30.672  1.00  0.00     0.031 C 
ATOM     56  C   UNL A   1      46.332  31.402  27.823  1.00  0.00     0.029 A 
ATOM     57  C   UNL A   1      45.056  31.195  28.320  1.00  0.00     0.049 A 
ATOM     58  H   UNL A   1      43.856  29.463  28.217  1.00  0.00     0.167 HD
ATOM     59  C   UNL A   1      42.975  31.823  29.512  1.00  0.00     0.074 A 
ATOM     60  C   UNL A   1      42.161  32.734  30.292  1.00  0.00     0.031 C 
ATOM     61  C   UNL A   1      44.220  32.108  29.056  1.00  0.00     0.034 A 
BRANCH  48  62
ATOM     62  C   UNL A   1      46.997  27.375  26.217  1.00  0.00     0.023 A 
ATOM     63  C   UNL A   1      47.259  27.622  24.853  1.00  0.00     0.012 A 
ATOM     64  C   UNL A   1      47.933  26.652  26.980  1.00  0.00     0.148 A 
ATOM     65  C   UNL A   1      48.414  27.125  24.250  1.00  0.00     0.002 A 
ATOM     66  C   UNL A   1      49.104  26.199  26.382  1.00  0.00     0.091 A 
ATOM     67  F   UNL A   1      47.656  26.405  28.268  1.00  0.00    -0.205 F 
ATOM     68  C   UNL A   1      49.340  26.423  25.017  1.00  0.00     0.022 A 
BRANCH  66  69
ATOM     69  S   UNL A   1      50.391  25.352  27.308  1.00  0.00     0.127 S 
ATOM     70  O   UNL A   1      50.760  26.365  28.295  1.00  0.00    -0.237 OA
ATOM     71  O   UNL A   1      49.672  24.201  27.857  1.00  0.00    -0.237 OA
ATOM     72  O   UNL A   1      51.420  25.011  26.336  1.00  0.00    -0.744 OA
ENDBRANCH  66  69
ENDBRANCH  48  62
BRANCH  49  73
ATOM     73  C   UNL A   1      38.721  30.347  30.921  1.00  0.00     0.023 A 
ATOM     74  C   UNL A   1      38.663  30.081  32.303  1.00  0.00     0.012 A 
ATOM     75  C   UNL A   1      37.664  31.049  30.311  1.00  0.00     0.148 A 
ATOM     76  C   UNL A   1      37.564  30.488  33.059  1.00  0.00     0.002 A 
ATOM     77  C   UNL A   1      36.597  31.499  31.080  1.00  0.00     0.091 A 
ATOM     78  F   UNL A   1      37.734  31.284  28.993  1.00  0.00    -0.205 F 
ATOM     79  C   UNL A   1      36.538  31.206  32.452  1.00  0.00     0.022 A 
BRANCH  77  80
ATOM     80  S   UNL A   1      35.301  32.548  30.412  1.00  0.00     0.127 S 
ATOM     81  O   UNL A   1      36.035  33.773  30.106  1.00  0.00    -0.237 OA
ATOM     82  O   UNL A   1      34.863  31.782  29.245  1.00  0.00    -0.237 OA
ATOM     83  O   UNL A   1      34.301  32.655  31.467  1.00  0.00    -0.744 OA
ENDBRANCH  77  80
ENDBRANCH  49  73
BRANCH  61  84
ATOM     84  C   UNL A   1      44.786  33.467  29.374  1.00  0.00     0.023 A 
ATOM     85  C   UNL A   1      45.478  33.666  30.585  1.00  0.00     0.012 A 
ATOM     86  C   UNL A   1      44.706  34.520  28.441  1.00  0.00     0.148 A 
ATOM     87  C   UNL A   1      46.059  34.900  30.874  1.00  0.00     0.002 A 
ATOM     88  C   UNL A   1      45.328  35.733  28.716  1.00  0.00     0.091 A 
ATOM     89  F   UNL A   1      44.026  34.317  27.303  1.00  0.00    -0.205 F 
ATOM     90  C   UNL A   1      45.996  35.928  29.935  1.00  0.00     0.022 A 
BRANCH  88  91
ATOM     91  S   UNL A   1      45.377  37.078  27.525  1.00  0.00     0.127 S 
ATOM     92  O   UNL A   1      43.955  37.363  27.340  1.00  0.00    -0.237 OA
ATOM     93  O   UNL A   1      46.117  38.111  28.251  1.00  0.00    -0.237 OA
ATOM     94  O   UNL A   1      46.068  36.551  26.357  1.00  0.00    -0.744 OA
ENDBRANCH  88  91
ENDBRANCH  61  84
ENDBRANCH  35  36
ENDBRANCH  27  30
ENDBRANCH  25  26
ENDBRANCH  24  25
ENDBRANCH   1  24
TORSDOF 18
ENDMDL
