MODEL 1
REMARK VINA RESULT:     -12.0      0.000      0.000
REMARK SMILES O=C(NCCCCNC(=O)[C@H]1CS[C@@H](c2cccc(OCc3ccc(Cl)cc3Cl)c2)[NH2+]1)c1ccc(-c2c3nc(c(-c4cccc(S(=O)(=O)[O-])c4F)c4ccc([nH]4)c(-c4cccc(S(=O)(=O)[O-])c4F)c4nc(c(-c5cccc(S(=O)(=O)[O-])c5F)c5ccc2[nH]5)C=C4)C=C3)cc1
REMARK SMILES IDX 6 1 5 2 4 3 3 4 1 5 2 6 32 8 33 9 94 10 34 11 93 12 35 13
REMARK SMILES IDX 36 14 37 15 87 16 38 17 92 18 86 19 88 20 39 21 91 22 85 23
REMARK SMILES IDX 84 24 40 26 72 27 52 28 71 29 53 30 56 31 70 32 89 33 54 34
REMARK SMILES IDX 55 35 69 37 90 38 57 39 41 40 42 41 50 42 43 43 45 44 51 45
REMARK SMILES IDX 44 46 46 47 47 48 48 49 49 50 73 51 74 52 82 53 75 54 77 55
REMARK SMILES IDX 83 56 76 57 78 58 79 59 80 60 81 61 58 62 59 63 67 64 60 65
REMARK SMILES IDX 62 66 68 67 61 68 63 69 64 70 65 71 66 72 7 73 8 74 9 75
REMARK SMILES IDX 10 77 11 78 12 79 31 80 13 81 14 82 15 85 16 86 30 87 17 88
REMARK SMILES IDX 19 89 18 90 20 91 21 92 22 93 23 94 28 95 24 96 27 97 29 98
REMARK SMILES IDX 25 99 26 100
REMARK H PARENT 3 7 88 25 56 36 8 76 31 83 31 84
REMARK Flexibility Score: inf
ROOT
ATOM      1  C   UNL A   1      31.708  30.672  26.706  1.00  0.00     0.023 C 
ENDROOT
BRANCH   1   2
ATOM      2  C   UNL A   1      31.705  32.200  26.676  1.00  0.00     0.023 C 
BRANCH   2   3
ATOM      3  C   UNL A   1      32.876  32.861  27.395  1.00  0.00     0.116 C 
BRANCH   3   4
ATOM      4  N   UNL A   1      32.584  34.222  27.826  1.00  0.00    -0.352 N 
ATOM      5  O   UNL A   1      32.668  36.023  29.176  1.00  0.00    -0.269 OA
ATOM      6  C   UNL A   1      33.134  34.930  28.866  1.00  0.00     0.251 C 
ATOM      7  H   UNL A   1      31.900  34.697  27.301  1.00  0.00     0.163 HD
BRANCH   6   8
ATOM      8  C   UNL A   1      34.264  34.348  29.620  1.00  0.00     0.039 A 
ATOM      9  C   UNL A   1      35.576  34.549  29.185  1.00  0.00     0.014 A 
ATOM     10  C   UNL A   1      34.004  33.569  30.749  1.00  0.00     0.014 A 
ATOM     11  C   UNL A   1      36.614  33.850  29.789  1.00  0.00     0.010 A 
ATOM     12  C   UNL A   1      35.060  32.933  31.405  1.00  0.00     0.010 A 
ATOM     13  C   UNL A   1      36.370  33.040  30.910  1.00  0.00    -0.014 A 
BRANCH  13  14
ATOM     14  C   UNL A   1      37.511  32.374  31.586  1.00  0.00     0.031 A 
ATOM     15  C   UNL A   1      38.266  31.254  30.927  1.00  0.00     0.074 A 
ATOM     16  C   UNL A   1      37.863  32.801  32.814  1.00  0.00     0.049 A 
ATOM     17  N   UNL A   1      39.301  30.590  31.374  1.00  0.00    -0.248 NA
ATOM     18  C   UNL A   1      37.802  30.814  29.601  1.00  0.00     0.031 C 
ATOM     19  C   UNL A   1      37.170  33.848  33.569  1.00  0.00     0.029 A 
ATOM     20  N   UNL A   1      38.881  32.412  33.644  1.00  0.00    -0.354 N 
ATOM     21  C   UNL A   1      39.589  29.631  30.411  1.00  0.00     0.074 A 
ATOM     22  C   UNL A   1      38.616  29.795  29.351  1.00  0.00     0.031 C 
ATOM     23  C   UNL A   1      37.798  34.037  34.738  1.00  0.00     0.029 A 
ATOM     24  C   UNL A   1      38.905  33.094  34.838  1.00  0.00     0.049 A 
ATOM     25  H   UNL A   1      39.533  31.712  33.409  1.00  0.00     0.167 HD
ATOM     26  C   UNL A   1      40.583  28.711  30.404  1.00  0.00     0.034 A 
ATOM     27  C   UNL A   1      39.720  32.968  35.903  1.00  0.00     0.034 A 
ATOM     28  C   UNL A   1      41.573  28.583  31.441  1.00  0.00     0.049 A 
ATOM     29  C   UNL A   1      40.835  31.965  35.847  1.00  0.00     0.074 A 
ATOM     30  C   UNL A   1      42.660  27.727  31.492  1.00  0.00     0.029 A 
ATOM     31  N   UNL A   1      41.599  29.329  32.610  1.00  0.00    -0.354 N 
ATOM     32  N   UNL A   1      41.169  31.160  34.869  1.00  0.00    -0.248 NA
ATOM     33  C   UNL A   1      41.702  31.871  37.030  1.00  0.00     0.031 C 
ATOM     34  C   UNL A   1      43.336  27.947  32.697  1.00  0.00     0.029 A 
ATOM     35  C   UNL A   1      42.676  28.949  33.391  1.00  0.00     0.049 A 
ATOM     36  H   UNL A   1      40.947  30.026  32.849  1.00  0.00     0.167 HD
ATOM     37  C   UNL A   1      42.297  30.478  35.306  1.00  0.00     0.074 A 
ATOM     38  C   UNL A   1      42.605  30.987  36.628  1.00  0.00     0.031 C 
ATOM     39  C   UNL A   1      42.999  29.502  34.682  1.00  0.00     0.034 A 
BRANCH  26  40
ATOM     40  C   UNL A   1      40.690  27.793  29.215  1.00  0.00     0.023 A 
ATOM     41  C   UNL A   1      39.848  26.664  29.137  1.00  0.00     0.012 A 
ATOM     42  C   UNL A   1      41.551  28.089  28.140  1.00  0.00     0.148 A 
ATOM     43  C   UNL A   1      39.876  25.835  28.015  1.00  0.00     0.002 A 
ATOM     44  C   UNL A   1      41.548  27.278  27.011  1.00  0.00     0.091 A 
ATOM     45  F   UNL A   1      42.359  29.154  28.244  1.00  0.00    -0.205 F 
ATOM     46  C   UNL A   1      40.716  26.148  26.949  1.00  0.00     0.022 A 
BRANCH  44  47
ATOM     47  S   UNL A   1      42.543  27.637  25.559  1.00  0.00     0.127 S 
ATOM     48  O   UNL A   1      42.284  26.463  24.727  1.00  0.00    -0.237 OA
ATOM     49  O   UNL A   1      41.941  28.876  25.067  1.00  0.00    -0.237 OA
ATOM     50  O   UNL A   1      43.911  27.778  26.038  1.00  0.00    -0.744 OA
ENDBRANCH  44  47
ENDBRANCH  26  40
BRANCH  27  51
ATOM     51  C   UNL A   1      39.532  33.860  37.080  1.00  0.00     0.023 A 
ATOM     52  C   UNL A   1      39.897  35.216  36.986  1.00  0.00     0.012 A 
ATOM     53  C   UNL A   1      38.937  33.389  38.266  1.00  0.00     0.148 A 
ATOM     54  C   UNL A   1      39.690  36.082  38.059  1.00  0.00     0.002 A 
ATOM     55  C   UNL A   1      38.678  34.270  39.308  1.00  0.00     0.091 A 
ATOM     56  F   UNL A   1      38.615  32.090  38.346  1.00  0.00    -0.205 F 
ATOM     57  C   UNL A   1      39.067  35.614  39.214  1.00  0.00     0.022 A 
BRANCH  55  58
ATOM     58  S   UNL A   1      37.740  33.770  40.758  1.00  0.00     0.127 S 
ATOM     59  O   UNL A   1      36.543  33.192  40.156  1.00  0.00    -0.237 OA
ATOM     60  O   UNL A   1      38.641  32.805  41.391  1.00  0.00    -0.237 OA
ATOM     61  O   UNL A   1      37.548  34.993  41.526  1.00  0.00    -0.744 OA
ENDBRANCH  55  58
ENDBRANCH  27  51
BRANCH  39  62
ATOM     62  C   UNL A   1      44.182  28.927  35.412  1.00  0.00     0.023 A 
ATOM     63  C   UNL A   1      45.462  29.476  35.198  1.00  0.00     0.012 A 
ATOM     64  C   UNL A   1      44.018  27.893  36.353  1.00  0.00     0.148 A 
ATOM     65  C   UNL A   1      46.567  28.984  35.890  1.00  0.00     0.002 A 
ATOM     66  C   UNL A   1      45.118  27.435  37.070  1.00  0.00     0.091 A 
ATOM     67  F   UNL A   1      42.797  27.368  36.525  1.00  0.00    -0.205 F 
ATOM     68  C   UNL A   1      46.394  27.973  36.833  1.00  0.00     0.022 A 
BRANCH  66  69
ATOM     69  S   UNL A   1      44.969  26.198  38.363  1.00  0.00     0.127 S 
ATOM     70  O   UNL A   1      44.576  25.015  37.600  1.00  0.00    -0.237 OA
ATOM     71  O   UNL A   1      46.326  26.149  38.910  1.00  0.00    -0.237 OA
ATOM     72  O   UNL A   1      43.968  26.713  39.288  1.00  0.00    -0.744 OA
ENDBRANCH  66  69
ENDBRANCH  39  62
ENDBRANCH  13  14
ENDBRANCH   6   8
ENDBRANCH   3   4
ENDBRANCH   2   3
ENDBRANCH   1   2
BRANCH   1  73
ATOM     73  C   UNL A   1      32.956  30.035  26.107  1.00  0.00     0.116 C 
BRANCH  73  74
ATOM     74  N   UNL A   1      32.829  29.829  24.676  1.00  0.00    -0.351 N 
ATOM     75  C   UNL A   1      32.170  28.826  24.017  1.00  0.00     0.279 C 
ATOM     76  H   UNL A   1      33.275  30.496  24.106  1.00  0.00     0.163 HD
ATOM     77  O   UNL A   1      32.126  28.845  22.787  1.00  0.00    -0.268 OA
BRANCH  75  78
ATOM     78  C   UNL A   1      31.460  27.756  24.850  1.00  0.00     0.283 C 
ATOM     79  C   UNL A   1      30.477  27.002  23.956  1.00  0.00     0.151 C 
ATOM     80  N   UNL A   1      32.421  26.791  25.434  1.00  0.00    -0.321 N 
ATOM     81  S   UNL A   1      30.362  25.345  24.678  1.00  0.00    -0.088 SA
ATOM     82  C   UNL A   1      31.590  25.701  25.948  1.00  0.00     0.274 C 
ATOM     83  H   UNL A   1      32.951  27.225  26.189  1.00  0.00     0.348 HD
ATOM     84  H   UNL A   1      33.104  26.466  24.750  1.00  0.00     0.348 HD
BRANCH  82  85
ATOM     85  C   UNL A   1      32.427  24.560  26.478  1.00  0.00     0.024 A 
ATOM     86  C   UNL A   1      31.995  23.613  27.412  1.00  0.00     0.011 A 
ATOM     87  C   UNL A   1      33.733  24.438  25.958  1.00  0.00     0.057 A 
ATOM     88  C   UNL A   1      32.854  22.592  27.828  1.00  0.00     0.004 A 
ATOM     89  C   UNL A   1      34.574  23.390  26.322  1.00  0.00     0.120 A 
ATOM     90  C   UNL A   1      34.135  22.483  27.284  1.00  0.00     0.046 A 
BRANCH  89  91
ATOM     91  O   UNL A   1      35.817  23.152  25.808  1.00  0.00    -0.489 OA
BRANCH  91  92
ATOM     92  C   UNL A   1      35.928  22.476  24.548  1.00  0.00     0.267 C 
BRANCH  92  93
ATOM     93  C   UNL A   1      35.105  21.207  24.436  1.00  0.00     0.008 A 
ATOM     94  C   UNL A   1      33.760  21.297  24.028  1.00  0.00     0.010 A 
ATOM     95  C   UNL A   1      35.623  19.938  24.746  1.00  0.00     0.049 A 
ATOM     96  C   UNL A   1      32.942  20.167  23.994  1.00  0.00     0.021 A 
ATOM     97  C   UNL A   1      34.806  18.805  24.703  1.00  0.00     0.041 A 
ATOM     98  Cl  UNL A   1      37.282  19.708  25.172  1.00  0.00    -0.084 Cl
ATOM     99  C   UNL A   1      33.467  18.927  24.339  1.00  0.00     0.042 A 
ATOM    100  Cl  UNL A   1      32.460  17.533  24.304  1.00  0.00    -0.084 Cl
ENDBRANCH  92  93
ENDBRANCH  91  92
ENDBRANCH  89  91
ENDBRANCH  82  85
ENDBRANCH  75  78
ENDBRANCH  73  74
ENDBRANCH   1  73
TORSDOF 18
ENDMDL
MODEL 2
REMARK VINA RESULT:     -11.9      3.031      8.631
REMARK SMILES O=C(NCCCCNC(=O)[C@H]1CS[C@@H](c2cccc(OCc3ccc(Cl)cc3Cl)c2)[NH2+]1)c1ccc(-c2c3nc(c(-c4cccc(S(=O)(=O)[O-])c4F)c4ccc([nH]4)c(-c4cccc(S(=O)(=O)[O-])c4F)c4nc(c(-c5cccc(S(=O)(=O)[O-])c5F)c5ccc2[nH]5)C=C4)C=C3)cc1
REMARK SMILES IDX 6 1 5 2 4 3 3 4 1 5 2 6 32 8 33 9 94 10 34 11 93 12 35 13
REMARK SMILES IDX 36 14 37 15 87 16 38 17 92 18 86 19 88 20 39 21 91 22 85 23
REMARK SMILES IDX 84 24 40 26 72 27 52 28 71 29 53 30 56 31 70 32 89 33 54 34
REMARK SMILES IDX 55 35 69 37 90 38 57 39 41 40 42 41 50 42 43 43 45 44 51 45
REMARK SMILES IDX 44 46 46 47 47 48 48 49 49 50 73 51 74 52 82 53 75 54 77 55
REMARK SMILES IDX 83 56 76 57 78 58 79 59 80 60 81 61 58 62 59 63 67 64 60 65
REMARK SMILES IDX 62 66 68 67 61 68 63 69 64 70 65 71 66 72 7 73 8 74 9 75
REMARK SMILES IDX 10 77 11 78 12 79 31 80 13 81 14 82 15 85 16 86 30 87 17 88
REMARK SMILES IDX 19 89 18 90 20 91 21 92 22 93 23 94 28 95 24 96 27 97 29 98
REMARK SMILES IDX 25 99 26 100
REMARK H PARENT 3 7 88 25 56 36 8 76 31 83 31 84
REMARK Flexibility Score: inf
ROOT
ATOM      1  C   UNL A   1      32.145  27.566  25.320  1.00  0.00     0.023 C 
ENDROOT
BRANCH   1   2
ATOM      2  C   UNL A   1      33.336  28.373  24.807  1.00  0.00     0.023 C 
BRANCH   2   3
ATOM      3  C   UNL A   1      34.158  29.066  25.887  1.00  0.00     0.116 C 
BRANCH   3   4
ATOM      4  N   UNL A   1      33.585  30.337  26.311  1.00  0.00    -0.352 N 
ATOM      5  O   UNL A   1      33.292  32.127  27.647  1.00  0.00    -0.269 OA
ATOM      6  C   UNL A   1      33.978  31.156  27.341  1.00  0.00     0.251 C 
ATOM      7  H   UNL A   1      32.812  30.650  25.788  1.00  0.00     0.163 HD
BRANCH   6   8
ATOM      8  C   UNL A   1      35.212  30.836  28.089  1.00  0.00     0.039 A 
ATOM      9  C   UNL A   1      35.293  29.663  28.843  1.00  0.00     0.014 A 
ATOM     10  C   UNL A   1      36.281  31.734  28.061  1.00  0.00     0.014 A 
ATOM     11  C   UNL A   1      36.380  29.461  29.685  1.00  0.00     0.010 A 
ATOM     12  C   UNL A   1      37.409  31.487  28.846  1.00  0.00     0.010 A 
ATOM     13  C   UNL A   1      37.453  30.366  29.691  1.00  0.00    -0.014 A 
BRANCH  13  14
ATOM     14  C   UNL A   1      38.638  30.080  30.537  1.00  0.00     0.031 A 
ATOM     15  C   UNL A   1      38.788  30.683  31.906  1.00  0.00     0.074 A 
ATOM     16  C   UNL A   1      39.586  29.256  30.050  1.00  0.00     0.049 A 
ATOM     17  N   UNL A   1      39.748  30.509  32.777  1.00  0.00    -0.248 NA
ATOM     18  C   UNL A   1      37.732  31.603  32.358  1.00  0.00     0.031 C 
ATOM     19  C   UNL A   1      39.569  28.652  28.715  1.00  0.00     0.029 A 
ATOM     20  N   UNL A   1      40.744  28.785  30.611  1.00  0.00    -0.354 N 
ATOM     21  C   UNL A   1      39.439  31.322  33.859  1.00  0.00     0.074 A 
ATOM     22  C   UNL A   1      38.199  31.997  33.536  1.00  0.00     0.031 C 
ATOM     23  C   UNL A   1      40.649  27.872  28.570  1.00  0.00     0.029 A 
ATOM     24  C   UNL A   1      41.460  27.957  29.779  1.00  0.00     0.049 A 
ATOM     25  H   UNL A   1      41.037  29.018  31.523  1.00  0.00     0.167 HD
ATOM     26  C   UNL A   1      40.117  31.479  35.021  1.00  0.00     0.034 A 
ATOM     27  C   UNL A   1      42.643  27.341  29.961  1.00  0.00     0.034 A 
ATOM     28  C   UNL A   1      41.326  30.771  35.353  1.00  0.00     0.049 A 
ATOM     29  C   UNL A   1      43.350  27.505  31.274  1.00  0.00     0.074 A 
ATOM     30  C   UNL A   1      42.051  30.811  36.532  1.00  0.00     0.029 A 
ATOM     31  N   UNL A   1      41.991  29.897  34.506  1.00  0.00    -0.354 N 
ATOM     32  N   UNL A   1      42.971  28.175  32.335  1.00  0.00    -0.248 NA
ATOM     33  C   UNL A   1      44.634  26.807  31.428  1.00  0.00     0.031 C 
ATOM     34  C   UNL A   1      43.160  29.970  36.394  1.00  0.00     0.029 A 
ATOM     35  C   UNL A   1      43.120  29.397  35.133  1.00  0.00     0.049 A 
ATOM     36  H   UNL A   1      41.704  29.666  33.594  1.00  0.00     0.167 HD
ATOM     37  C   UNL A   1      43.957  27.965  33.290  1.00  0.00     0.074 A 
ATOM     38  C   UNL A   1      44.936  27.079  32.690  1.00  0.00     0.031 C 
ATOM     39  C   UNL A   1      44.057  28.476  34.541  1.00  0.00     0.034 A 
BRANCH  26  40
ATOM     40  C   UNL A   1      39.549  32.418  36.052  1.00  0.00     0.023 A 
ATOM     41  C   UNL A   1      39.853  33.793  35.977  1.00  0.00     0.012 A 
ATOM     42  C   UNL A   1      38.650  31.962  37.036  1.00  0.00     0.148 A 
ATOM     43  C   UNL A   1      39.284  34.695  36.876  1.00  0.00     0.002 A 
ATOM     44  C   UNL A   1      38.061  32.872  37.907  1.00  0.00     0.091 A 
ATOM     45  F   UNL A   1      38.391  30.648  37.106  1.00  0.00    -0.205 F 
ATOM     46  C   UNL A   1      38.381  34.237  37.832  1.00  0.00     0.022 A 
BRANCH  44  47
ATOM     47  S   UNL A   1      36.833  32.389  39.126  1.00  0.00     0.127 S 
ATOM     48  O   UNL A   1      37.078  30.952  39.237  1.00  0.00    -0.237 OA
ATOM     49  O   UNL A   1      37.234  33.167  40.298  1.00  0.00    -0.237 OA
ATOM     50  O   UNL A   1      35.544  32.765  38.563  1.00  0.00    -0.744 OA
ENDBRANCH  44  47
ENDBRANCH  26  40
BRANCH  27  51
ATOM     51  C   UNL A   1      43.191  26.472  28.884  1.00  0.00     0.023 A 
ATOM     52  C   UNL A   1      42.742  25.143  28.770  1.00  0.00     0.012 A 
ATOM     53  C   UNL A   1      44.105  26.972  27.936  1.00  0.00     0.148 A 
ATOM     54  C   UNL A   1      43.207  24.323  27.743  1.00  0.00     0.002 A 
ATOM     55  C   UNL A   1      44.516  26.169  26.880  1.00  0.00     0.091 A 
ATOM     56  F   UNL A   1      44.538  28.234  28.071  1.00  0.00    -0.205 F 
ATOM     57  C   UNL A   1      44.081  24.839  26.790  1.00  0.00     0.022 A 
BRANCH  55  58
ATOM     58  S   UNL A   1      45.516  26.816  25.534  1.00  0.00     0.127 S 
ATOM     59  O   UNL A   1      44.666  27.883  25.014  1.00  0.00    -0.237 OA
ATOM     60  O   UNL A   1      46.720  27.270  26.232  1.00  0.00    -0.237 OA
ATOM     61  O   UNL A   1      45.739  25.682  24.647  1.00  0.00    -0.744 OA
ENDBRANCH  55  58
ENDBRANCH  27  51
BRANCH  39  62
ATOM     62  C   UNL A   1      45.258  28.081  35.355  1.00  0.00     0.023 A 
ATOM     63  C   UNL A   1      46.443  28.836  35.252  1.00  0.00     0.012 A 
ATOM     64  C   UNL A   1      45.195  27.008  36.263  1.00  0.00     0.148 A 
ATOM     65  C   UNL A   1      47.558  28.510  36.022  1.00  0.00     0.002 A 
ATOM     66  C   UNL A   1      46.297  26.714  37.059  1.00  0.00     0.091 A 
ATOM     67  F   UNL A   1      44.066  26.287  36.328  1.00  0.00    -0.205 F 
ATOM     68  C   UNL A   1      47.482  27.458  36.933  1.00  0.00     0.022 A 
BRANCH  66  69
ATOM     69  S   UNL A   1      46.254  25.433  38.316  1.00  0.00     0.127 S 
ATOM     70  O   UNL A   1      45.145  25.877  39.158  1.00  0.00    -0.237 OA
ATOM     71  O   UNL A   1      45.980  24.229  37.530  1.00  0.00    -0.237 OA
ATOM     72  O   UNL A   1      47.569  25.452  38.945  1.00  0.00    -0.744 OA
ENDBRANCH  66  69
ENDBRANCH  39  62
ENDBRANCH  13  14
ENDBRANCH   6   8
ENDBRANCH   3   4
ENDBRANCH   2   3
ENDBRANCH   1   2
BRANCH   1  73
ATOM     73  C   UNL A   1      32.191  26.085  24.967  1.00  0.00     0.116 C 
BRANCH  73  74
ATOM     74  N   UNL A   1      32.789  25.853  23.665  1.00  0.00    -0.351 N 
ATOM     75  C   UNL A   1      33.689  24.886  23.304  1.00  0.00     0.279 C 
ATOM     76  H   UNL A   1      32.513  26.470  22.950  1.00  0.00     0.163 HD
ATOM     77  O   UNL A   1      34.048  24.811  22.128  1.00  0.00    -0.268 OA
BRANCH  75  78
ATOM     78  C   UNL A   1      34.160  23.898  24.374  1.00  0.00     0.283 C 
ATOM     79  C   UNL A   1      34.036  22.477  23.826  1.00  0.00     0.151 C 
ATOM     80  N   UNL A   1      35.567  24.145  24.766  1.00  0.00    -0.321 N 
ATOM     81  S   UNL A   1      35.321  21.531  24.683  1.00  0.00    -0.088 SA
ATOM     82  C   UNL A   1      35.944  22.975  25.561  1.00  0.00     0.274 C 
ATOM     83  H   UNL A   1      35.641  24.997  25.321  1.00  0.00     0.348 HD
ATOM     84  H   UNL A   1      36.175  24.274  23.957  1.00  0.00     0.348 HD
BRANCH  82  85
ATOM     85  C   UNL A   1      37.405  23.007  25.946  1.00  0.00     0.024 A 
ATOM     86  C   UNL A   1      38.057  24.096  26.535  1.00  0.00     0.011 A 
ATOM     87  C   UNL A   1      38.147  21.830  25.716  1.00  0.00     0.057 A 
ATOM     88  C   UNL A   1      39.414  24.013  26.858  1.00  0.00     0.004 A 
ATOM     89  C   UNL A   1      39.483  21.718  26.089  1.00  0.00     0.120 A 
ATOM     90  C   UNL A   1      40.120  22.829  26.636  1.00  0.00     0.046 A 
BRANCH  89  91
ATOM     91  O   UNL A   1      40.249  20.592  25.976  1.00  0.00    -0.489 OA
BRANCH  91  92
ATOM     92  C   UNL A   1      41.338  20.402  26.889  1.00  0.00     0.267 C 
BRANCH  92  93
ATOM     93  C   UNL A   1      42.702  20.290  26.235  1.00  0.00     0.008 A 
ATOM     94  C   UNL A   1      43.335  21.458  25.769  1.00  0.00     0.010 A 
ATOM     95  C   UNL A   1      43.356  19.060  26.051  1.00  0.00     0.049 A 
ATOM     96  C   UNL A   1      44.550  21.394  25.085  1.00  0.00     0.021 A 
ATOM     97  C   UNL A   1      44.576  18.997  25.373  1.00  0.00     0.041 A 
ATOM     98  Cl  UNL A   1      42.706  17.580  26.662  1.00  0.00    -0.084 Cl
ATOM     99  C   UNL A   1      45.160  20.162  24.883  1.00  0.00     0.042 A 
ATOM    100  Cl  UNL A   1      46.653  20.078  24.034  1.00  0.00    -0.084 Cl
ENDBRANCH  92  93
ENDBRANCH  91  92
ENDBRANCH  89  91
ENDBRANCH  82  85
ENDBRANCH  75  78
ENDBRANCH  73  74
ENDBRANCH   1  73
TORSDOF 18
ENDMDL
MODEL 3
REMARK VINA RESULT:     -11.7      1.855      2.814
REMARK SMILES O=C(NCCCCNC(=O)[C@H]1CS[C@@H](c2cccc(OCc3ccc(Cl)cc3Cl)c2)[NH2+]1)c1ccc(-c2c3nc(c(-c4cccc(S(=O)(=O)[O-])c4F)c4ccc([nH]4)c(-c4cccc(S(=O)(=O)[O-])c4F)c4nc(c(-c5cccc(S(=O)(=O)[O-])c5F)c5ccc2[nH]5)C=C4)C=C3)cc1
REMARK SMILES IDX 6 1 5 2 4 3 3 4 1 5 2 6 32 8 33 9 94 10 34 11 93 12 35 13
REMARK SMILES IDX 36 14 37 15 87 16 38 17 92 18 86 19 88 20 39 21 91 22 85 23
REMARK SMILES IDX 84 24 40 26 72 27 52 28 71 29 53 30 56 31 70 32 89 33 54 34
REMARK SMILES IDX 55 35 69 37 90 38 57 39 41 40 42 41 50 42 43 43 45 44 51 45
REMARK SMILES IDX 44 46 46 47 47 48 48 49 49 50 73 51 74 52 82 53 75 54 77 55
REMARK SMILES IDX 83 56 76 57 78 58 79 59 80 60 81 61 58 62 59 63 67 64 60 65
REMARK SMILES IDX 62 66 68 67 61 68 63 69 64 70 65 71 66 72 7 73 8 74 9 75
REMARK SMILES IDX 10 77 11 78 12 79 31 80 13 81 14 82 15 85 16 86 30 87 17 88
REMARK SMILES IDX 19 89 18 90 20 91 21 92 22 93 23 94 28 95 24 96 27 97 29 98
REMARK SMILES IDX 25 99 26 100
REMARK H PARENT 3 7 88 25 56 36 8 76 31 83 31 84
REMARK Flexibility Score: inf
ROOT
ATOM      1  C   UNL A   1      34.700  33.593  28.933  1.00  0.00     0.023 C 
ENDROOT
BRANCH   1   2
ATOM      2  C   UNL A   1      33.451  34.469  28.861  1.00  0.00     0.023 C 
BRANCH   2   3
ATOM      3  C   UNL A   1      33.612  35.870  29.439  1.00  0.00     0.116 C 
BRANCH   3   4
ATOM      4  N   UNL A   1      32.622  36.183  30.460  1.00  0.00    -0.352 N 
ATOM      5  O   UNL A   1      31.620  36.052  32.474  1.00  0.00    -0.269 OA
ATOM      6  C   UNL A   1      32.608  35.818  31.785  1.00  0.00     0.251 C 
ATOM      7  H   UNL A   1      31.859  36.729  30.161  1.00  0.00     0.163 HD
BRANCH   6   8
ATOM      8  C   UNL A   1      33.779  35.119  32.354  1.00  0.00     0.039 A 
ATOM      9  C   UNL A   1      35.039  35.722  32.329  1.00  0.00     0.014 A 
ATOM     10  C   UNL A   1      33.619  33.836  32.883  1.00  0.00     0.014 A 
ATOM     11  C   UNL A   1      36.160  34.988  32.696  1.00  0.00     0.010 A 
ATOM     12  C   UNL A   1      34.739  33.131  33.329  1.00  0.00     0.010 A 
ATOM     13  C   UNL A   1      36.022  33.687  33.207  1.00  0.00    -0.014 A 
BRANCH  13  14
ATOM     14  C   UNL A   1      37.229  32.958  33.671  1.00  0.00     0.031 A 
ATOM     15  C   UNL A   1      37.823  31.835  32.867  1.00  0.00     0.074 A 
ATOM     16  C   UNL A   1      37.791  33.330  34.837  1.00  0.00     0.049 A 
ATOM     17  N   UNL A   1      38.889  31.121  33.122  1.00  0.00    -0.248 NA
ATOM     18  C   UNL A   1      37.136  31.457  31.622  1.00  0.00     0.031 C 
ATOM     19  C   UNL A   1      37.271  34.375  35.723  1.00  0.00     0.029 A 
ATOM     20  N   UNL A   1      38.913  32.879  35.480  1.00  0.00    -0.354 N 
ATOM     21  C   UNL A   1      38.981  30.186  32.099  1.00  0.00     0.074 A 
ATOM     22  C   UNL A   1      37.858  30.420  31.215  1.00  0.00     0.031 C 
ATOM     23  C   UNL A   1      38.085  34.502  36.780  1.00  0.00     0.029 A 
ATOM     24  C   UNL A   1      39.156  33.518  36.673  1.00  0.00     0.049 A 
ATOM     25  H   UNL A   1      39.490  32.164  35.123  1.00  0.00     0.167 HD
ATOM     26  C   UNL A   1      39.923  29.233  31.905  1.00  0.00     0.034 A 
ATOM     27  C   UNL A   1      40.126  33.327  37.588  1.00  0.00     0.034 A 
ATOM     28  C   UNL A   1      41.062  29.036  32.764  1.00  0.00     0.049 A 
ATOM     29  C   UNL A   1      41.176  32.289  37.324  1.00  0.00     0.074 A 
ATOM     30  C   UNL A   1      42.107  28.140  32.615  1.00  0.00     0.029 A 
ATOM     31  N   UNL A   1      41.304  29.740  33.934  1.00  0.00    -0.354 N 
ATOM     32  N   UNL A   1      41.317  31.507  36.283  1.00  0.00    -0.248 NA
ATOM     33  C   UNL A   1      42.217  32.125  38.348  1.00  0.00     0.031 C 
ATOM     34  C   UNL A   1      42.976  28.296  33.700  1.00  0.00     0.029 A 
ATOM     35  C   UNL A   1      42.477  29.296  34.519  1.00  0.00     0.049 A 
ATOM     36  H   UNL A   1      40.727  30.450  34.295  1.00  0.00     0.167 HD
ATOM     37  C   UNL A   1      42.472  30.772  36.512  1.00  0.00     0.074 A 
ATOM     38  C   UNL A   1      43.009  31.224  37.781  1.00  0.00     0.031 C 
ATOM     39  C   UNL A   1      43.025  29.793  35.756  1.00  0.00     0.034 A 
BRANCH  26  40
ATOM     40  C   UNL A   1      39.801  28.352  30.689  1.00  0.00     0.023 A 
ATOM     41  C   UNL A   1      38.950  27.229  30.733  1.00  0.00     0.012 A 
ATOM     42  C   UNL A   1      40.452  28.680  29.483  1.00  0.00     0.148 A 
ATOM     43  C   UNL A   1      38.762  26.437  29.601  1.00  0.00     0.002 A 
ATOM     44  C   UNL A   1      40.234  27.905  28.350  1.00  0.00     0.091 A 
ATOM     45  F   UNL A   1      41.275  29.738  29.468  1.00  0.00    -0.205 F 
ATOM     46  C   UNL A   1      39.394  26.781  28.408  1.00  0.00     0.022 A 
BRANCH  44  47
ATOM     47  S   UNL A   1      40.947  28.307  26.751  1.00  0.00     0.127 S 
ATOM     48  O   UNL A   1      40.019  29.326  26.263  1.00  0.00    -0.237 OA
ATOM     49  O   UNL A   1      42.269  28.813  27.117  1.00  0.00    -0.237 OA
ATOM     50  O   UNL A   1      40.964  27.061  25.997  1.00  0.00    -0.744 OA
ENDBRANCH  44  47
ENDBRANCH  26  40
BRANCH  27  51
ATOM     51  C   UNL A   1      40.165  34.185  38.804  1.00  0.00     0.023 A 
ATOM     52  C   UNL A   1      40.974  35.337  38.813  1.00  0.00     0.012 A 
ATOM     53  C   UNL A   1      39.360  33.902  39.925  1.00  0.00     0.148 A 
ATOM     54  C   UNL A   1      40.994  36.181  39.924  1.00  0.00     0.002 A 
ATOM     55  C   UNL A   1      39.338  34.779  41.001  1.00  0.00     0.091 A 
ATOM     56  F   UNL A   1      38.611  32.790  39.907  1.00  0.00    -0.205 F 
ATOM     57  C   UNL A   1      40.166  35.911  41.011  1.00  0.00     0.022 A 
BRANCH  55  58
ATOM     58  S   UNL A   1      38.183  34.575  42.363  1.00  0.00     0.127 S 
ATOM     59  O   UNL A   1      38.438  35.774  43.155  1.00  0.00    -0.237 OA
ATOM     60  O   UNL A   1      36.892  34.554  41.673  1.00  0.00    -0.237 OA
ATOM     61  O   UNL A   1      38.545  33.307  42.981  1.00  0.00    -0.744 OA
ENDBRANCH  55  58
ENDBRANCH  27  51
BRANCH  39  62
ATOM     62  C   UNL A   1      44.286  29.153  36.269  1.00  0.00     0.023 A 
ATOM     63  C   UNL A   1      45.530  29.751  35.988  1.00  0.00     0.012 A 
ATOM     64  C   UNL A   1      44.236  28.002  37.078  1.00  0.00     0.148 A 
ATOM     65  C   UNL A   1      46.710  29.196  36.482  1.00  0.00     0.002 A 
ATOM     66  C   UNL A   1      45.412  27.478  37.602  1.00  0.00     0.091 A 
ATOM     67  F   UNL A   1      43.044  27.435  37.313  1.00  0.00    -0.205 F 
ATOM     68  C   UNL A   1      46.650  28.068  37.298  1.00  0.00     0.022 A 
BRANCH  66  69
ATOM     69  S   UNL A   1      45.417  26.081  38.730  1.00  0.00     0.127 S 
ATOM     70  O   UNL A   1      46.823  26.020  39.124  1.00  0.00    -0.237 OA
ATOM     71  O   UNL A   1      44.504  26.525  39.785  1.00  0.00    -0.237 OA
ATOM     72  O   UNL A   1      44.930  24.946  37.955  1.00  0.00    -0.744 OA
ENDBRANCH  66  69
ENDBRANCH  39  62
ENDBRANCH  13  14
ENDBRANCH   6   8
ENDBRANCH   3   4
ENDBRANCH   2   3
ENDBRANCH   1   2
BRANCH   1  73
ATOM     73  C   UNL A   1      34.420  32.124  29.223  1.00  0.00     0.116 C 
BRANCH  73  74
ATOM     74  N   UNL A   1      35.337  31.245  28.519  1.00  0.00    -0.351 N 
ATOM     75  C   UNL A   1      35.040  30.190  27.697  1.00  0.00     0.279 C 
ATOM     76  H   UNL A   1      36.294  31.431  28.650  1.00  0.00     0.163 HD
ATOM     77  O   UNL A   1      35.959  29.588  27.141  1.00  0.00    -0.268 OA
BRANCH  75  78
ATOM     78  C   UNL A   1      33.567  29.850  27.459  1.00  0.00     0.283 C 
ATOM     79  C   UNL A   1      33.002  30.803  26.407  1.00  0.00     0.151 C 
ATOM     80  N   UNL A   1      33.398  28.455  26.988  1.00  0.00    -0.321 N 
ATOM     81  S   UNL A   1      31.683  29.870  25.589  1.00  0.00    -0.088 SA
ATOM     82  C   UNL A   1      32.005  28.377  26.545  1.00  0.00     0.274 C 
ATOM     83  H   UNL A   1      33.571  27.797  27.747  1.00  0.00     0.348 HD
ATOM     84  H   UNL A   1      34.053  28.218  26.244  1.00  0.00     0.348 HD
BRANCH  82  85
ATOM     85  C   UNL A   1      31.691  27.040  25.916  1.00  0.00     0.024 A 
ATOM     86  C   UNL A   1      30.571  26.256  26.213  1.00  0.00     0.011 A 
ATOM     87  C   UNL A   1      32.590  26.574  24.935  1.00  0.00     0.057 A 
ATOM     88  C   UNL A   1      30.375  25.034  25.563  1.00  0.00     0.004 A 
ATOM     89  C   UNL A   1      32.372  25.388  24.240  1.00  0.00     0.120 A 
ATOM     90  C   UNL A   1      31.272  24.606  24.582  1.00  0.00     0.046 A 
BRANCH  89  91
ATOM     91  O   UNL A   1      33.146  24.907  23.222  1.00  0.00    -0.489 OA
BRANCH  91  92
ATOM     92  C   UNL A   1      33.182  23.493  22.989  1.00  0.00     0.267 C 
BRANCH  92  93
ATOM     93  C   UNL A   1      34.379  22.781  23.592  1.00  0.00     0.008 A 
ATOM     94  C   UNL A   1      35.674  23.241  23.286  1.00  0.00     0.010 A 
ATOM     95  C   UNL A   1      34.251  21.660  24.429  1.00  0.00     0.049 A 
ATOM     96  C   UNL A   1      36.805  22.566  23.747  1.00  0.00     0.021 A 
ATOM     97  C   UNL A   1      35.383  20.989  24.899  1.00  0.00     0.041 A 
ATOM     98  Cl  UNL A   1      32.708  21.070  24.935  1.00  0.00    -0.084 Cl
ATOM     99  C   UNL A   1      36.653  21.438  24.546  1.00  0.00     0.042 A 
ATOM    100  Cl  UNL A   1      38.044  20.599  25.111  1.00  0.00    -0.084 Cl
ENDBRANCH  92  93
ENDBRANCH  91  92
ENDBRANCH  89  91
ENDBRANCH  82  85
ENDBRANCH  75  78
ENDBRANCH  73  74
ENDBRANCH   1  73
TORSDOF 18
ENDMDL
