MODEL 1
REMARK VINA RESULT:     -12.4      0.000      0.000
REMARK SMILES O=C(NCCCCNC(=O)c1cc(OCc2ccccc2C(F)(F)F)cs1)c1ccc(-c2c3nc(c(-c4cccc(S(=O)(=O)[O-])c4F)c4ccc([nH]4)c(-c4cccc(S(=O)(=O)[O-])c4F)c4nc(c(-c5cccc(S(=O)(=O)[O-])c5F)c5ccc2[nH]5)C=C4)C=C3)cc1
REMARK SMILES IDX 6 1 5 2 4 3 3 4 1 5 2 6 28 8 29 9 90 10 30 11 89 12 31 13
REMARK SMILES IDX 32 14 33 15 83 16 34 17 88 18 82 19 84 20 35 21 87 22 81 23
REMARK SMILES IDX 80 24 36 26 68 27 48 28 67 29 49 30 52 31 66 32 85 33 50 34
REMARK SMILES IDX 51 35 65 37 86 38 53 39 37 40 38 41 46 42 39 43 41 44 47 45
REMARK SMILES IDX 40 46 42 47 43 48 44 49 45 50 69 51 70 52 78 53 71 54 73 55
REMARK SMILES IDX 79 56 72 57 74 58 75 59 76 60 77 61 54 62 55 63 63 64 56 65
REMARK SMILES IDX 58 66 64 67 57 68 59 69 60 70 61 71 62 72 7 73 8 74 9 75
REMARK SMILES IDX 10 77 11 78 12 79 27 80 13 81 26 82 14 83 15 84 16 85 17 86
REMARK SMILES IDX 21 87 18 88 20 89 19 90 22 91 23 92 24 93 25 94
REMARK H PARENT 3 7 84 25 52 36 8 76
REMARK Flexibility Score: inf
ROOT
ATOM      1  C   UNL A   1      32.328  29.243  24.044  1.00  0.00     0.023 C 
ENDROOT
BRANCH   1   2
ATOM      2  C   UNL A   1      31.638  29.291  25.404  1.00  0.00     0.023 C 
BRANCH   2   3
ATOM      3  C   UNL A   1      32.494  29.801  26.556  1.00  0.00     0.116 C 
BRANCH   3   4
ATOM      4  N   UNL A   1      32.331  31.225  26.814  1.00  0.00    -0.352 N 
ATOM      5  O   UNL A   1      32.842  33.271  27.609  1.00  0.00    -0.269 OA
ATOM      6  C   UNL A   1      33.204  32.117  27.398  1.00  0.00     0.251 C 
ATOM      7  H   UNL A   1      31.469  31.607  26.531  1.00  0.00     0.163 HD
BRANCH   6   8
ATOM      8  C   UNL A   1      34.552  31.659  27.803  1.00  0.00     0.039 A 
ATOM      9  C   UNL A   1      34.808  30.300  27.996  1.00  0.00     0.014 A 
ATOM     10  C   UNL A   1      35.551  32.602  28.057  1.00  0.00     0.014 A 
ATOM     11  C   UNL A   1      35.978  29.906  28.635  1.00  0.00     0.010 A 
ATOM     12  C   UNL A   1      36.768  32.191  28.610  1.00  0.00     0.010 A 
ATOM     13  C   UNL A   1      36.967  30.848  28.964  1.00  0.00    -0.014 A 
BRANCH  13  14
ATOM     14  C   UNL A   1      38.194  30.394  29.674  1.00  0.00     0.031 A 
ATOM     15  C   UNL A   1      38.476  30.813  31.094  1.00  0.00     0.074 A 
ATOM     16  C   UNL A   1      39.042  29.561  29.039  1.00  0.00     0.049 A 
ATOM     17  N   UNL A   1      39.459  30.450  31.878  1.00  0.00    -0.248 NA
ATOM     18  C   UNL A   1      37.544  31.770  31.715  1.00  0.00     0.031 C 
ATOM     19  C   UNL A   1      38.898  29.113  27.652  1.00  0.00     0.029 A 
ATOM     20  N   UNL A   1      40.183  28.935  29.473  1.00  0.00    -0.354 N 
ATOM     21  C   UNL A   1      39.295  31.166  33.059  1.00  0.00     0.074 A 
ATOM     22  C   UNL A   1      38.119  31.991  32.889  1.00  0.00     0.031 C 
ATOM     23  C   UNL A   1      39.885  28.254  27.362  1.00  0.00     0.029 A 
ATOM     24  C   UNL A   1      40.759  28.126  28.522  1.00  0.00     0.049 A 
ATOM     25  H   UNL A   1      40.552  29.054  30.377  1.00  0.00     0.167 HD
ATOM     26  C   UNL A   1      40.046  31.130  34.188  1.00  0.00     0.034 A 
ATOM     27  C   UNL A   1      41.870  27.365  28.575  1.00  0.00     0.034 A 
ATOM     28  C   UNL A   1      41.185  30.269  34.373  1.00  0.00     0.049 A 
ATOM     29  C   UNL A   1      42.652  27.308  29.855  1.00  0.00     0.074 A 
ATOM     30  C   UNL A   1      41.966  30.105  35.505  1.00  0.00     0.029 A 
ATOM     31  N   UNL A   1      41.709  29.428  33.403  1.00  0.00    -0.354 N 
ATOM     32  N   UNL A   1      42.404  27.893  31.000  1.00  0.00    -0.248 NA
ATOM     33  C   UNL A   1      43.852  26.459  29.859  1.00  0.00     0.031 C 
ATOM     34  C   UNL A   1      42.973  29.179  35.212  1.00  0.00     0.029 A 
ATOM     35  C   UNL A   1      42.806  28.749  33.905  1.00  0.00     0.049 A 
ATOM     36  H   UNL A   1      41.354  29.329  32.490  1.00  0.00     0.167 HD
ATOM     37  C   UNL A   1      43.393  27.458  31.873  1.00  0.00     0.074 A 
ATOM     38  C   UNL A   1      44.234  26.542  31.127  1.00  0.00     0.031 C 
ATOM     39  C   UNL A   1      43.598  27.797  33.169  1.00  0.00     0.034 A 
BRANCH  26  40
ATOM     40  C   UNL A   1      39.644  32.026  35.332  1.00  0.00     0.023 A 
ATOM     41  C   UNL A   1      40.029  33.382  35.329  1.00  0.00     0.012 A 
ATOM     42  C   UNL A   1      38.828  31.543  36.376  1.00  0.00     0.148 A 
ATOM     43  C   UNL A   1      39.637  34.235  36.361  1.00  0.00     0.002 A 
ATOM     44  C   UNL A   1      38.408  32.410  37.380  1.00  0.00     0.091 A 
ATOM     45  F   UNL A   1      38.488  30.247  36.377  1.00  0.00    -0.205 F 
ATOM     46  C   UNL A   1      38.819  33.752  37.379  1.00  0.00     0.022 A 
BRANCH  44  47
ATOM     47  S   UNL A   1      37.289  31.897  38.690  1.00  0.00     0.127 S 
ATOM     48  O   UNL A   1      36.992  30.520  38.301  1.00  0.00    -0.237 OA
ATOM     49  O   UNL A   1      38.127  32.026  39.884  1.00  0.00    -0.237 OA
ATOM     50  O   UNL A   1      36.166  32.823  38.640  1.00  0.00    -0.744 OA
ENDBRANCH  44  47
ENDBRANCH  26  40
BRANCH  27  51
ATOM     51  C   UNL A   1      42.255  26.541  27.395  1.00  0.00     0.023 A 
ATOM     52  C   UNL A   1      43.003  27.128  26.356  1.00  0.00     0.012 A 
ATOM     53  C   UNL A   1      41.933  25.172  27.321  1.00  0.00     0.148 A 
ATOM     54  C   UNL A   1      43.405  26.372  25.255  1.00  0.00     0.002 A 
ATOM     55  C   UNL A   1      42.387  24.411  26.251  1.00  0.00     0.091 A 
ATOM     56  F   UNL A   1      41.206  24.636  28.312  1.00  0.00    -0.205 F 
ATOM     57  C   UNL A   1      43.109  25.012  25.209  1.00  0.00     0.022 A 
BRANCH  55  58
ATOM     58  S   UNL A   1      42.176  22.628  26.186  1.00  0.00     0.127 S 
ATOM     59  O   UNL A   1      40.727  22.503  26.062  1.00  0.00    -0.237 OA
ATOM     60  O   UNL A   1      42.931  22.277  24.982  1.00  0.00    -0.237 OA
ATOM     61  O   UNL A   1      42.755  22.122  27.423  1.00  0.00    -0.744 OA
ENDBRANCH  55  58
ENDBRANCH  27  51
BRANCH  39  62
ATOM     62  C   UNL A   1      44.753  27.145  33.882  1.00  0.00     0.023 A 
ATOM     63  C   UNL A   1      46.006  27.790  33.924  1.00  0.00     0.012 A 
ATOM     64  C   UNL A   1      44.581  25.923  34.561  1.00  0.00     0.148 A 
ATOM     65  C   UNL A   1      47.079  27.210  34.599  1.00  0.00     0.002 A 
ATOM     66  C   UNL A   1      45.641  25.376  35.272  1.00  0.00     0.091 A 
ATOM     67  F   UNL A   1      43.389  25.313  34.491  1.00  0.00    -0.205 F 
ATOM     68  C   UNL A   1      46.894  26.011  35.282  1.00  0.00     0.022 A 
BRANCH  66  69
ATOM     69  S   UNL A   1      45.459  23.883  36.255  1.00  0.00     0.127 S 
ATOM     70  O   UNL A   1      44.994  22.922  35.257  1.00  0.00    -0.237 OA
ATOM     71  O   UNL A   1      46.823  23.653  36.734  1.00  0.00    -0.237 OA
ATOM     72  O   UNL A   1      44.504  24.216  37.305  1.00  0.00    -0.744 OA
ENDBRANCH  66  69
ENDBRANCH  39  62
ENDBRANCH  13  14
ENDBRANCH   6   8
ENDBRANCH   3   4
ENDBRANCH   2   3
ENDBRANCH   1   2
BRANCH   1  73
ATOM     73  C   UNL A   1      31.524  28.581  22.929  1.00  0.00     0.116 C 
BRANCH  73  74
ATOM     74  N   UNL A   1      32.352  27.811  22.013  1.00  0.00    -0.351 N 
ATOM     75  C   UNL A   1      32.861  26.537  22.172  1.00  0.00     0.261 C 
ATOM     76  H   UNL A   1      32.578  28.258  21.166  1.00  0.00     0.163 HD
ATOM     77  O   UNL A   1      33.643  26.113  21.330  1.00  0.00    -0.268 OA
BRANCH  75  78
ATOM     78  C   UNL A   1      32.435  25.787  23.335  1.00  0.00     0.096 A 
ATOM     79  C   UNL A   1      33.065  25.656  24.559  1.00  0.00     0.072 A 
ATOM     80  S   UNL A   1      30.985  24.885  23.273  1.00  0.00    -0.135 S 
ATOM     81  C   UNL A   1      32.493  24.613  25.335  1.00  0.00     0.131 A 
ATOM     82  C   UNL A   1      31.324  24.145  24.778  1.00  0.00     0.112 A 
BRANCH  81  83
ATOM     83  O   UNL A   1      32.956  24.024  26.465  1.00  0.00    -0.488 OA
BRANCH  83  84
ATOM     84  C   UNL A   1      33.352  22.657  26.360  1.00  0.00     0.266 C 
BRANCH  84  85
ATOM     85  C   UNL A   1      34.757  22.392  25.827  1.00  0.00     0.001 A 
ATOM     86  C   UNL A   1      35.736  23.378  26.074  1.00  0.00     0.008 A 
ATOM     87  C   UNL A   1      35.140  21.206  25.157  1.00  0.00     0.062 A 
ATOM     88  C   UNL A   1      37.054  23.219  25.643  1.00  0.00     0.000 A 
ATOM     89  C   UNL A   1      36.472  21.079  24.709  1.00  0.00     0.013 A 
ATOM     90  C   UNL A   1      37.422  22.070  24.958  1.00  0.00     0.001 A 
BRANCH  87  91
ATOM     91  C   UNL A   1      34.190  20.057  24.882  1.00  0.00     0.416 C 
ATOM     92  F   UNL A   1      33.448  19.710  25.968  1.00  0.00    -0.166 F 
ATOM     93  F   UNL A   1      33.276  20.358  23.909  1.00  0.00    -0.166 F 
ATOM     94  F   UNL A   1      34.805  18.926  24.442  1.00  0.00    -0.166 F 
ENDBRANCH  87  91
ENDBRANCH  84  85
ENDBRANCH  83  84
ENDBRANCH  81  83
ENDBRANCH  75  78
ENDBRANCH  73  74
ENDBRANCH   1  73
TORSDOF 18
ENDMDL
MODEL 2
REMARK VINA RESULT:     -12.2      1.757      2.372
REMARK SMILES O=C(NCCCCNC(=O)c1cc(OCc2ccccc2C(F)(F)F)cs1)c1ccc(-c2c3nc(c(-c4cccc(S(=O)(=O)[O-])c4F)c4ccc([nH]4)c(-c4cccc(S(=O)(=O)[O-])c4F)c4nc(c(-c5cccc(S(=O)(=O)[O-])c5F)c5ccc2[nH]5)C=C4)C=C3)cc1
REMARK SMILES IDX 6 1 5 2 4 3 3 4 1 5 2 6 28 8 29 9 90 10 30 11 89 12 31 13
REMARK SMILES IDX 32 14 33 15 83 16 34 17 88 18 82 19 84 20 35 21 87 22 81 23
REMARK SMILES IDX 80 24 36 26 68 27 48 28 67 29 49 30 52 31 66 32 85 33 50 34
REMARK SMILES IDX 51 35 65 37 86 38 53 39 37 40 38 41 46 42 39 43 41 44 47 45
REMARK SMILES IDX 40 46 42 47 43 48 44 49 45 50 69 51 70 52 78 53 71 54 73 55
REMARK SMILES IDX 79 56 72 57 74 58 75 59 76 60 77 61 54 62 55 63 63 64 56 65
REMARK SMILES IDX 58 66 64 67 57 68 59 69 60 70 61 71 62 72 7 73 8 74 9 75
REMARK SMILES IDX 10 77 11 78 12 79 27 80 13 81 26 82 14 83 15 84 16 85 17 86
REMARK SMILES IDX 21 87 18 88 20 89 19 90 22 91 23 92 24 93 25 94
REMARK H PARENT 3 7 84 25 52 36 8 76
REMARK Flexibility Score: inf
ROOT
ATOM      1  C   UNL A   1      31.964  27.508  27.030  1.00  0.00     0.023 C 
ENDROOT
BRANCH   1   2
ATOM      2  C   UNL A   1      31.522  28.955  26.835  1.00  0.00     0.023 C 
BRANCH   2   3
ATOM      3  C   UNL A   1      32.576  29.892  26.259  1.00  0.00     0.116 C 
BRANCH   3   4
ATOM      4  N   UNL A   1      32.376  31.285  26.627  1.00  0.00    -0.352 N 
ATOM      5  O   UNL A   1      32.810  33.261  27.622  1.00  0.00    -0.269 OA
ATOM      6  C   UNL A   1      33.201  32.134  27.334  1.00  0.00     0.251 C 
ATOM      7  H   UNL A   1      31.526  31.681  26.329  1.00  0.00     0.163 HD
BRANCH   6   8
ATOM      8  C   UNL A   1      34.532  31.657  27.774  1.00  0.00     0.039 A 
ATOM      9  C   UNL A   1      34.732  30.311  28.086  1.00  0.00     0.014 A 
ATOM     10  C   UNL A   1      35.570  32.576  27.942  1.00  0.00     0.014 A 
ATOM     11  C   UNL A   1      35.890  29.927  28.754  1.00  0.00     0.010 A 
ATOM     12  C   UNL A   1      36.773  32.165  28.526  1.00  0.00     0.010 A 
ATOM     13  C   UNL A   1      36.918  30.851  28.997  1.00  0.00    -0.014 A 
BRANCH  13  14
ATOM     14  C   UNL A   1      38.130  30.410  29.740  1.00  0.00     0.031 A 
ATOM     15  C   UNL A   1      38.367  30.832  31.168  1.00  0.00     0.074 A 
ATOM     16  C   UNL A   1      39.005  29.588  29.129  1.00  0.00     0.049 A 
ATOM     17  N   UNL A   1      39.331  30.480  31.980  1.00  0.00    -0.248 NA
ATOM     18  C   UNL A   1      37.407  31.778  31.763  1.00  0.00     0.031 C 
ATOM     19  C   UNL A   1      38.905  29.139  27.738  1.00  0.00     0.029 A 
ATOM     20  N   UNL A   1      40.140  28.975  29.595  1.00  0.00    -0.354 N 
ATOM     21  C   UNL A   1      39.126  31.193  33.156  1.00  0.00     0.074 A 
ATOM     22  C   UNL A   1      37.946  32.004  32.953  1.00  0.00     0.031 C 
ATOM     23  C   UNL A   1      39.909  28.292  27.476  1.00  0.00     0.029 A 
ATOM     24  C   UNL A   1      40.752  28.172  28.661  1.00  0.00     0.049 A 
ATOM     25  H   UNL A   1      40.483  29.097  30.510  1.00  0.00     0.167 HD
ATOM     26  C   UNL A   1      39.845  31.164  34.306  1.00  0.00     0.034 A 
ATOM     27  C   UNL A   1      41.869  27.424  28.744  1.00  0.00     0.034 A 
ATOM     28  C   UNL A   1      40.988  30.316  34.522  1.00  0.00     0.049 A 
ATOM     29  C   UNL A   1      42.616  27.375  30.046  1.00  0.00     0.074 A 
ATOM     30  C   UNL A   1      41.739  30.160  35.675  1.00  0.00     0.029 A 
ATOM     31  N   UNL A   1      41.549  29.482  33.567  1.00  0.00    -0.354 N 
ATOM     32  N   UNL A   1      42.329  27.956  31.184  1.00  0.00    -0.248 NA
ATOM     33  C   UNL A   1      43.825  26.539  30.083  1.00  0.00     0.031 C 
ATOM     34  C   UNL A   1      42.764  29.245  35.411  1.00  0.00     0.029 A 
ATOM     35  C   UNL A   1      42.639  28.814  34.099  1.00  0.00     0.049 A 
ATOM     36  H   UNL A   1      41.221  29.379  32.644  1.00  0.00     0.167 HD
ATOM     37  C   UNL A   1      43.298  27.532  32.084  1.00  0.00     0.074 A 
ATOM     38  C   UNL A   1      44.169  26.626  31.361  1.00  0.00     0.031 C 
ATOM     39  C   UNL A   1      43.462  27.872  33.386  1.00  0.00     0.034 A 
BRANCH  26  40
ATOM     40  C   UNL A   1      39.401  32.054  35.438  1.00  0.00     0.023 A 
ATOM     41  C   UNL A   1      38.542  31.545  36.434  1.00  0.00     0.012 A 
ATOM     42  C   UNL A   1      39.886  33.372  35.556  1.00  0.00     0.148 A 
ATOM     43  C   UNL A   1      38.147  32.342  37.508  1.00  0.00     0.002 A 
ATOM     44  C   UNL A   1      39.521  34.147  36.652  1.00  0.00     0.091 A 
ATOM     45  F   UNL A   1      40.684  33.849  34.590  1.00  0.00    -0.205 F 
ATOM     46  C   UNL A   1      38.645  33.638  37.623  1.00  0.00     0.022 A 
BRANCH  44  47
ATOM     47  S   UNL A   1      40.173  35.800  36.923  1.00  0.00     0.127 S 
ATOM     48  O   UNL A   1      39.663  36.514  35.754  1.00  0.00    -0.237 OA
ATOM     49  O   UNL A   1      39.546  36.179  38.190  1.00  0.00    -0.237 OA
ATOM     50  O   UNL A   1      41.620  35.651  36.989  1.00  0.00    -0.744 OA
ENDBRANCH  44  47
ENDBRANCH  26  40
BRANCH  27  51
ATOM     51  C   UNL A   1      42.297  26.606  27.575  1.00  0.00     0.023 A 
ATOM     52  C   UNL A   1      43.114  27.187  26.586  1.00  0.00     0.012 A 
ATOM     53  C   UNL A   1      41.945  25.246  27.465  1.00  0.00     0.148 A 
ATOM     54  C   UNL A   1      43.556  26.434  25.498  1.00  0.00     0.002 A 
ATOM     55  C   UNL A   1      42.437  24.488  26.410  1.00  0.00     0.091 A 
ATOM     56  F   UNL A   1      41.153  24.717  28.409  1.00  0.00    -0.205 F 
ATOM     57  C   UNL A   1      43.229  25.083  25.416  1.00  0.00     0.022 A 
BRANCH  55  58
ATOM     58  S   UNL A   1      42.186  22.712  26.309  1.00  0.00     0.127 S 
ATOM     59  O   UNL A   1      42.838  22.389  25.044  1.00  0.00    -0.237 OA
ATOM     60  O   UNL A   1      42.887  22.238  27.503  1.00  0.00    -0.237 OA
ATOM     61  O   UNL A   1      40.742  22.519  26.348  1.00  0.00    -0.744 OA
ENDBRANCH  55  58
ENDBRANCH  27  51
BRANCH  39  62
ATOM     62  C   UNL A   1      44.603  27.233  34.131  1.00  0.00     0.023 A 
ATOM     63  C   UNL A   1      45.891  27.803  34.065  1.00  0.00     0.012 A 
ATOM     64  C   UNL A   1      44.388  26.102  34.942  1.00  0.00     0.148 A 
ATOM     65  C   UNL A   1      46.954  27.236  34.767  1.00  0.00     0.002 A 
ATOM     66  C   UNL A   1      45.442  25.572  35.677  1.00  0.00     0.091 A 
ATOM     67  F   UNL A   1      43.163  25.559  34.974  1.00  0.00    -0.205 F 
ATOM     68  C   UNL A   1      46.727  26.129  35.581  1.00  0.00     0.022 A 
BRANCH  66  69
ATOM     69  S   UNL A   1      45.212  24.205  36.821  1.00  0.00     0.127 S 
ATOM     70  O   UNL A   1      44.699  23.160  35.938  1.00  0.00    -0.237 OA
ATOM     71  O   UNL A   1      46.571  23.976  37.314  1.00  0.00    -0.237 OA
ATOM     72  O   UNL A   1      44.282  24.691  37.833  1.00  0.00    -0.744 OA
ENDBRANCH  66  69
ENDBRANCH  39  62
ENDBRANCH  13  14
ENDBRANCH   6   8
ENDBRANCH   3   4
ENDBRANCH   2   3
ENDBRANCH   1   2
BRANCH   1  73
ATOM     73  C   UNL A   1      31.316  26.496  26.089  1.00  0.00     0.116 C 
BRANCH  73  74
ATOM     74  N   UNL A   1      30.557  27.124  25.018  1.00  0.00    -0.351 N 
ATOM     75  C   UNL A   1      30.710  26.981  23.653  1.00  0.00     0.261 C 
ATOM     76  H   UNL A   1      29.837  27.730  25.304  1.00  0.00     0.163 HD
ATOM     77  O   UNL A   1      30.047  27.696  22.914  1.00  0.00    -0.268 OA
BRANCH  75  78
ATOM     78  C   UNL A   1      31.658  25.990  23.186  1.00  0.00     0.096 A 
ATOM     79  C   UNL A   1      31.429  24.674  22.830  1.00  0.00     0.072 A 
ATOM     80  S   UNL A   1      33.312  26.401  23.054  1.00  0.00    -0.135 S 
ATOM     81  C   UNL A   1      32.642  23.945  22.708  1.00  0.00     0.131 A 
ATOM     82  C   UNL A   1      33.741  24.772  22.753  1.00  0.00     0.112 A 
BRANCH  81  83
ATOM     83  O   UNL A   1      32.839  22.607  22.605  1.00  0.00    -0.488 OA
BRANCH  83  84
ATOM     84  C   UNL A   1      32.289  21.796  23.644  1.00  0.00     0.266 C 
BRANCH  84  85
ATOM     85  C   UNL A   1      32.868  20.393  23.794  1.00  0.00     0.001 A 
ATOM     86  C   UNL A   1      32.185  19.342  23.145  1.00  0.00     0.008 A 
ATOM     87  C   UNL A   1      34.062  20.099  24.492  1.00  0.00     0.062 A 
ATOM     88  C   UNL A   1      32.646  18.026  23.209  1.00  0.00     0.000 A 
ATOM     89  C   UNL A   1      34.495  18.757  24.564  1.00  0.00     0.013 A 
ATOM     90  C   UNL A   1      33.801  17.733  23.920  1.00  0.00     0.001 A 
BRANCH  87  91
ATOM     91  C   UNL A   1      34.907  21.151  25.184  1.00  0.00     0.416 C 
ATOM     92  F   UNL A   1      36.059  20.649  25.704  1.00  0.00    -0.166 F 
ATOM     93  F   UNL A   1      35.304  22.144  24.332  1.00  0.00    -0.166 F 
ATOM     94  F   UNL A   1      34.264  21.798  26.195  1.00  0.00    -0.166 F 
ENDBRANCH  87  91
ENDBRANCH  84  85
ENDBRANCH  83  84
ENDBRANCH  81  83
ENDBRANCH  75  78
ENDBRANCH  73  74
ENDBRANCH   1  73
TORSDOF 18
ENDMDL
MODEL 3
REMARK VINA RESULT:     -12.2      5.420     10.383
REMARK SMILES O=C(NCCCCNC(=O)c1cc(OCc2ccccc2C(F)(F)F)cs1)c1ccc(-c2c3nc(c(-c4cccc(S(=O)(=O)[O-])c4F)c4ccc([nH]4)c(-c4cccc(S(=O)(=O)[O-])c4F)c4nc(c(-c5cccc(S(=O)(=O)[O-])c5F)c5ccc2[nH]5)C=C4)C=C3)cc1
REMARK SMILES IDX 6 1 5 2 4 3 3 4 1 5 2 6 28 8 29 9 90 10 30 11 89 12 31 13
REMARK SMILES IDX 32 14 33 15 83 16 34 17 88 18 82 19 84 20 35 21 87 22 81 23
REMARK SMILES IDX 80 24 36 26 68 27 48 28 67 29 49 30 52 31 66 32 85 33 50 34
REMARK SMILES IDX 51 35 65 37 86 38 53 39 37 40 38 41 46 42 39 43 41 44 47 45
REMARK SMILES IDX 40 46 42 47 43 48 44 49 45 50 69 51 70 52 78 53 71 54 73 55
REMARK SMILES IDX 79 56 72 57 74 58 75 59 76 60 77 61 54 62 55 63 63 64 56 65
REMARK SMILES IDX 58 66 64 67 57 68 59 69 60 70 61 71 62 72 7 73 8 74 9 75
REMARK SMILES IDX 10 77 11 78 12 79 27 80 13 81 26 82 14 83 15 84 16 85 17 86
REMARK SMILES IDX 21 87 18 88 20 89 19 90 22 91 23 92 24 93 25 94
REMARK H PARENT 3 7 84 25 52 36 8 76
REMARK Flexibility Score: inf
ROOT
ATOM      1  C   UNL A   1      34.078  21.381  26.377  1.00  0.00     0.023 C 
ENDROOT
BRANCH   1   2
ATOM      2  C   UNL A   1      35.326  22.246  26.520  1.00  0.00     0.023 C 
BRANCH   2   3
ATOM      3  C   UNL A   1      36.250  22.273  25.310  1.00  0.00     0.116 C 
BRANCH   3   4
ATOM      4  N   UNL A   1      37.240  21.206  25.312  1.00  0.00    -0.352 N 
ATOM      5  O   UNL A   1      39.251  20.230  25.600  1.00  0.00    -0.269 OA
ATOM      6  C   UNL A   1      38.540  21.216  25.769  1.00  0.00     0.251 C 
ATOM      7  H   UNL A   1      36.937  20.351  24.929  1.00  0.00     0.163 HD
BRANCH   6   8
ATOM      8  C   UNL A   1      39.074  22.434  26.421  1.00  0.00     0.039 A 
ATOM      9  C   UNL A   1      38.580  23.693  26.077  1.00  0.00     0.014 A 
ATOM     10  C   UNL A   1      40.125  22.320  27.334  1.00  0.00     0.014 A 
ATOM     11  C   UNL A   1      39.267  24.833  26.480  1.00  0.00     0.010 A 
ATOM     12  C   UNL A   1      40.753  23.473  27.816  1.00  0.00     0.010 A 
ATOM     13  C   UNL A   1      40.371  24.738  27.342  1.00  0.00    -0.014 A 
BRANCH  13  14
ATOM     14  C   UNL A   1      41.098  25.977  27.730  1.00  0.00     0.031 A 
ATOM     15  C   UNL A   1      42.512  26.229  27.270  1.00  0.00     0.074 A 
ATOM     16  C   UNL A   1      40.459  26.901  28.473  1.00  0.00     0.049 A 
ATOM     17  N   UNL A   1      43.261  27.285  27.458  1.00  0.00    -0.248 NA
ATOM     18  C   UNL A   1      43.178  25.157  26.511  1.00  0.00     0.031 C 
ATOM     19  C   UNL A   1      39.104  26.757  29.009  1.00  0.00     0.029 A 
ATOM     20  N   UNL A   1      40.853  28.145  28.897  1.00  0.00    -0.354 N 
ATOM     21  C   UNL A   1      44.495  26.990  26.889  1.00  0.00     0.074 A 
ATOM     22  C   UNL A   1      44.398  25.651  26.352  1.00  0.00     0.031 C 
ATOM     23  C   UNL A   1      38.763  27.881  29.653  1.00  0.00     0.029 A 
ATOM     24  C   UNL A   1      39.889  28.808  29.619  1.00  0.00     0.049 A 
ATOM     25  H   UNL A   1      41.740  28.526  28.702  1.00  0.00     0.167 HD
ATOM     26  C   UNL A   1      45.603  27.768  26.808  1.00  0.00     0.034 A 
ATOM     27  C   UNL A   1      39.907  30.026  30.195  1.00  0.00     0.034 A 
ATOM     28  C   UNL A   1      45.679  29.120  27.298  1.00  0.00     0.049 A 
ATOM     29  C   UNL A   1      41.131  30.883  30.045  1.00  0.00     0.074 A 
ATOM     30  C   UNL A   1      46.731  30.014  27.198  1.00  0.00     0.029 A 
ATOM     31  N   UNL A   1      44.666  29.773  27.982  1.00  0.00    -0.354 N 
ATOM     32  N   UNL A   1      42.238  30.633  29.390  1.00  0.00    -0.248 NA
ATOM     33  C   UNL A   1      41.096  32.204  30.688  1.00  0.00     0.031 C 
ATOM     34  C   UNL A   1      46.360  31.202  27.838  1.00  0.00     0.029 A 
ATOM     35  C   UNL A   1      45.067  31.055  28.318  1.00  0.00     0.049 A 
ATOM     36  H   UNL A   1      43.787  29.382  28.199  1.00  0.00     0.167 HD
ATOM     37  C   UNL A   1      43.018  31.776  29.511  1.00  0.00     0.074 A 
ATOM     38  C   UNL A   1      42.246  32.728  30.285  1.00  0.00     0.031 C 
ATOM     39  C   UNL A   1      44.267  32.012  29.038  1.00  0.00     0.034 A 
BRANCH  26  40
ATOM     40  C   UNL A   1      46.823  27.191  26.135  1.00  0.00     0.023 A 
ATOM     41  C   UNL A   1      46.997  27.350  24.745  1.00  0.00     0.012 A 
ATOM     42  C   UNL A   1      47.830  26.551  26.887  1.00  0.00     0.148 A 
ATOM     43  C   UNL A   1      48.135  26.852  24.110  1.00  0.00     0.002 A 
ATOM     44  C   UNL A   1      48.980  26.095  26.252  1.00  0.00     0.091 A 
ATOM     45  F   UNL A   1      47.640  26.389  28.204  1.00  0.00    -0.205 F 
ATOM     46  C   UNL A   1      49.130  26.236  24.864  1.00  0.00     0.022 A 
BRANCH  44  47
ATOM     47  S   UNL A   1      50.349  25.358  27.154  1.00  0.00     0.127 S 
ATOM     48  O   UNL A   1      50.720  26.440  28.064  1.00  0.00    -0.237 OA
ATOM     49  O   UNL A   1      49.714  24.208  27.800  1.00  0.00    -0.237 OA
ATOM     50  O   UNL A   1      51.345  25.010  26.150  1.00  0.00    -0.744 OA
ENDBRANCH  44  47
ENDBRANCH  26  40
BRANCH  27  51
ATOM     51  C   UNL A   1      38.693  30.527  30.898  1.00  0.00     0.023 A 
ATOM     52  C   UNL A   1      38.614  30.424  32.300  1.00  0.00     0.012 A 
ATOM     53  C   UNL A   1      37.645  31.152  30.194  1.00  0.00     0.148 A 
ATOM     54  C   UNL A   1      37.503  30.914  32.986  1.00  0.00     0.002 A 
ATOM     55  C   UNL A   1      36.569  31.690  30.889  1.00  0.00     0.091 A 
ATOM     56  F   UNL A   1      37.732  31.225  28.858  1.00  0.00    -0.205 F 
ATOM     57  C   UNL A   1      36.488  31.558  32.284  1.00  0.00     0.022 A 
BRANCH  55  58
ATOM     58  S   UNL A   1      35.295  32.663  30.078  1.00  0.00     0.127 S 
ATOM     59  O   UNL A   1      36.062  33.799  29.575  1.00  0.00    -0.237 OA
ATOM     60  O   UNL A   1      34.816  31.737  29.050  1.00  0.00    -0.237 OA
ATOM     61  O   UNL A   1      34.316  32.963  31.114  1.00  0.00    -0.744 OA
ENDBRANCH  55  58
ENDBRANCH  27  51
BRANCH  39  62
ATOM     62  C   UNL A   1      44.865  33.366  29.306  1.00  0.00     0.023 A 
ATOM     63  C   UNL A   1      45.566  33.598  30.507  1.00  0.00     0.012 A 
ATOM     64  C   UNL A   1      44.784  34.391  28.343  1.00  0.00     0.148 A 
ATOM     65  C   UNL A   1      46.146  34.841  30.760  1.00  0.00     0.002 A 
ATOM     66  C   UNL A   1      45.406  35.611  28.582  1.00  0.00     0.091 A 
ATOM     67  F   UNL A   1      44.094  34.161  27.218  1.00  0.00    -0.205 F 
ATOM     68  C   UNL A   1      46.076  35.842  29.794  1.00  0.00     0.022 A 
BRANCH  66  69
ATOM     69  S   UNL A   1      45.441  36.918  27.350  1.00  0.00     0.127 S 
ATOM     70  O   UNL A   1      44.022  37.237  27.210  1.00  0.00    -0.237 OA
ATOM     71  O   UNL A   1      46.237  37.953  28.013  1.00  0.00    -0.237 OA
ATOM     72  O   UNL A   1      46.077  36.336  26.175  1.00  0.00    -0.744 OA
ENDBRANCH  66  69
ENDBRANCH  39  62
ENDBRANCH  13  14
ENDBRANCH   6   8
ENDBRANCH   3   4
ENDBRANCH   2   3
ENDBRANCH   1   2
BRANCH   1  73
ATOM     73  C   UNL A   1      32.915  22.033  25.635  1.00  0.00     0.116 C 
BRANCH  73  74
ATOM     74  N   UNL A   1      32.652  21.420  24.342  1.00  0.00    -0.351 N 
ATOM     75  C   UNL A   1      32.320  22.031  23.148  1.00  0.00     0.261 C 
ATOM     76  H   UNL A   1      32.721  20.439  24.313  1.00  0.00     0.163 HD
ATOM     77  O   UNL A   1      32.016  21.324  22.196  1.00  0.00    -0.268 OA
BRANCH  75  78
ATOM     78  C   UNL A   1      32.349  23.479  23.107  1.00  0.00     0.096 A 
ATOM     79  C   UNL A   1      31.289  24.366  23.131  1.00  0.00     0.072 A 
ATOM     80  S   UNL A   1      33.849  24.289  22.983  1.00  0.00    -0.135 S 
ATOM     81  C   UNL A   1      31.699  25.681  22.781  1.00  0.00     0.131 A 
ATOM     82  C   UNL A   1      33.070  25.790  22.726  1.00  0.00     0.112 A 
BRANCH  81  83
ATOM     83  O   UNL A   1      30.946  26.765  22.468  1.00  0.00    -0.488 OA
BRANCH  83  84
ATOM     84  C   UNL A   1      29.862  27.067  23.346  1.00  0.00     0.266 C 
BRANCH  84  85
ATOM     85  C   UNL A   1      29.371  28.512  23.354  1.00  0.00     0.001 A 
ATOM     86  C   UNL A   1      28.106  28.766  22.780  1.00  0.00     0.008 A 
ATOM     87  C   UNL A   1      30.078  29.586  23.943  1.00  0.00     0.062 A 
ATOM     88  C   UNL A   1      27.564  30.051  22.755  1.00  0.00     0.000 A 
ATOM     89  C   UNL A   1      29.520  30.881  23.884  1.00  0.00     0.013 A 
ATOM     90  C   UNL A   1      28.272  31.110  23.306  1.00  0.00     0.001 A 
BRANCH  87  91
ATOM     91  C   UNL A   1      31.419  29.425  24.633  1.00  0.00     0.416 C 
ATOM     92  F   UNL A   1      31.775  30.517  25.362  1.00  0.00    -0.166 F 
ATOM     93  F   UNL A   1      31.428  28.386  25.520  1.00  0.00    -0.166 F 
ATOM     94  F   UNL A   1      32.449  29.164  23.782  1.00  0.00    -0.166 F 
ENDBRANCH  87  91
ENDBRANCH  84  85
ENDBRANCH  83  84
ENDBRANCH  81  83
ENDBRANCH  75  78
ENDBRANCH  73  74
ENDBRANCH   1  73
TORSDOF 18
ENDMDL
