MODEL 1
REMARK VINA RESULT:     -12.0      0.000      0.000
REMARK SMILES O=C(NCCCCNC(=O)C1CCN(C(=O)COc2ccc(Cl)cc2Cl)CC1)c1ccc(-c2c3nc(c(-c4cccc(S(=O)(=O)[O-])c4F)c4ccc([nH]4)c(-c4cccc(S(=O)(=O)[O-])c4F)c4nc(c(-c5cccc(S(=O)(=O)[O-])c5F)c5ccc2[nH]5)C=C4)C=C3)cc1
REMARK SMILES IDX 5 1 4 2 3 3 1 4 2 5 29 7 30 8 91 9 31 10 90 11 32 12 33 13
REMARK SMILES IDX 34 14 84 15 35 16 89 17 83 18 85 19 36 20 88 21 82 22 81 23
REMARK SMILES IDX 37 25 69 26 49 27 68 28 50 29 53 30 67 31 86 32 51 33 52 34
REMARK SMILES IDX 66 36 87 37 54 38 38 39 39 40 47 41 40 42 42 43 48 44 41 45
REMARK SMILES IDX 43 46 44 47 45 48 46 49 70 50 71 51 79 52 72 53 74 54 80 55
REMARK SMILES IDX 73 56 75 57 76 58 77 59 78 60 55 61 56 62 64 63 57 64 59 65
REMARK SMILES IDX 65 66 58 67 60 68 61 69 62 70 63 71 6 72 7 73 8 74 9 75
REMARK SMILES IDX 10 77 11 78 12 79 28 80 13 81 27 82 14 83 15 84 16 85 17 86
REMARK SMILES IDX 18 87 19 88 20 89 25 90 21 91 24 92 26 93 22 94 23 95
REMARK H PARENT 3 6 85 24 53 35 8 76
REMARK Flexibility Score: inf
ROOT
ATOM      1  C   UNL A   1      33.413  31.976  27.853  1.00  0.00     0.023 C 
ENDROOT
BRANCH   1   2
ATOM      2  C   UNL A   1      33.828  33.371  27.443  1.00  0.00     0.116 C 
BRANCH   2   3
ATOM      3  N   UNL A   1      33.011  34.439  28.005  1.00  0.00    -0.352 N 
ATOM      4  O   UNL A   1      32.390  35.887  29.639  1.00  0.00    -0.269 OA
ATOM      5  C   UNL A   1      33.164  35.032  29.245  1.00  0.00     0.251 C 
ATOM      6  H   UNL A   1      32.275  34.773  27.444  1.00  0.00     0.163 HD
BRANCH   5   7
ATOM      7  C   UNL A   1      34.274  34.544  30.089  1.00  0.00     0.039 A 
ATOM      8  C   UNL A   1      35.588  34.786  29.682  1.00  0.00     0.014 A 
ATOM      9  C   UNL A   1      34.000  33.700  31.166  1.00  0.00     0.014 A 
ATOM     10  C   UNL A   1      36.612  34.031  30.226  1.00  0.00     0.010 A 
ATOM     11  C   UNL A   1      35.056  33.039  31.799  1.00  0.00     0.010 A 
ATOM     12  C   UNL A   1      36.364  33.171  31.311  1.00  0.00    -0.014 A 
BRANCH  12  13
ATOM     13  C   UNL A   1      37.521  32.531  31.983  1.00  0.00     0.031 A 
ATOM     14  C   UNL A   1      38.004  32.968  33.338  1.00  0.00     0.074 A 
ATOM     15  C   UNL A   1      38.128  31.521  31.329  1.00  0.00     0.049 A 
ATOM     16  N   UNL A   1      38.999  32.491  34.040  1.00  0.00    -0.248 NA
ATOM     17  C   UNL A   1      37.296  34.083  33.989  1.00  0.00     0.031 C 
ATOM     18  C   UNL A   1      37.765  31.058  29.985  1.00  0.00     0.029 A 
ATOM     19  N   UNL A   1      39.161  30.699  31.693  1.00  0.00    -0.354 N 
ATOM     20  C   UNL A   1      39.079  33.277  35.182  1.00  0.00     0.074 A 
ATOM     21  C   UNL A   1      38.017  34.256  35.093  1.00  0.00     0.031 C 
ATOM     22  C   UNL A   1      38.524  30.006  29.658  1.00  0.00     0.029 A 
ATOM     23  C   UNL A   1      39.482  29.772  30.728  1.00  0.00     0.049 A 
ATOM     24  H   UNL A   1      39.625  30.763  32.558  1.00  0.00     0.167 HD
ATOM     25  C   UNL A   1      39.958  33.181  36.209  1.00  0.00     0.034 A 
ATOM     26  C   UNL A   1      40.463  28.852  30.689  1.00  0.00     0.034 A 
ATOM     27  C   UNL A   1      40.973  32.162  36.306  1.00  0.00     0.049 A 
ATOM     28  C   UNL A   1      41.382  28.742  31.866  1.00  0.00     0.074 A 
ATOM     29  C   UNL A   1      41.857  31.928  37.345  1.00  0.00     0.029 A 
ATOM     30  N   UNL A   1      41.243  31.215  35.331  1.00  0.00    -0.354 N 
ATOM     31  N   UNL A   1      41.359  29.415  32.990  1.00  0.00    -0.248 NA
ATOM     32  C   UNL A   1      42.452  27.742  31.777  1.00  0.00     0.031 C 
ATOM     33  C   UNL A   1      42.672  30.847  36.990  1.00  0.00     0.029 A 
ATOM     34  C   UNL A   1      42.289  30.402  35.737  1.00  0.00     0.049 A 
ATOM     35  H   UNL A   1      40.762  31.131  34.475  1.00  0.00     0.167 HD
ATOM     36  C   UNL A   1      42.411  28.922  33.746  1.00  0.00     0.074 A 
ATOM     37  C   UNL A   1      43.021  27.860  32.969  1.00  0.00     0.031 C 
ATOM     38  C   UNL A   1      42.854  29.329  34.961  1.00  0.00     0.034 A 
BRANCH  25  39
ATOM     39  C   UNL A   1      39.855  34.171  37.340  1.00  0.00     0.023 A 
ATOM     40  C   UNL A   1      40.253  35.506  37.133  1.00  0.00     0.012 A 
ATOM     41  C   UNL A   1      39.254  33.810  38.563  1.00  0.00     0.148 A 
ATOM     42  C   UNL A   1      40.064  36.465  38.128  1.00  0.00     0.002 A 
ATOM     43  C   UNL A   1      39.039  34.778  39.538  1.00  0.00     0.091 A 
ATOM     44  F   UNL A   1      38.899  32.530  38.746  1.00  0.00    -0.205 F 
ATOM     45  C   UNL A   1      39.447  36.104  39.324  1.00  0.00     0.022 A 
BRANCH  43  46
ATOM     46  S   UNL A   1      38.190  34.431  41.084  1.00  0.00     0.127 S 
ATOM     47  O   UNL A   1      39.211  33.688  41.821  1.00  0.00    -0.237 OA
ATOM     48  O   UNL A   1      37.924  35.774  41.599  1.00  0.00    -0.237 OA
ATOM     49  O   UNL A   1      37.001  33.669  40.727  1.00  0.00    -0.744 OA
ENDBRANCH  43  46
ENDBRANCH  25  39
BRANCH  26  50
ATOM     50  C   UNL A   1      40.588  27.964  29.502  1.00  0.00     0.023 A 
ATOM     51  C   UNL A   1      39.704  26.880  29.348  1.00  0.00     0.012 A 
ATOM     52  C   UNL A   1      41.520  28.240  28.481  1.00  0.00     0.148 A 
ATOM     53  C   UNL A   1      39.757  26.079  28.206  1.00  0.00     0.002 A 
ATOM     54  C   UNL A   1      41.521  27.480  27.318  1.00  0.00     0.091 A 
ATOM     55  F   UNL A   1      42.372  29.262  28.650  1.00  0.00    -0.205 F 
ATOM     56  C   UNL A   1      40.652  26.389  27.184  1.00  0.00     0.022 A 
BRANCH  54  57
ATOM     57  S   UNL A   1      42.524  27.955  25.905  1.00  0.00     0.127 S 
ATOM     58  O   UNL A   1      42.062  29.315  25.649  1.00  0.00    -0.237 OA
ATOM     59  O   UNL A   1      43.885  27.855  26.434  1.00  0.00    -0.237 OA
ATOM     60  O   UNL A   1      42.216  26.963  24.883  1.00  0.00    -0.744 OA
ENDBRANCH  54  57
ENDBRANCH  26  50
BRANCH  38  61
ATOM     61  C   UNL A   1      44.061  28.625  35.512  1.00  0.00     0.023 A 
ATOM     62  C   UNL A   1      45.343  29.007  35.069  1.00  0.00     0.012 A 
ATOM     63  C   UNL A   1      43.934  27.624  36.492  1.00  0.00     0.148 A 
ATOM     64  C   UNL A   1      46.480  28.380  35.571  1.00  0.00     0.002 A 
ATOM     65  C   UNL A   1      45.075  27.033  37.020  1.00  0.00     0.091 A 
ATOM     66  F   UNL A   1      42.703  27.260  36.881  1.00  0.00    -0.205 F 
ATOM     67  C   UNL A   1      46.348  27.402  36.553  1.00  0.00     0.022 A 
BRANCH  65  68
ATOM     68  S   UNL A   1      44.995  25.823  38.345  1.00  0.00     0.127 S 
ATOM     69  O   UNL A   1      46.409  25.631  38.660  1.00  0.00    -0.237 OA
ATOM     70  O   UNL A   1      44.232  26.532  39.372  1.00  0.00    -0.237 OA
ATOM     71  O   UNL A   1      44.311  24.666  37.782  1.00  0.00    -0.744 OA
ENDBRANCH  65  68
ENDBRANCH  38  61
ENDBRANCH  12  13
ENDBRANCH   5   7
ENDBRANCH   2   3
ENDBRANCH   1   2
BRANCH   1  72
ATOM     72  C   UNL A   1      34.553  30.982  27.945  1.00  0.00     0.023 C 
BRANCH  72  73
ATOM     73  C   UNL A   1      34.324  29.630  27.256  1.00  0.00     0.116 C 
BRANCH  73  74
ATOM     74  N   UNL A   1      33.121  28.983  27.754  1.00  0.00    -0.356 N 
ATOM     75  C   UNL A   1      32.134  28.233  27.215  1.00  0.00     0.223 C 
ATOM     76  H   UNL A   1      32.995  29.127  28.720  1.00  0.00     0.163 HD
ATOM     77  O   UNL A   1      31.180  28.015  27.978  1.00  0.00    -0.275 OA
BRANCH  75  78
ATOM     78  C   UNL A   1      32.128  27.563  25.828  1.00  0.00     0.082 C 
ATOM     79  C   UNL A   1      30.851  27.030  25.201  1.00  0.00     0.035 C 
ATOM     80  C   UNL A   1      33.150  26.398  25.810  1.00  0.00     0.035 C 
ATOM     81  C   UNL A   1      30.310  25.859  25.988  1.00  0.00     0.120 C 
ATOM     82  C   UNL A   1      32.631  25.167  26.556  1.00  0.00     0.120 C 
ATOM     83  N   UNL A   1      31.270  24.794  26.174  1.00  0.00    -0.340 N 
ATOM     84  C   UNL A   1      30.731  23.585  26.609  1.00  0.00     0.260 C 
ATOM     85  O   UNL A   1      29.652  23.520  27.203  1.00  0.00    -0.271 OA
BRANCH  84  86
ATOM     86  C   UNL A   1      31.447  22.314  26.155  1.00  0.00     0.329 C 
BRANCH  86  87
ATOM     87  O   UNL A   1      32.034  22.294  24.863  1.00  0.00    -0.482 OA
BRANCH  87  88
ATOM     88  C   UNL A   1      33.368  22.019  24.707  1.00  0.00     0.138 A 
ATOM     89  C   UNL A   1      34.370  22.957  24.440  1.00  0.00     0.049 A 
ATOM     90  C   UNL A   1      33.755  20.682  24.912  1.00  0.00     0.084 A 
ATOM     91  C   UNL A   1      35.722  22.598  24.474  1.00  0.00     0.024 A 
ATOM     92  C   UNL A   1      35.104  20.310  24.903  1.00  0.00     0.045 A 
ATOM     93  Cl  UNL A   1      32.580  19.438  25.166  1.00  0.00    -0.080 Cl
ATOM     94  C   UNL A   1      36.083  21.277  24.710  1.00  0.00     0.042 A 
ATOM     95  Cl  UNL A   1      37.745  20.841  24.760  1.00  0.00    -0.084 Cl
ENDBRANCH  87  88
ENDBRANCH  86  87
ENDBRANCH  84  86
ENDBRANCH  75  78
ENDBRANCH  73  74
ENDBRANCH  72  73
ENDBRANCH   1  72
TORSDOF 17
ENDMDL
MODEL 2
REMARK VINA RESULT:     -11.9      2.102      7.874
REMARK SMILES O=C(NCCCCNC(=O)C1CCN(C(=O)COc2ccc(Cl)cc2Cl)CC1)c1ccc(-c2c3nc(c(-c4cccc(S(=O)(=O)[O-])c4F)c4ccc([nH]4)c(-c4cccc(S(=O)(=O)[O-])c4F)c4nc(c(-c5cccc(S(=O)(=O)[O-])c5F)c5ccc2[nH]5)C=C4)C=C3)cc1
REMARK SMILES IDX 5 1 4 2 3 3 1 4 2 5 29 7 30 8 91 9 31 10 90 11 32 12 33 13
REMARK SMILES IDX 34 14 84 15 35 16 89 17 83 18 85 19 36 20 88 21 82 22 81 23
REMARK SMILES IDX 37 25 69 26 49 27 68 28 50 29 53 30 67 31 86 32 51 33 52 34
REMARK SMILES IDX 66 36 87 37 54 38 38 39 39 40 47 41 40 42 42 43 48 44 41 45
REMARK SMILES IDX 43 46 44 47 45 48 46 49 70 50 71 51 79 52 72 53 74 54 80 55
REMARK SMILES IDX 73 56 75 57 76 58 77 59 78 60 55 61 56 62 64 63 57 64 59 65
REMARK SMILES IDX 65 66 58 67 60 68 61 69 62 70 63 71 6 72 7 73 8 74 9 75
REMARK SMILES IDX 10 77 11 78 12 79 28 80 13 81 27 82 14 83 15 84 16 85 17 86
REMARK SMILES IDX 18 87 19 88 20 89 25 90 21 91 24 92 26 93 22 94 23 95
REMARK H PARENT 3 6 85 24 53 35 8 76
REMARK Flexibility Score: inf
ROOT
ATOM      1  C   UNL A   1      31.245  32.125  26.511  1.00  0.00     0.023 C 
ENDROOT
BRANCH   1   2
ATOM      2  C   UNL A   1      32.555  32.739  26.950  1.00  0.00     0.116 C 
BRANCH   2   3
ATOM      3  N   UNL A   1      32.430  34.028  27.618  1.00  0.00    -0.352 N 
ATOM      4  O   UNL A   1      33.058  35.626  29.103  1.00  0.00    -0.269 OA
ATOM      5  C   UNL A   1      33.285  34.553  28.569  1.00  0.00     0.251 C 
ATOM      6  H   UNL A   1      31.657  34.583  27.366  1.00  0.00     0.163 HD
BRANCH   5   7
ATOM      7  C   UNL A   1      34.454  33.732  28.946  1.00  0.00     0.039 A 
ATOM      8  C   UNL A   1      34.266  32.640  29.796  1.00  0.00     0.014 A 
ATOM      9  C   UNL A   1      35.736  34.162  28.602  1.00  0.00     0.014 A 
ATOM     10  C   UNL A   1      35.358  32.105  30.457  1.00  0.00     0.010 A 
ATOM     11  C   UNL A   1      36.843  33.529  29.173  1.00  0.00     0.010 A 
ATOM     12  C   UNL A   1      36.661  32.521  30.132  1.00  0.00    -0.014 A 
BRANCH  12  13
ATOM     13  C   UNL A   1      37.805  31.786  30.724  1.00  0.00     0.031 A 
ATOM     14  C   UNL A   1      38.582  30.756  29.954  1.00  0.00     0.074 A 
ATOM     15  C   UNL A   1      38.133  32.085  31.996  1.00  0.00     0.049 A 
ATOM     16  N   UNL A   1      39.606  30.044  30.350  1.00  0.00    -0.248 NA
ATOM     17  C   UNL A   1      38.162  30.475  28.571  1.00  0.00     0.031 C 
ATOM     18  C   UNL A   1      37.406  33.035  32.846  1.00  0.00     0.029 A 
ATOM     19  N   UNL A   1      39.153  31.643  32.797  1.00  0.00    -0.354 N 
ATOM     20  C   UNL A   1      39.916  29.193  29.297  1.00  0.00     0.074 A 
ATOM     21  C   UNL A   1      38.983  29.487  28.230  1.00  0.00     0.031 C 
ATOM     22  C   UNL A   1      38.027  33.141  34.026  1.00  0.00     0.029 A 
ATOM     23  C   UNL A   1      39.145  32.210  34.050  1.00  0.00     0.049 A 
ATOM     24  H   UNL A   1      39.824  30.986  32.504  1.00  0.00     0.167 HD
ATOM     25  C   UNL A   1      40.895  28.258  29.233  1.00  0.00     0.034 A 
ATOM     26  C   UNL A   1      39.930  31.985  35.118  1.00  0.00     0.034 A 
ATOM     27  C   UNL A   1      41.851  28.020  30.285  1.00  0.00     0.049 A 
ATOM     28  C   UNL A   1      41.033  30.981  34.991  1.00  0.00     0.074 A 
ATOM     29  C   UNL A   1      42.931  27.155  30.284  1.00  0.00     0.029 A 
ATOM     30  N   UNL A   1      41.839  28.642  31.523  1.00  0.00    -0.354 N 
ATOM     31  N   UNL A   1      41.385  30.277  33.943  1.00  0.00    -0.248 NA
ATOM     32  C   UNL A   1      41.855  30.747  36.184  1.00  0.00     0.031 C 
ATOM     33  C   UNL A   1      43.564  27.243  31.529  1.00  0.00     0.029 A 
ATOM     34  C   UNL A   1      42.884  28.171  32.301  1.00  0.00     0.049 A 
ATOM     35  H   UNL A   1      41.184  29.320  31.810  1.00  0.00     0.167 HD
ATOM     36  C   UNL A   1      42.470  29.515  34.347  1.00  0.00     0.074 A 
ATOM     37  C   UNL A   1      42.746  29.879  35.724  1.00  0.00     0.031 C 
ATOM     38  C   UNL A   1      43.159  28.575  33.655  1.00  0.00     0.034 A 
BRANCH  25  39
ATOM     39  C   UNL A   1      41.024  27.436  27.976  1.00  0.00     0.023 A 
ATOM     40  C   UNL A   1      41.633  27.999  26.838  1.00  0.00     0.012 A 
ATOM     41  C   UNL A   1      40.656  26.075  27.964  1.00  0.00     0.148 A 
ATOM     42  C   UNL A   1      41.864  27.223  25.701  1.00  0.00     0.002 A 
ATOM     43  C   UNL A   1      40.918  25.300  26.839  1.00  0.00     0.091 A 
ATOM     44  F   UNL A   1      40.062  25.564  29.052  1.00  0.00    -0.205 F 
ATOM     45  C   UNL A   1      41.518  25.873  25.706  1.00  0.00     0.022 A 
BRANCH  43  46
ATOM     46  S   UNL A   1      40.576  23.537  26.770  1.00  0.00     0.127 S 
ATOM     47  O   UNL A   1      40.924  23.116  28.126  1.00  0.00    -0.237 OA
ATOM     48  O   UNL A   1      39.144  23.511  26.472  1.00  0.00    -0.237 OA
ATOM     49  O   UNL A   1      41.427  23.004  25.714  1.00  0.00    -0.744 OA
ENDBRANCH  43  46
ENDBRANCH  25  39
BRANCH  26  50
ATOM     50  C   UNL A   1      39.697  32.749  36.374  1.00  0.00     0.023 A 
ATOM     51  C   UNL A   1      40.331  33.992  36.559  1.00  0.00     0.012 A 
ATOM     52  C   UNL A   1      38.783  32.294  37.344  1.00  0.00     0.148 A 
ATOM     53  C   UNL A   1      40.070  34.758  37.696  1.00  0.00     0.002 A 
ATOM     54  C   UNL A   1      38.476  33.093  38.438  1.00  0.00     0.091 A 
ATOM     55  F   UNL A   1      38.202  31.098  37.167  1.00  0.00    -0.205 F 
ATOM     56  C   UNL A   1      39.130  34.319  38.626  1.00  0.00     0.022 A 
BRANCH  54  57
ATOM     57  S   UNL A   1      37.142  32.654  39.558  1.00  0.00     0.127 S 
ATOM     58  O   UNL A   1      35.975  32.731  38.686  1.00  0.00    -0.237 OA
ATOM     59  O   UNL A   1      37.511  31.301  39.977  1.00  0.00    -0.237 OA
ATOM     60  O   UNL A   1      37.218  33.642  40.628  1.00  0.00    -0.744 OA
ENDBRANCH  54  57
ENDBRANCH  26  50
BRANCH  38  61
ATOM     61  C   UNL A   1      44.269  27.875  34.384  1.00  0.00     0.023 A 
ATOM     62  C   UNL A   1      45.547  28.468  34.425  1.00  0.00     0.012 A 
ATOM     63  C   UNL A   1      44.044  26.663  35.061  1.00  0.00     0.148 A 
ATOM     64  C   UNL A   1      46.593  27.848  35.103  1.00  0.00     0.002 A 
ATOM     65  C   UNL A   1      45.082  26.072  35.772  1.00  0.00     0.091 A 
ATOM     66  F   UNL A   1      42.827  26.105  34.988  1.00  0.00    -0.205 F 
ATOM     67  C   UNL A   1      46.359  26.657  35.785  1.00  0.00     0.022 A 
BRANCH  65  68
ATOM     68  S   UNL A   1      44.841  24.580  36.743  1.00  0.00     0.127 S 
ATOM     69  O   UNL A   1      44.419  23.624  35.722  1.00  0.00    -0.237 OA
ATOM     70  O   UNL A   1      46.178  24.341  37.287  1.00  0.00    -0.237 OA
ATOM     71  O   UNL A   1      43.839  24.919  37.745  1.00  0.00    -0.744 OA
ENDBRANCH  65  68
ENDBRANCH  38  61
ENDBRANCH  12  13
ENDBRANCH   5   7
ENDBRANCH   2   3
ENDBRANCH   1   2
BRANCH   1  72
ATOM     72  C   UNL A   1      31.384  30.820  25.753  1.00  0.00     0.023 C 
BRANCH  72  73
ATOM     73  C   UNL A   1      32.336  29.784  26.366  1.00  0.00     0.116 C 
BRANCH  73  74
ATOM     74  N   UNL A   1      33.231  29.233  25.362  1.00  0.00    -0.356 N 
ATOM     75  C   UNL A   1      33.131  28.307  24.382  1.00  0.00     0.223 C 
ATOM     76  H   UNL A   1      34.130  29.632  25.407  1.00  0.00     0.163 HD
ATOM     77  O   UNL A   1      34.209  28.008  23.846  1.00  0.00    -0.275 OA
BRANCH  75  78
ATOM     78  C   UNL A   1      31.839  27.686  23.819  1.00  0.00     0.082 C 
ATOM     79  C   UNL A   1      30.627  27.425  24.698  1.00  0.00     0.035 C 
ATOM     80  C   UNL A   1      32.170  26.348  23.112  1.00  0.00     0.035 C 
ATOM     81  C   UNL A   1      30.925  26.359  25.726  1.00  0.00     0.120 C 
ATOM     82  C   UNL A   1      32.435  25.220  24.111  1.00  0.00     0.120 C 
ATOM     83  N   UNL A   1      31.417  25.125  25.155  1.00  0.00    -0.340 N 
ATOM     84  C   UNL A   1      31.403  24.031  26.018  1.00  0.00     0.260 C 
ATOM     85  O   UNL A   1      31.406  24.159  27.245  1.00  0.00    -0.271 OA
BRANCH  84  86
ATOM     86  C   UNL A   1      31.196  22.659  25.379  1.00  0.00     0.329 C 
BRANCH  86  87
ATOM     87  O   UNL A   1      32.241  22.120  24.584  1.00  0.00    -0.482 OA
BRANCH  87  88
ATOM     88  C   UNL A   1      32.522  20.778  24.618  1.00  0.00     0.138 A 
ATOM     89  C   UNL A   1      32.903  20.052  25.751  1.00  0.00     0.049 A 
ATOM     90  C   UNL A   1      32.332  20.072  23.417  1.00  0.00     0.084 A 
ATOM     91  C   UNL A   1      32.995  18.655  25.715  1.00  0.00     0.024 A 
ATOM     92  C   UNL A   1      32.467  18.681  23.365  1.00  0.00     0.045 A 
ATOM     93  Cl  UNL A   1      31.942  20.897  21.946  1.00  0.00    -0.080 Cl
ATOM     94  C   UNL A   1      32.772  17.976  24.524  1.00  0.00     0.042 A 
ATOM     95  Cl  UNL A   1      32.878  16.261  24.486  1.00  0.00    -0.084 Cl
ENDBRANCH  87  88
ENDBRANCH  86  87
ENDBRANCH  84  86
ENDBRANCH  75  78
ENDBRANCH  73  74
ENDBRANCH  72  73
ENDBRANCH   1  72
TORSDOF 17
ENDMDL
MODEL 3
REMARK VINA RESULT:     -11.9      1.183      7.831
REMARK SMILES O=C(NCCCCNC(=O)C1CCN(C(=O)COc2ccc(Cl)cc2Cl)CC1)c1ccc(-c2c3nc(c(-c4cccc(S(=O)(=O)[O-])c4F)c4ccc([nH]4)c(-c4cccc(S(=O)(=O)[O-])c4F)c4nc(c(-c5cccc(S(=O)(=O)[O-])c5F)c5ccc2[nH]5)C=C4)C=C3)cc1
REMARK SMILES IDX 5 1 4 2 3 3 1 4 2 5 29 7 30 8 91 9 31 10 90 11 32 12 33 13
REMARK SMILES IDX 34 14 84 15 35 16 89 17 83 18 85 19 36 20 88 21 82 22 81 23
REMARK SMILES IDX 37 25 69 26 49 27 68 28 50 29 53 30 67 31 86 32 51 33 52 34
REMARK SMILES IDX 66 36 87 37 54 38 38 39 39 40 47 41 40 42 42 43 48 44 41 45
REMARK SMILES IDX 43 46 44 47 45 48 46 49 70 50 71 51 79 52 72 53 74 54 80 55
REMARK SMILES IDX 73 56 75 57 76 58 77 59 78 60 55 61 56 62 64 63 57 64 59 65
REMARK SMILES IDX 65 66 58 67 60 68 61 69 62 70 63 71 6 72 7 73 8 74 9 75
REMARK SMILES IDX 10 77 11 78 12 79 28 80 13 81 27 82 14 83 15 84 16 85 17 86
REMARK SMILES IDX 18 87 19 88 20 89 25 90 21 91 24 92 26 93 22 94 23 95
REMARK H PARENT 3 6 85 24 53 35 8 76
REMARK Flexibility Score: inf
ROOT
ATOM      1  C   UNL A   1      33.381  32.200  27.928  1.00  0.00     0.023 C 
ENDROOT
BRANCH   1   2
ATOM      2  C   UNL A   1      33.759  33.622  27.580  1.00  0.00     0.116 C 
BRANCH   2   3
ATOM      3  N   UNL A   1      32.947  34.643  28.229  1.00  0.00    -0.352 N 
ATOM      4  O   UNL A   1      32.343  35.966  29.972  1.00  0.00    -0.269 OA
ATOM      5  C   UNL A   1      33.114  35.144  29.507  1.00  0.00     0.251 C 
ATOM      6  H   UNL A   1      32.202  35.015  27.704  1.00  0.00     0.163 HD
BRANCH   5   7
ATOM      7  C   UNL A   1      34.236  34.599  30.298  1.00  0.00     0.039 A 
ATOM      8  C   UNL A   1      35.544  34.894  29.908  1.00  0.00     0.014 A 
ATOM      9  C   UNL A   1      33.980  33.661  31.298  1.00  0.00     0.014 A 
ATOM     10  C   UNL A   1      36.582  34.108  30.377  1.00  0.00     0.010 A 
ATOM     11  C   UNL A   1      35.049  32.961  31.866  1.00  0.00     0.010 A 
ATOM     12  C   UNL A   1      36.352  33.153  31.384  1.00  0.00    -0.014 A 
BRANCH  12  13
ATOM     13  C   UNL A   1      37.522  32.473  31.991  1.00  0.00     0.031 A 
ATOM     14  C   UNL A   1      38.256  31.363  31.293  1.00  0.00     0.074 A 
ATOM     15  C   UNL A   1      37.915  32.899  33.207  1.00  0.00     0.049 A 
ATOM     16  N   UNL A   1      39.296  30.687  31.709  1.00  0.00    -0.248 NA
ATOM     17  C   UNL A   1      37.765  30.945  29.969  1.00  0.00     0.031 C 
ATOM     18  C   UNL A   1      37.235  33.937  33.990  1.00  0.00     0.029 A 
ATOM     19  N   UNL A   1      38.972  32.532  33.997  1.00  0.00    -0.354 N 
ATOM     20  C   UNL A   1      39.549  29.729  30.735  1.00  0.00     0.074 A 
ATOM     21  C   UNL A   1      38.565  29.920  29.692  1.00  0.00     0.031 C 
ATOM     22  C   UNL A   1      37.915  34.159  35.119  1.00  0.00     0.029 A 
ATOM     23  C   UNL A   1      39.030  33.226  35.184  1.00  0.00     0.049 A 
ATOM     24  H   UNL A   1      39.626  31.843  33.740  1.00  0.00     0.167 HD
ATOM     25  C   UNL A   1      40.520  28.784  30.719  1.00  0.00     0.034 A 
ATOM     26  C   UNL A   1      39.867  33.104  36.229  1.00  0.00     0.034 A 
ATOM     27  C   UNL A   1      41.527  28.647  31.741  1.00  0.00     0.049 A 
ATOM     28  C   UNL A   1      40.958  32.083  36.152  1.00  0.00     0.074 A 
ATOM     29  C   UNL A   1      42.603  27.777  31.775  1.00  0.00     0.029 A 
ATOM     30  N   UNL A   1      41.580  29.393  32.908  1.00  0.00    -0.354 N 
ATOM     31  N   UNL A   1      41.254  31.273  35.165  1.00  0.00    -0.248 NA
ATOM     32  C   UNL A   1      41.838  31.967  37.320  1.00  0.00     0.031 C 
ATOM     33  C   UNL A   1      43.298  27.988  32.972  1.00  0.00     0.029 A 
ATOM     34  C   UNL A   1      42.662  28.995  33.677  1.00  0.00     0.049 A 
ATOM     35  H   UNL A   1      40.942  30.102  33.155  1.00  0.00     0.167 HD
ATOM     36  C   UNL A   1      42.356  30.547  35.592  1.00  0.00     0.074 A 
ATOM     37  C   UNL A   1      42.702  31.048  36.908  1.00  0.00     0.031 C 
ATOM     38  C   UNL A   1      43.006  29.534  34.967  1.00  0.00     0.034 A 
BRANCH  25  39
ATOM     39  C   UNL A   1      40.583  27.835  29.550  1.00  0.00     0.023 A 
ATOM     40  C   UNL A   1      39.700  26.739  29.496  1.00  0.00     0.012 A 
ATOM     41  C   UNL A   1      41.427  28.099  28.452  1.00  0.00     0.148 A 
ATOM     42  C   UNL A   1      39.663  25.913  28.372  1.00  0.00     0.002 A 
ATOM     43  C   UNL A   1      41.362  27.290  27.322  1.00  0.00     0.091 A 
ATOM     44  F   UNL A   1      42.272  29.137  28.531  1.00  0.00    -0.205 F 
ATOM     45  C   UNL A   1      40.484  26.195  27.283  1.00  0.00     0.022 A 
BRANCH  43  46
ATOM     46  S   UNL A   1      42.325  27.609  25.839  1.00  0.00     0.127 S 
ATOM     47  O   UNL A   1      41.896  28.963  25.495  1.00  0.00    -0.237 OA
ATOM     48  O   UNL A   1      43.698  27.513  26.335  1.00  0.00    -0.237 OA
ATOM     49  O   UNL A   1      41.949  26.575  24.885  1.00  0.00    -0.744 OA
ENDBRANCH  43  46
ENDBRANCH  25  39
BRANCH  26  50
ATOM     50  C   UNL A   1      39.700  33.996  37.409  1.00  0.00     0.023 A 
ATOM     51  C   UNL A   1      40.099  35.343  37.324  1.00  0.00     0.012 A 
ATOM     52  C   UNL A   1      39.068  33.540  38.583  1.00  0.00     0.148 A 
ATOM     53  C   UNL A   1      39.885  36.214  38.394  1.00  0.00     0.002 A 
ATOM     54  C   UNL A   1      38.797  34.429  39.615  1.00  0.00     0.091 A 
ATOM     55  F   UNL A   1      38.713  32.249  38.660  1.00  0.00    -0.205 F 
ATOM     56  C   UNL A   1      39.218  35.763  39.531  1.00  0.00     0.022 A 
BRANCH  54  57
ATOM     57  S   UNL A   1      37.781  33.938  41.014  1.00  0.00     0.127 S 
ATOM     58  O   UNL A   1      38.686  33.066  41.755  1.00  0.00    -0.237 OA
ATOM     59  O   UNL A   1      37.491  35.219  41.660  1.00  0.00    -0.237 OA
ATOM     60  O   UNL A   1      36.612  33.303  40.417  1.00  0.00    -0.744 OA
ENDBRANCH  54  57
ENDBRANCH  26  50
BRANCH  38  61
ATOM     61  C   UNL A   1      44.149  28.903  35.708  1.00  0.00     0.023 A 
ATOM     62  C   UNL A   1      45.451  29.412  35.526  1.00  0.00     0.012 A 
ATOM     63  C   UNL A   1      43.935  27.846  36.610  1.00  0.00     0.148 A 
ATOM     64  C   UNL A   1      46.529  28.855  36.210  1.00  0.00     0.002 A 
ATOM     65  C   UNL A   1      45.010  27.323  37.320  1.00  0.00     0.091 A 
ATOM     66  F   UNL A   1      42.692  27.362  36.748  1.00  0.00    -0.205 F 
ATOM     67  C   UNL A   1      46.308  27.819  37.113  1.00  0.00     0.022 A 
BRANCH  65  68
ATOM     68  S   UNL A   1      44.797  26.043  38.562  1.00  0.00     0.127 S 
ATOM     69  O   UNL A   1      46.167  25.855  39.034  1.00  0.00    -0.237 OA
ATOM     70  O   UNL A   1      43.903  26.685  39.525  1.00  0.00    -0.237 OA
ATOM     71  O   UNL A   1      44.209  24.907  37.862  1.00  0.00    -0.744 OA
ENDBRANCH  65  68
ENDBRANCH  38  61
ENDBRANCH  12  13
ENDBRANCH   5   7
ENDBRANCH   2   3
ENDBRANCH   1   2
BRANCH   1  72
ATOM     72  C   UNL A   1      34.546  31.322  28.338  1.00  0.00     0.023 C 
BRANCH  72  73
ATOM     73  C   UNL A   1      34.746  30.041  27.516  1.00  0.00     0.116 C 
BRANCH  73  74
ATOM     74  N   UNL A   1      33.548  29.218  27.524  1.00  0.00    -0.356 N 
ATOM     75  C   UNL A   1      32.525  28.992  26.669  1.00  0.00     0.223 C 
ATOM     76  H   UNL A   1      33.459  28.699  28.356  1.00  0.00     0.163 HD
ATOM     77  O   UNL A   1      31.595  28.324  27.146  1.00  0.00    -0.275 OA
BRANCH  75  78
ATOM     78  C   UNL A   1      32.455  29.383  25.181  1.00  0.00     0.082 C 
ATOM     79  C   UNL A   1      31.198  29.169  24.355  1.00  0.00     0.035 C 
ATOM     80  C   UNL A   1      33.614  28.703  24.410  1.00  0.00     0.035 C 
ATOM     81  C   UNL A   1      30.908  27.695  24.185  1.00  0.00     0.120 C 
ATOM     82  C   UNL A   1      33.349  27.215  24.169  1.00  0.00     0.120 C 
ATOM     83  N   UNL A   1      32.016  26.947  23.633  1.00  0.00    -0.340 N 
ATOM     84  C   UNL A   1      31.693  25.673  23.172  1.00  0.00     0.260 C 
ATOM     85  O   UNL A   1      30.704  25.056  23.576  1.00  0.00    -0.271 OA
BRANCH  84  86
ATOM     86  C   UNL A   1      32.516  25.141  22.000  1.00  0.00     0.329 C 
BRANCH  86  87
ATOM     87  O   UNL A   1      33.597  24.263  22.278  1.00  0.00    -0.482 OA
BRANCH  87  88
ATOM     88  C   UNL A   1      33.387  23.091  22.958  1.00  0.00     0.138 A 
ATOM     89  C   UNL A   1      32.394  22.148  22.673  1.00  0.00     0.049 A 
ATOM     90  C   UNL A   1      34.305  22.792  23.980  1.00  0.00     0.084 A 
ATOM     91  C   UNL A   1      32.375  20.904  23.315  1.00  0.00     0.024 A 
ATOM     92  C   UNL A   1      34.263  21.567  24.655  1.00  0.00     0.045 A 
ATOM     93  Cl  UNL A   1      35.516  23.932  24.458  1.00  0.00    -0.080 Cl
ATOM     94  C   UNL A   1      33.312  20.618  24.299  1.00  0.00     0.042 A 
ATOM     95  Cl  UNL A   1      33.291  19.086  25.079  1.00  0.00    -0.084 Cl
ENDBRANCH  87  88
ENDBRANCH  86  87
ENDBRANCH  84  86
ENDBRANCH  75  78
ENDBRANCH  73  74
ENDBRANCH  72  73
ENDBRANCH   1  72
TORSDOF 17
ENDMDL
