MODEL 1
REMARK VINA RESULT:     -12.4      0.000      0.000
REMARK SMILES O=C(NCCCCNC(=O)c1cc(/C=C/c2cc(O)cc(O)c2)ccc1O)c1ccc(-c2c3nc(c(-c4cccc(S(=O)(=O)[O-])c4F)c4ccc([nH]4)c(-c4cccc(S(=O)(=O)[O-])c4F)c4nc(c(-c5cccc(S(=O)(=O)[O-])c5F)c5ccc2[nH]5)C=C4)C=C3)cc1
REMARK SMILES IDX 5 1 4 2 3 3 1 4 2 5 28 7 29 8 90 9 30 10 89 11 31 12 32 13
REMARK SMILES IDX 33 14 83 15 34 16 88 17 82 18 84 19 35 20 87 21 81 22 80 23
REMARK SMILES IDX 36 25 68 26 48 27 67 28 49 29 52 30 66 31 85 32 50 33 51 34
REMARK SMILES IDX 65 36 86 37 53 38 37 39 38 40 46 41 39 42 41 43 47 44 40 45
REMARK SMILES IDX 42 46 43 47 44 48 45 49 69 50 70 51 78 52 71 53 73 54 79 55
REMARK SMILES IDX 72 56 74 57 75 58 76 59 77 60 54 61 55 62 63 63 56 64 58 65
REMARK SMILES IDX 64 66 57 67 59 68 60 69 61 70 62 71 6 72 7 73 8 74 9 75
REMARK SMILES IDX 10 77 11 78 12 79 26 80 13 81 25 82 24 83 27 84 14 86 15 87
REMARK SMILES IDX 16 88 17 89 23 90 18 91 21 92 20 93 19 94 22 96
REMARK H PARENT 3 6 84 24 52 35 8 76 27 85 19 95 22 97
REMARK Flexibility Score: inf
ROOT
ATOM      1  C   UNL A   1      33.017  27.898  25.800  1.00  0.00     0.023 C 
ENDROOT
BRANCH   1   2
ATOM      2  C   UNL A   1      33.551  29.219  25.264  1.00  0.00     0.116 C 
BRANCH   2   3
ATOM      3  N   UNL A   1      32.909  30.383  25.855  1.00  0.00    -0.352 N 
ATOM      4  O   UNL A   1      32.585  32.026  27.366  1.00  0.00    -0.269 OA
ATOM      5  C   UNL A   1      33.315  31.140  26.929  1.00  0.00     0.251 C 
ATOM      6  H   UNL A   1      32.068  30.668  25.428  1.00  0.00     0.163 HD
BRANCH   5   7
ATOM      7  C   UNL A   1      34.616  30.851  27.575  1.00  0.00     0.039 A 
ATOM      8  C   UNL A   1      34.894  29.571  28.059  1.00  0.00     0.014 A 
ATOM      9  C   UNL A   1      35.552  31.877  27.727  1.00  0.00     0.014 A 
ATOM     10  C   UNL A   1      36.027  29.361  28.836  1.00  0.00     0.010 A 
ATOM     11  C   UNL A   1      36.738  31.638  28.431  1.00  0.00     0.010 A 
ATOM     12  C   UNL A   1      36.968  30.389  29.025  1.00  0.00    -0.014 A 
BRANCH  12  13
ATOM     13  C   UNL A   1      38.209  30.089  29.785  1.00  0.00     0.031 A 
ATOM     14  C   UNL A   1      38.435  30.613  31.177  1.00  0.00     0.074 A 
ATOM     15  C   UNL A   1      39.127  29.287  29.209  1.00  0.00     0.049 A 
ATOM     16  N   UNL A   1      39.425  30.359  31.996  1.00  0.00    -0.248 NA
ATOM     17  C   UNL A   1      37.434  31.543  31.722  1.00  0.00     0.031 C 
ATOM     18  C   UNL A   1      39.045  28.768  27.841  1.00  0.00     0.029 A 
ATOM     19  N   UNL A   1      40.293  28.755  29.695  1.00  0.00    -0.354 N 
ATOM     20  C   UNL A   1      39.186  31.118  33.136  1.00  0.00     0.074 A 
ATOM     21  C   UNL A   1      37.961  31.852  32.901  1.00  0.00     0.031 C 
ATOM     22  C   UNL A   1      40.086  27.956  27.615  1.00  0.00     0.029 A 
ATOM     23  C   UNL A   1      40.934  27.930  28.801  1.00  0.00     0.049 A 
ATOM     24  H   UNL A   1      40.637  28.944  30.598  1.00  0.00     0.167 HD
ATOM     25  C   UNL A   1      39.911  31.179  34.280  1.00  0.00     0.034 A 
ATOM     26  C   UNL A   1      42.078  27.229  28.917  1.00  0.00     0.034 A 
ATOM     27  C   UNL A   1      41.107  30.415  34.524  1.00  0.00     0.049 A 
ATOM     28  C   UNL A   1      42.822  27.269  30.219  1.00  0.00     0.074 A 
ATOM     29  C   UNL A   1      41.886  30.379  35.668  1.00  0.00     0.029 A 
ATOM     30  N   UNL A   1      41.696  29.550  33.614  1.00  0.00    -0.354 N 
ATOM     31  N   UNL A   1      42.511  27.898  31.326  1.00  0.00    -0.248 NA
ATOM     32  C   UNL A   1      44.061  26.483  30.299  1.00  0.00     0.031 C 
ATOM     33  C   UNL A   1      42.949  29.493  35.448  1.00  0.00     0.029 A 
ATOM     34  C   UNL A   1      42.826  28.974  34.169  1.00  0.00     0.049 A 
ATOM     35  H   UNL A   1      41.359  29.371  32.706  1.00  0.00     0.167 HD
ATOM     36  C   UNL A   1      43.510  27.582  32.236  1.00  0.00     0.074 A 
ATOM     37  C   UNL A   1      44.411  26.666  31.565  1.00  0.00     0.031 C 
ATOM     38  C   UNL A   1      43.688  28.034  33.501  1.00  0.00     0.034 A 
BRANCH  25  39
ATOM     39  C   UNL A   1      39.402  32.057  35.394  1.00  0.00     0.023 A 
ATOM     40  C   UNL A   1      38.530  31.509  36.355  1.00  0.00     0.012 A 
ATOM     41  C   UNL A   1      39.854  33.384  35.546  1.00  0.00     0.148 A 
ATOM     42  C   UNL A   1      38.103  32.269  37.444  1.00  0.00     0.002 A 
ATOM     43  C   UNL A   1      39.451  34.124  36.653  1.00  0.00     0.091 A 
ATOM     44  F   UNL A   1      40.668  33.893  34.611  1.00  0.00    -0.205 F 
ATOM     45  C   UNL A   1      38.572  33.571  37.598  1.00  0.00     0.022 A 
BRANCH  43  46
ATOM     46  S   UNL A   1      40.050  35.788  36.979  1.00  0.00     0.127 S 
ATOM     47  O   UNL A   1      39.306  36.136  38.188  1.00  0.00    -0.237 OA
ATOM     48  O   UNL A   1      41.481  35.566  37.188  1.00  0.00    -0.237 OA
ATOM     49  O   UNL A   1      39.723  36.571  35.796  1.00  0.00    -0.744 OA
ENDBRANCH  43  46
ENDBRANCH  25  39
BRANCH  26  50
ATOM     50  C   UNL A   1      42.543  26.387  27.781  1.00  0.00     0.023 A 
ATOM     51  C   UNL A   1      43.568  26.859  26.940  1.00  0.00     0.012 A 
ATOM     52  C   UNL A   1      42.020  25.097  27.567  1.00  0.00     0.148 A 
ATOM     53  C   UNL A   1      44.050  26.068  25.896  1.00  0.00     0.002 A 
ATOM     54  C   UNL A   1      42.549  24.291  26.565  1.00  0.00     0.091 A 
ATOM     55  F   UNL A   1      41.027  24.669  28.359  1.00  0.00    -0.205 F 
ATOM     56  C   UNL A   1      43.553  24.780  25.717  1.00  0.00     0.022 A 
BRANCH  54  57
ATOM     57  S   UNL A   1      42.059  22.571  26.406  1.00  0.00     0.127 S 
ATOM     58  O   UNL A   1      42.808  22.149  25.227  1.00  0.00    -0.237 OA
ATOM     59  O   UNL A   1      42.523  21.991  27.669  1.00  0.00    -0.237 OA
ATOM     60  O   UNL A   1      40.608  22.611  26.274  1.00  0.00    -0.744 OA
ENDBRANCH  54  57
ENDBRANCH  26  50
BRANCH  38  61
ATOM     61  C   UNL A   1      44.911  27.552  34.233  1.00  0.00     0.023 A 
ATOM     62  C   UNL A   1      46.095  28.314  34.166  1.00  0.00     0.012 A 
ATOM     63  C   UNL A   1      44.884  26.381  35.012  1.00  0.00     0.148 A 
ATOM     64  C   UNL A   1      47.244  27.898  34.836  1.00  0.00     0.002 A 
ATOM     65  C   UNL A   1      46.023  25.993  35.708  1.00  0.00     0.091 A 
ATOM     66  F   UNL A   1      43.757  25.655  35.044  1.00  0.00    -0.205 F 
ATOM     67  C   UNL A   1      47.206  26.744  35.613  1.00  0.00     0.022 A 
BRANCH  65  68
ATOM     68  S   UNL A   1      46.028  24.561  36.793  1.00  0.00     0.127 S 
ATOM     69  O   UNL A   1      47.306  24.714  37.486  1.00  0.00    -0.237 OA
ATOM     70  O   UNL A   1      44.850  24.791  37.630  1.00  0.00    -0.237 OA
ATOM     71  O   UNL A   1      45.919  23.405  35.913  1.00  0.00    -0.744 OA
ENDBRANCH  65  68
ENDBRANCH  38  61
ENDBRANCH  12  13
ENDBRANCH   5   7
ENDBRANCH   2   3
ENDBRANCH   1   2
BRANCH   1  72
ATOM     72  C   UNL A   1      31.592  27.940  26.347  1.00  0.00     0.023 C 
BRANCH  72  73
ATOM     73  C   UNL A   1      30.595  27.027  25.641  1.00  0.00     0.116 C 
BRANCH  73  74
ATOM     74  N   UNL A   1      29.999  27.646  24.469  1.00  0.00    -0.352 N 
ATOM     75  C   UNL A   1      30.325  27.467  23.149  1.00  0.00     0.255 C 
ATOM     76  H   UNL A   1      29.265  28.277  24.646  1.00  0.00     0.163 HD
ATOM     77  O   UNL A   1      29.759  28.111  22.270  1.00  0.00    -0.269 OA
BRANCH  75  78
ATOM     78  C   UNL A   1      31.436  26.571  22.786  1.00  0.00     0.082 A 
ATOM     79  C   UNL A   1      31.244  25.203  23.024  1.00  0.00     0.025 A 
ATOM     80  C   UNL A   1      32.633  27.032  22.235  1.00  0.00     0.128 A 
ATOM     81  C   UNL A   1      32.229  24.274  22.674  1.00  0.00    -0.025 A 
ATOM     82  C   UNL A   1      33.617  26.120  21.867  1.00  0.00     0.047 A 
ATOM     83  C   UNL A   1      33.408  24.750  22.076  1.00  0.00     0.012 A 
BRANCH  80  84
ATOM     84  O   UNL A   1      32.834  28.368  22.039  1.00  0.00    -0.507 OA
ATOM     85  H   UNL A   1      33.377  28.852  22.631  1.00  0.00     0.293 HD
ENDBRANCH  80  84
BRANCH  81  86
ATOM     86  C   UNL A   1      32.082  22.822  22.889  1.00  0.00     0.009 C 
ATOM     87  C   UNL A   1      32.702  22.106  23.843  1.00  0.00     0.009 C 
BRANCH  87  88
ATOM     88  C   UNL A   1      32.548  20.653  23.994  1.00  0.00    -0.018 A 
ATOM     89  C   UNL A   1      32.285  19.824  22.895  1.00  0.00     0.054 A 
ATOM     90  C   UNL A   1      32.746  20.077  25.257  1.00  0.00     0.054 A 
ATOM     91  C   UNL A   1      32.203  18.444  23.070  1.00  0.00     0.119 A 
ATOM     92  C   UNL A   1      32.656  18.694  25.410  1.00  0.00     0.119 A 
ATOM     93  C   UNL A   1      32.381  17.873  24.324  1.00  0.00     0.092 A 
BRANCH  91  94
ATOM     94  O   UNL A   1      31.955  17.612  22.018  1.00  0.00    -0.508 OA
ATOM     95  H   UNL A   1      32.641  17.399  21.417  1.00  0.00     0.293 HD
ENDBRANCH  91  94
BRANCH  92  96
ATOM     96  O   UNL A   1      32.842  18.102  26.625  1.00  0.00    -0.508 OA
ATOM     97  H   UNL A   1      33.072  17.195  26.674  1.00  0.00     0.293 HD
ENDBRANCH  92  96
ENDBRANCH  87  88
ENDBRANCH  81  86
ENDBRANCH  75  78
ENDBRANCH  73  74
ENDBRANCH  72  73
ENDBRANCH   1  72
TORSDOF 19
ENDMDL
MODEL 2
REMARK VINA RESULT:     -12.3      2.062      4.638
REMARK SMILES O=C(NCCCCNC(=O)c1cc(/C=C/c2cc(O)cc(O)c2)ccc1O)c1ccc(-c2c3nc(c(-c4cccc(S(=O)(=O)[O-])c4F)c4ccc([nH]4)c(-c4cccc(S(=O)(=O)[O-])c4F)c4nc(c(-c5cccc(S(=O)(=O)[O-])c5F)c5ccc2[nH]5)C=C4)C=C3)cc1
REMARK SMILES IDX 5 1 4 2 3 3 1 4 2 5 28 7 29 8 90 9 30 10 89 11 31 12 32 13
REMARK SMILES IDX 33 14 83 15 34 16 88 17 82 18 84 19 35 20 87 21 81 22 80 23
REMARK SMILES IDX 36 25 68 26 48 27 67 28 49 29 52 30 66 31 85 32 50 33 51 34
REMARK SMILES IDX 65 36 86 37 53 38 37 39 38 40 46 41 39 42 41 43 47 44 40 45
REMARK SMILES IDX 42 46 43 47 44 48 45 49 69 50 70 51 78 52 71 53 73 54 79 55
REMARK SMILES IDX 72 56 74 57 75 58 76 59 77 60 54 61 55 62 63 63 56 64 58 65
REMARK SMILES IDX 64 66 57 67 59 68 60 69 61 70 62 71 6 72 7 73 8 74 9 75
REMARK SMILES IDX 10 77 11 78 12 79 26 80 13 81 25 82 24 83 27 84 14 86 15 87
REMARK SMILES IDX 16 88 17 89 23 90 18 91 21 92 20 93 19 94 22 96
REMARK H PARENT 3 6 84 24 52 35 8 76 27 85 19 95 22 97
REMARK Flexibility Score: inf
ROOT
ATOM      1  C   UNL A   1      31.482  28.853  26.141  1.00  0.00     0.023 C 
ENDROOT
BRANCH   1   2
ATOM      2  C   UNL A   1      32.587  29.865  25.876  1.00  0.00     0.116 C 
BRANCH   2   3
ATOM      3  N   UNL A   1      32.217  31.228  26.226  1.00  0.00    -0.352 N 
ATOM      4  O   UNL A   1      32.341  33.188  27.334  1.00  0.00    -0.269 OA
ATOM      5  C   UNL A   1      32.861  32.109  27.064  1.00  0.00     0.251 C 
ATOM      6  H   UNL A   1      31.393  31.567  25.804  1.00  0.00     0.163 HD
BRANCH   5   7
ATOM      7  C   UNL A   1      34.159  31.727  27.665  1.00  0.00     0.039 A 
ATOM      8  C   UNL A   1      34.405  30.402  28.031  1.00  0.00     0.014 A 
ATOM      9  C   UNL A   1      35.126  32.709  27.893  1.00  0.00     0.014 A 
ATOM     10  C   UNL A   1      35.539  30.093  28.772  1.00  0.00     0.010 A 
ATOM     11  C   UNL A   1      36.312  32.375  28.558  1.00  0.00     0.010 A 
ATOM     12  C   UNL A   1      36.511  31.073  29.037  1.00  0.00    -0.014 A 
BRANCH  12  13
ATOM     13  C   UNL A   1      37.752  30.672  29.753  1.00  0.00     0.031 A 
ATOM     14  C   UNL A   1      38.038  31.122  31.159  1.00  0.00     0.074 A 
ATOM     15  C   UNL A   1      38.610  29.847  29.120  1.00  0.00     0.049 A 
ATOM     16  N   UNL A   1      39.031  30.779  31.941  1.00  0.00    -0.248 NA
ATOM     17  C   UNL A   1      37.104  32.081  31.769  1.00  0.00     0.031 C 
ATOM     18  C   UNL A   1      38.467  29.394  27.733  1.00  0.00     0.029 A 
ATOM     19  N   UNL A   1      39.755  29.231  29.553  1.00  0.00    -0.354 N 
ATOM     20  C   UNL A   1      38.862  31.499  33.118  1.00  0.00     0.074 A 
ATOM     21  C   UNL A   1      37.675  32.309  32.946  1.00  0.00     0.031 C 
ATOM     22  C   UNL A   1      39.455  28.537  27.446  1.00  0.00     0.029 A 
ATOM     23  C   UNL A   1      40.328  28.412  28.608  1.00  0.00     0.049 A 
ATOM     24  H   UNL A   1      40.130  29.361  30.453  1.00  0.00     0.167 HD
ATOM     25  C   UNL A   1      39.616  31.470  34.244  1.00  0.00     0.034 A 
ATOM     26  C   UNL A   1      41.432  27.644  28.666  1.00  0.00     0.034 A 
ATOM     27  C   UNL A   1      40.773  30.632  34.425  1.00  0.00     0.049 A 
ATOM     28  C   UNL A   1      42.208  27.587  29.948  1.00  0.00     0.074 A 
ATOM     29  C   UNL A   1      41.575  30.503  35.546  1.00  0.00     0.029 A 
ATOM     30  N   UNL A   1      41.291  29.776  33.465  1.00  0.00    -0.354 N 
ATOM     31  N   UNL A   1      41.958  28.183  31.089  1.00  0.00    -0.248 NA
ATOM     32  C   UNL A   1      43.403  26.731  29.963  1.00  0.00     0.031 C 
ATOM     33  C   UNL A   1      42.580  29.570  35.262  1.00  0.00     0.029 A 
ATOM     34  C   UNL A   1      42.399  29.115  33.966  1.00  0.00     0.049 A 
ATOM     35  H   UNL A   1      40.923  29.655  32.559  1.00  0.00     0.167 HD
ATOM     36  C   UNL A   1      42.959  27.773  31.958  1.00  0.00     0.074 A 
ATOM     37  C   UNL A   1      43.791  26.839  31.226  1.00  0.00     0.031 C 
ATOM     38  C   UNL A   1      43.191  28.159  33.237  1.00  0.00     0.034 A 
BRANCH  25  39
ATOM     39  C   UNL A   1      39.182  32.325  35.407  1.00  0.00     0.023 A 
ATOM     40  C   UNL A   1      38.298  31.787  36.363  1.00  0.00     0.012 A 
ATOM     41  C   UNL A   1      39.716  33.614  35.607  1.00  0.00     0.148 A 
ATOM     42  C   UNL A   1      37.940  32.520  37.494  1.00  0.00     0.002 A 
ATOM     43  C   UNL A   1      39.380  34.327  36.754  1.00  0.00     0.091 A 
ATOM     44  F   UNL A   1      40.540  34.116  34.677  1.00  0.00    -0.205 F 
ATOM     45  C   UNL A   1      38.489  33.784  37.694  1.00  0.00     0.022 A 
BRANCH  43  46
ATOM     46  S   UNL A   1      40.084  35.936  37.140  1.00  0.00     0.127 S 
ATOM     47  O   UNL A   1      41.502  35.611  37.280  1.00  0.00    -0.237 OA
ATOM     48  O   UNL A   1      39.753  36.713  35.945  1.00  0.00    -0.237 OA
ATOM     49  O   UNL A   1      39.421  36.381  38.358  1.00  0.00    -0.744 OA
ENDBRANCH  43  46
ENDBRANCH  25  39
BRANCH  26  50
ATOM     50  C   UNL A   1      41.823  26.829  27.483  1.00  0.00     0.023 A 
ATOM     51  C   UNL A   1      42.516  27.435  26.418  1.00  0.00     0.012 A 
ATOM     52  C   UNL A   1      41.568  25.445  27.435  1.00  0.00     0.148 A 
ATOM     53  C   UNL A   1      42.931  26.681  25.320  1.00  0.00     0.002 A 
ATOM     54  C   UNL A   1      42.041  24.689  26.368  1.00  0.00     0.091 A 
ATOM     55  F   UNL A   1      40.886  24.884  28.443  1.00  0.00    -0.205 F 
ATOM     56  C   UNL A   1      42.708  25.307  25.301  1.00  0.00     0.022 A 
BRANCH  54  57
ATOM     57  S   UNL A   1      41.924  22.897  26.381  1.00  0.00     0.127 S 
ATOM     58  O   UNL A   1      40.481  22.686  26.432  1.00  0.00    -0.237 OA
ATOM     59  O   UNL A   1      42.556  22.529  25.111  1.00  0.00    -0.237 OA
ATOM     60  O   UNL A   1      42.682  22.486  27.557  1.00  0.00    -0.744 OA
ENDBRANCH  54  57
ENDBRANCH  26  50
BRANCH  38  61
ATOM     61  C   UNL A   1      44.402  27.579  33.916  1.00  0.00     0.023 A 
ATOM     62  C   UNL A   1      45.645  28.228  33.773  1.00  0.00     0.012 A 
ATOM     63  C   UNL A   1      44.309  26.428  34.720  1.00  0.00     0.148 A 
ATOM     64  C   UNL A   1      46.785  27.720  34.393  1.00  0.00     0.002 A 
ATOM     65  C   UNL A   1      45.443  25.949  35.366  1.00  0.00     0.091 A 
ATOM     66  F   UNL A   1      43.125  25.809  34.823  1.00  0.00    -0.205 F 
ATOM     67  C   UNL A   1      46.683  26.587  35.195  1.00  0.00     0.022 A 
BRANCH  65  68
ATOM     68  S   UNL A   1      45.375  24.540  36.478  1.00  0.00     0.127 S 
ATOM     69  O   UNL A   1      44.522  25.046  37.551  1.00  0.00    -0.237 OA
ATOM     70  O   UNL A   1      44.758  23.506  35.645  1.00  0.00    -0.237 OA
ATOM     71  O   UNL A   1      46.759  24.265  36.844  1.00  0.00    -0.744 OA
ENDBRANCH  65  68
ENDBRANCH  38  61
ENDBRANCH  12  13
ENDBRANCH   5   7
ENDBRANCH   2   3
ENDBRANCH   1   2
BRANCH   1  72
ATOM     72  C   UNL A   1      31.757  27.861  27.269  1.00  0.00     0.023 C 
BRANCH  72  73
ATOM     73  C   UNL A   1      32.387  26.541  26.838  1.00  0.00     0.116 C 
BRANCH  73  74
ATOM     74  N   UNL A   1      31.439  25.440  26.837  1.00  0.00    -0.352 N 
ATOM     75  C   UNL A   1      30.860  24.810  25.765  1.00  0.00     0.255 C 
ATOM     76  H   UNL A   1      31.178  25.101  27.724  1.00  0.00     0.163 HD
ATOM     77  O   UNL A   1      30.029  23.922  25.932  1.00  0.00    -0.269 OA
BRANCH  75  78
ATOM     78  C   UNL A   1      31.161  25.271  24.399  1.00  0.00     0.082 A 
ATOM     79  C   UNL A   1      30.603  26.497  24.012  1.00  0.00     0.025 A 
ATOM     80  C   UNL A   1      31.954  24.544  23.511  1.00  0.00     0.128 A 
ATOM     81  C   UNL A   1      30.867  27.033  22.747  1.00  0.00    -0.025 A 
ATOM     82  C   UNL A   1      32.240  25.069  22.255  1.00  0.00     0.047 A 
ATOM     83  C   UNL A   1      31.707  26.310  21.883  1.00  0.00     0.012 A 
BRANCH  80  84
ATOM     84  O   UNL A   1      32.466  23.331  23.875  1.00  0.00    -0.507 OA
ATOM     85  H   UNL A   1      33.131  23.282  24.534  1.00  0.00     0.293 HD
ENDBRANCH  80  84
BRANCH  81  86
ATOM     86  C   UNL A   1      30.318  28.322  22.285  1.00  0.00     0.009 C 
ATOM     87  C   UNL A   1      29.545  29.148  23.011  1.00  0.00     0.009 C 
BRANCH  87  88
ATOM     88  C   UNL A   1      28.994  30.407  22.492  1.00  0.00    -0.018 A 
ATOM     89  C   UNL A   1      29.138  31.615  23.190  1.00  0.00     0.054 A 
ATOM     90  C   UNL A   1      28.377  30.411  21.233  1.00  0.00     0.054 A 
ATOM     91  C   UNL A   1      28.651  32.798  22.637  1.00  0.00     0.119 A 
ATOM     92  C   UNL A   1      27.895  31.606  20.701  1.00  0.00     0.119 A 
ATOM     93  C   UNL A   1      28.024  32.801  21.398  1.00  0.00     0.092 A 
BRANCH  91  94
ATOM     94  O   UNL A   1      28.783  33.988  23.290  1.00  0.00    -0.508 OA
ATOM     95  H   UNL A   1      28.993  34.002  24.203  1.00  0.00     0.293 HD
ENDBRANCH  91  94
BRANCH  92  96
ATOM     96  O   UNL A   1      27.288  31.643  19.479  1.00  0.00    -0.508 OA
ATOM     97  H   UNL A   1      27.495  32.329  18.875  1.00  0.00     0.293 HD
ENDBRANCH  92  96
ENDBRANCH  87  88
ENDBRANCH  81  86
ENDBRANCH  75  78
ENDBRANCH  73  74
ENDBRANCH  72  73
ENDBRANCH   1  72
TORSDOF 19
ENDMDL
MODEL 3
REMARK VINA RESULT:     -12.0      1.793      2.343
REMARK SMILES O=C(NCCCCNC(=O)c1cc(/C=C/c2cc(O)cc(O)c2)ccc1O)c1ccc(-c2c3nc(c(-c4cccc(S(=O)(=O)[O-])c4F)c4ccc([nH]4)c(-c4cccc(S(=O)(=O)[O-])c4F)c4nc(c(-c5cccc(S(=O)(=O)[O-])c5F)c5ccc2[nH]5)C=C4)C=C3)cc1
REMARK SMILES IDX 5 1 4 2 3 3 1 4 2 5 28 7 29 8 90 9 30 10 89 11 31 12 32 13
REMARK SMILES IDX 33 14 83 15 34 16 88 17 82 18 84 19 35 20 87 21 81 22 80 23
REMARK SMILES IDX 36 25 68 26 48 27 67 28 49 29 52 30 66 31 85 32 50 33 51 34
REMARK SMILES IDX 65 36 86 37 53 38 37 39 38 40 46 41 39 42 41 43 47 44 40 45
REMARK SMILES IDX 42 46 43 47 44 48 45 49 69 50 70 51 78 52 71 53 73 54 79 55
REMARK SMILES IDX 72 56 74 57 75 58 76 59 77 60 54 61 55 62 63 63 56 64 58 65
REMARK SMILES IDX 64 66 57 67 59 68 60 69 61 70 62 71 6 72 7 73 8 74 9 75
REMARK SMILES IDX 10 77 11 78 12 79 26 80 13 81 25 82 24 83 27 84 14 86 15 87
REMARK SMILES IDX 16 88 17 89 23 90 18 91 21 92 20 93 19 94 22 96
REMARK H PARENT 3 6 84 24 52 35 8 76 27 85 19 95 22 97
REMARK Flexibility Score: inf
ROOT
ATOM      1  C   UNL A   1      32.334  28.779  23.935  1.00  0.00     0.023 C 
ENDROOT
BRANCH   1   2
ATOM      2  C   UNL A   1      33.129  29.366  25.091  1.00  0.00     0.116 C 
BRANCH   2   3
ATOM      3  N   UNL A   1      32.475  30.501  25.725  1.00  0.00    -0.352 N 
ATOM      4  O   UNL A   1      32.136  32.085  27.294  1.00  0.00    -0.269 OA
ATOM      5  C   UNL A   1      32.876  31.224  26.824  1.00  0.00     0.251 C 
ATOM      6  H   UNL A   1      31.630  30.790  25.310  1.00  0.00     0.163 HD
BRANCH   5   7
ATOM      7  C   UNL A   1      34.182  30.929  27.455  1.00  0.00     0.039 A 
ATOM      8  C   UNL A   1      34.473  29.640  27.906  1.00  0.00     0.014 A 
ATOM      9  C   UNL A   1      35.112  31.957  27.626  1.00  0.00     0.014 A 
ATOM     10  C   UNL A   1      35.611  29.419  28.671  1.00  0.00     0.010 A 
ATOM     11  C   UNL A   1      36.304  31.710  28.317  1.00  0.00     0.010 A 
ATOM     12  C   UNL A   1      36.546  30.449  28.879  1.00  0.00    -0.014 A 
BRANCH  12  13
ATOM     13  C   UNL A   1      37.794  30.139  29.625  1.00  0.00     0.031 A 
ATOM     14  C   UNL A   1      38.025  30.632  31.027  1.00  0.00     0.074 A 
ATOM     15  C   UNL A   1      38.714  29.358  29.025  1.00  0.00     0.049 A 
ATOM     16  N   UNL A   1      39.021  30.366  31.834  1.00  0.00    -0.248 NA
ATOM     17  C   UNL A   1      37.021  31.543  31.600  1.00  0.00     0.031 C 
ATOM     18  C   UNL A   1      38.627  28.870  27.645  1.00  0.00     0.029 A 
ATOM     19  N   UNL A   1      39.886  28.821  29.491  1.00  0.00    -0.354 N 
ATOM     20  C   UNL A   1      38.785  31.096  32.993  1.00  0.00     0.074 A 
ATOM     21  C   UNL A   1      37.553  31.827  32.783  1.00  0.00     0.031 C 
ATOM     22  C   UNL A   1      39.672  28.071  27.393  1.00  0.00     0.029 A 
ATOM     23  C   UNL A   1      40.527  28.023  28.574  1.00  0.00     0.049 A 
ATOM     24  H   UNL A   1      40.235  28.992  30.396  1.00  0.00     0.167 HD
ATOM     25  C   UNL A   1      39.516  31.135  34.134  1.00  0.00     0.034 A 
ATOM     26  C   UNL A   1      41.676  27.326  28.667  1.00  0.00     0.034 A 
ATOM     27  C   UNL A   1      40.719  30.374  34.352  1.00  0.00     0.049 A 
ATOM     28  C   UNL A   1      42.428  27.341  29.964  1.00  0.00     0.074 A 
ATOM     29  C   UNL A   1      41.505  30.316  35.490  1.00  0.00     0.029 A 
ATOM     30  N   UNL A   1      41.308  29.534  33.419  1.00  0.00    -0.354 N 
ATOM     31  N   UNL A   1      42.119  27.942  31.088  1.00  0.00    -0.248 NA
ATOM     32  C   UNL A   1      43.673  26.562  30.019  1.00  0.00     0.031 C 
ATOM     33  C   UNL A   1      42.572  29.443  35.244  1.00  0.00     0.029 A 
ATOM     34  C   UNL A   1      42.445  28.953  33.954  1.00  0.00     0.049 A 
ATOM     35  H   UNL A   1      40.967  29.374  32.509  1.00  0.00     0.167 HD
ATOM     36  C   UNL A   1      43.126  27.611  31.984  1.00  0.00     0.074 A 
ATOM     37  C   UNL A   1      44.029  26.717  31.286  1.00  0.00     0.031 C 
ATOM     38  C   UNL A   1      43.309  28.034  33.259  1.00  0.00     0.034 A 
BRANCH  25  39
ATOM     39  C   UNL A   1      39.008  31.983  35.271  1.00  0.00     0.023 A 
ATOM     40  C   UNL A   1      39.058  33.387  35.155  1.00  0.00     0.012 A 
ATOM     41  C   UNL A   1      38.399  31.404  36.403  1.00  0.00     0.148 A 
ATOM     42  C   UNL A   1      38.523  34.202  36.151  1.00  0.00     0.002 A 
ATOM     43  C   UNL A   1      37.838  32.224  37.377  1.00  0.00     0.091 A 
ATOM     44  F   UNL A   1      38.379  30.068  36.504  1.00  0.00    -0.205 F 
ATOM     45  C   UNL A   1      37.904  33.621  37.255  1.00  0.00     0.022 A 
BRANCH  43  46
ATOM     46  S   UNL A   1      36.960  31.575  38.805  1.00  0.00     0.127 S 
ATOM     47  O   UNL A   1      37.940  31.779  39.871  1.00  0.00    -0.237 OA
ATOM     48  O   UNL A   1      35.792  32.454  38.875  1.00  0.00    -0.237 OA
ATOM     49  O   UNL A   1      36.656  30.186  38.492  1.00  0.00    -0.744 OA
ENDBRANCH  43  46
ENDBRANCH  25  39
BRANCH  26  50
ATOM     50  C   UNL A   1      42.139  26.514  27.508  1.00  0.00     0.023 A 
ATOM     51  C   UNL A   1      43.004  27.090  26.557  1.00  0.00     0.012 A 
ATOM     52  C   UNL A   1      41.780  25.160  27.376  1.00  0.00     0.148 A 
ATOM     53  C   UNL A   1      43.486  26.335  25.488  1.00  0.00     0.002 A 
ATOM     54  C   UNL A   1      42.316  24.397  26.344  1.00  0.00     0.091 A 
ATOM     55  F   UNL A   1      40.937  24.630  28.274  1.00  0.00    -0.205 F 
ATOM     56  C   UNL A   1      43.155  24.986  25.389  1.00  0.00     0.022 A 
BRANCH  54  57
ATOM     57  S   UNL A   1      42.053  22.621  26.274  1.00  0.00     0.127 S 
ATOM     58  O   UNL A   1      42.683  22.172  27.512  1.00  0.00    -0.237 OA
ATOM     59  O   UNL A   1      40.592  22.518  26.253  1.00  0.00    -0.237 OA
ATOM     60  O   UNL A   1      42.691  22.203  25.032  1.00  0.00    -0.744 OA
ENDBRANCH  54  57
ENDBRANCH  26  50
BRANCH  38  61
ATOM     61  C   UNL A   1      44.539  27.544  33.972  1.00  0.00     0.023 A 
ATOM     62  C   UNL A   1      45.733  28.286  33.869  1.00  0.00     0.012 A 
ATOM     63  C   UNL A   1      44.511  26.383  34.767  1.00  0.00     0.148 A 
ATOM     64  C   UNL A   1      46.889  27.862  34.521  1.00  0.00     0.002 A 
ATOM     65  C   UNL A   1      45.658  25.987  35.445  1.00  0.00     0.091 A 
ATOM     66  F   UNL A   1      43.374  25.676  34.832  1.00  0.00    -0.205 F 
ATOM     67  C   UNL A   1      46.850  26.719  35.315  1.00  0.00     0.022 A 
BRANCH  65  68
ATOM     68  S   UNL A   1      45.665  24.570  36.549  1.00  0.00     0.127 S 
ATOM     69  O   UNL A   1      45.407  23.468  35.623  1.00  0.00    -0.237 OA
ATOM     70  O   UNL A   1      47.022  24.600  37.097  1.00  0.00    -0.237 OA
ATOM     71  O   UNL A   1      44.618  24.834  37.528  1.00  0.00    -0.744 OA
ENDBRANCH  65  68
ENDBRANCH  38  61
ENDBRANCH  12  13
ENDBRANCH   5   7
ENDBRANCH   2   3
ENDBRANCH   1   2
BRANCH   1  72
ATOM     72  C   UNL A   1      33.119  27.869  22.993  1.00  0.00     0.023 C 
BRANCH  72  73
ATOM     73  C   UNL A   1      32.540  26.471  22.803  1.00  0.00     0.116 C 
BRANCH  73  74
ATOM     74  N   UNL A   1      31.404  26.210  23.671  1.00  0.00    -0.352 N 
ATOM     75  C   UNL A   1      31.322  25.349  24.736  1.00  0.00     0.255 C 
ATOM     76  H   UNL A   1      30.586  26.719  23.468  1.00  0.00     0.163 HD
ATOM     77  O   UNL A   1      30.265  25.201  25.342  1.00  0.00    -0.269 OA
BRANCH  75  78
ATOM     78  C   UNL A   1      32.483  24.517  25.093  1.00  0.00     0.082 A 
ATOM     79  C   UNL A   1      32.416  23.161  24.744  1.00  0.00     0.025 A 
ATOM     80  C   UNL A   1      33.606  25.024  25.748  1.00  0.00     0.128 A 
ATOM     81  C   UNL A   1      33.489  22.304  25.007  1.00  0.00    -0.025 A 
ATOM     82  C   UNL A   1      34.689  24.189  26.004  1.00  0.00     0.047 A 
ATOM     83  C   UNL A   1      34.631  22.841  25.625  1.00  0.00     0.012 A 
BRANCH  80  84
ATOM     84  O   UNL A   1      33.654  26.337  26.122  1.00  0.00    -0.507 OA
ATOM     85  H   UNL A   1      33.597  27.011  25.473  1.00  0.00     0.293 HD
ENDBRANCH  80  84
BRANCH  81  86
ATOM     86  C   UNL A   1      33.484  20.871  24.656  1.00  0.00     0.009 C 
ATOM     87  C   UNL A   1      33.049  19.874  25.446  1.00  0.00     0.009 C 
BRANCH  87  88
ATOM     88  C   UNL A   1      33.097  18.457  25.061  1.00  0.00    -0.018 A 
ATOM     89  C   UNL A   1      33.721  18.037  23.878  1.00  0.00     0.054 A 
ATOM     90  C   UNL A   1      32.572  17.497  25.938  1.00  0.00     0.054 A 
ATOM     91  C   UNL A   1      33.795  16.678  23.577  1.00  0.00     0.119 A 
ATOM     92  C   UNL A   1      32.655  16.144  25.616  1.00  0.00     0.119 A 
ATOM     93  C   UNL A   1      33.260  15.727  24.437  1.00  0.00     0.092 A 
BRANCH  91  94
ATOM     94  O   UNL A   1      34.403  16.241  22.437  1.00  0.00    -0.508 OA
ATOM     95  H   UNL A   1      34.176  15.407  22.075  1.00  0.00     0.293 HD
ENDBRANCH  91  94
BRANCH  92  96
ATOM     96  O   UNL A   1      32.152  15.185  26.447  1.00  0.00    -0.508 OA
ATOM     97  H   UNL A   1      32.528  15.058  27.296  1.00  0.00     0.293 HD
ENDBRANCH  92  96
ENDBRANCH  87  88
ENDBRANCH  81  86
ENDBRANCH  75  78
ENDBRANCH  73  74
ENDBRANCH  72  73
ENDBRANCH   1  72
TORSDOF 19
ENDMDL
