MODEL 1
REMARK VINA RESULT:     -10.5      0.000      0.000
REMARK SMILES COCCN(CC(=O)NCCCCNC(=O)c1ccc(-c2c3nc(c(-c4cccc(S(=O)(=O)[O-])c4F)c4ccc([nH]4)c(-c4cccc(S(=O)(=O)[O-])c4F)c4nc(c(-c5cccc(S(=O)(=O)[O-])c5F)c5ccc2[nH]5)C=C4)C=C3)cc1)C(=O)N1CCC[C@@H]1C
REMARK SMILES IDX 11 1 10 2 9 3 7 4 8 5 6 7 5 8 4 9 3 10 2 11 1 12 80 13 81 14
REMARK SMILES IDX 82 15 83 16 86 17 84 18 85 19 87 20 12 21 13 22 14 23 15 24
REMARK SMILES IDX 16 26 17 27 18 28 79 29 19 30 78 31 20 32 21 33 22 34 72 35
REMARK SMILES IDX 23 36 77 37 71 38 73 39 24 40 76 41 70 42 69 43 25 45 57 46
REMARK SMILES IDX 37 47 56 48 38 49 41 50 55 51 74 52 39 53 40 54 54 56 75 57
REMARK SMILES IDX 42 58 26 59 27 60 35 61 28 62 30 63 36 64 29 65 31 66 32 67
REMARK SMILES IDX 33 68 34 69 58 70 59 71 67 72 60 73 62 74 68 75 61 76 63 77
REMARK SMILES IDX 64 78 65 79 66 80 43 81 44 82 52 83 45 84 47 85 53 86 46 87
REMARK SMILES IDX 48 88 49 89 50 90 51 91
REMARK H PARENT 9 6 14 25 73 44 41 55
REMARK Flexibility Score: inf
ROOT
ATOM      1  C   UNL A   1      32.951  29.805  25.991  1.00  0.00     0.023 C 
ENDROOT
BRANCH   1   2
ATOM      2  C   UNL A   1      32.345  29.551  24.614  1.00  0.00     0.116 C 
BRANCH   2   3
ATOM      3  N   UNL A   1      33.310  29.319  23.565  1.00  0.00    -0.355 N 
ATOM      4  C   UNL A   1      33.777  28.142  23.065  1.00  0.00     0.239 C 
ATOM      5  O   UNL A   1      34.195  28.164  21.900  1.00  0.00    -0.273 OA
ATOM      6  H   UNL A   1      33.686  30.131  23.153  1.00  0.00     0.163 HD
BRANCH   4   7
ATOM      7  C   UNL A   1      33.650  26.795  23.805  1.00  0.00     0.221 C 
BRANCH   7   8
ATOM      8  N   UNL A   1      32.823  25.740  23.211  1.00  0.00    -0.313 N 
BRANCH   8   9
ATOM      9  C   UNL A   1      31.401  26.062  22.974  1.00  0.00     0.150 C 
BRANCH   9  10
ATOM     10  C   UNL A   1      30.645  26.616  24.198  1.00  0.00     0.181 C 
BRANCH  10  11
ATOM     11  O   UNL A   1      29.496  27.380  23.841  1.00  0.00    -0.383 OA
ATOM     12  C   UNL A   1      28.301  26.618  23.776  1.00  0.00     0.194 C 
ENDBRANCH  10  11
ENDBRANCH   9  10
ENDBRANCH   8   9
BRANCH   8  13
ATOM     13  C   UNL A   1      33.304  24.588  22.605  1.00  0.00     0.320 C 
ATOM     14  O   UNL A   1      33.459  24.529  21.383  1.00  0.00    -0.248 OA
BRANCH  13  15
ATOM     15  N   UNL A   1      33.782  23.568  23.392  1.00  0.00    -0.322 N 
ATOM     16  C   UNL A   1      35.194  23.254  23.326  1.00  0.00     0.122 C 
ATOM     17  C   UNL A   1      33.050  22.400  23.896  1.00  0.00     0.083 C 
ATOM     18  C   UNL A   1      35.398  22.314  24.495  1.00  0.00     0.024 C 
ATOM     19  C   UNL A   1      34.139  21.458  24.449  1.00  0.00     0.027 C 
ATOM     20  C   UNL A   1      32.248  21.697  22.805  1.00  0.00     0.031 C 
ENDBRANCH  13  15
ENDBRANCH   8  13
ENDBRANCH   7   8
ENDBRANCH   4   7
ENDBRANCH   2   3
ENDBRANCH   1   2
BRANCH   1  21
ATOM     21  C   UNL A   1      32.335  30.960  26.781  1.00  0.00     0.023 C 
BRANCH  21  22
ATOM     22  C   UNL A   1      33.318  31.930  27.423  1.00  0.00     0.116 C 
BRANCH  22  23
ATOM     23  N   UNL A   1      32.771  33.263  27.636  1.00  0.00    -0.352 N 
ATOM     24  C   UNL A   1      33.204  34.240  28.501  1.00  0.00     0.251 C 
ATOM     25  H   UNL A   1      31.989  33.496  27.087  1.00  0.00     0.163 HD
ATOM     26  O   UNL A   1      32.586  35.297  28.602  1.00  0.00    -0.269 OA
BRANCH  24  27
ATOM     27  C   UNL A   1      34.389  33.986  29.347  1.00  0.00     0.039 A 
ATOM     28  C   UNL A   1      34.210  33.344  30.575  1.00  0.00     0.014 A 
ATOM     29  C   UNL A   1      35.671  34.308  28.895  1.00  0.00     0.014 A 
ATOM     30  C   UNL A   1      35.326  32.935  31.307  1.00  0.00     0.010 A 
ATOM     31  C   UNL A   1      36.781  33.843  29.595  1.00  0.00     0.010 A 
ATOM     32  C   UNL A   1      36.619  33.133  30.795  1.00  0.00    -0.014 A 
BRANCH  32  33
ATOM     33  C   UNL A   1      37.809  32.536  31.453  1.00  0.00     0.031 A 
ATOM     34  C   UNL A   1      38.513  31.358  30.840  1.00  0.00     0.074 A 
ATOM     35  C   UNL A   1      38.180  32.987  32.668  1.00  0.00     0.049 A 
ATOM     36  N   UNL A   1      39.504  30.653  31.320  1.00  0.00    -0.248 NA
ATOM     37  C   UNL A   1      38.023  30.897  29.532  1.00  0.00     0.031 C 
ATOM     38  C   UNL A   1      37.520  34.067  33.407  1.00  0.00     0.029 A 
ATOM     39  N   UNL A   1      39.177  32.570  33.515  1.00  0.00    -0.354 N 
ATOM     40  C   UNL A   1      39.743  29.652  30.387  1.00  0.00     0.074 A 
ATOM     41  C   UNL A   1      38.771  29.821  29.328  1.00  0.00     0.031 C 
ATOM     42  C   UNL A   1      38.119  34.216  34.599  1.00  0.00     0.029 A 
ATOM     43  C   UNL A   1      39.185  33.228  34.723  1.00  0.00     0.049 A 
ATOM     44  H   UNL A   1      39.824  31.866  33.280  1.00  0.00     0.167 HD
ATOM     45  C   UNL A   1      40.705  28.699  30.396  1.00  0.00     0.034 A 
ATOM     46  C   UNL A   1      39.952  33.046  35.817  1.00  0.00     0.034 A 
ATOM     47  C   UNL A   1      41.693  28.556  31.432  1.00  0.00     0.049 A 
ATOM     48  C   UNL A   1      41.026  31.995  35.791  1.00  0.00     0.074 A 
ATOM     49  C   UNL A   1      42.763  27.681  31.484  1.00  0.00     0.029 A 
ATOM     50  N   UNL A   1      41.727  29.298  32.602  1.00  0.00    -0.354 N 
ATOM     51  N   UNL A   1      41.349  31.171  34.823  1.00  0.00    -0.248 NA
ATOM     52  C   UNL A   1      41.862  31.866  36.994  1.00  0.00     0.031 C 
ATOM     53  C   UNL A   1      43.435  27.883  32.694  1.00  0.00     0.029 A 
ATOM     54  C   UNL A   1      42.790  28.892  33.390  1.00  0.00     0.049 A 
ATOM     55  H   UNL A   1      41.088  30.009  32.838  1.00  0.00     0.167 HD
ATOM     56  C   UNL A   1      42.434  30.440  35.292  1.00  0.00     0.074 A 
ATOM     57  C   UNL A   1      42.735  30.941  36.617  1.00  0.00     0.031 C 
ATOM     58  C   UNL A   1      43.105  29.427  34.690  1.00  0.00     0.034 A 
BRANCH  45  59
ATOM     59  C   UNL A   1      40.783  27.774  29.211  1.00  0.00     0.023 A 
ATOM     60  C   UNL A   1      39.945  26.640  29.170  1.00  0.00     0.012 A 
ATOM     61  C   UNL A   1      41.620  28.056  28.115  1.00  0.00     0.148 A 
ATOM     62  C   UNL A   1      39.959  25.785  28.068  1.00  0.00     0.002 A 
ATOM     63  C   UNL A   1      41.601  27.219  27.004  1.00  0.00     0.091 A 
ATOM     64  F   UNL A   1      42.424  29.126  28.182  1.00  0.00    -0.205 F 
ATOM     65  C   UNL A   1      40.777  26.082  26.983  1.00  0.00     0.022 A 
BRANCH  63  66
ATOM     66  S   UNL A   1      42.565  27.550  25.524  1.00  0.00     0.127 S 
ATOM     67  O   UNL A   1      43.927  27.565  26.058  1.00  0.00    -0.237 OA
ATOM     68  O   UNL A   1      42.252  26.390  24.687  1.00  0.00    -0.237 OA
ATOM     69  O   UNL A   1      42.083  28.821  25.005  1.00  0.00    -0.744 OA
ENDBRANCH  63  66
ENDBRANCH  45  59
BRANCH  46  70
ATOM     70  C   UNL A   1      39.756  33.913  37.013  1.00  0.00     0.023 A 
ATOM     71  C   UNL A   1      40.190  35.252  36.976  1.00  0.00     0.012 A 
ATOM     72  C   UNL A   1      39.118  33.429  38.172  1.00  0.00     0.148 A 
ATOM     73  C   UNL A   1      40.018  36.085  38.082  1.00  0.00     0.002 A 
ATOM     74  C   UNL A   1      38.901  34.281  39.250  1.00  0.00     0.091 A 
ATOM     75  F   UNL A   1      38.730  32.147  38.197  1.00  0.00    -0.205 F 
ATOM     76  C   UNL A   1      39.364  35.604  39.213  1.00  0.00     0.022 A 
BRANCH  74  77
ATOM     77  S   UNL A   1      37.948  33.775  40.686  1.00  0.00     0.127 S 
ATOM     78  O   UNL A   1      38.841  32.805  41.312  1.00  0.00    -0.237 OA
ATOM     79  O   UNL A   1      37.799  35.036  41.415  1.00  0.00    -0.237 OA
ATOM     80  O   UNL A   1      36.699  33.245  40.154  1.00  0.00    -0.744 OA
ENDBRANCH  74  77
ENDBRANCH  46  70
BRANCH  58  81
ATOM     81  C   UNL A   1      44.233  28.787  35.456  1.00  0.00     0.023 A 
ATOM     82  C   UNL A   1      45.543  29.283  35.296  1.00  0.00     0.012 A 
ATOM     83  C   UNL A   1      43.990  27.756  36.382  1.00  0.00     0.148 A 
ATOM     84  C   UNL A   1      46.599  28.741  36.027  1.00  0.00     0.002 A 
ATOM     85  C   UNL A   1      45.040  27.251  37.141  1.00  0.00     0.091 A 
ATOM     86  F   UNL A   1      42.739  27.288  36.506  1.00  0.00    -0.205 F 
ATOM     87  C   UNL A   1      46.346  27.735  36.957  1.00  0.00     0.022 A 
BRANCH  85  88
ATOM     88  S   UNL A   1      44.800  26.015  38.422  1.00  0.00     0.127 S 
ATOM     89  O   UNL A   1      46.167  25.804  38.893  1.00  0.00    -0.237 OA
ATOM     90  O   UNL A   1      43.931  26.715  39.369  1.00  0.00    -0.237 OA
ATOM     91  O   UNL A   1      44.181  24.871  37.766  1.00  0.00    -0.744 OA
ENDBRANCH  85  88
ENDBRANCH  58  81
ENDBRANCH  32  33
ENDBRANCH  24  27
ENDBRANCH  22  23
ENDBRANCH  21  22
ENDBRANCH   1  21
TORSDOF 20
ENDMDL
MODEL 2
REMARK VINA RESULT:     -10.0      6.275     11.400
REMARK SMILES COCCN(CC(=O)NCCCCNC(=O)c1ccc(-c2c3nc(c(-c4cccc(S(=O)(=O)[O-])c4F)c4ccc([nH]4)c(-c4cccc(S(=O)(=O)[O-])c4F)c4nc(c(-c5cccc(S(=O)(=O)[O-])c5F)c5ccc2[nH]5)C=C4)C=C3)cc1)C(=O)N1CCC[C@@H]1C
REMARK SMILES IDX 11 1 10 2 9 3 7 4 8 5 6 7 5 8 4 9 3 10 2 11 1 12 80 13 81 14
REMARK SMILES IDX 82 15 83 16 86 17 84 18 85 19 87 20 12 21 13 22 14 23 15 24
REMARK SMILES IDX 16 26 17 27 18 28 79 29 19 30 78 31 20 32 21 33 22 34 72 35
REMARK SMILES IDX 23 36 77 37 71 38 73 39 24 40 76 41 70 42 69 43 25 45 57 46
REMARK SMILES IDX 37 47 56 48 38 49 41 50 55 51 74 52 39 53 40 54 54 56 75 57
REMARK SMILES IDX 42 58 26 59 27 60 35 61 28 62 30 63 36 64 29 65 31 66 32 67
REMARK SMILES IDX 33 68 34 69 58 70 59 71 67 72 60 73 62 74 68 75 61 76 63 77
REMARK SMILES IDX 64 78 65 79 66 80 43 81 44 82 52 83 45 84 47 85 53 86 46 87
REMARK SMILES IDX 48 88 49 89 50 90 51 91
REMARK H PARENT 9 6 14 25 73 44 41 55
REMARK Flexibility Score: inf
ROOT
ATOM      1  C   UNL A   1      36.692  19.884  24.962  1.00  0.00     0.023 C 
ENDROOT
BRANCH   1   2
ATOM      2  C   UNL A   1      36.426  21.383  25.061  1.00  0.00     0.116 C 
BRANCH   2   3
ATOM      3  N   UNL A   1      35.611  21.777  26.186  1.00  0.00    -0.355 N 
ATOM      4  C   UNL A   1      34.257  21.753  26.321  1.00  0.00     0.239 C 
ATOM      5  O   UNL A   1      33.819  21.663  27.476  1.00  0.00    -0.273 OA
ATOM      6  H   UNL A   1      36.107  22.112  26.967  1.00  0.00     0.163 HD
BRANCH   4   7
ATOM      7  C   UNL A   1      33.285  21.661  25.127  1.00  0.00     0.221 C 
BRANCH   7   8
ATOM      8  N   UNL A   1      32.697  22.897  24.601  1.00  0.00    -0.313 N 
BRANCH   8   9
ATOM      9  C   UNL A   1      31.240  23.067  24.771  1.00  0.00     0.150 C 
BRANCH   9  10
ATOM     10  C   UNL A   1      30.692  22.645  26.149  1.00  0.00     0.181 C 
BRANCH  10  11
ATOM     11  O   UNL A   1      30.505  23.748  27.032  1.00  0.00    -0.383 OA
ATOM     12  C   UNL A   1      31.526  24.730  26.944  1.00  0.00     0.194 C 
ENDBRANCH  10  11
ENDBRANCH   9  10
ENDBRANCH   8   9
BRANCH   8  13
ATOM     13  C   UNL A   1      33.409  24.025  24.216  1.00  0.00     0.320 C 
ATOM     14  O   UNL A   1      34.620  24.116  24.428  1.00  0.00    -0.248 OA
BRANCH  13  15
ATOM     15  N   UNL A   1      32.793  24.968  23.431  1.00  0.00    -0.322 N 
ATOM     16  C   UNL A   1      33.004  24.915  21.999  1.00  0.00     0.122 C 
ATOM     17  C   UNL A   1      32.382  26.326  23.808  1.00  0.00     0.083 C 
ATOM     18  C   UNL A   1      31.979  25.888  21.458  1.00  0.00     0.024 C 
ATOM     19  C   UNL A   1      32.033  27.020  22.475  1.00  0.00     0.027 C 
ATOM     20  C   UNL A   1      33.486  27.092  24.529  1.00  0.00     0.031 C 
ENDBRANCH  13  15
ENDBRANCH   8  13
ENDBRANCH   7   8
ENDBRANCH   4   7
ENDBRANCH   2   3
ENDBRANCH   1   2
BRANCH   1  21
ATOM     21  C   UNL A   1      38.161  19.480  24.835  1.00  0.00     0.023 C 
BRANCH  21  22
ATOM     22  C   UNL A   1      39.064  19.863  26.000  1.00  0.00     0.116 C 
BRANCH  22  23
ATOM     23  N   UNL A   1      40.366  19.211  25.973  1.00  0.00    -0.352 N 
ATOM     24  C   UNL A   1      41.599  19.744  26.265  1.00  0.00     0.251 C 
ATOM     25  H   UNL A   1      40.362  18.262  25.713  1.00  0.00     0.163 HD
ATOM     26  O   UNL A   1      42.614  19.066  26.131  1.00  0.00    -0.269 OA
BRANCH  24  27
ATOM     27  C   UNL A   1      41.696  21.156  26.690  1.00  0.00     0.039 A 
ATOM     28  C   UNL A   1      42.072  21.435  28.006  1.00  0.00     0.014 A 
ATOM     29  C   UNL A   1      41.493  22.193  25.776  1.00  0.00     0.014 A 
ATOM     30  C   UNL A   1      42.341  22.753  28.381  1.00  0.00     0.010 A 
ATOM     31  C   UNL A   1      41.823  23.497  26.133  1.00  0.00     0.010 A 
ATOM     32  C   UNL A   1      42.273  23.786  27.431  1.00  0.00    -0.014 A 
BRANCH  32  33
ATOM     33  C   UNL A   1      42.742  25.159  27.750  1.00  0.00     0.031 A 
ATOM     34  C   UNL A   1      41.802  26.171  28.341  1.00  0.00     0.074 A 
ATOM     35  C   UNL A   1      43.990  25.523  27.394  1.00  0.00     0.049 A 
ATOM     36  N   UNL A   1      42.011  27.436  28.595  1.00  0.00    -0.248 NA
ATOM     37  C   UNL A   1      40.442  25.709  28.664  1.00  0.00     0.031 C 
ATOM     38  C   UNL A   1      44.968  24.655  26.732  1.00  0.00     0.029 A 
ATOM     39  N   UNL A   1      44.638  26.728  27.501  1.00  0.00    -0.354 N 
ATOM     40  C   UNL A   1      40.808  27.929  29.085  1.00  0.00     0.074 A 
ATOM     41  C   UNL A   1      39.863  26.833  29.062  1.00  0.00     0.031 C 
ATOM     42  C   UNL A   1      46.083  25.358  26.480  1.00  0.00     0.029 A 
ATOM     43  C   UNL A   1      45.892  26.732  26.935  1.00  0.00     0.049 A 
ATOM     44  H   UNL A   1      44.243  27.515  27.940  1.00  0.00     0.167 HD
ATOM     45  C   UNL A   1      40.526  29.172  29.541  1.00  0.00     0.034 A 
ATOM     46  C   UNL A   1      46.783  27.731  26.780  1.00  0.00     0.034 A 
ATOM     47  C   UNL A   1      41.478  30.249  29.597  1.00  0.00     0.049 A 
ATOM     48  C   UNL A   1      46.452  29.096  27.317  1.00  0.00     0.074 A 
ATOM     49  C   UNL A   1      41.313  31.515  30.129  1.00  0.00     0.029 A 
ATOM     50  N   UNL A   1      42.769  30.193  29.095  1.00  0.00    -0.354 N 
ATOM     51  N   UNL A   1      45.368  29.496  27.937  1.00  0.00    -0.248 NA
ATOM     52  C   UNL A   1      47.475  30.140  27.160  1.00  0.00     0.031 C 
ATOM     53  C   UNL A   1      42.499  32.231  29.934  1.00  0.00     0.029 A 
ATOM     54  C   UNL A   1      43.407  31.405  29.291  1.00  0.00     0.049 A 
ATOM     55  H   UNL A   1      43.172  29.405  28.663  1.00  0.00     0.167 HD
ATOM     56  C   UNL A   1      45.585  30.830  28.260  1.00  0.00     0.074 A 
ATOM     57  C   UNL A   1      46.917  31.162  27.797  1.00  0.00     0.031 C 
ATOM     58  C   UNL A   1      44.748  31.710  28.863  1.00  0.00     0.034 A 
BRANCH  45  59
ATOM     59  C   UNL A   1      39.145  29.419  30.087  1.00  0.00     0.023 A 
ATOM     60  C   UNL A   1      38.835  28.982  31.391  1.00  0.00     0.012 A 
ATOM     61  C   UNL A   1      38.183  30.138  29.351  1.00  0.00     0.148 A 
ATOM     62  C   UNL A   1      37.580  29.231  31.946  1.00  0.00     0.002 A 
ATOM     63  C   UNL A   1      36.947  30.416  29.925  1.00  0.00     0.091 A 
ATOM     64  F   UNL A   1      38.490  30.527  28.106  1.00  0.00    -0.205 F 
ATOM     65  C   UNL A   1      36.643  29.957  31.218  1.00  0.00     0.022 A 
BRANCH  63  66
ATOM     66  S   UNL A   1      35.694  31.403  29.099  1.00  0.00     0.127 S 
ATOM     67  O   UNL A   1      35.081  30.416  28.211  1.00  0.00    -0.237 OA
ATOM     68  O   UNL A   1      34.848  31.826  30.216  1.00  0.00    -0.237 OA
ATOM     69  O   UNL A   1      36.407  32.483  28.434  1.00  0.00    -0.744 OA
ENDBRANCH  63  66
ENDBRANCH  45  59
BRANCH  46  70
ATOM     70  C   UNL A   1      48.094  27.463  26.124  1.00  0.00     0.023 A 
ATOM     71  C   UNL A   1      49.188  27.049  26.908  1.00  0.00     0.012 A 
ATOM     72  C   UNL A   1      48.255  27.586  24.731  1.00  0.00     0.148 A 
ATOM     73  C   UNL A   1      50.426  26.789  26.320  1.00  0.00     0.002 A 
ATOM     74  C   UNL A   1      49.477  27.273  24.144  1.00  0.00     0.091 A 
ATOM     75  F   UNL A   1      47.209  28.001  24.003  1.00  0.00    -0.205 F 
ATOM     76  C   UNL A   1      50.568  26.890  24.938  1.00  0.00     0.022 A 
BRANCH  74  77
ATOM     77  S   UNL A   1      49.699  27.249  22.362  1.00  0.00     0.127 S 
ATOM     78  O   UNL A   1      48.696  26.273  21.948  1.00  0.00    -0.237 OA
ATOM     79  O   UNL A   1      49.400  28.634  21.997  1.00  0.00    -0.237 OA
ATOM     80  O   UNL A   1      51.090  26.866  22.151  1.00  0.00    -0.744 OA
ENDBRANCH  74  77
ENDBRANCH  46  70
BRANCH  58  81
ATOM     81  C   UNL A   1      45.242  33.119  29.059  1.00  0.00     0.023 A 
ATOM     82  C   UNL A   1      46.009  33.428  30.200  1.00  0.00     0.012 A 
ATOM     83  C   UNL A   1      45.015  34.111  28.086  1.00  0.00     0.148 A 
ATOM     84  C   UNL A   1      46.520  34.713  30.383  1.00  0.00     0.002 A 
ATOM     85  C   UNL A   1      45.564  35.378  28.254  1.00  0.00     0.091 A 
ATOM     86  F   UNL A   1      44.268  33.801  27.017  1.00  0.00    -0.205 F 
ATOM     87  C   UNL A   1      46.308  35.682  29.407  1.00  0.00     0.022 A 
BRANCH  85  88
ATOM     88  S   UNL A   1      45.418  36.667  27.012  1.00  0.00     0.127 S 
ATOM     89  O   UNL A   1      46.299  36.167  25.958  1.00  0.00    -0.237 OA
ATOM     90  O   UNL A   1      43.992  36.623  26.686  1.00  0.00    -0.237 OA
ATOM     91  O   UNL A   1      45.852  37.899  27.657  1.00  0.00    -0.744 OA
ENDBRANCH  85  88
ENDBRANCH  58  81
ENDBRANCH  32  33
ENDBRANCH  24  27
ENDBRANCH  22  23
ENDBRANCH  21  22
ENDBRANCH   1  21
TORSDOF 20
ENDMDL
MODEL 3
REMARK VINA RESULT:      -9.8      6.060     11.434
REMARK SMILES COCCN(CC(=O)NCCCCNC(=O)c1ccc(-c2c3nc(c(-c4cccc(S(=O)(=O)[O-])c4F)c4ccc([nH]4)c(-c4cccc(S(=O)(=O)[O-])c4F)c4nc(c(-c5cccc(S(=O)(=O)[O-])c5F)c5ccc2[nH]5)C=C4)C=C3)cc1)C(=O)N1CCC[C@@H]1C
REMARK SMILES IDX 11 1 10 2 9 3 7 4 8 5 6 7 5 8 4 9 3 10 2 11 1 12 80 13 81 14
REMARK SMILES IDX 82 15 83 16 86 17 84 18 85 19 87 20 12 21 13 22 14 23 15 24
REMARK SMILES IDX 16 26 17 27 18 28 79 29 19 30 78 31 20 32 21 33 22 34 72 35
REMARK SMILES IDX 23 36 77 37 71 38 73 39 24 40 76 41 70 42 69 43 25 45 57 46
REMARK SMILES IDX 37 47 56 48 38 49 41 50 55 51 74 52 39 53 40 54 54 56 75 57
REMARK SMILES IDX 42 58 26 59 27 60 35 61 28 62 30 63 36 64 29 65 31 66 32 67
REMARK SMILES IDX 33 68 34 69 58 70 59 71 67 72 60 73 62 74 68 75 61 76 63 77
REMARK SMILES IDX 64 78 65 79 66 80 43 81 44 82 52 83 45 84 47 85 53 86 46 87
REMARK SMILES IDX 48 88 49 89 50 90 51 91
REMARK H PARENT 9 6 14 25 73 44 41 55
REMARK Flexibility Score: inf
ROOT
ATOM      1  C   UNL A   1      38.634  23.368  26.379  1.00  0.00     0.023 C 
ENDROOT
BRANCH   1   2
ATOM      2  C   UNL A   1      37.258  23.665  25.792  1.00  0.00     0.116 C 
BRANCH   2   3
ATOM      3  N   UNL A   1      36.154  23.087  26.521  1.00  0.00    -0.355 N 
ATOM      4  C   UNL A   1      35.253  22.149  26.122  1.00  0.00     0.239 C 
ATOM      5  O   UNL A   1      34.731  21.469  27.016  1.00  0.00    -0.273 OA
ATOM      6  H   UNL A   1      36.037  23.421  27.439  1.00  0.00     0.163 HD
BRANCH   4   7
ATOM      7  C   UNL A   1      34.993  21.794  24.644  1.00  0.00     0.221 C 
BRANCH   7   8
ATOM      8  N   UNL A   1      33.607  21.712  24.172  1.00  0.00    -0.313 N 
BRANCH   8   9
ATOM      9  C   UNL A   1      33.227  22.610  23.063  1.00  0.00     0.150 C 
BRANCH   9  10
ATOM     10  C   UNL A   1      33.331  24.115  23.378  1.00  0.00     0.181 C 
BRANCH  10  11
ATOM     11  O   UNL A   1      33.871  24.872  22.298  1.00  0.00    -0.383 OA
ATOM     12  C   UNL A   1      33.555  26.254  22.354  1.00  0.00     0.194 C 
ENDBRANCH  10  11
ENDBRANCH   9  10
ENDBRANCH   8   9
BRANCH   8  13
ATOM     13  C   UNL A   1      32.714  20.692  24.475  1.00  0.00     0.320 C 
ATOM     14  O   UNL A   1      31.658  20.927  25.066  1.00  0.00    -0.248 OA
BRANCH  13  15
ATOM     15  N   UNL A   1      32.927  19.441  23.950  1.00  0.00    -0.322 N 
ATOM     16  C   UNL A   1      32.113  19.019  22.828  1.00  0.00     0.122 C 
ATOM     17  C   UNL A   1      33.460  18.256  24.633  1.00  0.00     0.083 C 
ATOM     18  C   UNL A   1      32.800  17.757  22.353  1.00  0.00     0.024 C 
ATOM     19  C   UNL A   1      33.193  17.086  23.663  1.00  0.00     0.027 C 
ATOM     20  C   UNL A   1      32.779  17.998  25.972  1.00  0.00     0.031 C 
ENDBRANCH  13  15
ENDBRANCH   8  13
ENDBRANCH   7   8
ENDBRANCH   4   7
ENDBRANCH   2   3
ENDBRANCH   1   2
BRANCH   1  21
ATOM     21  C   UNL A   1      39.376  22.184  25.760  1.00  0.00     0.023 C 
BRANCH  21  22
ATOM     22  C   UNL A   1      39.659  21.011  26.690  1.00  0.00     0.116 C 
BRANCH  22  23
ATOM     23  N   UNL A   1      40.522  19.994  26.106  1.00  0.00    -0.352 N 
ATOM     24  C   UNL A   1      41.872  20.057  25.851  1.00  0.00     0.251 C 
ATOM     25  H   UNL A   1      40.081  19.149  25.862  1.00  0.00     0.163 HD
ATOM     26  O   UNL A   1      42.441  19.124  25.292  1.00  0.00    -0.269 OA
BRANCH  24  27
ATOM     27  C   UNL A   1      42.620  21.281  26.209  1.00  0.00     0.039 A 
ATOM     28  C   UNL A   1      42.963  22.177  25.194  1.00  0.00     0.014 A 
ATOM     29  C   UNL A   1      42.911  21.576  27.544  1.00  0.00     0.014 A 
ATOM     30  C   UNL A   1      43.510  23.418  25.527  1.00  0.00     0.010 A 
ATOM     31  C   UNL A   1      43.396  22.837  27.877  1.00  0.00     0.010 A 
ATOM     32  C   UNL A   1      43.678  23.778  26.875  1.00  0.00    -0.014 A 
BRANCH  32  33
ATOM     33  C   UNL A   1      44.070  25.157  27.261  1.00  0.00     0.031 A 
ATOM     34  C   UNL A   1      43.042  26.134  27.758  1.00  0.00     0.074 A 
ATOM     35  C   UNL A   1      45.339  25.561  27.049  1.00  0.00     0.049 A 
ATOM     36  N   UNL A   1      43.186  27.401  28.050  1.00  0.00    -0.248 NA
ATOM     37  C   UNL A   1      41.670  25.630  27.923  1.00  0.00     0.031 C 
ATOM     38  C   UNL A   1      46.408  24.731  26.487  1.00  0.00     0.029 A 
ATOM     39  N   UNL A   1      45.936  26.783  27.242  1.00  0.00    -0.354 N 
ATOM     40  C   UNL A   1      41.922  27.852  28.411  1.00  0.00     0.074 A 
ATOM     41  C   UNL A   1      41.017  26.731  28.270  1.00  0.00     0.031 C 
ATOM     42  C   UNL A   1      47.523  25.469  26.368  1.00  0.00     0.029 A 
ATOM     43  C   UNL A   1      47.243  26.829  26.817  1.00  0.00     0.049 A 
ATOM     44  H   UNL A   1      45.473  27.551  27.645  1.00  0.00     0.167 HD
ATOM     45  C   UNL A   1      41.556  29.080  28.850  1.00  0.00     0.034 A 
ATOM     46  C   UNL A   1      48.117  27.855  26.773  1.00  0.00     0.034 A 
ATOM     47  C   UNL A   1      42.465  30.181  29.024  1.00  0.00     0.049 A 
ATOM     48  C   UNL A   1      47.689  29.201  27.288  1.00  0.00     0.074 A 
ATOM     49  C   UNL A   1      42.206  31.434  29.550  1.00  0.00     0.029 A 
ATOM     50  N   UNL A   1      43.803  30.168  28.666  1.00  0.00    -0.354 N 
ATOM     51  N   UNL A   1      46.533  29.562  27.791  1.00  0.00    -0.248 NA
ATOM     52  C   UNL A   1      48.693  30.276  27.258  1.00  0.00     0.031 C 
ATOM     53  C   UNL A   1      43.384  32.185  29.495  1.00  0.00     0.029 A 
ATOM     54  C   UNL A   1      44.381  31.395  28.945  1.00  0.00     0.049 A 
ATOM     55  H   UNL A   1      44.274  29.399  28.270  1.00  0.00     0.167 HD
ATOM     56  C   UNL A   1      46.675  30.896  28.153  1.00  0.00     0.074 A 
ATOM     57  C   UNL A   1      48.039  31.271  27.843  1.00  0.00     0.031 C 
ATOM     58  C   UNL A   1      45.751  31.743  28.672  1.00  0.00     0.034 A 
BRANCH  45  59
ATOM     59  C   UNL A   1      40.117  29.279  29.244  1.00  0.00     0.023 A 
ATOM     60  C   UNL A   1      39.148  29.455  28.235  1.00  0.00     0.012 A 
ATOM     61  C   UNL A   1      39.711  29.223  30.591  1.00  0.00     0.148 A 
ATOM     62  C   UNL A   1      37.800  29.599  28.561  1.00  0.00     0.002 A 
ATOM     63  C   UNL A   1      38.361  29.329  30.906  1.00  0.00     0.091 A 
ATOM     64  F   UNL A   1      40.650  29.076  31.537  1.00  0.00    -0.205 F 
ATOM     65  C   UNL A   1      37.407  29.525  29.894  1.00  0.00     0.022 A 
BRANCH  63  66
ATOM     66  S   UNL A   1      37.742  29.177  32.586  1.00  0.00     0.127 S 
ATOM     67  O   UNL A   1      36.383  29.702  32.446  1.00  0.00    -0.237 OA
ATOM     68  O   UNL A   1      37.816  27.733  32.812  1.00  0.00    -0.237 OA
ATOM     69  O   UNL A   1      38.635  29.970  33.417  1.00  0.00    -0.744 OA
ENDBRANCH  63  66
ENDBRANCH  45  59
BRANCH  46  70
ATOM     70  C   UNL A   1      49.499  27.633  26.262  1.00  0.00     0.023 A 
ATOM     71  C   UNL A   1      49.754  27.754  24.883  1.00  0.00     0.012 A 
ATOM     72  C   UNL A   1      50.564  27.333  27.134  1.00  0.00     0.148 A 
ATOM     73  C   UNL A   1      51.039  27.553  24.377  1.00  0.00     0.002 A 
ATOM     74  C   UNL A   1      51.851  27.188  26.630  1.00  0.00     0.091 A 
ATOM     75  F   UNL A   1      50.298  27.202  28.441  1.00  0.00    -0.205 F 
ATOM     76  C   UNL A   1      52.089  27.281  25.251  1.00  0.00     0.022 A 
BRANCH  74  77
ATOM     77  S   UNL A   1      53.275  26.971  27.704  1.00  0.00     0.127 S 
ATOM     78  O   UNL A   1      53.696  25.613  27.374  1.00  0.00    -0.237 OA
ATOM     79  O   UNL A   1      54.175  28.026  27.236  1.00  0.00    -0.237 OA
ATOM     80  O   UNL A   1      52.773  27.175  29.057  1.00  0.00    -0.744 OA
ENDBRANCH  74  77
ENDBRANCH  46  70
BRANCH  58  81
ATOM     81  C   UNL A   1      46.180  33.162  28.938  1.00  0.00     0.023 A 
ATOM     82  C   UNL A   1      46.928  33.450  30.098  1.00  0.00     0.012 A 
ATOM     83  C   UNL A   1      45.912  34.189  28.014  1.00  0.00     0.148 A 
ATOM     84  C   UNL A   1      47.379  34.745  30.347  1.00  0.00     0.002 A 
ATOM     85  C   UNL A   1      46.402  35.469  28.246  1.00  0.00     0.091 A 
ATOM     86  F   UNL A   1      45.184  33.897  26.926  1.00  0.00    -0.205 F 
ATOM     87  C   UNL A   1      47.126  35.750  29.417  1.00  0.00     0.022 A 
BRANCH  85  88
ATOM     88  S   UNL A   1      46.203  36.809  27.067  1.00  0.00     0.127 S 
ATOM     89  O   UNL A   1      46.917  37.898  27.729  1.00  0.00    -0.237 OA
ATOM     90  O   UNL A   1      46.868  36.277  25.877  1.00  0.00    -0.237 OA
ATOM     91  O   UNL A   1      44.766  37.003  26.919  1.00  0.00    -0.744 OA
ENDBRANCH  85  88
ENDBRANCH  58  81
ENDBRANCH  32  33
ENDBRANCH  24  27
ENDBRANCH  22  23
ENDBRANCH  21  22
ENDBRANCH   1  21
TORSDOF 20
ENDMDL
