MODEL 1
REMARK VINA RESULT:     -10.6      0.000      0.000
REMARK SMILES O=C(CNc1nc(-c2ccccc2)c(-c2ccccc2)s1)NCCCCNC(=O)c1ccc(-c2c3nc(c(-c4cccc(S(=O)(=O)[O-])c4F)c4ccc([nH]4)c(-c4cccc(S(=O)(=O)[O-])c4F)c4nc(c(-c5cccc(S(=O)(=O)[O-])c5F)c5ccc2[nH]5)C=C4)C=C3)cc1
REMARK SMILES IDX 24 1 23 2 22 3 1 4 2 5 3 7 4 8 5 10 6 11 21 12 7 13 14 14
REMARK SMILES IDX 8 15 9 16 13 17 10 18 12 19 11 20 15 21 16 22 20 23 17 24
REMARK SMILES IDX 19 25 18 26 25 27 26 28 27 29 28 30 29 32 30 33 31 34 92 35
REMARK SMILES IDX 32 36 91 37 33 38 34 39 35 40 85 41 36 42 90 43 84 44 86 45
REMARK SMILES IDX 37 46 89 47 83 48 82 49 38 51 70 52 50 53 69 54 51 55 54 56
REMARK SMILES IDX 68 57 87 58 52 59 53 60 67 62 88 63 55 64 39 65 40 66 48 67
REMARK SMILES IDX 41 68 43 69 49 70 42 71 44 72 45 73 46 74 47 75 71 76 72 77
REMARK SMILES IDX 80 78 73 79 75 80 81 81 74 82 76 83 77 84 78 85 79 86 56 87
REMARK SMILES IDX 57 88 65 89 58 90 60 91 66 92 59 93 61 94 62 95 63 96 64 97
REMARK H PARENT 22 6 4 9 27 31 86 50 54 61
REMARK Flexibility Score: inf
ROOT
ATOM      1  C   UNL A   1      36.290  23.405  25.256  1.00  0.00     0.023 C 
ENDROOT
BRANCH   1   2
ATOM      2  C   UNL A   1      35.936  22.557  24.037  1.00  0.00     0.116 C 
BRANCH   2   3
ATOM      3  N   UNL A   1      34.534  22.198  23.997  1.00  0.00    -0.355 N 
ATOM      4  O   UNL A   1      34.015  23.248  22.012  1.00  0.00    -0.273 OA
ATOM      5  C   UNL A   1      33.679  22.556  22.968  1.00  0.00     0.239 C 
ATOM      6  H   UNL A   1      34.168  21.671  24.745  1.00  0.00     0.163 HD
BRANCH   5   7
ATOM      7  C   UNL A   1      32.253  22.007  23.148  1.00  0.00     0.215 C 
BRANCH   7   8
ATOM      8  N   UNL A   1      31.625  22.679  24.276  1.00  0.00    -0.352 N 
ATOM      9  H   UNL A   1      31.307  22.141  25.038  1.00  0.00     0.163 HD
BRANCH   8  10
ATOM     10  C   UNL A   1      31.468  24.014  24.306  1.00  0.00     0.184 A 
ATOM     11  N   UNL A   1      32.084  24.841  25.114  1.00  0.00    -0.220 NA
ATOM     12  S   UNL A   1      30.342  24.738  23.228  1.00  0.00    -0.096 S 
ATOM     13  C   UNL A   1      31.616  26.133  24.914  1.00  0.00     0.091 A 
ATOM     14  C   UNL A   1      30.623  26.266  23.955  1.00  0.00     0.064 A 
BRANCH  13  15
ATOM     15  C   UNL A   1      32.170  27.263  25.645  1.00  0.00     0.002 A 
ATOM     16  C   UNL A   1      33.517  27.621  25.507  1.00  0.00     0.010 A 
ATOM     17  C   UNL A   1      31.369  27.948  26.566  1.00  0.00     0.010 A 
ATOM     18  C   UNL A   1      34.065  28.624  26.307  1.00  0.00     0.001 A 
ATOM     19  C   UNL A   1      31.921  28.948  27.371  1.00  0.00     0.001 A 
ATOM     20  C   UNL A   1      33.270  29.280  27.247  1.00  0.00     0.000 A 
ENDBRANCH  13  15
BRANCH  14  21
ATOM     21  C   UNL A   1      29.880  27.437  23.492  1.00  0.00    -0.006 A 
ATOM     22  C   UNL A   1      30.556  28.527  22.927  1.00  0.00     0.009 A 
ATOM     23  C   UNL A   1      28.480  27.464  23.557  1.00  0.00     0.009 A 
ATOM     24  C   UNL A   1      29.846  29.624  22.436  1.00  0.00     0.001 A 
ATOM     25  C   UNL A   1      27.771  28.561  23.066  1.00  0.00     0.001 A 
ATOM     26  C   UNL A   1      28.454  29.639  22.506  1.00  0.00     0.000 A 
ENDBRANCH  14  21
ENDBRANCH   8  10
ENDBRANCH   7   8
ENDBRANCH   5   7
ENDBRANCH   2   3
ENDBRANCH   1   2
BRANCH   1  27
ATOM     27  C   UNL A   1      37.780  23.719  25.424  1.00  0.00     0.023 C 
BRANCH  27  28
ATOM     28  C   UNL A   1      38.475  23.031  26.596  1.00  0.00     0.116 C 
BRANCH  28  29
ATOM     29  N   UNL A   1      39.638  22.254  26.195  1.00  0.00    -0.352 N 
ATOM     30  C   UNL A   1      40.961  22.628  26.131  1.00  0.00     0.251 C 
ATOM     31  H   UNL A   1      39.451  21.325  25.931  1.00  0.00     0.163 HD
ATOM     32  O   UNL A   1      41.786  21.860  25.638  1.00  0.00    -0.269 OA
BRANCH  30  33
ATOM     33  C   UNL A   1      41.393  23.957  26.622  1.00  0.00     0.039 A 
ATOM     34  C   UNL A   1      41.394  25.036  25.734  1.00  0.00     0.014 A 
ATOM     35  C   UNL A   1      41.799  24.146  27.946  1.00  0.00     0.014 A 
ATOM     36  C   UNL A   1      41.728  26.315  26.192  1.00  0.00     0.010 A 
ATOM     37  C   UNL A   1      42.057  25.432  28.418  1.00  0.00     0.010 A 
ATOM     38  C   UNL A   1      42.025  26.533  27.547  1.00  0.00    -0.014 A 
BRANCH  38  39
ATOM     39  C   UNL A   1      42.275  27.902  28.074  1.00  0.00     0.031 A 
ATOM     40  C   UNL A   1      43.678  28.443  28.166  1.00  0.00     0.074 A 
ATOM     41  C   UNL A   1      41.247  28.631  28.552  1.00  0.00     0.049 A 
ATOM     42  N   UNL A   1      44.091  29.584  28.655  1.00  0.00    -0.248 NA
ATOM     43  C   UNL A   1      44.761  27.579  27.667  1.00  0.00     0.031 C 
ATOM     44  C   UNL A   1      39.849  28.196  28.594  1.00  0.00     0.029 A 
ATOM     45  N   UNL A   1      41.220  29.882  29.120  1.00  0.00    -0.354 N 
ATOM     46  C   UNL A   1      45.477  29.564  28.553  1.00  0.00     0.074 A 
ATOM     47  C   UNL A   1      45.837  28.281  27.990  1.00  0.00     0.031 C 
ATOM     48  C   UNL A   1      39.104  29.160  29.155  1.00  0.00     0.029 A 
ATOM     49  C   UNL A   1      39.970  30.267  29.546  1.00  0.00     0.049 A 
ATOM     50  H   UNL A   1      42.020  30.448  29.215  1.00  0.00     0.167 HD
ATOM     51  C   UNL A   1      46.369  30.534  28.870  1.00  0.00     0.034 A 
ATOM     52  C   UNL A   1      39.565  31.380  30.193  1.00  0.00     0.034 A 
ATOM     53  C   UNL A   1      46.009  31.821  29.401  1.00  0.00     0.049 A 
ATOM     54  C   UNL A   1      40.571  32.451  30.513  1.00  0.00     0.074 A 
ATOM     55  C   UNL A   1      46.833  32.898  29.680  1.00  0.00     0.029 A 
ATOM     56  N   UNL A   1      44.722  32.207  29.744  1.00  0.00    -0.354 N 
ATOM     57  N   UNL A   1      41.859  32.472  30.272  1.00  0.00    -0.248 NA
ATOM     58  C   UNL A   1      40.062  33.669  31.163  1.00  0.00     0.031 C 
ATOM     59  C   UNL A   1      46.050  33.921  30.224  1.00  0.00     0.029 A 
ATOM     60  C   UNL A   1      44.732  33.498  30.246  1.00  0.00     0.049 A 
ATOM     61  H   UNL A   1      43.920  31.644  29.646  1.00  0.00     0.167 HD
ATOM     62  C   UNL A   1      42.308  33.715  30.705  1.00  0.00     0.074 A 
ATOM     63  C   UNL A   1      41.150  34.426  31.205  1.00  0.00     0.031 C 
ATOM     64  C   UNL A   1      43.567  34.216  30.699  1.00  0.00     0.034 A 
BRANCH  51  65
ATOM     65  C   UNL A   1      47.828  30.254  28.609  1.00  0.00     0.023 A 
ATOM     66  C   UNL A   1      48.405  30.645  27.383  1.00  0.00     0.012 A 
ATOM     67  C   UNL A   1      48.640  29.659  29.595  1.00  0.00     0.148 A 
ATOM     68  C   UNL A   1      49.755  30.410  27.125  1.00  0.00     0.002 A 
ATOM     69  C   UNL A   1      49.995  29.474  29.349  1.00  0.00     0.091 A 
ATOM     70  F   UNL A   1      48.072  29.278  30.747  1.00  0.00    -0.205 F 
ATOM     71  C   UNL A   1      50.552  29.835  28.110  1.00  0.00     0.022 A 
BRANCH  69  72
ATOM     72  S   UNL A   1      51.124  28.819  30.583  1.00  0.00     0.127 S 
ATOM     73  O   UNL A   1      52.392  28.822  29.854  1.00  0.00    -0.237 OA
ATOM     74  O   UNL A   1      51.031  29.820  31.648  1.00  0.00    -0.237 OA
ATOM     75  O   UNL A   1      50.613  27.503  30.939  1.00  0.00    -0.744 OA
ENDBRANCH  69  72
ENDBRANCH  51  65
BRANCH  52  76
ATOM     76  C   UNL A   1      38.126  31.555  30.539  1.00  0.00     0.023 A 
ATOM     77  C   UNL A   1      37.637  31.054  31.761  1.00  0.00     0.012 A 
ATOM     78  C   UNL A   1      37.247  32.237  29.675  1.00  0.00     0.148 A 
ATOM     79  C   UNL A   1      36.291  31.198  32.102  1.00  0.00     0.002 A 
ATOM     80  C   UNL A   1      35.921  32.428  30.047  1.00  0.00     0.091 A 
ATOM     81  F   UNL A   1      37.730  32.698  28.513  1.00  0.00    -0.205 F 
ATOM     82  C   UNL A   1      35.437  31.892  31.250  1.00  0.00     0.022 A 
BRANCH  80  83
ATOM     83  S   UNL A   1      34.784  33.422  29.077  1.00  0.00     0.127 S 
ATOM     84  O   UNL A   1      35.573  34.625  28.829  1.00  0.00    -0.237 OA
ATOM     85  O   UNL A   1      34.567  32.573  27.905  1.00  0.00    -0.237 OA
ATOM     86  O   UNL A   1      33.605  33.602  29.913  1.00  0.00    -0.744 OA
ENDBRANCH  80  83
ENDBRANCH  52  76
BRANCH  64  87
ATOM     87  C   UNL A   1      43.766  35.620  31.210  1.00  0.00     0.023 A 
ATOM     88  C   UNL A   1      44.013  35.846  32.578  1.00  0.00     0.012 A 
ATOM     89  C   UNL A   1      43.778  36.711  30.317  1.00  0.00     0.148 A 
ATOM     90  C   UNL A   1      44.234  37.138  33.056  1.00  0.00     0.002 A 
ATOM     91  C   UNL A   1      44.051  37.988  30.791  1.00  0.00     0.091 A 
ATOM     92  F   UNL A   1      43.524  36.478  29.021  1.00  0.00    -0.205 F 
ATOM     93  C   UNL A   1      44.264  38.206  32.162  1.00  0.00     0.022 A 
BRANCH  91  94
ATOM     94  S   UNL A   1      44.208  39.408  29.703  1.00  0.00     0.127 S 
ATOM     95  O   UNL A   1      42.809  39.714  29.408  1.00  0.00    -0.237 OA
ATOM     96  O   UNL A   1      44.878  40.383  30.564  1.00  0.00    -0.237 OA
ATOM     97  O   UNL A   1      45.001  38.960  28.566  1.00  0.00    -0.744 OA
ENDBRANCH  91  94
ENDBRANCH  64  87
ENDBRANCH  38  39
ENDBRANCH  30  33
ENDBRANCH  28  29
ENDBRANCH  27  28
ENDBRANCH   1  27
TORSDOF 18
ENDMDL
MODEL 2
REMARK VINA RESULT:     -10.5      0.829      7.917
REMARK SMILES O=C(CNc1nc(-c2ccccc2)c(-c2ccccc2)s1)NCCCCNC(=O)c1ccc(-c2c3nc(c(-c4cccc(S(=O)(=O)[O-])c4F)c4ccc([nH]4)c(-c4cccc(S(=O)(=O)[O-])c4F)c4nc(c(-c5cccc(S(=O)(=O)[O-])c5F)c5ccc2[nH]5)C=C4)C=C3)cc1
REMARK SMILES IDX 24 1 23 2 22 3 1 4 2 5 3 7 4 8 5 10 6 11 21 12 7 13 14 14
REMARK SMILES IDX 8 15 9 16 13 17 10 18 12 19 11 20 15 21 16 22 20 23 17 24
REMARK SMILES IDX 19 25 18 26 25 27 26 28 27 29 28 30 29 32 30 33 31 34 92 35
REMARK SMILES IDX 32 36 91 37 33 38 34 39 35 40 85 41 36 42 90 43 84 44 86 45
REMARK SMILES IDX 37 46 89 47 83 48 82 49 38 51 70 52 50 53 69 54 51 55 54 56
REMARK SMILES IDX 68 57 87 58 52 59 53 60 67 62 88 63 55 64 39 65 40 66 48 67
REMARK SMILES IDX 41 68 43 69 49 70 42 71 44 72 45 73 46 74 47 75 71 76 72 77
REMARK SMILES IDX 80 78 73 79 75 80 81 81 74 82 76 83 77 84 78 85 79 86 56 87
REMARK SMILES IDX 57 88 65 89 58 90 60 91 66 92 59 93 61 94 62 95 63 96 64 97
REMARK H PARENT 22 6 4 9 27 31 86 50 54 61
REMARK Flexibility Score: inf
ROOT
ATOM      1  C   UNL A   1      35.787  23.159  25.108  1.00  0.00     0.023 C 
ENDROOT
BRANCH   1   2
ATOM      2  C   UNL A   1      35.418  21.903  24.321  1.00  0.00     0.116 C 
BRANCH   2   3
ATOM      3  N   UNL A   1      34.014  21.859  23.973  1.00  0.00    -0.355 N 
ATOM      4  O   UNL A   1      34.109  23.296  22.173  1.00  0.00    -0.273 OA
ATOM      5  C   UNL A   1      33.467  22.548  22.904  1.00  0.00     0.239 C 
ATOM      6  H   UNL A   1      33.414  21.309  24.529  1.00  0.00     0.163 HD
BRANCH   5   7
ATOM      7  C   UNL A   1      31.960  22.291  22.726  1.00  0.00     0.215 C 
BRANCH   7   8
ATOM      8  N   UNL A   1      31.253  22.785  23.898  1.00  0.00    -0.352 N 
ATOM      9  H   UNL A   1      30.896  22.138  24.550  1.00  0.00     0.163 HD
BRANCH   8  10
ATOM     10  C   UNL A   1      31.075  24.099  24.115  1.00  0.00     0.184 A 
ATOM     11  N   UNL A   1      30.300  24.894  23.418  1.00  0.00    -0.220 NA
ATOM     12  S   UNL A   1      31.949  24.853  25.388  1.00  0.00    -0.096 S 
ATOM     13  C   UNL A   1      30.428  26.199  23.877  1.00  0.00     0.091 A 
ATOM     14  C   UNL A   1      31.324  26.380  24.919  1.00  0.00     0.064 A 
BRANCH  13  15
ATOM     15  C   UNL A   1      29.635  27.281  23.313  1.00  0.00     0.002 A 
ATOM     16  C   UNL A   1      30.232  28.285  22.539  1.00  0.00     0.010 A 
ATOM     17  C   UNL A   1      28.272  27.370  23.620  1.00  0.00     0.010 A 
ATOM     18  C   UNL A   1      29.484  29.383  22.112  1.00  0.00     0.001 A 
ATOM     19  C   UNL A   1      27.526  28.474  23.197  1.00  0.00     0.001 A 
ATOM     20  C   UNL A   1      28.134  29.483  22.450  1.00  0.00     0.000 A 
ENDBRANCH  13  15
BRANCH  14  21
ATOM     21  C   UNL A   1      31.738  27.585  25.638  1.00  0.00    -0.006 A 
ATOM     22  C   UNL A   1      31.290  27.818  26.945  1.00  0.00     0.009 A 
ATOM     23  C   UNL A   1      32.628  28.493  25.049  1.00  0.00     0.009 A 
ATOM     24  C   UNL A   1      31.725  28.941  27.651  1.00  0.00     0.001 A 
ATOM     25  C   UNL A   1      33.063  29.615  25.757  1.00  0.00     0.001 A 
ATOM     26  C   UNL A   1      32.611  29.837  27.057  1.00  0.00     0.000 A 
ENDBRANCH  14  21
ENDBRANCH   8  10
ENDBRANCH   7   8
ENDBRANCH   5   7
ENDBRANCH   2   3
ENDBRANCH   1   2
BRANCH   1  27
ATOM     27  C   UNL A   1      37.281  23.499  25.133  1.00  0.00     0.023 C 
BRANCH  27  28
ATOM     28  C   UNL A   1      38.045  23.043  26.373  1.00  0.00     0.116 C 
BRANCH  28  29
ATOM     29  N   UNL A   1      39.345  22.467  26.065  1.00  0.00    -0.352 N 
ATOM     30  C   UNL A   1      40.599  23.019  26.190  1.00  0.00     0.251 C 
ATOM     31  H   UNL A   1      39.323  21.547  25.715  1.00  0.00     0.163 HD
ATOM     32  O   UNL A   1      41.575  22.413  25.750  1.00  0.00    -0.269 OA
BRANCH  30  33
ATOM     33  C   UNL A   1      40.778  24.346  26.823  1.00  0.00     0.039 A 
ATOM     34  C   UNL A   1      41.048  24.408  28.193  1.00  0.00     0.014 A 
ATOM     35  C   UNL A   1      40.681  25.525  26.080  1.00  0.00     0.014 A 
ATOM     36  C   UNL A   1      41.293  25.644  28.800  1.00  0.00     0.010 A 
ATOM     37  C   UNL A   1      41.000  26.747  26.669  1.00  0.00     0.010 A 
ATOM     38  C   UNL A   1      41.310  26.823  28.037  1.00  0.00    -0.014 A 
BRANCH  38  39
ATOM     39  C   UNL A   1      41.677  28.132  28.643  1.00  0.00     0.031 A 
ATOM     40  C   UNL A   1      40.611  29.059  29.165  1.00  0.00     0.074 A 
ATOM     41  C   UNL A   1      42.965  28.528  28.646  1.00  0.00     0.049 A 
ATOM     42  N   UNL A   1      40.737  30.261  29.666  1.00  0.00    -0.248 NA
ATOM     43  C   UNL A   1      39.219  28.585  29.091  1.00  0.00     0.031 C 
ATOM     44  C   UNL A   1      44.087  27.760  28.102  1.00  0.00     0.029 A 
ATOM     45  N   UNL A   1      43.547  29.688  29.099  1.00  0.00    -0.354 N 
ATOM     46  C   UNL A   1      39.447  30.700  29.938  1.00  0.00     0.074 A 
ATOM     47  C   UNL A   1      38.548  29.649  29.510  1.00  0.00     0.031 C 
ATOM     48  C   UNL A   1      45.219  28.466  28.252  1.00  0.00     0.029 A 
ATOM     49  C   UNL A   1      44.903  29.750  28.869  1.00  0.00     0.049 A 
ATOM     50  H   UNL A   1      43.042  30.406  29.543  1.00  0.00     0.167 HD
ATOM     51  C   UNL A   1      39.044  31.857  30.517  1.00  0.00     0.034 A 
ATOM     52  C   UNL A   1      45.792  30.734  29.113  1.00  0.00     0.034 A 
ATOM     53  C   UNL A   1      39.938  32.888  30.969  1.00  0.00     0.049 A 
ATOM     54  C   UNL A   1      45.322  32.001  29.776  1.00  0.00     0.074 A 
ATOM     55  C   UNL A   1      39.631  34.061  31.638  1.00  0.00     0.029 A 
ATOM     56  N   UNL A   1      41.313  32.881  30.793  1.00  0.00    -0.354 N 
ATOM     57  N   UNL A   1      44.115  32.332  30.160  1.00  0.00    -0.248 NA
ATOM     58  C   UNL A   1      46.346  33.014  30.074  1.00  0.00     0.031 C 
ATOM     59  C   UNL A   1      40.815  34.777  31.835  1.00  0.00     0.029 A 
ATOM     60  C   UNL A   1      41.866  34.033  31.325  1.00  0.00     0.049 A 
ATOM     61  H   UNL A   1      41.821  32.161  30.352  1.00  0.00     0.167 HD
ATOM     62  C   UNL A   1      44.237  33.573  30.777  1.00  0.00     0.074 A 
ATOM     63  C   UNL A   1      45.641  33.924  30.732  1.00  0.00     0.031 C 
ATOM     64  C   UNL A   1      43.271  34.354  31.319  1.00  0.00     0.034 A 
BRANCH  51  65
ATOM     65  C   UNL A   1      37.564  32.052  30.734  1.00  0.00     0.023 A 
ATOM     66  C   UNL A   1      36.973  31.620  31.939  1.00  0.00     0.012 A 
ATOM     67  C   UNL A   1      36.770  32.711  29.774  1.00  0.00     0.148 A 
ATOM     68  C   UNL A   1      35.610  31.802  32.169  1.00  0.00     0.002 A 
ATOM     69  C   UNL A   1      35.423  32.934  30.032  1.00  0.00     0.091 A 
ATOM     70  F   UNL A   1      37.344  33.101  28.627  1.00  0.00    -0.205 F 
ATOM     71  C   UNL A   1      34.838  32.468  31.221  1.00  0.00     0.022 A 
BRANCH  69  72
ATOM     72  S   UNL A   1      34.361  33.856  28.914  1.00  0.00     0.127 S 
ATOM     73  O   UNL A   1      33.982  32.823  27.950  1.00  0.00    -0.237 OA
ATOM     74  O   UNL A   1      33.280  34.287  29.802  1.00  0.00    -0.237 OA
ATOM     75  O   UNL A   1      35.179  34.936  28.381  1.00  0.00    -0.744 OA
ENDBRANCH  69  72
ENDBRANCH  51  65
BRANCH  52  76
ATOM     76  C   UNL A   1      47.228  30.541  28.766  1.00  0.00     0.023 A 
ATOM     77  C   UNL A   1      47.715  31.004  27.528  1.00  0.00     0.012 A 
ATOM     78  C   UNL A   1      48.117  29.923  29.666  1.00  0.00     0.148 A 
ATOM     79  C   UNL A   1      49.054  30.824  27.178  1.00  0.00     0.002 A 
ATOM     80  C   UNL A   1      49.462  29.800  29.336  1.00  0.00     0.091 A 
ATOM     81  F   UNL A   1      47.632  29.481  30.835  1.00  0.00    -0.205 F 
ATOM     82  C   UNL A   1      49.928  30.232  28.085  1.00  0.00     0.022 A 
BRANCH  80  83
ATOM     83  S   UNL A   1      50.683  29.172  30.493  1.00  0.00     0.127 S 
ATOM     84  O   UNL A   1      50.654  30.188  31.541  1.00  0.00    -0.237 OA
ATOM     85  O   UNL A   1      50.106  27.880  30.867  1.00  0.00    -0.237 OA
ATOM     86  O   UNL A   1      51.927  29.077  29.741  1.00  0.00    -0.744 OA
ENDBRANCH  80  83
ENDBRANCH  52  76
BRANCH  64  87
ATOM     87  C   UNL A   1      43.695  35.655  31.953  1.00  0.00     0.023 A 
ATOM     88  C   UNL A   1      44.033  35.697  33.319  1.00  0.00     0.012 A 
ATOM     89  C   UNL A   1      43.826  36.821  31.173  1.00  0.00     0.148 A 
ATOM     90  C   UNL A   1      44.461  36.887  33.908  1.00  0.00     0.002 A 
ATOM     91  C   UNL A   1      44.303  37.990  31.753  1.00  0.00     0.091 A 
ATOM     92  F   UNL A   1      43.483  36.766  29.877  1.00  0.00    -0.205 F 
ATOM     93  C   UNL A   1      44.606  38.029  33.124  1.00  0.00     0.022 A 
BRANCH  91  94
ATOM     94  S   UNL A   1      44.616  39.481  30.803  1.00  0.00     0.127 S 
ATOM     95  O   UNL A   1      45.169  40.373  31.822  1.00  0.00    -0.237 OA
ATOM     96  O   UNL A   1      45.585  39.016  29.810  1.00  0.00    -0.237 OA
ATOM     97  O   UNL A   1      43.331  39.886  30.252  1.00  0.00    -0.744 OA
ENDBRANCH  91  94
ENDBRANCH  64  87
ENDBRANCH  38  39
ENDBRANCH  30  33
ENDBRANCH  28  29
ENDBRANCH  27  28
ENDBRANCH   1  27
TORSDOF 18
ENDMDL
MODEL 3
REMARK VINA RESULT:     -10.4      3.967      5.902
REMARK SMILES O=C(CNc1nc(-c2ccccc2)c(-c2ccccc2)s1)NCCCCNC(=O)c1ccc(-c2c3nc(c(-c4cccc(S(=O)(=O)[O-])c4F)c4ccc([nH]4)c(-c4cccc(S(=O)(=O)[O-])c4F)c4nc(c(-c5cccc(S(=O)(=O)[O-])c5F)c5ccc2[nH]5)C=C4)C=C3)cc1
REMARK SMILES IDX 24 1 23 2 22 3 1 4 2 5 3 7 4 8 5 10 6 11 21 12 7 13 14 14
REMARK SMILES IDX 8 15 9 16 13 17 10 18 12 19 11 20 15 21 16 22 20 23 17 24
REMARK SMILES IDX 19 25 18 26 25 27 26 28 27 29 28 30 29 32 30 33 31 34 92 35
REMARK SMILES IDX 32 36 91 37 33 38 34 39 35 40 85 41 36 42 90 43 84 44 86 45
REMARK SMILES IDX 37 46 89 47 83 48 82 49 38 51 70 52 50 53 69 54 51 55 54 56
REMARK SMILES IDX 68 57 87 58 52 59 53 60 67 62 88 63 55 64 39 65 40 66 48 67
REMARK SMILES IDX 41 68 43 69 49 70 42 71 44 72 45 73 46 74 47 75 71 76 72 77
REMARK SMILES IDX 80 78 73 79 75 80 81 81 74 82 76 83 77 84 78 85 79 86 56 87
REMARK SMILES IDX 57 88 65 89 58 90 60 91 66 92 59 93 61 94 62 95 63 96 64 97
REMARK H PARENT 22 6 4 9 27 31 86 50 54 61
REMARK Flexibility Score: inf
ROOT
ATOM      1  C   UNL A   1      42.396  21.688  27.061  1.00  0.00     0.023 C 
ENDROOT
BRANCH   1   2
ATOM      2  C   UNL A   1      41.219  22.041  27.967  1.00  0.00     0.116 C 
BRANCH   2   3
ATOM      3  N   UNL A   1      40.221  22.845  27.294  1.00  0.00    -0.355 N 
ATOM      4  O   UNL A   1      40.422  24.729  28.608  1.00  0.00    -0.273 OA
ATOM      5  C   UNL A   1      39.912  24.146  27.656  1.00  0.00     0.239 C 
ATOM      6  H   UNL A   1      39.734  22.444  26.537  1.00  0.00     0.163 HD
BRANCH   5   7
ATOM      7  C   UNL A   1      38.850  24.790  26.748  1.00  0.00     0.215 C 
BRANCH   7   8
ATOM      8  N   UNL A   1      38.452  23.830  25.728  1.00  0.00    -0.352 N 
ATOM      9  H   UNL A   1      39.147  23.308  25.265  1.00  0.00     0.163 HD
BRANCH   8  10
ATOM     10  C   UNL A   1      37.162  23.637  25.404  1.00  0.00     0.184 A 
ATOM     11  N   UNL A   1      36.167  24.435  25.707  1.00  0.00    -0.220 NA
ATOM     12  S   UNL A   1      36.729  22.212  24.546  1.00  0.00    -0.096 S 
ATOM     13  C   UNL A   1      34.969  23.877  25.280  1.00  0.00     0.091 A 
ATOM     14  C   UNL A   1      35.072  22.638  24.667  1.00  0.00     0.064 A 
BRANCH  13  15
ATOM     15  C   UNL A   1      33.705  24.581  25.441  1.00  0.00     0.002 A 
ATOM     16  C   UNL A   1      33.464  25.791  24.779  1.00  0.00     0.010 A 
ATOM     17  C   UNL A   1      32.751  24.087  26.339  1.00  0.00     0.010 A 
ATOM     18  C   UNL A   1      32.301  26.517  25.040  1.00  0.00     0.001 A 
ATOM     19  C   UNL A   1      31.590  24.819  26.604  1.00  0.00     0.001 A 
ATOM     20  C   UNL A   1      31.370  26.037  25.961  1.00  0.00     0.000 A 
ENDBRANCH  13  15
BRANCH  14  21
ATOM     21  C   UNL A   1      34.052  21.744  24.120  1.00  0.00    -0.006 A 
ATOM     22  C   UNL A   1      33.914  20.440  24.613  1.00  0.00     0.009 A 
ATOM     23  C   UNL A   1      33.165  22.197  23.134  1.00  0.00     0.009 A 
ATOM     24  C   UNL A   1      32.908  19.603  24.129  1.00  0.00     0.001 A 
ATOM     25  C   UNL A   1      32.158  21.359  22.651  1.00  0.00     0.001 A 
ATOM     26  C   UNL A   1      32.031  20.063  23.149  1.00  0.00     0.000 A 
ENDBRANCH  14  21
ENDBRANCH   8  10
ENDBRANCH   7   8
ENDBRANCH   5   7
ENDBRANCH   2   3
ENDBRANCH   1   2
BRANCH   1  27
ATOM     27  C   UNL A   1      42.138  20.547  26.071  1.00  0.00     0.023 C 
BRANCH  27  28
ATOM     28  C   UNL A   1      43.029  19.317  26.229  1.00  0.00     0.116 C 
BRANCH  28  29
ATOM     29  N   UNL A   1      43.689  18.926  24.992  1.00  0.00    -0.352 N 
ATOM     30  C   UNL A   1      44.480  19.672  24.149  1.00  0.00     0.251 C 
ATOM     31  H   UNL A   1      43.547  17.991  24.719  1.00  0.00     0.163 HD
ATOM     32  O   UNL A   1      44.842  19.193  23.075  1.00  0.00    -0.269 OA
BRANCH  30  33
ATOM     33  C   UNL A   1      44.875  21.053  24.511  1.00  0.00     0.039 A 
ATOM     34  C   UNL A   1      44.455  22.109  23.697  1.00  0.00     0.014 A 
ATOM     35  C   UNL A   1      45.655  21.314  25.640  1.00  0.00     0.014 A 
ATOM     36  C   UNL A   1      44.753  23.427  24.056  1.00  0.00     0.010 A 
ATOM     37  C   UNL A   1      45.885  22.630  26.038  1.00  0.00     0.010 A 
ATOM     38  C   UNL A   1      45.437  23.704  25.251  1.00  0.00    -0.014 A 
BRANCH  38  39
ATOM     39  C   UNL A   1      45.667  25.102  25.705  1.00  0.00     0.031 A 
ATOM     40  C   UNL A   1      47.065  25.651  25.818  1.00  0.00     0.074 A 
ATOM     41  C   UNL A   1      44.621  25.855  26.101  1.00  0.00     0.049 A 
ATOM     42  N   UNL A   1      47.459  26.820  26.254  1.00  0.00    -0.248 NA
ATOM     43  C   UNL A   1      48.166  24.761  25.412  1.00  0.00     0.031 C 
ATOM     44  C   UNL A   1      43.223  25.419  26.116  1.00  0.00     0.029 A 
ATOM     45  N   UNL A   1      44.573  27.137  26.593  1.00  0.00    -0.354 N 
ATOM     46  C   UNL A   1      48.848  26.797  26.205  1.00  0.00     0.074 A 
ATOM     47  C   UNL A   1      49.230  25.484  25.733  1.00  0.00     0.031 C 
ATOM     48  C   UNL A   1      42.457  26.414  26.591  1.00  0.00     0.029 A 
ATOM     49  C   UNL A   1      43.307  27.544  26.948  1.00  0.00     0.049 A 
ATOM     50  H   UNL A   1      45.368  27.710  26.684  1.00  0.00     0.167 HD
ATOM     51  C   UNL A   1      49.727  27.786  26.498  1.00  0.00     0.034 A 
ATOM     52  C   UNL A   1      42.878  28.691  27.512  1.00  0.00     0.034 A 
ATOM     53  C   UNL A   1      49.347  29.102  26.938  1.00  0.00     0.049 A 
ATOM     54  C   UNL A   1      43.871  29.782  27.807  1.00  0.00     0.074 A 
ATOM     55  C   UNL A   1      50.160  30.195  27.184  1.00  0.00     0.029 A 
ATOM     56  N   UNL A   1      48.048  29.504  27.210  1.00  0.00    -0.354 N 
ATOM     57  N   UNL A   1      45.167  29.792  27.613  1.00  0.00    -0.248 NA
ATOM     58  C   UNL A   1      43.338  31.035  28.364  1.00  0.00     0.031 C 
ATOM     59  C   UNL A   1      49.357  31.246  27.637  1.00  0.00     0.029 A 
ATOM     60  C   UNL A   1      48.038  30.822  27.635  1.00  0.00     0.049 A 
ATOM     61  H   UNL A   1      47.250  28.934  27.115  1.00  0.00     0.167 HD
ATOM     62  C   UNL A   1      45.599  31.060  27.988  1.00  0.00     0.074 A 
ATOM     63  C   UNL A   1      44.423  31.796  28.402  1.00  0.00     0.031 C 
ATOM     64  C   UNL A   1      46.858  31.563  28.000  1.00  0.00     0.034 A 
BRANCH  51  65
ATOM     65  C   UNL A   1      51.195  27.495  26.309  1.00  0.00     0.023 A 
ATOM     66  C   UNL A   1      51.986  27.150  27.424  1.00  0.00     0.012 A 
ATOM     67  C   UNL A   1      51.779  27.507  25.027  1.00  0.00     0.148 A 
ATOM     68  C   UNL A   1      53.343  26.863  27.274  1.00  0.00     0.002 A 
ATOM     69  C   UNL A   1      53.119  27.171  24.878  1.00  0.00     0.091 A 
ATOM     70  F   UNL A   1      51.017  27.854  23.980  1.00  0.00    -0.205 F 
ATOM     71  C   UNL A   1      53.905  26.862  26.001  1.00  0.00     0.022 A 
BRANCH  69  72
ATOM     72  S   UNL A   1      53.919  27.059  23.274  1.00  0.00     0.127 S 
ATOM     73  O   UNL A   1      53.856  28.448  22.817  1.00  0.00    -0.237 OA
ATOM     74  O   UNL A   1      55.260  26.595  23.630  1.00  0.00    -0.237 OA
ATOM     75  O   UNL A   1      53.133  26.111  22.497  1.00  0.00    -0.744 OA
ENDBRANCH  69  72
ENDBRANCH  51  65
BRANCH  52  76
ATOM     76  C   UNL A   1      41.427  28.883  27.794  1.00  0.00     0.023 A 
ATOM     77  C   UNL A   1      40.546  29.186  26.738  1.00  0.00     0.012 A 
ATOM     78  C   UNL A   1      40.914  28.743  29.098  1.00  0.00     0.148 A 
ATOM     79  C   UNL A   1      39.185  29.381  26.980  1.00  0.00     0.002 A 
ATOM     80  C   UNL A   1      39.549  28.881  29.323  1.00  0.00     0.091 A 
ATOM     81  F   UNL A   1      41.771  28.464  30.090  1.00  0.00    -0.205 F 
ATOM     82  C   UNL A   1      38.686  29.218  28.269  1.00  0.00     0.022 A 
BRANCH  80  83
ATOM     83  S   UNL A   1      38.801  28.559  30.923  1.00  0.00     0.127 S 
ATOM     84  O   UNL A   1      37.450  29.081  30.732  1.00  0.00    -0.237 OA
ATOM     85  O   UNL A   1      38.893  27.101  31.010  1.00  0.00    -0.237 OA
ATOM     86  O   UNL A   1      39.621  29.271  31.893  1.00  0.00    -0.744 OA
ENDBRANCH  80  83
ENDBRANCH  52  76
BRANCH  64  87
ATOM     87  C   UNL A   1      47.037  32.995  28.434  1.00  0.00     0.023 A 
ATOM     88  C   UNL A   1      47.317  33.295  29.782  1.00  0.00     0.012 A 
ATOM     89  C   UNL A   1      46.997  34.039  27.489  1.00  0.00     0.148 A 
ATOM     90  C   UNL A   1      47.519  34.614  30.188  1.00  0.00     0.002 A 
ATOM     91  C   UNL A   1      47.252  35.344  27.890  1.00  0.00     0.091 A 
ATOM     92  F   UNL A   1      46.712  33.736  26.214  1.00  0.00    -0.205 F 
ATOM     93  C   UNL A   1      47.499  35.636  29.242  1.00  0.00     0.022 A 
BRANCH  91  94
ATOM     94  S   UNL A   1      47.344  36.711  26.728  1.00  0.00     0.127 S 
ATOM     95  O   UNL A   1      47.720  37.821  27.603  1.00  0.00    -0.237 OA
ATOM     96  O   UNL A   1      48.400  36.270  25.817  1.00  0.00    -0.237 OA
ATOM     97  O   UNL A   1      46.025  36.814  26.122  1.00  0.00    -0.744 OA
ENDBRANCH  91  94
ENDBRANCH  64  87
ENDBRANCH  38  39
ENDBRANCH  30  33
ENDBRANCH  28  29
ENDBRANCH  27  28
ENDBRANCH   1  27
TORSDOF 18
ENDMDL
