MODEL 1
REMARK VINA RESULT:     -12.1      0.000      0.000
REMARK SMILES Cc1cccc(O[C@H](C)C(=O)N2CCC[C@@H](C(=O)NCCCCNC(=O)c3ccc(-c4c5nc(c(-c6cccc(S(=O)(=O)[O-])c6F)c6ccc([nH]6)c(-c6cccc(S(=O)(=O)[O-])c6F)c6nc(c(-c7cccc(S(=O)(=O)[O-])c7F)c7ccc4[nH]7)C=C6)C=C5)cc3)C2)c1
REMARK SMILES IDX 21 1 20 2 19 3 17 4 18 5 16 7 12 8 13 9 90 10 14 11 15 12
REMARK SMILES IDX 10 13 11 14 8 15 9 16 7 17 6 18 1 19 2 20 3 21 91 22 4 23
REMARK SMILES IDX 5 24 22 25 23 26 24 27 25 28 26 30 27 31 28 32 89 33 29 34
REMARK SMILES IDX 88 35 30 36 31 37 32 38 82 39 33 40 87 41 81 42 83 43 34 44
REMARK SMILES IDX 86 45 80 46 79 47 35 49 67 50 47 51 66 52 48 53 51 54 65 55
REMARK SMILES IDX 84 56 49 57 50 58 64 60 85 61 52 62 36 63 37 64 45 65 38 66
REMARK SMILES IDX 40 67 46 68 39 69 41 70 42 71 43 72 44 73 68 74 69 75 77 76
REMARK SMILES IDX 70 77 72 78 78 79 71 80 73 81 74 82 75 83 76 84 53 85 54 86
REMARK SMILES IDX 62 87 55 88 57 89 63 90 56 91 58 92 59 93 60 94 61 95
REMARK H PARENT 19 6 24 29 83 48 51 59
REMARK Flexibility Score: inf
ROOT
ATOM      1  C   UNL A   1      37.774  21.258  25.003  1.00  0.00     0.023 C 
ENDROOT
BRANCH   1   2
ATOM      2  C   UNL A   1      36.451  21.348  25.772  1.00  0.00     0.116 C 
BRANCH   2   3
ATOM      3  N   UNL A   1      35.437  20.448  25.247  1.00  0.00    -0.356 N 
ATOM      4  C   UNL A   1      34.176  20.644  24.793  1.00  0.00     0.224 C 
ATOM      5  O   UNL A   1      33.515  19.637  24.517  1.00  0.00    -0.275 OA
ATOM      6  H   UNL A   1      35.725  19.507  25.214  1.00  0.00     0.163 HD
BRANCH   4   7
ATOM      7  C   UNL A   1      33.564  22.018  24.568  1.00  0.00     0.098 C 
ATOM      8  N   UNL A   1      32.672  24.100  25.526  1.00  0.00    -0.339 N 
ATOM      9  C   UNL A   1      33.193  24.891  24.407  1.00  0.00     0.119 C 
ATOM     10  C   UNL A   1      33.435  22.893  25.810  1.00  0.00     0.133 C 
ATOM     11  C   UNL A   1      33.451  24.065  23.147  1.00  0.00     0.022 C 
ATOM     12  C   UNL A   1      34.242  22.789  23.438  1.00  0.00     0.017 C 
BRANCH   8  13
ATOM     13  C   UNL A   1      31.681  24.653  26.323  1.00  0.00     0.263 C 
ATOM     14  O   UNL A   1      31.249  24.022  27.299  1.00  0.00    -0.271 OA
BRANCH  13  15
ATOM     15  C   UNL A   1      31.003  26.007  25.967  1.00  0.00     0.259 C 
ATOM     16  C   UNL A   1      29.624  25.965  25.327  1.00  0.00     0.064 C 
BRANCH  15  17
ATOM     17  O   UNL A   1      31.359  26.976  26.949  1.00  0.00    -0.481 OA
BRANCH  17  18
ATOM     18  C   UNL A   1      32.192  28.036  26.878  1.00  0.00     0.120 A 
ATOM     19  C   UNL A   1      31.435  31.775  26.578  1.00  0.00     0.044 C 
ATOM     20  C   UNL A   1      32.191  30.488  26.725  1.00  0.00    -0.047 A 
ATOM     21  C   UNL A   1      33.580  30.486  26.816  1.00  0.00     0.003 A 
ATOM     22  C   UNL A   1      31.514  29.259  26.747  1.00  0.00     0.049 A 
ATOM     23  C   UNL A   1      34.261  29.280  26.983  1.00  0.00     0.004 A 
ATOM     24  C   UNL A   1      33.570  28.059  27.017  1.00  0.00     0.046 A 
ENDBRANCH  17  18
ENDBRANCH  15  17
ENDBRANCH  13  15
ENDBRANCH   8  13
ENDBRANCH   4   7
ENDBRANCH   2   3
ENDBRANCH   1   2
BRANCH   1  25
ATOM     25  C   UNL A   1      39.011  21.099  25.878  1.00  0.00     0.023 C 
BRANCH  25  26
ATOM     26  C   UNL A   1      39.871  22.345  25.917  1.00  0.00     0.116 C 
BRANCH  26  27
ATOM     27  N   UNL A   1      40.764  22.393  27.067  1.00  0.00    -0.352 N 
ATOM     28  C   UNL A   1      41.117  23.467  27.865  1.00  0.00     0.251 C 
ATOM     29  H   UNL A   1      41.177  21.535  27.312  1.00  0.00     0.163 HD
ATOM     30  O   UNL A   1      41.958  23.297  28.749  1.00  0.00    -0.269 OA
BRANCH  28  31
ATOM     31  C   UNL A   1      40.370  24.744  27.746  1.00  0.00     0.039 A 
ATOM     32  C   UNL A   1      40.870  25.701  26.856  1.00  0.00     0.014 A 
ATOM     33  C   UNL A   1      39.432  25.108  28.707  1.00  0.00     0.014 A 
ATOM     34  C   UNL A   1      40.693  27.052  27.138  1.00  0.00     0.010 A 
ATOM     35  C   UNL A   1      39.336  26.438  29.050  1.00  0.00     0.010 A 
ATOM     36  C   UNL A   1      40.056  27.394  28.325  1.00  0.00    -0.014 A 
BRANCH  36  37
ATOM     37  C   UNL A   1      40.250  28.654  29.024  1.00  0.00     0.031 A 
ATOM     38  C   UNL A   1      39.299  29.766  28.871  1.00  0.00     0.074 A 
ATOM     39  C   UNL A   1      41.128  28.638  30.056  1.00  0.00     0.049 A 
ATOM     40  N   UNL A   1      39.478  30.933  29.394  1.00  0.00    -0.248 NA
ATOM     41  C   UNL A   1      38.070  29.663  28.090  1.00  0.00     0.031 C 
ATOM     42  C   UNL A   1      41.131  29.495  31.236  1.00  0.00     0.029 A 
ATOM     43  N   UNL A   1      42.333  27.929  30.153  1.00  0.00    -0.354 N 
ATOM     44  C   UNL A   1      38.263  31.572  29.345  1.00  0.00     0.074 A 
ATOM     45  C   UNL A   1      37.486  30.830  28.385  1.00  0.00     0.031 C 
ATOM     46  C   UNL A   1      42.356  29.474  31.782  1.00  0.00     0.029 A 
ATOM     47  C   UNL A   1      43.219  28.769  30.852  1.00  0.00     0.049 A 
ATOM     48  H   UNL A   1      42.521  27.028  29.803  1.00  0.00     0.167 HD
ATOM     49  C   UNL A   1      37.999  32.541  30.263  1.00  0.00     0.034 A 
ATOM     50  C   UNL A   1      44.372  29.269  30.313  1.00  0.00     0.034 A 
ATOM     51  C   UNL A   1      39.221  32.961  30.964  1.00  0.00     0.049 A 
ATOM     52  C   UNL A   1      44.418  30.790  30.294  1.00  0.00     0.074 A 
ATOM     53  C   UNL A   1      39.697  32.796  32.252  1.00  0.00     0.029 A 
ATOM     54  N   UNL A   1      40.283  33.472  30.220  1.00  0.00    -0.354 N 
ATOM     55  N   UNL A   1      43.455  31.566  30.712  1.00  0.00    -0.248 NA
ATOM     56  C   UNL A   1      45.538  31.557  29.750  1.00  0.00     0.031 C 
ATOM     57  C   UNL A   1      41.097  33.067  32.236  1.00  0.00     0.029 A 
ATOM     58  C   UNL A   1      41.458  33.452  30.954  1.00  0.00     0.049 A 
ATOM     59  H   UNL A   1      40.208  33.802  29.295  1.00  0.00     0.167 HD
ATOM     60  C   UNL A   1      43.696  32.855  30.310  1.00  0.00     0.074 A 
ATOM     61  C   UNL A   1      45.066  32.814  29.825  1.00  0.00     0.031 C 
ATOM     62  C   UNL A   1      42.722  33.819  30.314  1.00  0.00     0.034 A 
BRANCH  49  63
ATOM     63  C   UNL A   1      36.611  33.001  30.675  1.00  0.00     0.023 A 
ATOM     64  C   UNL A   1      36.134  32.575  31.935  1.00  0.00     0.012 A 
ATOM     65  C   UNL A   1      35.688  33.724  29.876  1.00  0.00     0.148 A 
ATOM     66  C   UNL A   1      34.834  32.853  32.378  1.00  0.00     0.002 A 
ATOM     67  C   UNL A   1      34.420  34.072  30.352  1.00  0.00     0.091 A 
ATOM     68  F   UNL A   1      35.971  33.994  28.598  1.00  0.00    -0.205 F 
ATOM     69  C   UNL A   1      33.983  33.621  31.597  1.00  0.00     0.022 A 
BRANCH  67  70
ATOM     70  S   UNL A   1      33.298  35.127  29.414  1.00  0.00     0.127 S 
ATOM     71  O   UNL A   1      32.838  34.229  28.356  1.00  0.00    -0.237 OA
ATOM     72  O   UNL A   1      32.280  35.467  30.409  1.00  0.00    -0.237 OA
ATOM     73  O   UNL A   1      34.096  36.264  28.966  1.00  0.00    -0.744 OA
ENDBRANCH  67  70
ENDBRANCH  49  63
BRANCH  50  74
ATOM     74  C   UNL A   1      44.980  28.372  29.286  1.00  0.00     0.023 A 
ATOM     75  C   UNL A   1      45.524  27.150  29.750  1.00  0.00     0.012 A 
ATOM     76  C   UNL A   1      44.657  28.497  27.923  1.00  0.00     0.148 A 
ATOM     77  C   UNL A   1      45.605  26.037  28.910  1.00  0.00     0.002 A 
ATOM     78  C   UNL A   1      44.744  27.382  27.091  1.00  0.00     0.091 A 
ATOM     79  F   UNL A   1      44.186  29.670  27.481  1.00  0.00    -0.205 F 
ATOM     80  C   UNL A   1      45.178  26.144  27.592  1.00  0.00     0.022 A 
BRANCH  78  81
ATOM     81  S   UNL A   1      44.165  27.437  25.387  1.00  0.00     0.127 S 
ATOM     82  O   UNL A   1      45.355  27.910  24.689  1.00  0.00    -0.237 OA
ATOM     83  O   UNL A   1      43.811  26.041  25.130  1.00  0.00    -0.237 OA
ATOM     84  O   UNL A   1      43.026  28.342  25.415  1.00  0.00    -0.744 OA
ENDBRANCH  78  81
ENDBRANCH  50  74
BRANCH  62  85
ATOM     85  C   UNL A   1      42.856  35.181  29.652  1.00  0.00     0.023 A 
ATOM     86  C   UNL A   1      42.138  35.530  28.489  1.00  0.00     0.012 A 
ATOM     87  C   UNL A   1      43.603  36.218  30.268  1.00  0.00     0.148 A 
ATOM     88  C   UNL A   1      42.220  36.806  27.919  1.00  0.00     0.002 A 
ATOM     89  C   UNL A   1      43.594  37.516  29.758  1.00  0.00     0.091 A 
ATOM     90  F   UNL A   1      44.346  35.948  31.352  1.00  0.00    -0.205 F 
ATOM     91  C   UNL A   1      42.933  37.806  28.563  1.00  0.00     0.022 A 
BRANCH  89  92
ATOM     92  S   UNL A   1      44.297  38.880  30.698  1.00  0.00     0.127 S 
ATOM     93  O   UNL A   1      45.730  38.613  30.602  1.00  0.00    -0.237 OA
ATOM     94  O   UNL A   1      43.846  40.053  29.946  1.00  0.00    -0.237 OA
ATOM     95  O   UNL A   1      43.703  38.760  32.023  1.00  0.00    -0.744 OA
ENDBRANCH  89  92
ENDBRANCH  62  85
ENDBRANCH  36  37
ENDBRANCH  28  31
ENDBRANCH  26  27
ENDBRANCH  25  26
ENDBRANCH   1  25
TORSDOF 18
ENDMDL
MODEL 2
REMARK VINA RESULT:     -12.1      3.768      9.665
REMARK SMILES Cc1cccc(O[C@H](C)C(=O)N2CCC[C@@H](C(=O)NCCCCNC(=O)c3ccc(-c4c5nc(c(-c6cccc(S(=O)(=O)[O-])c6F)c6ccc([nH]6)c(-c6cccc(S(=O)(=O)[O-])c6F)c6nc(c(-c7cccc(S(=O)(=O)[O-])c7F)c7ccc4[nH]7)C=C6)C=C5)cc3)C2)c1
REMARK SMILES IDX 21 1 20 2 19 3 17 4 18 5 16 7 12 8 13 9 90 10 14 11 15 12
REMARK SMILES IDX 10 13 11 14 8 15 9 16 7 17 6 18 1 19 2 20 3 21 91 22 4 23
REMARK SMILES IDX 5 24 22 25 23 26 24 27 25 28 26 30 27 31 28 32 89 33 29 34
REMARK SMILES IDX 88 35 30 36 31 37 32 38 82 39 33 40 87 41 81 42 83 43 34 44
REMARK SMILES IDX 86 45 80 46 79 47 35 49 67 50 47 51 66 52 48 53 51 54 65 55
REMARK SMILES IDX 84 56 49 57 50 58 64 60 85 61 52 62 36 63 37 64 45 65 38 66
REMARK SMILES IDX 40 67 46 68 39 69 41 70 42 71 43 72 44 73 68 74 69 75 77 76
REMARK SMILES IDX 70 77 72 78 78 79 71 80 73 81 74 82 75 83 76 84 53 85 54 86
REMARK SMILES IDX 62 87 55 88 57 89 63 90 56 91 58 92 59 93 60 94 61 95
REMARK H PARENT 19 6 24 29 83 48 51 59
REMARK Flexibility Score: inf
ROOT
ATOM      1  C   UNL A   1      33.116  29.603  27.263  1.00  0.00     0.023 C 
ENDROOT
BRANCH   1   2
ATOM      2  C   UNL A   1      32.415  28.522  26.432  1.00  0.00     0.116 C 
BRANCH   2   3
ATOM      3  N   UNL A   1      32.552  28.740  25.001  1.00  0.00    -0.356 N 
ATOM      4  C   UNL A   1      33.004  27.962  23.988  1.00  0.00     0.224 C 
ATOM      5  O   UNL A   1      33.103  28.490  22.875  1.00  0.00    -0.275 OA
ATOM      6  H   UNL A   1      32.256  29.633  24.708  1.00  0.00     0.163 HD
BRANCH   4   7
ATOM      7  C   UNL A   1      33.342  26.488  24.144  1.00  0.00     0.098 C 
ATOM      8  N   UNL A   1      33.836  24.326  23.081  1.00  0.00    -0.339 N 
ATOM      9  C   UNL A   1      34.766  23.959  24.154  1.00  0.00     0.119 C 
ATOM     10  C   UNL A   1      33.716  25.759  22.858  1.00  0.00     0.133 C 
ATOM     11  C   UNL A   1      34.524  24.726  25.454  1.00  0.00     0.022 C 
ATOM     12  C   UNL A   1      34.386  26.232  25.228  1.00  0.00     0.017 C 
BRANCH   8  13
ATOM     13  C   UNL A   1      33.343  23.321  22.262  1.00  0.00     0.263 C 
ATOM     14  O   UNL A   1      33.624  23.316  21.053  1.00  0.00    -0.271 OA
BRANCH  13  15
ATOM     15  C   UNL A   1      32.347  22.249  22.786  1.00  0.00     0.259 C 
ATOM     16  C   UNL A   1      32.905  21.107  23.621  1.00  0.00     0.064 C 
BRANCH  15  17
ATOM     17  O   UNL A   1      31.105  22.880  23.090  1.00  0.00    -0.481 OA
BRANCH  17  18
ATOM     18  C   UNL A   1      30.797  23.816  24.013  1.00  0.00     0.120 A 
ATOM     19  C   UNL A   1      29.120  27.233  23.623  1.00  0.00     0.044 C 
ATOM     20  C   UNL A   1      29.745  26.023  24.252  1.00  0.00    -0.047 A 
ATOM     21  C   UNL A   1      29.904  25.941  25.632  1.00  0.00     0.003 A 
ATOM     22  C   UNL A   1      30.203  24.961  23.457  1.00  0.00     0.049 A 
ATOM     23  C   UNL A   1      30.459  24.793  26.197  1.00  0.00     0.004 A 
ATOM     24  C   UNL A   1      30.902  23.733  25.393  1.00  0.00     0.046 A 
ENDBRANCH  17  18
ENDBRANCH  15  17
ENDBRANCH  13  15
ENDBRANCH   8  13
ENDBRANCH   4   7
ENDBRANCH   2   3
ENDBRANCH   1   2
BRANCH   1  25
ATOM     25  C   UNL A   1      34.619  29.412  27.419  1.00  0.00     0.023 C 
BRANCH  25  26
ATOM     26  C   UNL A   1      35.329  30.665  27.887  1.00  0.00     0.116 C 
BRANCH  26  27
ATOM     27  N   UNL A   1      34.477  31.847  27.880  1.00  0.00    -0.352 N 
ATOM     28  C   UNL A   1      34.515  32.966  28.693  1.00  0.00     0.251 C 
ATOM     29  H   UNL A   1      33.772  31.850  27.194  1.00  0.00     0.163 HD
ATOM     30  O   UNL A   1      33.641  33.824  28.560  1.00  0.00    -0.269 OA
BRANCH  28  31
ATOM     31  C   UNL A   1      35.680  33.183  29.587  1.00  0.00     0.039 A 
ATOM     32  C   UNL A   1      36.831  33.740  29.018  1.00  0.00     0.014 A 
ATOM     33  C   UNL A   1      35.746  32.559  30.828  1.00  0.00     0.014 A 
ATOM     34  C   UNL A   1      38.079  33.383  29.520  1.00  0.00     0.010 A 
ATOM     35  C   UNL A   1      36.975  32.119  31.269  1.00  0.00     0.010 A 
ATOM     36  C   UNL A   1      38.127  32.448  30.547  1.00  0.00    -0.014 A 
BRANCH  36  37
ATOM     37  C   UNL A   1      39.268  31.586  30.815  1.00  0.00     0.031 A 
ATOM     38  C   UNL A   1      39.381  30.255  30.199  1.00  0.00     0.074 A 
ATOM     39  C   UNL A   1      40.353  32.183  31.365  1.00  0.00     0.049 A 
ATOM     40  N   UNL A   1      40.323  29.419  30.479  1.00  0.00    -0.248 NA
ATOM     41  C   UNL A   1      38.420  29.742  29.226  1.00  0.00     0.031 C 
ATOM     42  C   UNL A   1      41.750  31.781  31.239  1.00  0.00     0.029 A 
ATOM     43  N   UNL A   1      40.383  33.207  32.321  1.00  0.00    -0.354 N 
ATOM     44  C   UNL A   1      40.310  28.470  29.486  1.00  0.00     0.074 A 
ATOM     45  C   UNL A   1      39.025  28.610  28.849  1.00  0.00     0.031 C 
ATOM     46  C   UNL A   1      42.449  32.331  32.243  1.00  0.00     0.029 A 
ATOM     47  C   UNL A   1      41.486  32.929  33.149  1.00  0.00     0.049 A 
ATOM     48  H   UNL A   1      39.760  33.966  32.397  1.00  0.00     0.167 HD
ATOM     49  C   UNL A   1      41.463  27.806  29.202  1.00  0.00     0.034 A 
ATOM     50  C   UNL A   1      41.378  32.647  34.483  1.00  0.00     0.034 A 
ATOM     51  C   UNL A   1      42.468  28.006  30.257  1.00  0.00     0.049 A 
ATOM     52  C   UNL A   1      41.935  31.281  34.857  1.00  0.00     0.074 A 
ATOM     53  C   UNL A   1      43.662  28.699  30.329  1.00  0.00     0.029 A 
ATOM     54  N   UNL A   1      42.161  27.623  31.562  1.00  0.00    -0.354 N 
ATOM     55  N   UNL A   1      42.442  30.429  34.007  1.00  0.00    -0.248 NA
ATOM     56  C   UNL A   1      41.917  30.747  36.218  1.00  0.00     0.031 C 
ATOM     57  C   UNL A   1      43.988  28.860  31.709  1.00  0.00     0.029 A 
ATOM     58  C   UNL A   1      43.025  28.216  32.468  1.00  0.00     0.049 A 
ATOM     59  H   UNL A   1      41.429  27.012  31.805  1.00  0.00     0.167 HD
ATOM     60  C   UNL A   1      42.597  29.210  34.615  1.00  0.00     0.074 A 
ATOM     61  C   UNL A   1      42.374  29.497  36.023  1.00  0.00     0.031 C 
ATOM     62  C   UNL A   1      42.794  28.054  33.905  1.00  0.00     0.034 A 
BRANCH  49  63
ATOM     63  C   UNL A   1      41.773  27.113  27.886  1.00  0.00     0.023 A 
ATOM     64  C   UNL A   1      41.825  27.918  26.727  1.00  0.00     0.012 A 
ATOM     65  C   UNL A   1      41.904  25.716  27.678  1.00  0.00     0.148 A 
ATOM     66  C   UNL A   1      42.002  27.377  25.446  1.00  0.00     0.002 A 
ATOM     67  C   UNL A   1      42.164  25.185  26.410  1.00  0.00     0.091 A 
ATOM     68  F   UNL A   1      41.669  24.861  28.677  1.00  0.00    -0.205 F 
ATOM     69  C   UNL A   1      42.196  26.012  25.288  1.00  0.00     0.022 A 
BRANCH  67  70
ATOM     70  S   UNL A   1      42.495  23.431  26.153  1.00  0.00     0.127 S 
ATOM     71  O   UNL A   1      43.486  23.147  27.189  1.00  0.00    -0.237 OA
ATOM     72  O   UNL A   1      41.182  22.825  26.383  1.00  0.00    -0.237 OA
ATOM     73  O   UNL A   1      42.974  23.309  24.780  1.00  0.00    -0.744 OA
ENDBRANCH  67  70
ENDBRANCH  49  63
BRANCH  50  74
ATOM     74  C   UNL A   1      40.211  33.313  35.134  1.00  0.00     0.023 A 
ATOM     75  C   UNL A   1      38.973  32.627  35.076  1.00  0.00     0.012 A 
ATOM     76  C   UNL A   1      40.388  34.312  36.108  1.00  0.00     0.148 A 
ATOM     77  C   UNL A   1      37.996  32.828  36.053  1.00  0.00     0.002 A 
ATOM     78  C   UNL A   1      39.407  34.508  37.078  1.00  0.00     0.091 A 
ATOM     79  F   UNL A   1      41.543  34.988  36.128  1.00  0.00    -0.205 F 
ATOM     80  C   UNL A   1      38.231  33.739  37.076  1.00  0.00     0.022 A 
BRANCH  78  81
ATOM     81  S   UNL A   1      39.663  35.638  38.455  1.00  0.00     0.127 S 
ATOM     82  O   UNL A   1      38.548  35.290  39.330  1.00  0.00    -0.237 OA
ATOM     83  O   UNL A   1      40.982  35.241  38.947  1.00  0.00    -0.237 OA
ATOM     84  O   UNL A   1      39.628  36.963  37.856  1.00  0.00    -0.744 OA
ENDBRANCH  78  81
ENDBRANCH  50  74
BRANCH  62  85
ATOM     85  C   UNL A   1      42.721  26.656  34.497  1.00  0.00     0.023 A 
ATOM     86  C   UNL A   1      41.581  26.182  35.178  1.00  0.00     0.012 A 
ATOM     87  C   UNL A   1      43.751  25.711  34.256  1.00  0.00     0.148 A 
ATOM     88  C   UNL A   1      41.497  24.874  35.668  1.00  0.00     0.002 A 
ATOM     89  C   UNL A   1      43.616  24.380  34.650  1.00  0.00     0.091 A 
ATOM     90  F   UNL A   1      44.884  26.102  33.652  1.00  0.00    -0.205 F 
ATOM     91  C   UNL A   1      42.507  23.966  35.388  1.00  0.00     0.022 A 
BRANCH  89  92
ATOM     92  S   UNL A   1      44.785  23.131  34.089  1.00  0.00     0.127 S 
ATOM     93  O   UNL A   1      46.036  23.589  34.687  1.00  0.00    -0.237 OA
ATOM     94  O   UNL A   1      44.245  21.901  34.674  1.00  0.00    -0.237 OA
ATOM     95  O   UNL A   1      44.706  23.179  32.634  1.00  0.00    -0.744 OA
ENDBRANCH  89  92
ENDBRANCH  62  85
ENDBRANCH  36  37
ENDBRANCH  28  31
ENDBRANCH  26  27
ENDBRANCH  25  26
ENDBRANCH   1  25
TORSDOF 18
ENDMDL
MODEL 3
REMARK VINA RESULT:     -12.0      3.714      9.537
REMARK SMILES Cc1cccc(O[C@H](C)C(=O)N2CCC[C@@H](C(=O)NCCCCNC(=O)c3ccc(-c4c5nc(c(-c6cccc(S(=O)(=O)[O-])c6F)c6ccc([nH]6)c(-c6cccc(S(=O)(=O)[O-])c6F)c6nc(c(-c7cccc(S(=O)(=O)[O-])c7F)c7ccc4[nH]7)C=C6)C=C5)cc3)C2)c1
REMARK SMILES IDX 21 1 20 2 19 3 17 4 18 5 16 7 12 8 13 9 90 10 14 11 15 12
REMARK SMILES IDX 10 13 11 14 8 15 9 16 7 17 6 18 1 19 2 20 3 21 91 22 4 23
REMARK SMILES IDX 5 24 22 25 23 26 24 27 25 28 26 30 27 31 28 32 89 33 29 34
REMARK SMILES IDX 88 35 30 36 31 37 32 38 82 39 33 40 87 41 81 42 83 43 34 44
REMARK SMILES IDX 86 45 80 46 79 47 35 49 67 50 47 51 66 52 48 53 51 54 65 55
REMARK SMILES IDX 84 56 49 57 50 58 64 60 85 61 52 62 36 63 37 64 45 65 38 66
REMARK SMILES IDX 40 67 46 68 39 69 41 70 42 71 43 72 44 73 68 74 69 75 77 76
REMARK SMILES IDX 70 77 72 78 78 79 71 80 73 81 74 82 75 83 76 84 53 85 54 86
REMARK SMILES IDX 62 87 55 88 57 89 63 90 56 91 58 92 59 93 60 94 61 95
REMARK H PARENT 19 6 24 29 83 48 51 59
REMARK Flexibility Score: inf
ROOT
ATOM      1  C   UNL A   1      33.754  29.742  26.349  1.00  0.00     0.023 C 
ENDROOT
BRANCH   1   2
ATOM      2  C   UNL A   1      32.382  29.096  26.575  1.00  0.00     0.116 C 
BRANCH   2   3
ATOM      3  N   UNL A   1      31.453  29.362  25.489  1.00  0.00    -0.356 N 
ATOM      4  C   UNL A   1      30.955  28.593  24.491  1.00  0.00     0.224 C 
ATOM      5  O   UNL A   1      30.258  29.158  23.641  1.00  0.00    -0.275 OA
ATOM      6  H   UNL A   1      31.116  30.288  25.477  1.00  0.00     0.163 HD
BRANCH   4   7
ATOM      7  C   UNL A   1      31.171  27.091  24.396  1.00  0.00     0.098 C 
ATOM      8  N   UNL A   1      30.866  24.862  25.389  1.00  0.00    -0.339 N 
ATOM      9  C   UNL A   1      30.717  24.244  24.068  1.00  0.00     0.119 C 
ATOM     10  C   UNL A   1      30.448  26.256  25.447  1.00  0.00     0.133 C 
ATOM     11  C   UNL A   1      31.326  25.074  22.938  1.00  0.00     0.022 C 
ATOM     12  C   UNL A   1      30.902  26.542  22.997  1.00  0.00     0.017 C 
BRANCH   8  13
ATOM     13  C   UNL A   1      31.165  24.047  26.470  1.00  0.00     0.263 C 
ATOM     14  O   UNL A   1      30.250  23.599  27.178  1.00  0.00    -0.271 OA
BRANCH  13  15
ATOM     15  C   UNL A   1      32.631  23.761  26.902  1.00  0.00     0.259 C 
ATOM     16  C   UNL A   1      32.958  22.376  27.438  1.00  0.00     0.064 C 
BRANCH  15  17
ATOM     17  O   UNL A   1      33.515  24.473  26.040  1.00  0.00    -0.481 OA
BRANCH  17  18
ATOM     18  C   UNL A   1      34.532  24.036  25.267  1.00  0.00     0.120 A 
ATOM     19  C   UNL A   1      38.275  23.758  26.010  1.00  0.00     0.044 C 
ATOM     20  C   UNL A   1      36.958  23.650  25.301  1.00  0.00    -0.047 A 
ATOM     21  C   UNL A   1      36.882  23.108  24.021  1.00  0.00     0.003 A 
ATOM     22  C   UNL A   1      35.781  24.117  25.905  1.00  0.00     0.049 A 
ATOM     23  C   UNL A   1      35.643  22.989  23.393  1.00  0.00     0.004 A 
ATOM     24  C   UNL A   1      34.471  23.449  24.013  1.00  0.00     0.046 A 
ENDBRANCH  17  18
ENDBRANCH  15  17
ENDBRANCH  13  15
ENDBRANCH   8  13
ENDBRANCH   4   7
ENDBRANCH   2   3
ENDBRANCH   1   2
BRANCH   1  25
ATOM     25  C   UNL A   1      34.828  29.324  27.345  1.00  0.00     0.023 C 
BRANCH  25  26
ATOM     26  C   UNL A   1      35.547  30.503  27.968  1.00  0.00     0.116 C 
BRANCH  26  27
ATOM     27  N   UNL A   1      34.787  31.744  27.898  1.00  0.00    -0.352 N 
ATOM     28  C   UNL A   1      34.919  32.902  28.644  1.00  0.00     0.251 C 
ATOM     29  H   UNL A   1      34.075  31.762  27.219  1.00  0.00     0.163 HD
ATOM     30  O   UNL A   1      34.111  33.815  28.468  1.00  0.00    -0.269 OA
BRANCH  28  31
ATOM     31  C   UNL A   1      36.108  33.081  29.515  1.00  0.00     0.039 A 
ATOM     32  C   UNL A   1      37.273  33.578  28.919  1.00  0.00     0.014 A 
ATOM     33  C   UNL A   1      36.169  32.472  30.765  1.00  0.00     0.014 A 
ATOM     34  C   UNL A   1      38.512  33.173  29.405  1.00  0.00     0.010 A 
ATOM     35  C   UNL A   1      37.384  31.986  31.192  1.00  0.00     0.010 A 
ATOM     36  C   UNL A   1      38.537  32.252  30.445  1.00  0.00    -0.014 A 
BRANCH  36  37
ATOM     37  C   UNL A   1      39.643  31.345  30.708  1.00  0.00     0.031 A 
ATOM     38  C   UNL A   1      39.641  29.968  30.190  1.00  0.00     0.074 A 
ATOM     39  C   UNL A   1      40.794  31.914  31.141  1.00  0.00     0.049 A 
ATOM     40  N   UNL A   1      40.552  29.099  30.475  1.00  0.00    -0.248 NA
ATOM     41  C   UNL A   1      38.590  29.444  29.321  1.00  0.00     0.031 C 
ATOM     42  C   UNL A   1      42.155  31.420  30.961  1.00  0.00     0.029 A 
ATOM     43  N   UNL A   1      40.944  33.002  32.013  1.00  0.00    -0.354 N 
ATOM     44  C   UNL A   1      40.419  28.083  29.560  1.00  0.00     0.074 A 
ATOM     45  C   UNL A   1      39.105  28.253  28.996  1.00  0.00     0.031 C 
ATOM     46  C   UNL A   1      42.949  31.998  31.874  1.00  0.00     0.029 A 
ATOM     47  C   UNL A   1      42.082  32.719  32.790  1.00  0.00     0.049 A 
ATOM     48  H   UNL A   1      40.371  33.800  32.068  1.00  0.00     0.167 HD
ATOM     49  C   UNL A   1      41.513  27.332  29.258  1.00  0.00     0.034 A 
ATOM     50  C   UNL A   1      42.048  32.542  34.145  1.00  0.00     0.034 A 
ATOM     51  C   UNL A   1      42.594  27.546  30.230  1.00  0.00     0.049 A 
ATOM     52  C   UNL A   1      42.552  31.175  34.588  1.00  0.00     0.074 A 
ATOM     53  C   UNL A   1      43.828  28.170  30.174  1.00  0.00     0.029 A 
ATOM     54  N   UNL A   1      42.355  27.279  31.576  1.00  0.00    -0.354 N 
ATOM     55  N   UNL A   1      42.952  30.234  33.777  1.00  0.00    -0.248 NA
ATOM     56  C   UNL A   1      42.594  30.745  35.984  1.00  0.00     0.031 C 
ATOM     57  C   UNL A   1      44.253  28.411  31.514  1.00  0.00     0.029 A 
ATOM     58  C   UNL A   1      43.308  27.883  32.379  1.00  0.00     0.049 A 
ATOM     59  H   UNL A   1      41.607  26.733  31.911  1.00  0.00     0.167 HD
ATOM     60  C   UNL A   1      43.080  29.056  34.466  1.00  0.00     0.074 A 
ATOM     61  C   UNL A   1      42.966  29.459  35.859  1.00  0.00     0.031 C 
ATOM     62  C   UNL A   1      43.164  27.842  33.836  1.00  0.00     0.034 A 
BRANCH  49  63
ATOM     63  C   UNL A   1      41.695  26.526  27.982  1.00  0.00     0.023 A 
ATOM     64  C   UNL A   1      41.565  27.216  26.756  1.00  0.00     0.012 A 
ATOM     65  C   UNL A   1      41.871  25.121  27.887  1.00  0.00     0.148 A 
ATOM     66  C   UNL A   1      41.614  26.561  25.518  1.00  0.00     0.002 A 
ATOM     67  C   UNL A   1      42.002  24.480  26.651  1.00  0.00     0.091 A 
ATOM     68  F   UNL A   1      41.802  24.359  28.982  1.00  0.00    -0.205 F 
ATOM     69  C   UNL A   1      41.855  25.196  25.463  1.00  0.00     0.022 A 
BRANCH  67  70
ATOM     70  S   UNL A   1      42.387  22.724  26.516  1.00  0.00     0.127 S 
ATOM     71  O   UNL A   1      42.590  22.561  25.078  1.00  0.00    -0.237 OA
ATOM     72  O   UNL A   1      43.605  22.606  27.320  1.00  0.00    -0.237 OA
ATOM     73  O   UNL A   1      41.237  22.016  27.069  1.00  0.00    -0.744 OA
ENDBRANCH  67  70
ENDBRANCH  49  63
BRANCH  50  74
ATOM     74  C   UNL A   1      40.965  33.323  34.814  1.00  0.00     0.023 A 
ATOM     75  C   UNL A   1      41.209  34.701  35.021  1.00  0.00     0.012 A 
ATOM     76  C   UNL A   1      39.638  32.857  34.842  1.00  0.00     0.148 A 
ATOM     77  C   UNL A   1      40.153  35.612  35.105  1.00  0.00     0.002 A 
ATOM     78  C   UNL A   1      38.590  33.772  34.930  1.00  0.00     0.091 A 
ATOM     79  F   UNL A   1      39.416  31.545  34.691  1.00  0.00    -0.205 F 
ATOM     80  C   UNL A   1      38.845  35.150  35.020  1.00  0.00     0.022 A 
BRANCH  78  81
ATOM     81  S   UNL A   1      36.874  33.249  34.780  1.00  0.00     0.127 S 
ATOM     82  O   UNL A   1      37.027  31.841  34.430  1.00  0.00    -0.237 OA
ATOM     83  O   UNL A   1      36.350  33.499  36.122  1.00  0.00    -0.237 OA
ATOM     84  O   UNL A   1      36.314  34.116  33.753  1.00  0.00    -0.744 OA
ENDBRANCH  78  81
ENDBRANCH  50  74
BRANCH  62  85
ATOM     85  C   UNL A   1      43.053  26.498  34.536  1.00  0.00     0.023 A 
ATOM     86  C   UNL A   1      41.846  26.037  35.102  1.00  0.00     0.012 A 
ATOM     87  C   UNL A   1      44.134  25.579  34.520  1.00  0.00     0.148 A 
ATOM     88  C   UNL A   1      41.735  24.774  35.693  1.00  0.00     0.002 A 
ATOM     89  C   UNL A   1      43.985  24.282  35.012  1.00  0.00     0.091 A 
ATOM     90  F   UNL A   1      45.325  25.962  34.039  1.00  0.00    -0.205 F 
ATOM     91  C   UNL A   1      42.799  23.887  35.632  1.00  0.00     0.022 A 
BRANCH  89  92
ATOM     92  S   UNL A   1      45.255  23.038  34.725  1.00  0.00     0.127 S 
ATOM     93  O   UNL A   1      45.264  22.938  33.268  1.00  0.00    -0.237 OA
ATOM     94  O   UNL A   1      46.449  23.661  35.299  1.00  0.00    -0.237 OA
ATOM     95  O   UNL A   1      44.791  21.863  35.452  1.00  0.00    -0.744 OA
ENDBRANCH  89  92
ENDBRANCH  62  85
ENDBRANCH  36  37
ENDBRANCH  28  31
ENDBRANCH  26  27
ENDBRANCH  25  26
ENDBRANCH   1  25
TORSDOF 18
ENDMDL
