MODEL 1
REMARK VINA RESULT:     -12.1      0.000      0.000
REMARK SMILES C[C@@H](C(=O)NCCCCNC(=O)c1ccc(-c2c3nc(c(-c4cccc(S(=O)(=O)[O-])c4F)c4ccc([nH]4)c(-c4cccc(S(=O)(=O)[O-])c4F)c4nc(c(-c5cccc(S(=O)(=O)[O-])c5F)c5ccc2[nH]5)C=C4)C=C3)cc1)[C@H]1CCOC2(CCCCC2)C1
REMARK SMILES IDX 8 1 7 2 6 3 5 4 3 5 4 6 2 8 1 9 76 10 77 11 86 12 78 13
REMARK SMILES IDX 80 14 79 15 81 16 85 17 82 18 84 19 83 20 9 21 10 22 11 23
REMARK SMILES IDX 12 25 13 26 14 27 75 28 15 29 74 30 16 31 17 32 18 33 68 34
REMARK SMILES IDX 19 35 73 36 67 37 69 38 20 39 72 40 66 41 65 42 21 44 53 45
REMARK SMILES IDX 33 46 52 47 34 48 37 49 51 50 70 51 35 52 36 53 50 55 71 56
REMARK SMILES IDX 38 57 22 58 23 59 31 60 24 61 26 62 32 63 25 64 27 65 28 66
REMARK SMILES IDX 29 67 30 68 54 69 55 70 63 71 56 72 58 73 64 74 57 75 59 76
REMARK SMILES IDX 60 77 61 78 62 79 39 80 40 81 48 82 41 83 43 84 49 85 42 86
REMARK SMILES IDX 44 87 45 88 46 89 47 90
REMARK H PARENT 5 7 10 24 69 43 37 54
REMARK Flexibility Score: inf
ROOT
ATOM      1  C   UNL A   1      37.859  20.835  25.060  1.00  0.00     0.023 C 
ENDROOT
BRANCH   1   2
ATOM      2  C   UNL A   1      37.280  22.127  24.475  1.00  0.00     0.023 C 
BRANCH   2   3
ATOM      3  C   UNL A   1      36.950  23.202  25.513  1.00  0.00     0.116 C 
BRANCH   3   4
ATOM      4  N   UNL A   1      36.113  22.665  26.565  1.00  0.00    -0.356 N 
ATOM      5  C   UNL A   1      34.769  22.452  26.599  1.00  0.00     0.223 C 
ATOM      6  O   UNL A   1      34.281  22.086  27.669  1.00  0.00    -0.275 OA
ATOM      7  H   UNL A   1      36.593  22.413  27.386  1.00  0.00     0.163 HD
BRANCH   5   8
ATOM      8  C   UNL A   1      33.925  22.616  25.328  1.00  0.00     0.078 C 
ATOM      9  C   UNL A   1      32.879  23.722  25.484  1.00  0.00     0.018 C 
BRANCH   8  10
ATOM     10  C   UNL A   1      33.303  21.241  24.934  1.00  0.00     0.006 C 
ATOM     11  C   UNL A   1      32.556  21.252  23.590  1.00  0.00     0.033 C 
ATOM     12  C   UNL A   1      34.352  20.116  24.917  1.00  0.00     0.040 C 
ATOM     13  C   UNL A   1      32.018  19.874  23.241  1.00  0.00     0.161 C 
ATOM     14  C   UNL A   1      33.731  18.756  24.529  1.00  0.00     0.069 C 
ATOM     15  O   UNL A   1      33.050  18.889  23.269  1.00  0.00    -0.375 OA
ATOM     16  C   UNL A   1      32.787  18.204  25.624  1.00  0.00     0.035 C 
ATOM     17  C   UNL A   1      34.865  17.730  24.309  1.00  0.00     0.035 C 
ATOM     18  C   UNL A   1      32.225  16.831  25.256  1.00  0.00     0.003 C 
ATOM     19  C   UNL A   1      34.335  16.337  23.959  1.00  0.00     0.003 C 
ATOM     20  C   UNL A   1      33.340  15.826  24.997  1.00  0.00     0.000 C 
ENDBRANCH   8  10
ENDBRANCH   5   8
ENDBRANCH   3   4
ENDBRANCH   2   3
ENDBRANCH   1   2
BRANCH   1  21
ATOM     21  C   UNL A   1      39.149  20.998  25.859  1.00  0.00     0.116 C 
BRANCH  21  22
ATOM     22  N   UNL A   1      39.938  19.774  25.915  1.00  0.00    -0.352 N 
ATOM     23  C   UNL A   1      41.287  19.630  26.143  1.00  0.00     0.251 C 
ATOM     24  H   UNL A   1      39.439  18.939  25.770  1.00  0.00     0.163 HD
ATOM     25  O   UNL A   1      41.817  18.528  26.035  1.00  0.00    -0.269 OA
BRANCH  23  26
ATOM     26  C   UNL A   1      42.095  20.818  26.485  1.00  0.00     0.039 A 
ATOM     27  C   UNL A   1      42.563  21.635  25.454  1.00  0.00     0.014 A 
ATOM     28  C   UNL A   1      42.343  21.148  27.821  1.00  0.00     0.014 A 
ATOM     29  C   UNL A   1      43.201  22.839  25.764  1.00  0.00     0.010 A 
ATOM     30  C   UNL A   1      42.932  22.371  28.127  1.00  0.00     0.010 A 
ATOM     31  C   UNL A   1      43.347  23.238  27.103  1.00  0.00    -0.014 A 
BRANCH  31  32
ATOM     32  C   UNL A   1      43.849  24.588  27.461  1.00  0.00     0.031 A 
ATOM     33  C   UNL A   1      42.903  25.653  27.938  1.00  0.00     0.074 A 
ATOM     34  C   UNL A   1      45.141  24.891  27.217  1.00  0.00     0.049 A 
ATOM     35  N   UNL A   1      43.144  26.914  28.186  1.00  0.00    -0.248 NA
ATOM     36  C   UNL A   1      41.499  25.259  28.141  1.00  0.00     0.031 C 
ATOM     37  C   UNL A   1      46.136  23.967  26.667  1.00  0.00     0.029 A 
ATOM     38  N   UNL A   1      45.827  26.073  27.352  1.00  0.00    -0.354 N 
ATOM     39  C   UNL A   1      41.921  27.475  28.530  1.00  0.00     0.074 A 
ATOM     40  C   UNL A   1      40.935  26.419  28.452  1.00  0.00     0.031 C 
ATOM     41  C   UNL A   1      47.296  24.621  26.490  1.00  0.00     0.029 A 
ATOM     42  C   UNL A   1      47.120  26.015  26.885  1.00  0.00     0.049 A 
ATOM     43  H   UNL A   1      45.432  26.885  27.746  1.00  0.00     0.167 HD
ATOM     44  C   UNL A   1      41.651  28.748  28.899  1.00  0.00     0.034 A 
ATOM     45  C   UNL A   1      48.055  26.979  26.765  1.00  0.00     0.034 A 
ATOM     46  C   UNL A   1      42.644  29.780  29.035  1.00  0.00     0.049 A 
ATOM     47  C   UNL A   1      47.731  28.375  27.222  1.00  0.00     0.074 A 
ATOM     48  C   UNL A   1      42.489  31.058  29.543  1.00  0.00     0.029 A 
ATOM     49  N   UNL A   1      43.968  29.660  28.648  1.00  0.00    -0.354 N 
ATOM     50  N   UNL A   1      46.622  28.833  27.748  1.00  0.00    -0.248 NA
ATOM     51  C   UNL A   1      48.797  29.382  27.097  1.00  0.00     0.031 C 
ATOM     52  C   UNL A   1      43.716  31.721  29.442  1.00  0.00     0.029 A 
ATOM     53  C   UNL A   1      44.636  30.851  28.880  1.00  0.00     0.049 A 
ATOM     54  H   UNL A   1      44.374  28.850  28.264  1.00  0.00     0.167 HD
ATOM     55  C   UNL A   1      46.860  30.172  28.035  1.00  0.00     0.074 A 
ATOM     56  C   UNL A   1      48.231  30.444  27.655  1.00  0.00     0.031 C 
ATOM     57  C   UNL A   1      46.014  31.098  28.546  1.00  0.00     0.034 A 
BRANCH  44  58
ATOM     58  C   UNL A   1      40.231  29.100  29.250  1.00  0.00     0.023 A 
ATOM     59  C   UNL A   1      39.301  29.329  28.216  1.00  0.00     0.012 A 
ATOM     60  C   UNL A   1      39.794  29.097  30.589  1.00  0.00     0.148 A 
ATOM     61  C   UNL A   1      37.959  29.562  28.509  1.00  0.00     0.002 A 
ATOM     62  C   UNL A   1      38.447  29.296  30.871  1.00  0.00     0.091 A 
ATOM     63  F   UNL A   1      40.700  28.895  31.556  1.00  0.00    -0.205 F 
ATOM     64  C   UNL A   1      37.531  29.534  29.834  1.00  0.00     0.022 A 
BRANCH  62  65
ATOM     65  S   UNL A   1      37.780  29.211  32.537  1.00  0.00     0.127 S 
ATOM     66  O   UNL A   1      37.826  27.773  32.800  1.00  0.00    -0.237 OA
ATOM     67  O   UNL A   1      38.749  30.001  33.296  1.00  0.00    -0.237 OA
ATOM     68  O   UNL A   1      36.444  29.788  32.467  1.00  0.00    -0.744 OA
ENDBRANCH  62  65
ENDBRANCH  44  58
BRANCH  45  69
ATOM     69  C   UNL A   1      49.403  26.650  26.221  1.00  0.00     0.023 A 
ATOM     70  C   UNL A   1      50.273  25.840  26.975  1.00  0.00     0.012 A 
ATOM     71  C   UNL A   1      49.820  27.118  24.961  1.00  0.00     0.148 A 
ATOM     72  C   UNL A   1      51.547  25.529  26.499  1.00  0.00     0.002 A 
ATOM     73  C   UNL A   1      51.071  26.758  24.468  1.00  0.00     0.091 A 
ATOM     74  F   UNL A   1      48.991  27.907  24.264  1.00  0.00    -0.205 F 
ATOM     75  C   UNL A   1      51.942  25.979  25.242  1.00  0.00     0.022 A 
BRANCH  73  76
ATOM     76  S   UNL A   1      51.583  27.186  22.800  1.00  0.00     0.127 S 
ATOM     77  O   UNL A   1      51.781  28.628  22.905  1.00  0.00    -0.237 OA
ATOM     78  O   UNL A   1      52.811  26.405  22.640  1.00  0.00    -0.237 OA
ATOM     79  O   UNL A   1      50.489  26.746  21.944  1.00  0.00    -0.744 OA
ENDBRANCH  73  76
ENDBRANCH  45  69
BRANCH  57  80
ATOM     80  C   UNL A   1      46.537  32.496  28.734  1.00  0.00     0.023 A 
ATOM     81  C   UNL A   1      47.153  32.846  29.952  1.00  0.00     0.012 A 
ATOM     82  C   UNL A   1      46.498  33.433  27.683  1.00  0.00     0.148 A 
ATOM     83  C   UNL A   1      47.700  34.114  30.131  1.00  0.00     0.002 A 
ATOM     84  C   UNL A   1      47.086  34.682  27.853  1.00  0.00     0.091 A 
ATOM     85  F   UNL A   1      45.892  33.086  26.539  1.00  0.00    -0.205 F 
ATOM     86  C   UNL A   1      47.678  35.027  29.079  1.00  0.00     0.022 A 
BRANCH  84  87
ATOM     87  S   UNL A   1      47.184  35.888  26.525  1.00  0.00     0.127 S 
ATOM     88  O   UNL A   1      47.976  36.950  27.144  1.00  0.00    -0.237 OA
ATOM     89  O   UNL A   1      47.879  35.141  25.476  1.00  0.00    -0.237 OA
ATOM     90  O   UNL A   1      45.807  36.241  26.202  1.00  0.00    -0.744 OA
ENDBRANCH  84  87
ENDBRANCH  57  80
ENDBRANCH  31  32
ENDBRANCH  23  26
ENDBRANCH  21  22
ENDBRANCH   1  21
TORSDOF 15
ENDMDL
MODEL 2
REMARK VINA RESULT:     -12.1      6.200     11.158
REMARK SMILES C[C@@H](C(=O)NCCCCNC(=O)c1ccc(-c2c3nc(c(-c4cccc(S(=O)(=O)[O-])c4F)c4ccc([nH]4)c(-c4cccc(S(=O)(=O)[O-])c4F)c4nc(c(-c5cccc(S(=O)(=O)[O-])c5F)c5ccc2[nH]5)C=C4)C=C3)cc1)[C@H]1CCOC2(CCCCC2)C1
REMARK SMILES IDX 8 1 7 2 6 3 5 4 3 5 4 6 2 8 1 9 76 10 77 11 86 12 78 13
REMARK SMILES IDX 80 14 79 15 81 16 85 17 82 18 84 19 83 20 9 21 10 22 11 23
REMARK SMILES IDX 12 25 13 26 14 27 75 28 15 29 74 30 16 31 17 32 18 33 68 34
REMARK SMILES IDX 19 35 73 36 67 37 69 38 20 39 72 40 66 41 65 42 21 44 53 45
REMARK SMILES IDX 33 46 52 47 34 48 37 49 51 50 70 51 35 52 36 53 50 55 71 56
REMARK SMILES IDX 38 57 22 58 23 59 31 60 24 61 26 62 32 63 25 64 27 65 28 66
REMARK SMILES IDX 29 67 30 68 54 69 55 70 63 71 56 72 58 73 64 74 57 75 59 76
REMARK SMILES IDX 60 77 61 78 62 79 39 80 40 81 48 82 41 83 43 84 49 85 42 86
REMARK SMILES IDX 44 87 45 88 46 89 47 90
REMARK H PARENT 5 7 10 24 69 43 37 54
REMARK Flexibility Score: inf
ROOT
ATOM      1  C   UNL A   1      31.416  30.213  25.382  1.00  0.00     0.023 C 
ENDROOT
BRANCH   1   2
ATOM      2  C   UNL A   1      32.171  29.277  24.433  1.00  0.00     0.023 C 
BRANCH   2   3
ATOM      3  C   UNL A   1      31.363  28.817  23.218  1.00  0.00     0.116 C 
BRANCH   3   4
ATOM      4  N   UNL A   1      30.867  27.470  23.408  1.00  0.00    -0.356 N 
ATOM      5  C   UNL A   1      31.367  26.278  22.981  1.00  0.00     0.223 C 
ATOM      6  O   UNL A   1      30.684  25.273  23.182  1.00  0.00    -0.275 OA
ATOM      7  H   UNL A   1      30.034  27.406  23.929  1.00  0.00     0.163 HD
BRANCH   5   8
ATOM      8  C   UNL A   1      32.753  26.208  22.327  1.00  0.00     0.078 C 
ATOM      9  C   UNL A   1      32.687  25.590  20.928  1.00  0.00     0.018 C 
BRANCH   8  10
ATOM     10  C   UNL A   1      33.741  25.462  23.276  1.00  0.00     0.006 C 
ATOM     11  C   UNL A   1      33.652  25.905  24.746  1.00  0.00     0.033 C 
ATOM     12  C   UNL A   1      33.571  23.935  23.201  1.00  0.00     0.040 C 
ATOM     13  C   UNL A   1      34.602  25.108  25.625  1.00  0.00     0.161 C 
ATOM     14  C   UNL A   1      34.554  23.201  24.141  1.00  0.00     0.069 C 
ATOM     15  O   UNL A   1      34.393  23.704  25.480  1.00  0.00    -0.375 OA
ATOM     16  C   UNL A   1      36.022  23.316  23.669  1.00  0.00     0.035 C 
ATOM     17  C   UNL A   1      34.179  21.703  24.188  1.00  0.00     0.035 C 
ATOM     18  C   UNL A   1      36.977  22.537  24.572  1.00  0.00     0.003 C 
ATOM     19  C   UNL A   1      35.129  20.889  25.070  1.00  0.00     0.003 C 
ATOM     20  C   UNL A   1      36.587  21.067  24.656  1.00  0.00     0.000 C 
ENDBRANCH   8  10
ENDBRANCH   5   8
ENDBRANCH   3   4
ENDBRANCH   2   3
ENDBRANCH   1   2
BRANCH   1  21
ATOM     21  C   UNL A   1      32.180  30.629  26.636  1.00  0.00     0.116 C 
BRANCH  21  22
ATOM     22  N   UNL A   1      32.074  32.056  26.914  1.00  0.00    -0.352 N 
ATOM     23  C   UNL A   1      32.973  32.876  27.555  1.00  0.00     0.251 C 
ATOM     24  H   UNL A   1      31.249  32.490  26.603  1.00  0.00     0.163 HD
ATOM     25  O   UNL A   1      32.673  34.037  27.816  1.00  0.00    -0.269 OA
BRANCH  23  26
ATOM     26  C   UNL A   1      34.290  32.337  27.954  1.00  0.00     0.039 A 
ATOM     27  C   UNL A   1      35.394  33.193  27.966  1.00  0.00     0.014 A 
ATOM     28  C   UNL A   1      34.418  31.007  28.363  1.00  0.00     0.014 A 
ATOM     29  C   UNL A   1      36.611  32.739  28.479  1.00  0.00     0.010 A 
ATOM     30  C   UNL A   1      35.617  30.574  28.922  1.00  0.00     0.010 A 
ATOM     31  C   UNL A   1      36.718  31.441  29.005  1.00  0.00    -0.014 A 
BRANCH  31  32
ATOM     32  C   UNL A   1      37.937  30.992  29.724  1.00  0.00     0.031 A 
ATOM     33  C   UNL A   1      38.849  29.965  29.116  1.00  0.00     0.074 A 
ATOM     34  C   UNL A   1      38.140  31.412  30.991  1.00  0.00     0.049 A 
ATOM     35  N   UNL A   1      39.889  29.376  29.645  1.00  0.00    -0.248 NA
ATOM     36  C   UNL A   1      38.539  29.524  27.746  1.00  0.00     0.031 C 
ATOM     37  C   UNL A   1      37.272  32.339  31.723  1.00  0.00     0.029 A 
ATOM     38  N   UNL A   1      39.109  31.076  31.903  1.00  0.00    -0.354 N 
ATOM     39  C   UNL A   1      40.333  28.465  28.695  1.00  0.00     0.074 A 
ATOM     40  C   UNL A   1      39.445  28.571  27.558  1.00  0.00     0.031 C 
ATOM     41  C   UNL A   1      37.735  32.479  32.976  1.00  0.00     0.029 A 
ATOM     42  C   UNL A   1      38.911  31.632  33.146  1.00  0.00     0.049 A 
ATOM     43  H   UNL A   1      39.873  30.493  31.689  1.00  0.00     0.167 HD
ATOM     44  C   UNL A   1      41.398  27.632  28.758  1.00  0.00     0.034 A 
ATOM     45  C   UNL A   1      39.584  31.463  34.302  1.00  0.00     0.034 A 
ATOM     46  C   UNL A   1      42.315  27.573  29.864  1.00  0.00     0.049 A 
ATOM     47  C   UNL A   1      40.787  30.560  34.324  1.00  0.00     0.074 A 
ATOM     48  C   UNL A   1      43.504  26.869  29.957  1.00  0.00     0.029 A 
ATOM     49  N   UNL A   1      42.141  28.225  31.073  1.00  0.00    -0.354 N 
ATOM     50  N   UNL A   1      41.316  29.869  33.344  1.00  0.00    -0.248 NA
ATOM     51  C   UNL A   1      41.504  30.434  35.603  1.00  0.00     0.031 C 
ATOM     52  C   UNL A   1      44.037  27.078  31.232  1.00  0.00     0.029 A 
ATOM     53  C   UNL A   1      43.186  27.920  31.928  1.00  0.00     0.049 A 
ATOM     54  H   UNL A   1      41.386  28.818  31.292  1.00  0.00     0.167 HD
ATOM     55  C   UNL A   1      42.436  29.245  33.880  1.00  0.00     0.074 A 
ATOM     56  C   UNL A   1      42.530  29.664  35.263  1.00  0.00     0.031 C 
ATOM     57  C   UNL A   1      43.297  28.383  33.286  1.00  0.00     0.034 A 
BRANCH  44  58
ATOM     58  C   UNL A   1      41.683  26.752  27.572  1.00  0.00     0.023 A 
ATOM     59  C   UNL A   1      42.371  27.287  26.465  1.00  0.00     0.012 A 
ATOM     60  C   UNL A   1      41.370  25.379  27.598  1.00  0.00     0.148 A 
ATOM     61  C   UNL A   1      42.732  26.472  25.394  1.00  0.00     0.002 A 
ATOM     62  C   UNL A   1      41.765  24.565  26.542  1.00  0.00     0.091 A 
ATOM     63  F   UNL A   1      40.699  24.897  28.654  1.00  0.00    -0.205 F 
ATOM     64  C   UNL A   1      42.440  25.111  25.438  1.00  0.00     0.022 A 
BRANCH  62  65
ATOM     65  S   UNL A   1      41.499  22.789  26.532  1.00  0.00     0.127 S 
ATOM     66  O   UNL A   1      42.115  22.391  27.797  1.00  0.00    -0.237 OA
ATOM     67  O   UNL A   1      40.039  22.697  26.508  1.00  0.00    -0.237 OA
ATOM     68  O   UNL A   1      42.161  22.289  25.334  1.00  0.00    -0.744 OA
ENDBRANCH  62  65
ENDBRANCH  44  58
BRANCH  45  69
ATOM     69  C   UNL A   1      39.160  32.195  35.528  1.00  0.00     0.023 A 
ATOM     70  C   UNL A   1      39.468  33.563  35.658  1.00  0.00     0.012 A 
ATOM     71  C   UNL A   1      38.443  31.553  36.556  1.00  0.00     0.148 A 
ATOM     72  C   UNL A   1      39.098  34.270  36.802  1.00  0.00     0.002 A 
ATOM     73  C   UNL A   1      38.029  32.278  37.669  1.00  0.00     0.091 A 
ATOM     74  F   UNL A   1      38.176  30.246  36.430  1.00  0.00    -0.205 F 
ATOM     75  C   UNL A   1      38.371  33.632  37.803  1.00  0.00     0.022 A 
BRANCH  73  76
ATOM     76  S   UNL A   1      36.968  31.552  38.924  1.00  0.00     0.127 S 
ATOM     77  O   UNL A   1      36.818  30.184  38.437  1.00  0.00    -0.237 OA
ATOM     78  O   UNL A   1      37.778  31.689  40.136  1.00  0.00    -0.237 OA
ATOM     79  O   UNL A   1      35.765  32.373  38.922  1.00  0.00    -0.744 OA
ENDBRANCH  73  76
ENDBRANCH  45  69
BRANCH  57  80
ATOM     80  C   UNL A   1      44.423  27.834  34.121  1.00  0.00     0.023 A 
ATOM     81  C   UNL A   1      45.614  28.578  34.250  1.00  0.00     0.012 A 
ATOM     82  C   UNL A   1      44.275  26.633  34.841  1.00  0.00     0.148 A 
ATOM     83  C   UNL A   1      46.648  28.123  35.064  1.00  0.00     0.002 A 
ATOM     84  C   UNL A   1      45.294  26.207  35.686  1.00  0.00     0.091 A 
ATOM     85  F   UNL A   1      43.142  25.932  34.690  1.00  0.00    -0.205 F 
ATOM     86  C   UNL A   1      46.484  26.945  35.791  1.00  0.00     0.022 A 
BRANCH  84  87
ATOM     87  S   UNL A   1      45.136  24.753  36.728  1.00  0.00     0.127 S 
ATOM     88  O   UNL A   1      46.511  24.562  37.185  1.00  0.00    -0.237 OA
ATOM     89  O   UNL A   1      44.207  25.210  37.762  1.00  0.00    -0.237 OA
ATOM     90  O   UNL A   1      44.610  23.699  35.868  1.00  0.00    -0.744 OA
ENDBRANCH  84  87
ENDBRANCH  57  80
ENDBRANCH  31  32
ENDBRANCH  23  26
ENDBRANCH  21  22
ENDBRANCH   1  21
TORSDOF 15
ENDMDL
MODEL 3
REMARK VINA RESULT:     -12.1      6.628     12.466
REMARK SMILES C[C@@H](C(=O)NCCCCNC(=O)c1ccc(-c2c3nc(c(-c4cccc(S(=O)(=O)[O-])c4F)c4ccc([nH]4)c(-c4cccc(S(=O)(=O)[O-])c4F)c4nc(c(-c5cccc(S(=O)(=O)[O-])c5F)c5ccc2[nH]5)C=C4)C=C3)cc1)[C@H]1CCOC2(CCCCC2)C1
REMARK SMILES IDX 8 1 7 2 6 3 5 4 3 5 4 6 2 8 1 9 76 10 77 11 86 12 78 13
REMARK SMILES IDX 80 14 79 15 81 16 85 17 82 18 84 19 83 20 9 21 10 22 11 23
REMARK SMILES IDX 12 25 13 26 14 27 75 28 15 29 74 30 16 31 17 32 18 33 68 34
REMARK SMILES IDX 19 35 73 36 67 37 69 38 20 39 72 40 66 41 65 42 21 44 53 45
REMARK SMILES IDX 33 46 52 47 34 48 37 49 51 50 70 51 35 52 36 53 50 55 71 56
REMARK SMILES IDX 38 57 22 58 23 59 31 60 24 61 26 62 32 63 25 64 27 65 28 66
REMARK SMILES IDX 29 67 30 68 54 69 55 70 63 71 56 72 58 73 64 74 57 75 59 76
REMARK SMILES IDX 60 77 61 78 62 79 39 80 40 81 48 82 41 83 43 84 49 85 42 86
REMARK SMILES IDX 44 87 45 88 46 89 47 90
REMARK H PARENT 5 7 10 24 69 43 37 54
REMARK Flexibility Score: inf
ROOT
ATOM      1  C   UNL A   1      32.227  30.532  26.562  1.00  0.00     0.023 C 
ENDROOT
BRANCH   1   2
ATOM      2  C   UNL A   1      31.878  29.245  27.317  1.00  0.00     0.023 C 
BRANCH   2   3
ATOM      3  C   UNL A   1      32.435  27.967  26.686  1.00  0.00     0.116 C 
BRANCH   3   4
ATOM      4  N   UNL A   1      32.910  28.220  25.341  1.00  0.00    -0.356 N 
ATOM      5  C   UNL A   1      32.459  27.752  24.146  1.00  0.00     0.223 C 
ATOM      6  O   UNL A   1      33.118  28.033  23.144  1.00  0.00    -0.275 OA
ATOM      7  H   UNL A   1      33.682  28.827  25.284  1.00  0.00     0.163 HD
BRANCH   5   8
ATOM      8  C   UNL A   1      31.150  26.955  24.068  1.00  0.00     0.078 C 
ATOM      9  C   UNL A   1      31.354  25.600  23.386  1.00  0.00     0.018 C 
BRANCH   8  10
ATOM     10  C   UNL A   1      30.051  27.823  23.380  1.00  0.00     0.006 C 
ATOM     11  C   UNL A   1      28.617  27.322  23.618  1.00  0.00     0.033 C 
ATOM     12  C   UNL A   1      30.141  29.302  23.794  1.00  0.00     0.040 C 
ATOM     13  C   UNL A   1      27.593  28.236  22.965  1.00  0.00     0.161 C 
ATOM     14  C   UNL A   1      29.052  30.158  23.108  1.00  0.00     0.069 C 
ATOM     15  O   UNL A   1      27.760  29.589  23.385  1.00  0.00    -0.375 OA
ATOM     16  C   UNL A   1      29.288  30.305  21.586  1.00  0.00     0.035 C 
ATOM     17  C   UNL A   1      29.055  31.569  23.736  1.00  0.00     0.035 C 
ATOM     18  C   UNL A   1      28.239  31.203  20.929  1.00  0.00     0.003 C 
ATOM     19  C   UNL A   1      28.027  32.501  23.085  1.00  0.00     0.003 C 
ATOM     20  C   UNL A   1      28.208  32.583  21.573  1.00  0.00     0.000 C 
ENDBRANCH   8  10
ENDBRANCH   5   8
ENDBRANCH   3   4
ENDBRANCH   2   3
ENDBRANCH   1   2
BRANCH   1  21
ATOM     21  C   UNL A   1      33.228  31.448  27.259  1.00  0.00     0.116 C 
BRANCH  21  22
ATOM     22  N   UNL A   1      32.754  32.822  27.373  1.00  0.00    -0.352 N 
ATOM     23  C   UNL A   1      33.194  33.817  28.214  1.00  0.00     0.251 C 
ATOM     24  H   UNL A   1      32.021  33.070  26.766  1.00  0.00     0.163 HD
ATOM     25  O   UNL A   1      32.599  34.890  28.267  1.00  0.00    -0.269 OA
BRANCH  23  26
ATOM     26  C   UNL A   1      34.368  33.570  29.077  1.00  0.00     0.039 A 
ATOM     27  C   UNL A   1      34.205  32.805  30.234  1.00  0.00     0.014 A 
ATOM     28  C   UNL A   1      35.630  34.049  28.714  1.00  0.00     0.014 A 
ATOM     29  C   UNL A   1      35.327  32.440  30.982  1.00  0.00     0.010 A 
ATOM     30  C   UNL A   1      36.751  33.640  29.430  1.00  0.00     0.010 A 
ATOM     31  C   UNL A   1      36.613  32.815  30.557  1.00  0.00    -0.014 A 
BRANCH  31  32
ATOM     32  C   UNL A   1      37.833  32.288  31.219  1.00  0.00     0.031 A 
ATOM     33  C   UNL A   1      38.595  31.141  30.618  1.00  0.00     0.074 A 
ATOM     34  C   UNL A   1      38.170  32.758  32.438  1.00  0.00     0.049 A 
ATOM     35  N   UNL A   1      39.610  30.482  31.111  1.00  0.00    -0.248 NA
ATOM     36  C   UNL A   1      38.143  30.654  29.304  1.00  0.00     0.031 C 
ATOM     37  C   UNL A   1      37.453  33.809  33.166  1.00  0.00     0.029 A 
ATOM     38  N   UNL A   1      39.168  32.381  33.302  1.00  0.00    -0.354 N 
ATOM     39  C   UNL A   1      39.892  29.478  30.195  1.00  0.00     0.074 A 
ATOM     40  C   UNL A   1      38.936  29.606  29.117  1.00  0.00     0.031 C 
ATOM     41  C   UNL A   1      38.019  33.974  34.373  1.00  0.00     0.029 A 
ATOM     42  C   UNL A   1      39.118  33.025  34.517  1.00  0.00     0.049 A 
ATOM     43  H   UNL A   1      39.855  31.712  33.075  1.00  0.00     0.167 HD
ATOM     44  C   UNL A   1      40.874  28.547  30.238  1.00  0.00     0.034 A 
ATOM     45  C   UNL A   1      39.856  32.857  35.633  1.00  0.00     0.034 A 
ATOM     46  C   UNL A   1      41.861  28.461  31.281  1.00  0.00     0.049 A 
ATOM     47  C   UNL A   1      40.965  31.840  35.630  1.00  0.00     0.074 A 
ATOM     48  C   UNL A   1      42.981  27.647  31.338  1.00  0.00     0.029 A 
ATOM     49  N   UNL A   1      41.841  29.196  32.454  1.00  0.00    -0.354 N 
ATOM     50  N   UNL A   1      41.350  31.044  34.664  1.00  0.00    -0.248 NA
ATOM     51  C   UNL A   1      41.760  31.718  36.862  1.00  0.00     0.031 C 
ATOM     52  C   UNL A   1      43.625  27.876  32.557  1.00  0.00     0.029 A 
ATOM     53  C   UNL A   1      42.913  28.838  33.253  1.00  0.00     0.049 A 
ATOM     54  H   UNL A   1      41.166  29.874  32.685  1.00  0.00     0.167 HD
ATOM     55  C   UNL A   1      42.443  30.342  35.161  1.00  0.00     0.074 A 
ATOM     56  C   UNL A   1      42.679  30.830  36.504  1.00  0.00     0.031 C 
ATOM     57  C   UNL A   1      43.170  29.366  34.567  1.00  0.00     0.034 A 
BRANCH  44  58
ATOM     58  C   UNL A   1      40.984  27.575  29.096  1.00  0.00     0.023 A 
ATOM     59  C   UNL A   1      40.131  26.454  29.060  1.00  0.00     0.012 A 
ATOM     60  C   UNL A   1      41.846  27.827  28.011  1.00  0.00     0.148 A 
ATOM     61  C   UNL A   1      40.144  25.589  27.967  1.00  0.00     0.002 A 
ATOM     62  C   UNL A   1      41.828  26.980  26.909  1.00  0.00     0.091 A 
ATOM     63  F   UNL A   1      42.661  28.890  28.077  1.00  0.00    -0.205 F 
ATOM     64  C   UNL A   1      40.982  25.859  26.889  1.00  0.00     0.022 A 
BRANCH  62  65
ATOM     65  S   UNL A   1      42.818  27.274  25.440  1.00  0.00     0.127 S 
ATOM     66  O   UNL A   1      44.134  27.542  26.020  1.00  0.00    -0.237 OA
ATOM     67  O   UNL A   1      42.710  25.997  24.735  1.00  0.00    -0.237 OA
ATOM     68  O   UNL A   1      42.199  28.402  24.755  1.00  0.00    -0.744 OA
ENDBRANCH  62  65
ENDBRANCH  44  58
BRANCH  45  69
ATOM     69  C   UNL A   1      39.598  33.698  36.835  1.00  0.00     0.023 A 
ATOM     70  C   UNL A   1      39.987  35.051  36.828  1.00  0.00     0.012 A 
ATOM     71  C   UNL A   1      38.956  33.174  37.973  1.00  0.00     0.148 A 
ATOM     72  C   UNL A   1      39.772  35.859  37.945  1.00  0.00     0.002 A 
ATOM     73  C   UNL A   1      38.696  34.000  39.063  1.00  0.00     0.091 A 
ATOM     74  F   UNL A   1      38.612  31.879  37.975  1.00  0.00    -0.205 F 
ATOM     75  C   UNL A   1      39.118  35.337  39.058  1.00  0.00     0.022 A 
BRANCH  73  76
ATOM     76  S   UNL A   1      37.732  33.427  40.467  1.00  0.00     0.127 S 
ATOM     77  O   UNL A   1      38.605  32.404  41.035  1.00  0.00    -0.237 OA
ATOM     78  O   UNL A   1      37.603  34.643  41.273  1.00  0.00    -0.237 OA
ATOM     79  O   UNL A   1      36.476  32.960  39.897  1.00  0.00    -0.744 OA
ENDBRANCH  73  76
ENDBRANCH  45  69
BRANCH  57  80
ATOM     80  C   UNL A   1      44.297  28.756  35.356  1.00  0.00     0.023 A 
ATOM     81  C   UNL A   1      45.587  29.318  35.267  1.00  0.00     0.012 A 
ATOM     82  C   UNL A   1      44.067  27.688  36.246  1.00  0.00     0.148 A 
ATOM     83  C   UNL A   1      46.635  28.812  36.032  1.00  0.00     0.002 A 
ATOM     84  C   UNL A   1      45.108  27.217  37.038  1.00  0.00     0.091 A 
ATOM     85  F   UNL A   1      42.838  27.156  36.302  1.00  0.00    -0.205 F 
ATOM     86  C   UNL A   1      46.394  27.771  36.926  1.00  0.00     0.022 A 
BRANCH  84  87
ATOM     87  S   UNL A   1      44.870  25.941  38.280  1.00  0.00     0.127 S 
ATOM     88  O   UNL A   1      44.073  26.644  39.283  1.00  0.00    -0.237 OA
ATOM     89  O   UNL A   1      44.142  24.912  37.534  1.00  0.00    -0.237 OA
ATOM     90  O   UNL A   1      46.206  25.543  38.707  1.00  0.00    -0.744 OA
ENDBRANCH  84  87
ENDBRANCH  57  80
ENDBRANCH  31  32
ENDBRANCH  23  26
ENDBRANCH  21  22
ENDBRANCH   1  21
TORSDOF 15
ENDMDL
