MODEL 1
REMARK VINA RESULT:     -12.5      0.000      0.000
REMARK SMILES Cc1ccc(Nc2c(C)cccc2Cl)c(CC(=O)NCCCCNC(=O)c2ccc(-c3c4nc(c(-c5cccc(S(=O)(=O)[O-])c5F)c5ccc([nH]5)c(-c5cccc(S(=O)(=O)[O-])c5F)c5nc(c(-c6cccc(S(=O)(=O)[O-])c6F)c6ccc3[nH]6)C=C5)C=C4)cc2)c1
REMARK SMILES IDX 21 1 20 2 19 3 17 4 18 5 16 7 15 8 1 9 2 10 3 11 90 12 4 13
REMARK SMILES IDX 5 14 6 15 7 17 8 18 13 19 9 20 10 21 12 22 14 23 11 24 22 25
REMARK SMILES IDX 23 26 24 27 25 28 26 30 27 31 28 32 89 33 29 34 88 35 30 36
REMARK SMILES IDX 31 37 32 38 82 39 33 40 87 41 81 42 83 43 34 44 86 45 80 46
REMARK SMILES IDX 79 47 35 49 67 50 47 51 66 52 48 53 51 54 65 55 84 56 49 57
REMARK SMILES IDX 50 58 64 60 85 61 52 62 36 63 37 64 45 65 38 66 40 67 46 68
REMARK SMILES IDX 39 69 41 70 42 71 43 72 44 73 68 74 69 75 77 76 70 77 72 78
REMARK SMILES IDX 78 79 71 80 73 81 74 82 75 83 76 84 53 85 54 86 62 87 55 88
REMARK SMILES IDX 57 89 63 90 56 91 58 92 59 93 60 94 61 95
REMARK H PARENT 19 6 6 16 24 29 83 48 51 59
REMARK Flexibility Score: inf
ROOT
ATOM      1  C   UNL A   1      33.229  28.337  26.910  1.00  0.00     0.023 C 
ENDROOT
BRANCH   1   2
ATOM      2  C   UNL A   1      31.809  28.028  26.402  1.00  0.00     0.116 C 
BRANCH   2   3
ATOM      3  N   UNL A   1      31.354  26.689  26.748  1.00  0.00    -0.356 N 
ATOM      4  C   UNL A   1      31.952  25.482  26.546  1.00  0.00     0.224 C 
ATOM      5  O   UNL A   1      31.322  24.455  26.811  1.00  0.00    -0.275 OA
ATOM      6  H   UNL A   1      30.479  26.651  27.196  1.00  0.00     0.163 HD
BRANCH   4   7
ATOM      7  C   UNL A   1      33.356  25.386  25.975  1.00  0.00     0.137 C 
BRANCH   7   8
ATOM      8  C   UNL A   1      33.402  24.797  24.584  1.00  0.00    -0.015 A 
ATOM      9  C   UNL A   1      32.057  25.861  21.169  1.00  0.00     0.044 C 
ATOM     10  C   UNL A   1      32.728  25.062  22.245  1.00  0.00    -0.051 A 
ATOM     11  C   UNL A   1      33.127  23.750  22.000  1.00  0.00     0.005 A 
ATOM     12  C   UNL A   1      32.905  25.589  23.526  1.00  0.00     0.009 A 
ATOM     13  C   UNL A   1      33.680  22.977  23.025  1.00  0.00     0.026 A 
ATOM     14  C   UNL A   1      33.822  23.473  24.333  1.00  0.00     0.042 A 
BRANCH  14  15
ATOM     15  N   UNL A   1      34.398  22.679  25.353  1.00  0.00    -0.354 N 
ATOM     16  H   UNL A   1      33.932  22.698  26.219  1.00  0.00     0.167 HD
BRANCH  15  17
ATOM     17  C   UNL A   1      35.554  21.860  25.300  1.00  0.00     0.060 A 
ATOM     18  C   UNL A   1      36.854  22.394  25.443  1.00  0.00    -0.026 A 
ATOM     19  C   UNL A   1      35.421  20.484  25.009  1.00  0.00     0.064 A 
ATOM     20  C   UNL A   1      37.105  23.830  25.818  1.00  0.00     0.046 C 
ATOM     21  C   UNL A   1      37.971  21.565  25.231  1.00  0.00     0.005 A 
ATOM     22  C   UNL A   1      36.540  19.669  24.827  1.00  0.00     0.023 A 
ATOM     23  Cl  UNL A   1      33.860  19.756  24.830  1.00  0.00    -0.082 Cl
ATOM     24  C   UNL A   1      37.816  20.214  24.925  1.00  0.00     0.002 A 
ENDBRANCH  15  17
ENDBRANCH  14  15
ENDBRANCH   7   8
ENDBRANCH   4   7
ENDBRANCH   2   3
ENDBRANCH   1   2
BRANCH   1  25
ATOM     25  C   UNL A   1      33.782  29.714  26.549  1.00  0.00     0.023 C 
BRANCH  25  26
ATOM     26  C   UNL A   1      33.592  30.745  27.643  1.00  0.00     0.116 C 
BRANCH  26  27
ATOM     27  N   UNL A   1      34.635  31.755  27.690  1.00  0.00    -0.352 N 
ATOM     28  C   UNL A   1      35.945  31.648  28.122  1.00  0.00     0.251 C 
ATOM     29  H   UNL A   1      34.371  32.647  27.367  1.00  0.00     0.163 HD
ATOM     30  O   UNL A   1      36.581  32.682  28.318  1.00  0.00    -0.269 OA
BRANCH  28  31
ATOM     31  C   UNL A   1      36.611  30.318  28.174  1.00  0.00     0.039 A 
ATOM     32  C   UNL A   1      36.595  29.646  29.404  1.00  0.00     0.014 A 
ATOM     33  C   UNL A   1      37.476  29.897  27.170  1.00  0.00     0.014 A 
ATOM     34  C   UNL A   1      37.645  28.795  29.735  1.00  0.00     0.010 A 
ATOM     35  C   UNL A   1      38.570  29.143  27.523  1.00  0.00     0.010 A 
ATOM     36  C   UNL A   1      38.692  28.675  28.834  1.00  0.00    -0.014 A 
BRANCH  36  37
ATOM     37  C   UNL A   1      39.997  28.128  29.143  1.00  0.00     0.031 A 
ATOM     38  C   UNL A   1      40.286  26.726  28.823  1.00  0.00     0.074 A 
ATOM     39  C   UNL A   1      40.987  29.002  29.443  1.00  0.00     0.049 A 
ATOM     40  N   UNL A   1      41.395  26.152  29.130  1.00  0.00    -0.248 NA
ATOM     41  C   UNL A   1      39.339  25.842  28.148  1.00  0.00     0.031 C 
ATOM     42  C   UNL A   1      42.427  28.805  29.311  1.00  0.00     0.029 A 
ATOM     43  N   UNL A   1      40.879  30.208  30.146  1.00  0.00    -0.354 N 
ATOM     44  C   UNL A   1      41.451  24.994  28.396  1.00  0.00     0.074 A 
ATOM     45  C   UNL A   1      40.104  24.764  27.943  1.00  0.00     0.031 C 
ATOM     46  C   UNL A   1      43.055  29.661  30.132  1.00  0.00     0.029 A 
ATOM     47  C   UNL A   1      42.029  30.272  30.957  1.00  0.00     0.049 A 
ATOM     48  H   UNL A   1      40.154  30.871  30.085  1.00  0.00     0.167 HD
ATOM     49  C   UNL A   1      42.675  24.470  28.126  1.00  0.00     0.034 A 
ATOM     50  C   UNL A   1      41.974  30.202  32.323  1.00  0.00     0.034 A 
ATOM     51  C   UNL A   1      43.713  25.083  28.971  1.00  0.00     0.049 A 
ATOM     52  C   UNL A   1      42.727  29.003  32.900  1.00  0.00     0.074 A 
ATOM     53  C   UNL A   1      44.782  25.936  28.764  1.00  0.00     0.029 A 
ATOM     54  N   UNL A   1      43.542  25.022  30.349  1.00  0.00    -0.354 N 
ATOM     55  N   UNL A   1      43.446  28.156  32.210  1.00  0.00    -0.248 NA
ATOM     56  C   UNL A   1      42.639  28.619  34.307  1.00  0.00     0.031 C 
ATOM     57  C   UNL A   1      45.199  26.440  30.040  1.00  0.00     0.029 A 
ATOM     58  C   UNL A   1      44.424  25.850  31.023  1.00  0.00     0.049 A 
ATOM     59  H   UNL A   1      42.871  24.456  30.795  1.00  0.00     0.167 HD
ATOM     60  C   UNL A   1      43.754  27.062  32.986  1.00  0.00     0.074 A 
ATOM     61  C   UNL A   1      43.255  27.424  34.304  1.00  0.00     0.031 C 
ATOM     62  C   UNL A   1      44.320  25.917  32.479  1.00  0.00     0.034 A 
BRANCH  49  63
ATOM     63  C   UNL A   1      42.968  23.484  27.013  1.00  0.00     0.023 A 
ATOM     64  C   UNL A   1      43.563  23.991  25.839  1.00  0.00     0.012 A 
ATOM     65  C   UNL A   1      42.610  22.110  26.989  1.00  0.00     0.148 A 
ATOM     66  C   UNL A   1      43.796  23.190  24.713  1.00  0.00     0.002 A 
ATOM     67  C   UNL A   1      42.916  21.294  25.896  1.00  0.00     0.091 A 
ATOM     68  F   UNL A   1      41.868  21.590  27.972  1.00  0.00    -0.205 F 
ATOM     69  C   UNL A   1      43.495  21.835  24.748  1.00  0.00     0.022 A 
BRANCH  67  70
ATOM     70  S   UNL A   1      42.614  19.515  25.914  1.00  0.00     0.127 S 
ATOM     71  O   UNL A   1      43.725  19.005  25.111  1.00  0.00    -0.237 OA
ATOM     72  O   UNL A   1      42.695  19.192  27.338  1.00  0.00    -0.237 OA
ATOM     73  O   UNL A   1      41.287  19.329  25.337  1.00  0.00    -0.744 OA
ENDBRANCH  67  70
ENDBRANCH  49  63
BRANCH  50  74
ATOM     74  C   UNL A   1      40.712  30.791  32.879  1.00  0.00     0.023 A 
ATOM     75  C   UNL A   1      39.899  29.934  33.661  1.00  0.00     0.012 A 
ATOM     76  C   UNL A   1      40.536  32.180  33.001  1.00  0.00     0.148 A 
ATOM     77  C   UNL A   1      39.066  30.446  34.657  1.00  0.00     0.002 A 
ATOM     78  C   UNL A   1      39.684  32.685  33.983  1.00  0.00     0.091 A 
ATOM     79  F   UNL A   1      41.259  32.993  32.220  1.00  0.00    -0.205 F 
ATOM     80  C   UNL A   1      38.990  31.822  34.844  1.00  0.00     0.022 A 
BRANCH  78  81
ATOM     81  S   UNL A   1      39.533  34.455  34.263  1.00  0.00     0.127 S 
ATOM     82  O   UNL A   1      38.922  34.895  33.012  1.00  0.00    -0.237 OA
ATOM     83  O   UNL A   1      38.660  34.519  35.432  1.00  0.00    -0.237 OA
ATOM     84  O   UNL A   1      40.894  34.906  34.511  1.00  0.00    -0.744 OA
ENDBRANCH  78  81
ENDBRANCH  50  74
BRANCH  62  85
ATOM     85  C   UNL A   1      44.727  24.700  33.316  1.00  0.00     0.023 A 
ATOM     86  C   UNL A   1      43.784  23.742  33.738  1.00  0.00     0.012 A 
ATOM     87  C   UNL A   1      46.054  24.510  33.795  1.00  0.00     0.148 A 
ATOM     88  C   UNL A   1      44.152  22.592  34.450  1.00  0.00     0.002 A 
ATOM     89  C   UNL A   1      46.417  23.382  34.528  1.00  0.00     0.091 A 
ATOM     90  F   UNL A   1      46.982  25.450  33.593  1.00  0.00    -0.205 F 
ATOM     91  C   UNL A   1      45.473  22.401  34.828  1.00  0.00     0.022 A 
BRANCH  89  92
ATOM     92  S   UNL A   1      48.085  23.132  35.156  1.00  0.00     0.127 S 
ATOM     93  O   UNL A   1      48.096  24.021  36.319  1.00  0.00    -0.237 OA
ATOM     94  O   UNL A   1      48.076  21.706  35.480  1.00  0.00    -0.237 OA
ATOM     95  O   UNL A   1      48.990  23.506  34.080  1.00  0.00    -0.744 OA
ENDBRANCH  89  92
ENDBRANCH  62  85
ENDBRANCH  36  37
ENDBRANCH  28  31
ENDBRANCH  26  27
ENDBRANCH  25  26
ENDBRANCH   1  25
TORSDOF 17
ENDMDL
MODEL 2
REMARK VINA RESULT:     -12.5      2.026      2.910
REMARK SMILES Cc1ccc(Nc2c(C)cccc2Cl)c(CC(=O)NCCCCNC(=O)c2ccc(-c3c4nc(c(-c5cccc(S(=O)(=O)[O-])c5F)c5ccc([nH]5)c(-c5cccc(S(=O)(=O)[O-])c5F)c5nc(c(-c6cccc(S(=O)(=O)[O-])c6F)c6ccc3[nH]6)C=C5)C=C4)cc2)c1
REMARK SMILES IDX 21 1 20 2 19 3 17 4 18 5 16 7 15 8 1 9 2 10 3 11 90 12 4 13
REMARK SMILES IDX 5 14 6 15 7 17 8 18 13 19 9 20 10 21 12 22 14 23 11 24 22 25
REMARK SMILES IDX 23 26 24 27 25 28 26 30 27 31 28 32 89 33 29 34 88 35 30 36
REMARK SMILES IDX 31 37 32 38 82 39 33 40 87 41 81 42 83 43 34 44 86 45 80 46
REMARK SMILES IDX 79 47 35 49 67 50 47 51 66 52 48 53 51 54 65 55 84 56 49 57
REMARK SMILES IDX 50 58 64 60 85 61 52 62 36 63 37 64 45 65 38 66 40 67 46 68
REMARK SMILES IDX 39 69 41 70 42 71 43 72 44 73 68 74 69 75 77 76 70 77 72 78
REMARK SMILES IDX 78 79 71 80 73 81 74 82 75 83 76 84 53 85 54 86 62 87 55 88
REMARK SMILES IDX 57 89 63 90 56 91 58 92 59 93 60 94 61 95
REMARK H PARENT 19 6 6 16 24 29 83 48 51 59
REMARK Flexibility Score: inf
ROOT
ATOM      1  C   UNL A   1      34.044  28.500  26.713  1.00  0.00     0.023 C 
ENDROOT
BRANCH   1   2
ATOM      2  C   UNL A   1      33.070  27.398  26.261  1.00  0.00     0.116 C 
BRANCH   2   3
ATOM      3  N   UNL A   1      33.391  26.847  24.953  1.00  0.00    -0.356 N 
ATOM      4  C   UNL A   1      33.552  25.550  24.566  1.00  0.00     0.224 C 
ATOM      5  O   UNL A   1      33.950  25.317  23.421  1.00  0.00    -0.275 OA
ATOM      6  H   UNL A   1      33.510  27.512  24.239  1.00  0.00     0.163 HD
BRANCH   4   7
ATOM      7  C   UNL A   1      33.284  24.404  25.525  1.00  0.00     0.137 C 
BRANCH   7   8
ATOM      8  C   UNL A   1      34.439  23.437  25.647  1.00  0.00    -0.015 A 
ATOM      9  C   UNL A   1      38.225  23.805  26.017  1.00  0.00     0.044 C 
ATOM     10  C   UNL A   1      36.865  23.192  25.870  1.00  0.00    -0.051 A 
ATOM     11  C   UNL A   1      36.733  21.831  25.603  1.00  0.00     0.005 A 
ATOM     12  C   UNL A   1      35.713  23.978  25.929  1.00  0.00     0.009 A 
ATOM     13  C   UNL A   1      35.471  21.273  25.387  1.00  0.00     0.026 A 
ATOM     14  C   UNL A   1      34.303  22.055  25.395  1.00  0.00     0.042 A 
BRANCH  14  15
ATOM     15  N   UNL A   1      33.032  21.467  25.188  1.00  0.00    -0.354 N 
ATOM     16  H   UNL A   1      32.309  21.809  25.761  1.00  0.00     0.167 HD
BRANCH  15  17
ATOM     17  C   UNL A   1      32.657  20.454  24.270  1.00  0.00     0.060 A 
ATOM     18  C   UNL A   1      32.669  19.087  24.623  1.00  0.00    -0.026 A 
ATOM     19  C   UNL A   1      32.345  20.803  22.937  1.00  0.00     0.064 A 
ATOM     20  C   UNL A   1      32.923  18.612  26.029  1.00  0.00     0.046 C 
ATOM     21  C   UNL A   1      32.435  18.114  23.633  1.00  0.00     0.005 A 
ATOM     22  C   UNL A   1      32.091  19.825  21.972  1.00  0.00     0.023 A 
ATOM     23  Cl  UNL A   1      32.300  22.459  22.433  1.00  0.00    -0.082 Cl
ATOM     24  C   UNL A   1      32.149  18.479  22.319  1.00  0.00     0.002 A 
ENDBRANCH  15  17
ENDBRANCH  14  15
ENDBRANCH   7   8
ENDBRANCH   4   7
ENDBRANCH   2   3
ENDBRANCH   1   2
BRANCH   1  25
ATOM     25  C   UNL A   1      33.601  29.936  26.446  1.00  0.00     0.023 C 
BRANCH  25  26
ATOM     26  C   UNL A   1      33.567  30.798  27.692  1.00  0.00     0.116 C 
BRANCH  26  27
ATOM     27  N   UNL A   1      34.551  31.866  27.698  1.00  0.00    -0.352 N 
ATOM     28  C   UNL A   1      35.840  31.872  28.200  1.00  0.00     0.251 C 
ATOM     29  H   UNL A   1      34.258  32.709  27.283  1.00  0.00     0.163 HD
ATOM     30  O   UNL A   1      36.410  32.953  28.333  1.00  0.00    -0.269 OA
BRANCH  28  31
ATOM     31  C   UNL A   1      36.572  30.592  28.404  1.00  0.00     0.039 A 
ATOM     32  C   UNL A   1      36.855  30.224  29.727  1.00  0.00     0.014 A 
ATOM     33  C   UNL A   1      37.223  29.951  27.356  1.00  0.00     0.014 A 
ATOM     34  C   UNL A   1      37.995  29.476  30.003  1.00  0.00     0.010 A 
ATOM     35  C   UNL A   1      38.406  29.301  27.621  1.00  0.00     0.010 A 
ATOM     36  C   UNL A   1      38.830  29.151  28.944  1.00  0.00    -0.014 A 
BRANCH  36  37
ATOM     37  C   UNL A   1      40.198  28.695  29.075  1.00  0.00     0.031 A 
ATOM     38  C   UNL A   1      40.501  27.268  28.911  1.00  0.00     0.074 A 
ATOM     39  C   UNL A   1      41.176  29.630  29.051  1.00  0.00     0.049 A 
ATOM     40  N   UNL A   1      41.677  26.778  29.080  1.00  0.00    -0.248 NA
ATOM     41  C   UNL A   1      39.496  26.266  28.564  1.00  0.00     0.031 C 
ATOM     42  C   UNL A   1      42.575  29.456  28.676  1.00  0.00     0.029 A 
ATOM     43  N   UNL A   1      41.133  30.926  29.579  1.00  0.00    -0.354 N 
ATOM     44  C   UNL A   1      41.662  25.524  28.524  1.00  0.00     0.074 A 
ATOM     45  C   UNL A   1      40.269  25.191  28.375  1.00  0.00     0.031 C 
ATOM     46  C   UNL A   1      43.296  30.444  29.229  1.00  0.00     0.029 A 
ATOM     47  C   UNL A   1      42.408  31.145  30.138  1.00  0.00     0.049 A 
ATOM     48  H   UNL A   1      40.373  31.552  29.563  1.00  0.00     0.167 HD
ATOM     49  C   UNL A   1      42.842  24.999  28.104  1.00  0.00     0.034 A 
ATOM     50  C   UNL A   1      42.609  31.282  31.485  1.00  0.00     0.034 A 
ATOM     51  C   UNL A   1      43.982  25.762  28.638  1.00  0.00     0.049 A 
ATOM     52  C   UNL A   1      43.522  30.206  32.075  1.00  0.00     0.074 A 
ATOM     53  C   UNL A   1      44.945  26.602  28.110  1.00  0.00     0.029 A 
ATOM     54  N   UNL A   1      44.072  25.907  30.017  1.00  0.00    -0.354 N 
ATOM     55  N   UNL A   1      44.147  29.284  31.390  1.00  0.00    -0.248 NA
ATOM     56  C   UNL A   1      43.717  30.039  33.513  1.00  0.00     0.031 C 
ATOM     57  C   UNL A   1      45.563  27.306  29.196  1.00  0.00     0.029 A 
ATOM     58  C   UNL A   1      45.016  26.852  30.383  1.00  0.00     0.049 A 
ATOM     59  H   UNL A   1      43.528  25.397  30.660  1.00  0.00     0.167 HD
ATOM     60  C   UNL A   1      44.654  28.330  32.242  1.00  0.00     0.074 A 
ATOM     61  C   UNL A   1      44.387  28.875  33.565  1.00  0.00     0.031 C 
ATOM     62  C   UNL A   1      45.179  27.137  31.807  1.00  0.00     0.034 A 
BRANCH  49  63
ATOM     63  C   UNL A   1      42.979  23.863  27.110  1.00  0.00     0.023 A 
ATOM     64  C   UNL A   1      43.739  24.109  25.947  1.00  0.00     0.012 A 
ATOM     65  C   UNL A   1      42.332  22.601  27.179  1.00  0.00     0.148 A 
ATOM     66  C   UNL A   1      43.859  23.164  24.920  1.00  0.00     0.002 A 
ATOM     67  C   UNL A   1      42.517  21.630  26.191  1.00  0.00     0.091 A 
ATOM     68  F   UNL A   1      41.437  22.354  28.141  1.00  0.00    -0.205 F 
ATOM     69  C   UNL A   1      43.268  21.914  25.050  1.00  0.00     0.022 A 
BRANCH  67  70
ATOM     70  S   UNL A   1      41.834  19.966  26.341  1.00  0.00     0.127 S 
ATOM     71  O   UNL A   1      42.500  19.259  25.249  1.00  0.00    -0.237 OA
ATOM     72  O   UNL A   1      42.266  19.564  27.679  1.00  0.00    -0.237 OA
ATOM     73  O   UNL A   1      40.389  20.114  26.203  1.00  0.00    -0.744 OA
ENDBRANCH  67  70
ENDBRANCH  49  63
BRANCH  50  74
ATOM     74  C   UNL A   1      41.441  31.914  32.181  1.00  0.00     0.023 A 
ATOM     75  C   UNL A   1      41.090  33.225  31.775  1.00  0.00     0.012 A 
ATOM     76  C   UNL A   1      40.487  31.145  32.869  1.00  0.00     0.148 A 
ATOM     77  C   UNL A   1      39.777  33.686  31.895  1.00  0.00     0.002 A 
ATOM     78  C   UNL A   1      39.184  31.621  33.006  1.00  0.00     0.091 A 
ATOM     79  F   UNL A   1      40.835  29.929  33.308  1.00  0.00    -0.205 F 
ATOM     80  C   UNL A   1      38.814  32.866  32.475  1.00  0.00     0.022 A 
BRANCH  78  81
ATOM     81  S   UNL A   1      37.899  30.613  33.759  1.00  0.00     0.127 S 
ATOM     82  O   UNL A   1      36.708  31.104  33.074  1.00  0.00    -0.237 OA
ATOM     83  O   UNL A   1      38.305  29.257  33.396  1.00  0.00    -0.237 OA
ATOM     84  O   UNL A   1      37.992  30.900  35.183  1.00  0.00    -0.744 OA
ENDBRANCH  78  81
ENDBRANCH  50  74
BRANCH  62  85
ATOM     85  C   UNL A   1      45.801  26.073  32.718  1.00  0.00     0.023 A 
ATOM     86  C   UNL A   1      47.187  25.818  32.720  1.00  0.00     0.012 A 
ATOM     87  C   UNL A   1      45.016  25.217  33.542  1.00  0.00     0.148 A 
ATOM     88  C   UNL A   1      47.777  24.893  33.591  1.00  0.00     0.002 A 
ATOM     89  C   UNL A   1      45.599  24.276  34.388  1.00  0.00     0.091 A 
ATOM     90  F   UNL A   1      43.683  25.265  33.481  1.00  0.00    -0.205 F 
ATOM     91  C   UNL A   1      46.985  24.135  34.441  1.00  0.00     0.022 A 
BRANCH  89  92
ATOM     92  S   UNL A   1      44.623  23.175  35.426  1.00  0.00     0.127 S 
ATOM     93  O   UNL A   1      45.669  22.395  36.089  1.00  0.00    -0.237 OA
ATOM     94  O   UNL A   1      43.924  24.120  36.296  1.00  0.00    -0.237 OA
ATOM     95  O   UNL A   1      43.761  22.421  34.528  1.00  0.00    -0.744 OA
ENDBRANCH  89  92
ENDBRANCH  62  85
ENDBRANCH  36  37
ENDBRANCH  28  31
ENDBRANCH  26  27
ENDBRANCH  25  26
ENDBRANCH   1  25
TORSDOF 17
ENDMDL
MODEL 3
REMARK VINA RESULT:     -12.4      4.143     10.091
REMARK SMILES Cc1ccc(Nc2c(C)cccc2Cl)c(CC(=O)NCCCCNC(=O)c2ccc(-c3c4nc(c(-c5cccc(S(=O)(=O)[O-])c5F)c5ccc([nH]5)c(-c5cccc(S(=O)(=O)[O-])c5F)c5nc(c(-c6cccc(S(=O)(=O)[O-])c6F)c6ccc3[nH]6)C=C5)C=C4)cc2)c1
REMARK SMILES IDX 21 1 20 2 19 3 17 4 18 5 16 7 15 8 1 9 2 10 3 11 90 12 4 13
REMARK SMILES IDX 5 14 6 15 7 17 8 18 13 19 9 20 10 21 12 22 14 23 11 24 22 25
REMARK SMILES IDX 23 26 24 27 25 28 26 30 27 31 28 32 89 33 29 34 88 35 30 36
REMARK SMILES IDX 31 37 32 38 82 39 33 40 87 41 81 42 83 43 34 44 86 45 80 46
REMARK SMILES IDX 79 47 35 49 67 50 47 51 66 52 48 53 51 54 65 55 84 56 49 57
REMARK SMILES IDX 50 58 64 60 85 61 52 62 36 63 37 64 45 65 38 66 40 67 46 68
REMARK SMILES IDX 39 69 41 70 42 71 43 72 44 73 68 74 69 75 77 76 70 77 72 78
REMARK SMILES IDX 78 79 71 80 73 81 74 82 75 83 76 84 53 85 54 86 62 87 55 88
REMARK SMILES IDX 57 89 63 90 56 91 58 92 59 93 60 94 61 95
REMARK H PARENT 19 6 6 16 24 29 83 48 51 59
REMARK Flexibility Score: inf
ROOT
ATOM      1  C   UNL A   1      36.722  21.420  24.346  1.00  0.00     0.023 C 
ENDROOT
BRANCH   1   2
ATOM      2  C   UNL A   1      35.499  22.286  24.696  1.00  0.00     0.116 C 
BRANCH   2   3
ATOM      3  N   UNL A   1      35.065  23.139  23.599  1.00  0.00    -0.356 N 
ATOM      4  C   UNL A   1      34.496  24.377  23.626  1.00  0.00     0.224 C 
ATOM      5  O   UNL A   1      34.089  24.867  22.569  1.00  0.00    -0.275 OA
ATOM      6  H   UNL A   1      35.204  22.764  22.701  1.00  0.00     0.163 HD
BRANCH   4   7
ATOM      7  C   UNL A   1      34.327  25.136  24.929  1.00  0.00     0.137 C 
BRANCH   7   8
ATOM      8  C   UNL A   1      32.895  25.193  25.413  1.00  0.00    -0.015 A 
ATOM      9  C   UNL A   1      30.336  22.592  26.546  1.00  0.00     0.044 C 
ATOM     10  C   UNL A   1      30.961  23.904  26.182  1.00  0.00    -0.051 A 
ATOM     11  C   UNL A   1      30.173  25.047  26.057  1.00  0.00     0.005 A 
ATOM     12  C   UNL A   1      32.324  23.996  25.897  1.00  0.00     0.009 A 
ATOM     13  C   UNL A   1      30.741  26.254  25.641  1.00  0.00     0.026 A 
ATOM     14  C   UNL A   1      32.102  26.356  25.303  1.00  0.00     0.042 A 
BRANCH  14  15
ATOM     15  N   UNL A   1      32.660  27.591  24.898  1.00  0.00    -0.354 N 
ATOM     16  H   UNL A   1      33.275  27.546  24.131  1.00  0.00     0.167 HD
BRANCH  15  17
ATOM     17  C   UNL A   1      32.456  28.883  25.443  1.00  0.00     0.060 A 
ATOM     18  C   UNL A   1      33.230  29.369  26.520  1.00  0.00    -0.026 A 
ATOM     19  C   UNL A   1      31.396  29.683  24.962  1.00  0.00     0.064 A 
ATOM     20  C   UNL A   1      34.423  28.627  27.063  1.00  0.00     0.046 C 
ATOM     21  C   UNL A   1      32.888  30.594  27.122  1.00  0.00     0.005 A 
ATOM     22  C   UNL A   1      31.086  30.909  25.556  1.00  0.00     0.023 A 
ATOM     23  Cl  UNL A   1      30.411  29.160  23.638  1.00  0.00    -0.082 Cl
ATOM     24  C   UNL A   1      31.825  31.358  26.645  1.00  0.00     0.002 A 
ENDBRANCH  15  17
ENDBRANCH  14  15
ENDBRANCH   7   8
ENDBRANCH   4   7
ENDBRANCH   2   3
ENDBRANCH   1   2
BRANCH   1  25
ATOM     25  C   UNL A   1      37.776  21.279  25.441  1.00  0.00     0.023 C 
BRANCH  25  26
ATOM     26  C   UNL A   1      38.442  22.590  25.809  1.00  0.00     0.116 C 
BRANCH  26  27
ATOM     27  N   UNL A   1      39.489  22.461  26.807  1.00  0.00    -0.352 N 
ATOM     28  C   UNL A   1      40.217  23.446  27.450  1.00  0.00     0.251 C 
ATOM     29  H   UNL A   1      39.714  21.537  27.063  1.00  0.00     0.163 HD
ATOM     30  O   UNL A   1      41.229  23.115  28.066  1.00  0.00    -0.269 OA
BRANCH  28  31
ATOM     31  C   UNL A   1      39.688  24.834  27.538  1.00  0.00     0.039 A 
ATOM     32  C   UNL A   1      40.287  25.797  26.714  1.00  0.00     0.014 A 
ATOM     33  C   UNL A   1      38.875  25.238  28.590  1.00  0.00     0.014 A 
ATOM     34  C   UNL A   1      40.341  27.122  27.134  1.00  0.00     0.010 A 
ATOM     35  C   UNL A   1      39.011  26.520  29.067  1.00  0.00     0.010 A 
ATOM     36  C   UNL A   1      39.822  27.429  28.382  1.00  0.00    -0.014 A 
BRANCH  36  37
ATOM     37  C   UNL A   1      40.092  28.646  29.118  1.00  0.00     0.031 A 
ATOM     38  C   UNL A   1      39.205  29.803  28.949  1.00  0.00     0.074 A 
ATOM     39  C   UNL A   1      40.971  28.576  30.146  1.00  0.00     0.049 A 
ATOM     40  N   UNL A   1      39.418  30.938  29.514  1.00  0.00    -0.248 NA
ATOM     41  C   UNL A   1      38.010  29.786  28.109  1.00  0.00     0.031 C 
ATOM     42  C   UNL A   1      41.060  29.449  31.311  1.00  0.00     0.029 A 
ATOM     43  N   UNL A   1      42.127  27.791  30.230  1.00  0.00    -0.354 N 
ATOM     44  C   UNL A   1      38.248  31.648  29.420  1.00  0.00     0.074 A 
ATOM     45  C   UNL A   1      37.475  30.975  28.410  1.00  0.00     0.031 C 
ATOM     46  C   UNL A   1      42.300  29.366  31.818  1.00  0.00     0.029 A 
ATOM     47  C   UNL A   1      43.086  28.605  30.865  1.00  0.00     0.049 A 
ATOM     48  H   UNL A   1      42.245  26.866  29.912  1.00  0.00     0.167 HD
ATOM     49  C   UNL A   1      38.018  32.622  30.339  1.00  0.00     0.034 A 
ATOM     50  C   UNL A   1      44.205  29.062  30.225  1.00  0.00     0.034 A 
ATOM     51  C   UNL A   1      39.247  32.954  31.079  1.00  0.00     0.049 A 
ATOM     52  C   UNL A   1      44.277  30.589  30.144  1.00  0.00     0.074 A 
ATOM     53  C   UNL A   1      39.700  32.781  32.374  1.00  0.00     0.029 A 
ATOM     54  N   UNL A   1      40.357  33.348  30.342  1.00  0.00    -0.354 N 
ATOM     55  N   UNL A   1      43.429  31.417  30.696  1.00  0.00    -0.248 NA
ATOM     56  C   UNL A   1      45.275  31.290  29.339  1.00  0.00     0.031 C 
ATOM     57  C   UNL A   1      41.116  33.008  32.382  1.00  0.00     0.029 A 
ATOM     58  C   UNL A   1      41.511  33.375  31.108  1.00  0.00     0.049 A 
ATOM     59  H   UNL A   1      40.328  33.581  29.386  1.00  0.00     0.167 HD
ATOM     60  C   UNL A   1      43.629  32.687  30.207  1.00  0.00     0.074 A 
ATOM     61  C   UNL A   1      44.825  32.555  29.387  1.00  0.00     0.031 C 
ATOM     62  C   UNL A   1      42.763  33.728  30.443  1.00  0.00     0.034 A 
BRANCH  49  63
ATOM     63  C   UNL A   1      36.656  33.201  30.663  1.00  0.00     0.023 A 
ATOM     64  C   UNL A   1      36.183  33.045  31.983  1.00  0.00     0.012 A 
ATOM     65  C   UNL A   1      35.755  33.800  29.743  1.00  0.00     0.148 A 
ATOM     66  C   UNL A   1      34.903  33.460  32.373  1.00  0.00     0.002 A 
ATOM     67  C   UNL A   1      34.509  34.286  30.151  1.00  0.00     0.091 A 
ATOM     68  F   UNL A   1      36.035  33.811  28.436  1.00  0.00    -0.205 F 
ATOM     69  C   UNL A   1      34.073  34.103  31.464  1.00  0.00     0.022 A 
BRANCH  67  70
ATOM     70  S   UNL A   1      33.421  35.192  29.033  1.00  0.00     0.127 S 
ATOM     71  O   UNL A   1      32.506  35.855  29.963  1.00  0.00    -0.237 OA
ATOM     72  O   UNL A   1      34.347  36.093  28.347  1.00  0.00    -0.237 OA
ATOM     73  O   UNL A   1      32.814  34.189  28.166  1.00  0.00    -0.744 OA
ENDBRANCH  67  70
ENDBRANCH  49  63
BRANCH  50  74
ATOM     74  C   UNL A   1      44.703  28.109  29.181  1.00  0.00     0.023 A 
ATOM     75  C   UNL A   1      45.135  26.837  29.633  1.00  0.00     0.012 A 
ATOM     76  C   UNL A   1      44.378  28.265  27.822  1.00  0.00     0.148 A 
ATOM     77  C   UNL A   1      45.074  25.720  28.797  1.00  0.00     0.002 A 
ATOM     78  C   UNL A   1      44.342  27.148  26.988  1.00  0.00     0.091 A 
ATOM     79  F   UNL A   1      44.029  29.478  27.378  1.00  0.00    -0.205 F 
ATOM     80  C   UNL A   1      44.638  25.870  27.485  1.00  0.00     0.022 A 
BRANCH  78  81
ATOM     81  S   UNL A   1      43.801  27.282  25.278  1.00  0.00     0.127 S 
ATOM     82  O   UNL A   1      45.036  27.685  24.614  1.00  0.00    -0.237 OA
ATOM     83  O   UNL A   1      43.354  25.924  24.979  1.00  0.00    -0.237 OA
ATOM     84  O   UNL A   1      42.730  28.268  25.306  1.00  0.00    -0.744 OA
ENDBRANCH  78  81
ENDBRANCH  50  74
BRANCH  62  85
ATOM     85  C   UNL A   1      42.976  35.167  29.962  1.00  0.00     0.023 A 
ATOM     86  C   UNL A   1      42.671  35.560  28.643  1.00  0.00     0.012 A 
ATOM     87  C   UNL A   1      43.576  36.166  30.779  1.00  0.00     0.148 A 
ATOM     88  C   UNL A   1      42.802  36.886  28.208  1.00  0.00     0.002 A 
ATOM     89  C   UNL A   1      43.734  37.479  30.339  1.00  0.00     0.091 A 
ATOM     90  F   UNL A   1      44.056  35.848  31.985  1.00  0.00    -0.205 F 
ATOM     91  C   UNL A   1      43.314  37.851  29.063  1.00  0.00     0.022 A 
BRANCH  89  92
ATOM     92  S   UNL A   1      44.505  38.752  31.352  1.00  0.00     0.127 S 
ATOM     93  O   UNL A   1      45.719  38.071  31.803  1.00  0.00    -0.237 OA
ATOM     94  O   UNL A   1      44.732  39.818  30.376  1.00  0.00    -0.237 OA
ATOM     95  O   UNL A   1      43.549  39.078  32.399  1.00  0.00    -0.744 OA
ENDBRANCH  89  92
ENDBRANCH  62  85
ENDBRANCH  36  37
ENDBRANCH  28  31
ENDBRANCH  26  27
ENDBRANCH  25  26
ENDBRANCH   1  25
TORSDOF 17
ENDMDL
