MODEL 1
REMARK VINA RESULT:     -12.9      0.000      0.000
REMARK SMILES Cc1ccc(NC(=O)C[C@H]2SC[C@H](C(=O)NCCCCNC(=O)c3ccc(-c4c5nc(c(-c6cccc(S(=O)(=O)[O-])c6F)c6ccc([nH]6)c(-c6cccc(S(=O)(=O)[O-])c6F)c6nc(c(-c7cccc(S(=O)(=O)[O-])c7F)c7ccc4[nH]7)C=C6)C=C5)cc3)NC2=O)cc1
REMARK SMILES IDX 18 1 17 2 16 3 14 4 15 5 13 7 10 8 11 9 88 10 12 11 87 12
REMARK SMILES IDX 89 13 9 15 7 16 6 17 8 19 5 20 1 21 2 22 3 23 91 24 4 25
REMARK SMILES IDX 90 26 19 27 20 28 21 29 22 30 23 32 24 33 25 34 86 35 26 36
REMARK SMILES IDX 85 37 27 38 28 39 29 40 79 41 30 42 84 43 78 44 80 45 31 46
REMARK SMILES IDX 83 47 77 48 76 49 32 51 64 52 44 53 63 54 45 55 48 56 62 57
REMARK SMILES IDX 81 58 46 59 47 60 61 62 82 63 49 64 33 65 34 66 42 67 35 68
REMARK SMILES IDX 37 69 43 70 36 71 38 72 39 73 40 74 41 75 65 76 66 77 74 78
REMARK SMILES IDX 67 79 69 80 75 81 68 82 70 83 71 84 72 85 73 86 50 87 51 88
REMARK SMILES IDX 59 89 52 90 54 91 60 92 53 93 55 94 56 95 57 96 58 97
REMARK H PARENT 16 6 87 14 6 18 21 31 80 50 48 61
REMARK Flexibility Score: inf
ROOT
ATOM      1  C   UNL A   1      35.763  21.777  25.614  1.00  0.00     0.023 C 
ENDROOT
BRANCH   1   2
ATOM      2  C   UNL A   1      34.602  21.457  26.572  1.00  0.00     0.116 C 
BRANCH   2   3
ATOM      3  N   UNL A   1      33.830  20.300  26.160  1.00  0.00    -0.354 N 
ATOM      4  C   UNL A   1      32.745  20.178  25.349  1.00  0.00     0.243 C 
ATOM      5  O   UNL A   1      32.251  19.051  25.236  1.00  0.00    -0.273 OA
ATOM      6  H   UNL A   1      34.148  19.449  26.538  1.00  0.00     0.163 HD
BRANCH   4   7
ATOM      7  C   UNL A   1      32.147  21.361  24.567  1.00  0.00     0.181 C 
ATOM      8  C   UNL A   1      32.236  24.183  23.464  1.00  0.00     0.145 C 
ATOM      9  S   UNL A   1      30.758  23.767  24.502  1.00  0.00    -0.145 SA
ATOM     10  C   UNL A   1      32.700  22.914  22.735  1.00  0.00     0.234 C 
ATOM     11  C   UNL A   1      31.526  22.420  25.468  1.00  0.00     0.105 C 
ATOM     12  N   UNL A   1      33.068  21.858  23.547  1.00  0.00    -0.343 N 
ATOM     13  O   UNL A   1      32.806  22.792  21.520  1.00  0.00    -0.274 OA
ATOM     14  H   UNL A   1      33.953  21.442  23.438  1.00  0.00     0.164 HD
BRANCH   8  15
ATOM     15  C   UNL A   1      31.978  25.471  22.664  1.00  0.00     0.124 C 
BRANCH  15  16
ATOM     16  C   UNL A   1      33.137  26.259  22.066  1.00  0.00     0.226 C 
ATOM     17  N   UNL A   1      33.750  27.300  22.709  1.00  0.00    -0.326 N 
ATOM     18  H   UNL A   1      34.402  27.810  22.175  1.00  0.00     0.169 HD
ATOM     19  O   UNL A   1      33.540  25.970  20.933  1.00  0.00    -0.275 OA
BRANCH  17  20
ATOM     20  C   UNL A   1      33.569  27.733  24.025  1.00  0.00     0.041 A 
ATOM     21  C   UNL A   1      31.527  28.119  27.697  1.00  0.00     0.044 C 
ATOM     22  C   UNL A   1      32.406  28.071  26.496  1.00  0.00    -0.051 A 
ATOM     23  C   UNL A   1      32.389  29.123  25.581  1.00  0.00     0.005 A 
ATOM     24  C   UNL A   1      33.227  26.965  26.274  1.00  0.00     0.005 A 
ATOM     25  C   UNL A   1      32.984  28.956  24.339  1.00  0.00     0.026 A 
ATOM     26  C   UNL A   1      33.828  26.802  25.032  1.00  0.00     0.026 A 
ENDBRANCH  17  20
ENDBRANCH  15  16
ENDBRANCH   8  15
ENDBRANCH   4   7
ENDBRANCH   2   3
ENDBRANCH   1   2
BRANCH   1  27
ATOM     27  C   UNL A   1      36.501  23.113  25.814  1.00  0.00     0.023 C 
BRANCH  27  28
ATOM     28  C   UNL A   1      37.991  23.074  25.543  1.00  0.00     0.116 C 
BRANCH  28  29
ATOM     29  N   UNL A   1      38.764  22.732  26.739  1.00  0.00    -0.352 N 
ATOM     30  C   UNL A   1      39.829  23.428  27.294  1.00  0.00     0.251 C 
ATOM     31  H   UNL A   1      38.495  21.909  27.206  1.00  0.00     0.163 HD
ATOM     32  O   UNL A   1      40.818  22.789  27.650  1.00  0.00    -0.269 OA
BRANCH  30  33
ATOM     33  C   UNL A   1      39.736  24.889  27.476  1.00  0.00     0.039 A 
ATOM     34  C   UNL A   1      40.295  25.813  26.587  1.00  0.00     0.014 A 
ATOM     35  C   UNL A   1      39.237  25.351  28.681  1.00  0.00     0.014 A 
ATOM     36  C   UNL A   1      40.496  27.117  27.036  1.00  0.00     0.010 A 
ATOM     37  C   UNL A   1      39.045  26.658  28.924  1.00  0.00     0.010 A 
ATOM     38  C   UNL A   1      39.925  27.476  28.253  1.00  0.00    -0.014 A 
BRANCH  38  39
ATOM     39  C   UNL A   1      40.187  28.651  29.040  1.00  0.00     0.031 A 
ATOM     40  C   UNL A   1      39.208  29.725  28.934  1.00  0.00     0.074 A 
ATOM     41  C   UNL A   1      41.076  28.477  30.052  1.00  0.00     0.049 A 
ATOM     42  N   UNL A   1      39.419  30.935  29.291  1.00  0.00    -0.248 NA
ATOM     43  C   UNL A   1      37.886  29.501  28.348  1.00  0.00     0.031 C 
ATOM     44  C   UNL A   1      41.156  29.188  31.317  1.00  0.00     0.029 A 
ATOM     45  N   UNL A   1      42.149  27.571  30.137  1.00  0.00    -0.354 N 
ATOM     46  C   UNL A   1      38.179  31.534  29.330  1.00  0.00     0.074 A 
ATOM     47  C   UNL A   1      37.320  30.693  28.535  1.00  0.00     0.031 C 
ATOM     48  C   UNL A   1      42.366  28.957  31.859  1.00  0.00     0.029 A 
ATOM     49  C   UNL A   1      43.142  28.229  30.861  1.00  0.00     0.049 A 
ATOM     50  H   UNL A   1      42.191  26.662  29.763  1.00  0.00     0.167 HD
ATOM     51  C   UNL A   1      37.964  32.513  30.251  1.00  0.00     0.034 A 
ATOM     52  C   UNL A   1      44.344  28.625  30.340  1.00  0.00     0.034 A 
ATOM     53  C   UNL A   1      39.188  32.700  31.062  1.00  0.00     0.049 A 
ATOM     54  C   UNL A   1      44.432  30.133  30.399  1.00  0.00     0.074 A 
ATOM     55  C   UNL A   1      39.550  32.242  32.321  1.00  0.00     0.029 A 
ATOM     56  N   UNL A   1      40.371  33.107  30.446  1.00  0.00    -0.354 N 
ATOM     57  N   UNL A   1      43.376  30.894  30.504  1.00  0.00    -0.248 NA
ATOM     58  C   UNL A   1      45.673  30.897  30.445  1.00  0.00     0.031 C 
ATOM     59  C   UNL A   1      40.970  32.315  32.426  1.00  0.00     0.029 A 
ATOM     60  C   UNL A   1      41.475  32.823  31.239  1.00  0.00     0.049 A 
ATOM     61  H   UNL A   1      40.418  33.540  29.564  1.00  0.00     0.167 HD
ATOM     62  C   UNL A   1      43.741  32.193  30.665  1.00  0.00     0.074 A 
ATOM     63  C   UNL A   1      45.197  32.145  30.625  1.00  0.00     0.031 C 
ATOM     64  C   UNL A   1      42.821  33.196  30.805  1.00  0.00     0.034 A 
BRANCH  51  65
ATOM     65  C   UNL A   1      36.597  33.038  30.667  1.00  0.00     0.023 A 
ATOM     66  C   UNL A   1      36.127  32.653  31.943  1.00  0.00     0.012 A 
ATOM     67  C   UNL A   1      35.728  33.874  29.921  1.00  0.00     0.148 A 
ATOM     68  C   UNL A   1      34.863  33.010  32.423  1.00  0.00     0.002 A 
ATOM     69  C   UNL A   1      34.442  34.191  30.377  1.00  0.00     0.091 A 
ATOM     70  F   UNL A   1      36.155  34.454  28.799  1.00  0.00    -0.205 F 
ATOM     71  C   UNL A   1      34.008  33.759  31.631  1.00  0.00     0.022 A 
BRANCH  69  72
ATOM     72  S   UNL A   1      33.262  35.139  29.394  1.00  0.00     0.127 S 
ATOM     73  O   UNL A   1      32.875  34.175  28.362  1.00  0.00    -0.237 OA
ATOM     74  O   UNL A   1      32.214  35.439  30.367  1.00  0.00    -0.237 OA
ATOM     75  O   UNL A   1      33.990  36.294  28.883  1.00  0.00    -0.744 OA
ENDBRANCH  69  72
ENDBRANCH  51  65
BRANCH  52  76
ATOM     76  C   UNL A   1      44.893  27.718  29.283  1.00  0.00     0.023 A 
ATOM     77  C   UNL A   1      45.103  26.371  29.666  1.00  0.00     0.012 A 
ATOM     78  C   UNL A   1      44.710  28.002  27.921  1.00  0.00     0.148 A 
ATOM     79  C   UNL A   1      44.824  25.323  28.786  1.00  0.00     0.002 A 
ATOM     80  C   UNL A   1      44.484  26.949  27.033  1.00  0.00     0.091 A 
ATOM     81  F   UNL A   1      44.687  29.281  27.533  1.00  0.00    -0.205 F 
ATOM     82  C   UNL A   1      44.456  25.618  27.482  1.00  0.00     0.022 A 
BRANCH  80  83
ATOM     83  S   UNL A   1      44.106  27.241  25.303  1.00  0.00     0.127 S 
ATOM     84  O   UNL A   1      43.516  25.955  24.919  1.00  0.00    -0.237 OA
ATOM     85  O   UNL A   1      43.142  28.342  25.384  1.00  0.00    -0.237 OA
ATOM     86  O   UNL A   1      45.366  27.582  24.687  1.00  0.00    -0.744 OA
ENDBRANCH  80  83
ENDBRANCH  52  76
BRANCH  64  87
ATOM     87  C   UNL A   1      43.130  34.652  30.549  1.00  0.00     0.023 A 
ATOM     88  C   UNL A   1      43.656  35.484  31.556  1.00  0.00     0.012 A 
ATOM     89  C   UNL A   1      43.093  35.183  29.236  1.00  0.00     0.148 A 
ATOM     90  C   UNL A   1      44.051  36.796  31.298  1.00  0.00     0.002 A 
ATOM     91  C   UNL A   1      43.627  36.433  28.959  1.00  0.00     0.091 A 
ATOM     92  F   UNL A   1      42.528  34.485  28.240  1.00  0.00    -0.205 F 
ATOM     93  C   UNL A   1      44.065  37.262  29.994  1.00  0.00     0.022 A 
BRANCH  91  94
ATOM     94  S   UNL A   1      43.954  36.950  27.271  1.00  0.00     0.127 S 
ATOM     95  O   UNL A   1      44.658  35.788  26.734  1.00  0.00    -0.237 OA
ATOM     96  O   UNL A   1      42.601  37.143  26.744  1.00  0.00    -0.237 OA
ATOM     97  O   UNL A   1      44.732  38.176  27.384  1.00  0.00    -0.744 OA
ENDBRANCH  91  94
ENDBRANCH  64  87
ENDBRANCH  38  39
ENDBRANCH  30  33
ENDBRANCH  28  29
ENDBRANCH  27  28
ENDBRANCH   1  27
TORSDOF 17
ENDMDL
MODEL 2
REMARK VINA RESULT:     -12.3      1.754      2.048
REMARK SMILES Cc1ccc(NC(=O)C[C@H]2SC[C@H](C(=O)NCCCCNC(=O)c3ccc(-c4c5nc(c(-c6cccc(S(=O)(=O)[O-])c6F)c6ccc([nH]6)c(-c6cccc(S(=O)(=O)[O-])c6F)c6nc(c(-c7cccc(S(=O)(=O)[O-])c7F)c7ccc4[nH]7)C=C6)C=C5)cc3)NC2=O)cc1
REMARK SMILES IDX 18 1 17 2 16 3 14 4 15 5 13 7 10 8 11 9 88 10 12 11 87 12
REMARK SMILES IDX 89 13 9 15 7 16 6 17 8 19 5 20 1 21 2 22 3 23 91 24 4 25
REMARK SMILES IDX 90 26 19 27 20 28 21 29 22 30 23 32 24 33 25 34 86 35 26 36
REMARK SMILES IDX 85 37 27 38 28 39 29 40 79 41 30 42 84 43 78 44 80 45 31 46
REMARK SMILES IDX 83 47 77 48 76 49 32 51 64 52 44 53 63 54 45 55 48 56 62 57
REMARK SMILES IDX 81 58 46 59 47 60 61 62 82 63 49 64 33 65 34 66 42 67 35 68
REMARK SMILES IDX 37 69 43 70 36 71 38 72 39 73 40 74 41 75 65 76 66 77 74 78
REMARK SMILES IDX 67 79 69 80 75 81 68 82 70 83 71 84 72 85 73 86 50 87 51 88
REMARK SMILES IDX 59 89 52 90 54 91 60 92 53 93 55 94 56 95 57 96 58 97
REMARK H PARENT 16 6 87 14 6 18 21 31 80 50 48 61
REMARK Flexibility Score: inf
ROOT
ATOM      1  C   UNL A   1      35.573  22.970  25.715  1.00  0.00     0.023 C 
ENDROOT
BRANCH   1   2
ATOM      2  C   UNL A   1      34.775  22.220  26.797  1.00  0.00     0.116 C 
BRANCH   2   3
ATOM      3  N   UNL A   1      34.139  21.015  26.299  1.00  0.00    -0.354 N 
ATOM      4  C   UNL A   1      32.886  20.783  25.824  1.00  0.00     0.243 C 
ATOM      5  O   UNL A   1      32.603  19.617  25.531  1.00  0.00    -0.273 OA
ATOM      6  H   UNL A   1      34.720  20.221  26.308  1.00  0.00     0.163 HD
BRANCH   4   7
ATOM      7  C   UNL A   1      31.848  21.900  25.619  1.00  0.00     0.181 C 
ATOM      8  C   UNL A   1      31.053  24.761  25.009  1.00  0.00     0.145 C 
ATOM      9  S   UNL A   1      30.388  24.057  26.590  1.00  0.00    -0.145 SA
ATOM     10  C   UNL A   1      31.196  23.626  23.985  1.00  0.00     0.234 C 
ATOM     11  C   UNL A   1      31.684  22.794  26.843  1.00  0.00     0.105 C 
ATOM     12  N   UNL A   1      32.042  22.596  24.349  1.00  0.00    -0.343 N 
ATOM     13  O   UNL A   1      30.663  23.593  22.883  1.00  0.00    -0.274 OA
ATOM     14  H   UNL A   1      32.777  22.331  23.750  1.00  0.00     0.164 HD
BRANCH   8  15
ATOM     15  C   UNL A   1      30.282  26.037  24.631  1.00  0.00     0.124 C 
BRANCH  15  16
ATOM     16  C   UNL A   1      30.859  27.021  23.621  1.00  0.00     0.226 C 
ATOM     17  N   UNL A   1      31.695  28.049  23.965  1.00  0.00    -0.326 N 
ATOM     18  H   UNL A   1      31.903  28.691  23.247  1.00  0.00     0.169 HD
ATOM     19  O   UNL A   1      30.546  26.914  22.429  1.00  0.00    -0.275 OA
BRANCH  17  20
ATOM     20  C   UNL A   1      32.290  28.305  25.203  1.00  0.00     0.041 A 
ATOM     21  C   UNL A   1      34.577  30.501  27.985  1.00  0.00     0.044 C 
ATOM     22  C   UNL A   1      33.720  29.605  27.161  1.00  0.00    -0.051 A 
ATOM     23  C   UNL A   1      34.285  28.505  26.515  1.00  0.00     0.005 A 
ATOM     24  C   UNL A   1      32.360  29.878  27.014  1.00  0.00     0.005 A 
ATOM     25  C   UNL A   1      33.560  27.844  25.535  1.00  0.00     0.026 A 
ATOM     26  C   UNL A   1      31.633  29.211  26.037  1.00  0.00     0.026 A 
ENDBRANCH  17  20
ENDBRANCH  15  16
ENDBRANCH   8  15
ENDBRANCH   4   7
ENDBRANCH   2   3
ENDBRANCH   1   2
BRANCH   1  27
ATOM     27  C   UNL A   1      37.011  23.395  26.060  1.00  0.00     0.023 C 
BRANCH  27  28
ATOM     28  C   UNL A   1      38.097  22.471  25.548  1.00  0.00     0.116 C 
BRANCH  28  29
ATOM     29  N   UNL A   1      39.076  22.138  26.585  1.00  0.00    -0.352 N 
ATOM     30  C   UNL A   1      40.202  22.858  26.957  1.00  0.00     0.251 C 
ATOM     31  H   UNL A   1      38.917  21.301  27.077  1.00  0.00     0.163 HD
ATOM     32  O   UNL A   1      41.256  22.246  27.124  1.00  0.00    -0.269 OA
BRANCH  30  33
ATOM     33  C   UNL A   1      40.102  24.314  27.178  1.00  0.00     0.039 A 
ATOM     34  C   UNL A   1      40.652  25.264  26.311  1.00  0.00     0.014 A 
ATOM     35  C   UNL A   1      39.606  24.741  28.397  1.00  0.00     0.014 A 
ATOM     36  C   UNL A   1      40.847  26.557  26.794  1.00  0.00     0.010 A 
ATOM     37  C   UNL A   1      39.407  26.040  28.676  1.00  0.00     0.010 A 
ATOM     38  C   UNL A   1      40.279  26.880  28.022  1.00  0.00    -0.014 A 
BRANCH  38  39
ATOM     39  C   UNL A   1      40.539  28.036  28.839  1.00  0.00     0.031 A 
ATOM     40  C   UNL A   1      39.595  29.139  28.707  1.00  0.00     0.074 A 
ATOM     41  C   UNL A   1      41.377  27.822  29.886  1.00  0.00     0.049 A 
ATOM     42  N   UNL A   1      39.824  30.337  29.092  1.00  0.00    -0.248 NA
ATOM     43  C   UNL A   1      38.295  28.960  28.059  1.00  0.00     0.031 C 
ATOM     44  C   UNL A   1      41.420  28.512  31.164  1.00  0.00     0.029 A 
ATOM     45  N   UNL A   1      42.419  26.885  30.004  1.00  0.00    -0.354 N 
ATOM     46  C   UNL A   1      38.600  30.970  29.086  1.00  0.00     0.074 A 
ATOM     47  C   UNL A   1      37.754  30.165  28.240  1.00  0.00     0.031 C 
ATOM     48  C   UNL A   1      42.597  28.239  31.756  1.00  0.00     0.029 A 
ATOM     49  C   UNL A   1      43.396  27.503  30.782  1.00  0.00     0.049 A 
ATOM     50  H   UNL A   1      42.453  25.980  29.618  1.00  0.00     0.167 HD
ATOM     51  C   UNL A   1      38.371  31.941  30.012  1.00  0.00     0.034 A 
ATOM     52  C   UNL A   1      44.631  27.873  30.321  1.00  0.00     0.034 A 
ATOM     53  C   UNL A   1      39.563  32.081  30.879  1.00  0.00     0.049 A 
ATOM     54  C   UNL A   1      44.758  29.377  30.408  1.00  0.00     0.074 A 
ATOM     55  C   UNL A   1      39.855  31.595  32.145  1.00  0.00     0.029 A 
ATOM     56  N   UNL A   1      40.783  32.464  30.323  1.00  0.00    -0.354 N 
ATOM     57  N   UNL A   1      43.719  30.166  30.478  1.00  0.00    -0.248 NA
ATOM     58  C   UNL A   1      46.016  30.105  30.520  1.00  0.00     0.031 C 
ATOM     59  C   UNL A   1      41.270  31.627  32.314  1.00  0.00     0.029 A 
ATOM     60  C   UNL A   1      41.842  32.138  31.159  1.00  0.00     0.049 A 
ATOM     61  H   UNL A   1      40.881  32.908  29.450  1.00  0.00     0.167 HD
ATOM     62  C   UNL A   1      44.113  31.452  30.676  1.00  0.00     0.074 A 
ATOM     63  C   UNL A   1      45.567  31.363  30.699  1.00  0.00     0.031 C 
ATOM     64  C   UNL A   1      43.216  32.478  30.791  1.00  0.00     0.034 A 
BRANCH  51  65
ATOM     65  C   UNL A   1      37.002  32.498  30.375  1.00  0.00     0.023 A 
ATOM     66  C   UNL A   1      36.506  32.183  31.660  1.00  0.00     0.012 A 
ATOM     67  C   UNL A   1      36.155  33.303  29.572  1.00  0.00     0.148 A 
ATOM     68  C   UNL A   1      35.236  32.575  32.098  1.00  0.00     0.002 A 
ATOM     69  C   UNL A   1      34.863  33.654  29.987  1.00  0.00     0.091 A 
ATOM     70  F   UNL A   1      36.608  33.822  28.430  1.00  0.00    -0.205 F 
ATOM     71  C   UNL A   1      34.403  33.290  31.253  1.00  0.00     0.022 A 
BRANCH  69  72
ATOM     72  S   UNL A   1      33.712  34.562  28.936  1.00  0.00     0.127 S 
ATOM     73  O   UNL A   1      34.535  35.681  28.471  1.00  0.00    -0.237 OA
ATOM     74  O   UNL A   1      33.389  33.578  27.904  1.00  0.00    -0.237 OA
ATOM     75  O   UNL A   1      32.601  34.959  29.791  1.00  0.00    -0.744 OA
ENDBRANCH  69  72
ENDBRANCH  51  65
BRANCH  52  76
ATOM     76  C   UNL A   1      45.201  26.967  29.275  1.00  0.00     0.023 A 
ATOM     77  C   UNL A   1      45.352  25.608  29.643  1.00  0.00     0.012 A 
ATOM     78  C   UNL A   1      45.092  27.278  27.911  1.00  0.00     0.148 A 
ATOM     79  C   UNL A   1      45.084  24.584  28.733  1.00  0.00     0.002 A 
ATOM     80  C   UNL A   1      44.876  26.247  26.995  1.00  0.00     0.091 A 
ATOM     81  F   UNL A   1      45.126  28.564  27.545  1.00  0.00    -0.205 F 
ATOM     82  C   UNL A   1      44.786  24.910  27.419  1.00  0.00     0.022 A 
BRANCH  80  83
ATOM     83  S   UNL A   1      44.589  26.578  25.254  1.00  0.00     0.127 S 
ATOM     84  O   UNL A   1      43.840  25.382  24.856  1.00  0.00    -0.237 OA
ATOM     85  O   UNL A   1      43.781  27.800  25.307  1.00  0.00    -0.237 OA
ATOM     86  O   UNL A   1      45.900  26.743  24.674  1.00  0.00    -0.744 OA
ENDBRANCH  80  83
ENDBRANCH  52  76
BRANCH  64  87
ATOM     87  C   UNL A   1      43.576  33.929  30.571  1.00  0.00     0.023 A 
ATOM     88  C   UNL A   1      43.455  34.537  29.308  1.00  0.00     0.012 A 
ATOM     89  C   UNL A   1      43.857  34.781  31.667  1.00  0.00     0.148 A 
ATOM     90  C   UNL A   1      43.675  35.901  29.120  1.00  0.00     0.002 A 
ATOM     91  C   UNL A   1      43.925  36.156  31.498  1.00  0.00     0.091 A 
ATOM     92  F   UNL A   1      44.072  34.267  32.887  1.00  0.00    -0.205 F 
ATOM     93  C   UNL A   1      43.881  36.718  30.220  1.00  0.00     0.022 A 
BRANCH  91  94
ATOM     94  S   UNL A   1      43.877  37.269  32.907  1.00  0.00     0.127 S 
ATOM     95  O   UNL A   1      42.692  36.797  33.620  1.00  0.00    -0.237 OA
ATOM     96  O   UNL A   1      45.148  36.975  33.572  1.00  0.00    -0.237 OA
ATOM     97  O   UNL A   1      43.794  38.608  32.341  1.00  0.00    -0.744 OA
ENDBRANCH  91  94
ENDBRANCH  64  87
ENDBRANCH  38  39
ENDBRANCH  30  33
ENDBRANCH  28  29
ENDBRANCH  27  28
ENDBRANCH   1  27
TORSDOF 17
ENDMDL
MODEL 3
REMARK VINA RESULT:     -12.2      3.868      5.433
REMARK SMILES Cc1ccc(NC(=O)C[C@H]2SC[C@H](C(=O)NCCCCNC(=O)c3ccc(-c4c5nc(c(-c6cccc(S(=O)(=O)[O-])c6F)c6ccc([nH]6)c(-c6cccc(S(=O)(=O)[O-])c6F)c6nc(c(-c7cccc(S(=O)(=O)[O-])c7F)c7ccc4[nH]7)C=C6)C=C5)cc3)NC2=O)cc1
REMARK SMILES IDX 18 1 17 2 16 3 14 4 15 5 13 7 10 8 11 9 88 10 12 11 87 12
REMARK SMILES IDX 89 13 9 15 7 16 6 17 8 19 5 20 1 21 2 22 3 23 91 24 4 25
REMARK SMILES IDX 90 26 19 27 20 28 21 29 22 30 23 32 24 33 25 34 86 35 26 36
REMARK SMILES IDX 85 37 27 38 28 39 29 40 79 41 30 42 84 43 78 44 80 45 31 46
REMARK SMILES IDX 83 47 77 48 76 49 32 51 64 52 44 53 63 54 45 55 48 56 62 57
REMARK SMILES IDX 81 58 46 59 47 60 61 62 82 63 49 64 33 65 34 66 42 67 35 68
REMARK SMILES IDX 37 69 43 70 36 71 38 72 39 73 40 74 41 75 65 76 66 77 74 78
REMARK SMILES IDX 67 79 69 80 75 81 68 82 70 83 71 84 72 85 73 86 50 87 51 88
REMARK SMILES IDX 59 89 52 90 54 91 60 92 53 93 55 94 56 95 57 96 58 97
REMARK H PARENT 16 6 87 14 6 18 21 31 80 50 48 61
REMARK Flexibility Score: inf
ROOT
ATOM      1  C   UNL A   1      41.307  20.137  27.406  1.00  0.00     0.023 C 
ENDROOT
BRANCH   1   2
ATOM      2  C   UNL A   1      40.332  20.790  26.411  1.00  0.00     0.116 C 
BRANCH   2   3
ATOM      3  N   UNL A   1      39.924  22.124  26.808  1.00  0.00    -0.354 N 
ATOM      4  C   UNL A   1      38.861  22.891  26.445  1.00  0.00     0.243 C 
ATOM      5  O   UNL A   1      38.810  24.035  26.905  1.00  0.00    -0.273 OA
ATOM      6  H   UNL A   1      40.525  22.551  27.459  1.00  0.00     0.163 HD
BRANCH   4   7
ATOM      7  C   UNL A   1      37.737  22.382  25.525  1.00  0.00     0.181 C 
ATOM      8  C   UNL A   1      35.096  22.694  24.069  1.00  0.00     0.145 C 
ATOM      9  S   UNL A   1      35.242  21.209  25.169  1.00  0.00    -0.145 SA
ATOM     10  C   UNL A   1      36.484  23.026  23.503  1.00  0.00     0.234 C 
ATOM     11  C   UNL A   1      36.520  21.877  26.291  1.00  0.00     0.105 C 
ATOM     12  N   UNL A   1      37.458  23.319  24.439  1.00  0.00    -0.343 N 
ATOM     13  O   UNL A   1      36.768  23.093  22.313  1.00  0.00    -0.274 OA
ATOM     14  H   UNL A   1      37.963  24.161  24.373  1.00  0.00     0.164 HD
BRANCH   8  15
ATOM     15  C   UNL A   1      33.902  22.532  23.114  1.00  0.00     0.124 C 
BRANCH  15  16
ATOM     16  C   UNL A   1      32.494  22.326  23.659  1.00  0.00     0.226 C 
ATOM     17  N   UNL A   1      31.797  23.296  24.327  1.00  0.00    -0.326 N 
ATOM     18  H   UNL A   1      30.949  23.009  24.739  1.00  0.00     0.169 HD
ATOM     19  O   UNL A   1      31.950  21.224  23.520  1.00  0.00    -0.275 OA
BRANCH  17  20
ATOM     20  C   UNL A   1      32.133  24.641  24.502  1.00  0.00     0.041 A 
ATOM     21  C   UNL A   1      31.544  28.611  25.803  1.00  0.00     0.044 C 
ATOM     22  C   UNL A   1      31.943  27.268  25.297  1.00  0.00    -0.051 A 
ATOM     23  C   UNL A   1      31.732  26.941  23.957  1.00  0.00     0.005 A 
ATOM     24  C   UNL A   1      32.503  26.331  26.166  1.00  0.00     0.005 A 
ATOM     25  C   UNL A   1      31.838  25.617  23.555  1.00  0.00     0.026 A 
ATOM     26  C   UNL A   1      32.615  25.008  25.760  1.00  0.00     0.026 A 
ENDBRANCH  17  20
ENDBRANCH  15  16
ENDBRANCH   8  15
ENDBRANCH   4   7
ENDBRANCH   2   3
ENDBRANCH   1   2
BRANCH   1  27
ATOM     27  C   UNL A   1      42.272  19.070  26.859  1.00  0.00     0.023 C 
BRANCH  27  28
ATOM     28  C   UNL A   1      43.023  19.462  25.604  1.00  0.00     0.116 C 
BRANCH  28  29
ATOM     29  N   UNL A   1      44.425  19.787  25.875  1.00  0.00    -0.352 N 
ATOM     30  C   UNL A   1      45.134  20.909  25.471  1.00  0.00     0.251 C 
ATOM     31  H   UNL A   1      44.926  19.128  26.409  1.00  0.00     0.163 HD
ATOM     32  O   UNL A   1      46.265  20.749  25.013  1.00  0.00    -0.269 OA
BRANCH  30  33
ATOM     33  C   UNL A   1      44.540  22.250  25.633  1.00  0.00     0.039 A 
ATOM     34  C   UNL A   1      44.433  23.176  24.590  1.00  0.00     0.014 A 
ATOM     35  C   UNL A   1      44.255  22.670  26.920  1.00  0.00     0.014 A 
ATOM     36  C   UNL A   1      44.232  24.515  24.920  1.00  0.00     0.010 A 
ATOM     37  C   UNL A   1      43.649  23.841  27.175  1.00  0.00     0.010 A 
ATOM     38  C   UNL A   1      43.925  24.815  26.243  1.00  0.00    -0.014 A 
BRANCH  38  39
ATOM     39  C   UNL A   1      43.921  26.106  26.878  1.00  0.00     0.031 A 
ATOM     40  C   UNL A   1      42.643  26.808  26.894  1.00  0.00     0.074 A 
ATOM     41  C   UNL A   1      44.973  26.343  27.703  1.00  0.00     0.049 A 
ATOM     42  N   UNL A   1      42.509  28.060  27.116  1.00  0.00    -0.248 NA
ATOM     43  C   UNL A   1      41.387  26.118  26.599  1.00  0.00     0.031 C 
ATOM     44  C   UNL A   1      45.028  27.202  28.873  1.00  0.00     0.029 A 
ATOM     45  N   UNL A   1      46.280  25.825  27.636  1.00  0.00    -0.354 N 
ATOM     46  C   UNL A   1      41.166  28.253  27.359  1.00  0.00     0.074 A 
ATOM     47  C   UNL A   1      40.505  27.095  26.812  1.00  0.00     0.031 C 
ATOM     48  C   UNL A   1      46.320  27.422  29.179  1.00  0.00     0.029 A 
ATOM     49  C   UNL A   1      47.112  26.842  28.101  1.00  0.00     0.049 A 
ATOM     50  H   UNL A   1      46.551  24.932  27.325  1.00  0.00     0.167 HD
ATOM     51  C   UNL A   1      40.803  29.231  28.234  1.00  0.00     0.034 A 
ATOM     52  C   UNL A   1      48.017  27.514  27.325  1.00  0.00     0.034 A 
ATOM     53  C   UNL A   1      42.018  29.884  28.771  1.00  0.00     0.049 A 
ATOM     54  C   UNL A   1      47.622  28.972  27.260  1.00  0.00     0.074 A 
ATOM     55  C   UNL A   1      42.712  29.725  29.961  1.00  0.00     0.029 A 
ATOM     56  N   UNL A   1      42.886  30.549  27.905  1.00  0.00    -0.354 N 
ATOM     57  N   UNL A   1      46.410  29.382  27.519  1.00  0.00    -0.248 NA
ATOM     58  C   UNL A   1      48.538  30.077  27.004  1.00  0.00     0.031 C 
ATOM     59  C   UNL A   1      44.028  30.240  29.776  1.00  0.00     0.029 A 
ATOM     60  C   UNL A   1      44.138  30.720  28.480  1.00  0.00     0.049 A 
ATOM     61  H   UNL A   1      42.643  30.858  27.003  1.00  0.00     0.167 HD
ATOM     62  C   UNL A   1      46.357  30.740  27.513  1.00  0.00     0.074 A 
ATOM     63  C   UNL A   1      47.722  31.133  27.188  1.00  0.00     0.031 C 
ATOM     64  C   UNL A   1      45.199  31.425  27.762  1.00  0.00     0.034 A 
BRANCH  51  65
ATOM     65  C   UNL A   1      39.429  29.364  28.876  1.00  0.00     0.023 A 
ATOM     66  C   UNL A   1      38.336  29.568  28.005  1.00  0.00     0.012 A 
ATOM     67  C   UNL A   1      39.110  29.310  30.257  1.00  0.00     0.148 A 
ATOM     68  C   UNL A   1      37.030  29.772  28.464  1.00  0.00     0.002 A 
ATOM     69  C   UNL A   1      37.813  29.564  30.722  1.00  0.00     0.091 A 
ATOM     70  F   UNL A   1      40.029  28.924  31.142  1.00  0.00    -0.205 F 
ATOM     71  C   UNL A   1      36.770  29.795  29.825  1.00  0.00     0.022 A 
BRANCH  69  72
ATOM     72  S   UNL A   1      37.402  29.634  32.478  1.00  0.00     0.127 S 
ATOM     73  O   UNL A   1      38.443  30.521  33.003  1.00  0.00    -0.237 OA
ATOM     74  O   UNL A   1      36.061  30.217  32.461  1.00  0.00    -0.237 OA
ATOM     75  O   UNL A   1      37.483  28.266  32.973  1.00  0.00    -0.744 OA
ENDBRANCH  69  72
ENDBRANCH  51  65
BRANCH  52  76
ATOM     76  C   UNL A   1      48.646  26.689  26.246  1.00  0.00     0.023 A 
ATOM     77  C   UNL A   1      48.085  26.822  24.953  1.00  0.00     0.012 A 
ATOM     78  C   UNL A   1      49.976  26.253  26.352  1.00  0.00     0.148 A 
ATOM     79  C   UNL A   1      48.896  26.835  23.816  1.00  0.00     0.002 A 
ATOM     80  C   UNL A   1      50.772  26.215  25.205  1.00  0.00     0.091 A 
ATOM     81  F   UNL A   1      50.456  25.957  27.564  1.00  0.00    -0.205 F 
ATOM     82  C   UNL A   1      50.253  26.589  23.954  1.00  0.00     0.022 A 
BRANCH  80  83
ATOM     83  S   UNL A   1      52.516  25.801  25.283  1.00  0.00     0.127 S 
ATOM     84  O   UNL A   1      52.459  24.413  25.753  1.00  0.00    -0.237 OA
ATOM     85  O   UNL A   1      52.924  25.942  23.882  1.00  0.00    -0.237 OA
ATOM     86  O   UNL A   1      53.099  26.765  26.184  1.00  0.00    -0.744 OA
ENDBRANCH  80  83
ENDBRANCH  52  76
BRANCH  64  87
ATOM     87  C   UNL A   1      44.974  32.860  27.349  1.00  0.00     0.023 A 
ATOM     88  C   UNL A   1      44.529  33.194  26.056  1.00  0.00     0.012 A 
ATOM     89  C   UNL A   1      45.009  33.906  28.304  1.00  0.00     0.148 A 
ATOM     90  C   UNL A   1      44.208  34.505  25.700  1.00  0.00     0.002 A 
ATOM     91  C   UNL A   1      44.545  35.174  27.985  1.00  0.00     0.091 A 
ATOM     92  F   UNL A   1      45.502  33.685  29.531  1.00  0.00    -0.205 F 
ATOM     93  C   UNL A   1      44.188  35.491  26.673  1.00  0.00     0.022 A 
BRANCH  91  94
ATOM     94  S   UNL A   1      44.205  36.387  29.266  1.00  0.00     0.127 S 
ATOM     95  O   UNL A   1      43.343  35.631  30.171  1.00  0.00    -0.237 OA
ATOM     96  O   UNL A   1      45.546  36.664  29.787  1.00  0.00    -0.237 OA
ATOM     97  O   UNL A   1      43.587  37.512  28.579  1.00  0.00    -0.744 OA
ENDBRANCH  91  94
ENDBRANCH  64  87
ENDBRANCH  38  39
ENDBRANCH  30  33
ENDBRANCH  28  29
ENDBRANCH  27  28
ENDBRANCH   1  27
TORSDOF 17
ENDMDL
