MODEL 1
REMARK VINA RESULT:     -10.2      0.000      0.000
REMARK SMILES C[C@@H](C(=O)NCCCCNC(=O)c1ccc(-c2c3nc(c(-c4cccc(S(=O)(=O)[O-])c4F)c4ccc([nH]4)c(-c4cccc(S(=O)(=O)[O-])c4F)c4nc(c(-c5cccc(S(=O)(=O)[O-])c5F)c5ccc2[nH]5)C=C4)C=C3)cc1)c1ccc(C[C@H]2CCC[C@@H]2O)cc1F
REMARK SMILES IDX 7 1 6 2 5 3 3 4 4 5 2 7 1 8 76 9 77 10 88 11 78 12 87 13
REMARK SMILES IDX 89 14 79 15 80 16 81 17 82 18 85 19 83 20 84 21 86 22 8 24
REMARK SMILES IDX 9 25 10 26 11 27 12 29 13 30 14 31 75 32 15 33 74 34 16 35
REMARK SMILES IDX 17 36 18 37 68 38 19 39 73 40 67 41 69 42 20 43 72 44 66 45
REMARK SMILES IDX 65 46 21 48 53 49 33 50 52 51 34 52 37 53 51 54 70 55 35 56
REMARK SMILES IDX 36 57 50 59 71 60 38 61 22 62 23 63 31 64 24 65 26 66 32 67
REMARK SMILES IDX 25 68 27 69 28 70 29 71 30 72 54 73 55 74 63 75 56 76 58 77
REMARK SMILES IDX 64 78 57 79 59 80 60 81 61 82 62 83 39 84 40 85 48 86 41 87
REMARK SMILES IDX 43 88 49 89 42 90 44 91 45 92 46 93 47 94
REMARK H PARENT 5 6 86 23 10 28 69 47 37 58
REMARK Flexibility Score: inf
ROOT
ATOM      1  C   UNL A   1      33.584  36.588  29.216  1.00  0.00     0.023 C 
ENDROOT
BRANCH   1   2
ATOM      2  C   UNL A   1      32.902  36.060  30.483  1.00  0.00     0.116 C 
BRANCH   2   3
ATOM      3  N   UNL A   1      33.542  36.584  31.674  1.00  0.00    -0.356 N 
ATOM      4  C   UNL A   1      34.254  35.931  32.640  1.00  0.00     0.227 C 
ATOM      5  O   UNL A   1      34.410  36.524  33.708  1.00  0.00    -0.274 OA
ATOM      6  H   UNL A   1      33.448  37.555  31.806  1.00  0.00     0.163 HD
BRANCH   4   7
ATOM      7  C   UNL A   1      34.829  34.530  32.355  1.00  0.00     0.108 C 
ATOM      8  C   UNL A   1      34.258  33.566  33.403  1.00  0.00     0.023 C 
BRANCH   7   9
ATOM      9  C   UNL A   1      36.359  34.476  32.261  1.00  0.00    -0.000 A 
ATOM     10  C   UNL A   1      37.012  34.263  31.034  1.00  0.00     0.008 A 
ATOM     11  C   UNL A   1      37.178  34.579  33.394  1.00  0.00     0.127 A 
ATOM     12  C   UNL A   1      38.408  34.240  30.940  1.00  0.00     0.004 A 
ATOM     13  C   UNL A   1      38.569  34.532  33.312  1.00  0.00     0.043 A 
ATOM     14  F   UNL A   1      36.651  34.704  34.619  1.00  0.00    -0.207 F 
ATOM     15  C   UNL A   1      39.203  34.354  32.081  1.00  0.00    -0.045 A 
BRANCH  15  16
ATOM     16  C   UNL A   1      40.706  34.257  32.003  1.00  0.00     0.041 C 
BRANCH  16  17
ATOM     17  C   UNL A   1      41.268  33.551  30.758  1.00  0.00     0.022 C 
ATOM     18  C   UNL A   1      41.867  34.458  29.671  1.00  0.00     0.007 C 
ATOM     19  C   UNL A   1      42.355  32.510  31.037  1.00  0.00     0.117 C 
ATOM     20  C   UNL A   1      43.098  33.721  29.136  1.00  0.00     0.003 C 
ATOM     21  C   UNL A   1      42.984  32.304  29.669  1.00  0.00     0.032 C 
BRANCH  19  22
ATOM     22  O   UNL A   1      41.792  31.312  31.538  1.00  0.00    -0.393 OA
ATOM     23  H   UNL A   1      42.094  31.169  32.449  1.00  0.00     0.210 HD
ENDBRANCH  19  22
ENDBRANCH  16  17
ENDBRANCH  15  16
ENDBRANCH   7   9
ENDBRANCH   4   7
ENDBRANCH   2   3
ENDBRANCH   1   2
BRANCH   1  24
ATOM     24  C   UNL A   1      33.979  35.513  28.204  1.00  0.00     0.023 C 
BRANCH  24  25
ATOM     25  C   UNL A   1      33.907  34.089  28.729  1.00  0.00     0.116 C 
BRANCH  25  26
ATOM     26  N   UNL A   1      33.131  33.209  27.863  1.00  0.00    -0.352 N 
ATOM     27  C   UNL A   1      33.470  31.960  27.403  1.00  0.00     0.251 C 
ATOM     28  H   UNL A   1      32.255  33.554  27.573  1.00  0.00     0.163 HD
ATOM     29  O   UNL A   1      32.773  31.387  26.571  1.00  0.00    -0.269 OA
BRANCH  27  30
ATOM     30  C   UNL A   1      34.707  31.334  27.905  1.00  0.00     0.039 A 
ATOM     31  C   UNL A   1      35.849  32.119  28.084  1.00  0.00     0.014 A 
ATOM     32  C   UNL A   1      34.703  29.985  28.271  1.00  0.00     0.014 A 
ATOM     33  C   UNL A   1      36.973  31.567  28.701  1.00  0.00     0.010 A 
ATOM     34  C   UNL A   1      35.795  29.460  28.947  1.00  0.00     0.010 A 
ATOM     35  C   UNL A   1      36.939  30.243  29.169  1.00  0.00    -0.014 A 
BRANCH  35  36
ATOM     36  C   UNL A   1      38.075  29.635  29.903  1.00  0.00     0.031 A 
ATOM     37  C   UNL A   1      38.308  30.006  31.340  1.00  0.00     0.074 A 
ATOM     38  C   UNL A   1      38.975  28.884  29.241  1.00  0.00     0.049 A 
ATOM     39  N   UNL A   1      39.335  29.748  32.104  1.00  0.00    -0.248 NA
ATOM     40  C   UNL A   1      37.262  30.816  31.989  1.00  0.00     0.031 C 
ATOM     41  C   UNL A   1      38.900  28.525  27.823  1.00  0.00     0.029 A 
ATOM     42  N   UNL A   1      40.160  28.332  29.662  1.00  0.00    -0.354 N 
ATOM     43  C   UNL A   1      39.092  30.414  33.299  1.00  0.00     0.074 A 
ATOM     44  C   UNL A   1      37.829  31.103  33.151  1.00  0.00     0.031 C 
ATOM     45  C   UNL A   1      39.999  27.832  27.487  1.00  0.00     0.029 A 
ATOM     46  C   UNL A   1      40.871  27.724  28.653  1.00  0.00     0.049 A 
ATOM     47  H   UNL A   1      40.470  28.367  30.595  1.00  0.00     0.167 HD
ATOM     48  C   UNL A   1      39.840  30.429  34.427  1.00  0.00     0.034 A 
ATOM     49  C   UNL A   1      42.096  27.162  28.662  1.00  0.00     0.034 A 
ATOM     50  C   UNL A   1      41.058  29.685  34.589  1.00  0.00     0.049 A 
ATOM     51  C   UNL A   1      42.872  27.119  29.950  1.00  0.00     0.074 A 
ATOM     52  C   UNL A   1      41.832  29.539  35.727  1.00  0.00     0.029 A 
ATOM     53  N   UNL A   1      41.679  28.959  33.585  1.00  0.00    -0.354 N 
ATOM     54  N   UNL A   1      42.552  27.616  31.120  1.00  0.00    -0.248 NA
ATOM     55  C   UNL A   1      44.159  26.407  29.932  1.00  0.00     0.031 C 
ATOM     56  C   UNL A   1      42.927  28.728  35.406  1.00  0.00     0.029 A 
ATOM     57  C   UNL A   1      42.827  28.361  34.073  1.00  0.00     0.049 A 
ATOM     58  H   UNL A   1      41.351  28.880  32.660  1.00  0.00     0.167 HD
ATOM     59  C   UNL A   1      43.576  27.249  31.985  1.00  0.00     0.074 A 
ATOM     60  C   UNL A   1      44.523  26.476  31.207  1.00  0.00     0.031 C 
ATOM     61  C   UNL A   1      43.725  27.538  33.301  1.00  0.00     0.034 A 
BRANCH  48  62
ATOM     62  C   UNL A   1      39.325  31.235  35.589  1.00  0.00     0.023 A 
ATOM     63  C   UNL A   1      38.264  30.729  36.368  1.00  0.00     0.012 A 
ATOM     64  C   UNL A   1      39.898  32.476  35.926  1.00  0.00     0.148 A 
ATOM     65  C   UNL A   1      37.753  31.465  37.436  1.00  0.00     0.002 A 
ATOM     66  C   UNL A   1      39.412  33.183  37.020  1.00  0.00     0.091 A 
ATOM     67  F   UNL A   1      40.887  32.958  35.158  1.00  0.00    -0.205 F 
ATOM     68  C   UNL A   1      38.332  32.686  37.767  1.00  0.00     0.022 A 
BRANCH  66  69
ATOM     69  S   UNL A   1      40.152  34.728  37.559  1.00  0.00     0.127 S 
ATOM     70  O   UNL A   1      39.566  35.683  36.621  1.00  0.00    -0.237 OA
ATOM     71  O   UNL A   1      39.666  34.849  38.934  1.00  0.00    -0.237 OA
ATOM     72  O   UNL A   1      41.592  34.531  37.448  1.00  0.00    -0.744 OA
ENDBRANCH  66  69
ENDBRANCH  48  62
BRANCH  49  73
ATOM     73  C   UNL A   1      42.621  26.533  27.418  1.00  0.00     0.023 A 
ATOM     74  C   UNL A   1      43.411  27.301  26.541  1.00  0.00     0.012 A 
ATOM     75  C   UNL A   1      42.408  25.169  27.138  1.00  0.00     0.148 A 
ATOM     76  C   UNL A   1      43.966  26.728  25.397  1.00  0.00     0.002 A 
ATOM     77  C   UNL A   1      43.007  24.591  26.024  1.00  0.00     0.091 A 
ATOM     78  F   UNL A   1      41.649  24.459  27.984  1.00  0.00    -0.205 F 
ATOM     79  C   UNL A   1      43.776  25.372  25.145  1.00  0.00     0.022 A 
BRANCH  77  80
ATOM     80  S   UNL A   1      42.931  22.828  25.689  1.00  0.00     0.127 S 
ATOM     81  O   UNL A   1      43.453  22.760  24.326  1.00  0.00    -0.237 OA
ATOM     82  O   UNL A   1      43.820  22.288  26.718  1.00  0.00    -0.237 OA
ATOM     83  O   UNL A   1      41.532  22.457  25.847  1.00  0.00    -0.744 OA
ENDBRANCH  77  80
ENDBRANCH  49  73
BRANCH  61  84
ATOM     84  C   UNL A   1      44.932  26.989  34.012  1.00  0.00     0.023 A 
ATOM     85  C   UNL A   1      46.122  27.742  34.050  1.00  0.00     0.012 A 
ATOM     86  C   UNL A   1      44.850  25.782  34.735  1.00  0.00     0.148 A 
ATOM     87  C   UNL A   1      47.217  27.293  34.786  1.00  0.00     0.002 A 
ATOM     88  C   UNL A   1      45.932  25.364  35.500  1.00  0.00     0.091 A 
ATOM     89  F   UNL A   1      43.714  25.072  34.667  1.00  0.00    -0.205 F 
ATOM     90  C   UNL A   1      47.119  26.113  35.520  1.00  0.00     0.022 A 
BRANCH  88  91
ATOM     91  S   UNL A   1      45.858  23.908  36.551  1.00  0.00     0.127 S 
ATOM     92  O   UNL A   1      45.428  22.879  35.606  1.00  0.00    -0.237 OA
ATOM     93  O   UNL A   1      47.244  23.780  37.004  1.00  0.00    -0.237 OA
ATOM     94  O   UNL A   1      44.906  24.225  37.607  1.00  0.00    -0.744 OA
ENDBRANCH  88  91
ENDBRANCH  61  84
ENDBRANCH  35  36
ENDBRANCH  27  30
ENDBRANCH  25  26
ENDBRANCH  24  25
ENDBRANCH   1  24
TORSDOF 18
ENDMDL
MODEL 2
REMARK VINA RESULT:      -9.7      5.373     11.717
REMARK SMILES C[C@@H](C(=O)NCCCCNC(=O)c1ccc(-c2c3nc(c(-c4cccc(S(=O)(=O)[O-])c4F)c4ccc([nH]4)c(-c4cccc(S(=O)(=O)[O-])c4F)c4nc(c(-c5cccc(S(=O)(=O)[O-])c5F)c5ccc2[nH]5)C=C4)C=C3)cc1)c1ccc(C[C@H]2CCC[C@@H]2O)cc1F
REMARK SMILES IDX 7 1 6 2 5 3 3 4 4 5 2 7 1 8 76 9 77 10 88 11 78 12 87 13
REMARK SMILES IDX 89 14 79 15 80 16 81 17 82 18 85 19 83 20 84 21 86 22 8 24
REMARK SMILES IDX 9 25 10 26 11 27 12 29 13 30 14 31 75 32 15 33 74 34 16 35
REMARK SMILES IDX 17 36 18 37 68 38 19 39 73 40 67 41 69 42 20 43 72 44 66 45
REMARK SMILES IDX 65 46 21 48 53 49 33 50 52 51 34 52 37 53 51 54 70 55 35 56
REMARK SMILES IDX 36 57 50 59 71 60 38 61 22 62 23 63 31 64 24 65 26 66 32 67
REMARK SMILES IDX 25 68 27 69 28 70 29 71 30 72 54 73 55 74 63 75 56 76 58 77
REMARK SMILES IDX 64 78 57 79 59 80 60 81 61 82 62 83 39 84 40 85 48 86 41 87
REMARK SMILES IDX 43 88 49 89 42 90 44 91 45 92 46 93 47 94
REMARK H PARENT 5 6 86 23 10 28 69 47 37 58
REMARK Flexibility Score: inf
ROOT
ATOM      1  C   UNL A   1      35.930  22.557  23.714  1.00  0.00     0.023 C 
ENDROOT
BRANCH   1   2
ATOM      2  C   UNL A   1      35.086  21.579  24.538  1.00  0.00     0.116 C 
BRANCH   2   3
ATOM      3  N   UNL A   1      33.678  21.715  24.222  1.00  0.00    -0.356 N 
ATOM      4  C   UNL A   1      32.714  22.463  24.838  1.00  0.00     0.227 C 
ATOM      5  O   UNL A   1      31.543  22.162  24.600  1.00  0.00    -0.274 OA
ATOM      6  H   UNL A   1      33.370  21.190  23.448  1.00  0.00     0.163 HD
BRANCH   4   7
ATOM      7  C   UNL A   1      33.120  23.626  25.764  1.00  0.00     0.108 C 
ATOM      8  C   UNL A   1      32.767  23.228  27.202  1.00  0.00     0.023 C 
BRANCH   7   9
ATOM      9  C   UNL A   1      32.545  24.991  25.361  1.00  0.00    -0.000 A 
ATOM     10  C   UNL A   1      31.462  25.563  26.050  1.00  0.00     0.008 A 
ATOM     11  C   UNL A   1      33.031  25.706  24.258  1.00  0.00     0.127 A 
ATOM     12  C   UNL A   1      30.952  26.819  25.703  1.00  0.00     0.004 A 
ATOM     13  C   UNL A   1      32.512  26.946  23.889  1.00  0.00     0.043 A 
ATOM     14  F   UNL A   1      34.008  25.210  23.487  1.00  0.00    -0.207 F 
ATOM     15  C   UNL A   1      31.458  27.517  24.605  1.00  0.00    -0.045 A 
BRANCH  15  16
ATOM     16  C   UNL A   1      30.869  28.837  24.175  1.00  0.00     0.041 C 
BRANCH  16  17
ATOM     17  C   UNL A   1      29.790  28.765  23.082  1.00  0.00     0.022 C 
ATOM     18  C   UNL A   1      28.373  28.388  23.544  1.00  0.00     0.007 C 
ATOM     19  C   UNL A   1      29.605  30.048  22.267  1.00  0.00     0.117 C 
ATOM     20  C   UNL A   1      27.415  29.249  22.715  1.00  0.00     0.003 C 
ATOM     21  C   UNL A   1      28.260  29.829  21.595  1.00  0.00     0.032 C 
BRANCH  19  22
ATOM     22  O   UNL A   1      30.644  30.200  21.319  1.00  0.00    -0.393 OA
ATOM     23  H   UNL A   1      31.131  29.364  21.236  1.00  0.00     0.210 HD
ENDBRANCH  19  22
ENDBRANCH  16  17
ENDBRANCH  15  16
ENDBRANCH   7   9
ENDBRANCH   4   7
ENDBRANCH   2   3
ENDBRANCH   1   2
BRANCH   1  24
ATOM     24  C   UNL A   1      36.756  23.544  24.539  1.00  0.00     0.023 C 
BRANCH  24  25
ATOM     25  C   UNL A   1      36.984  23.130  25.984  1.00  0.00     0.116 C 
BRANCH  25  26
ATOM     26  N   UNL A   1      38.192  22.332  26.155  1.00  0.00    -0.352 N 
ATOM     27  C   UNL A   1      39.435  22.755  26.559  1.00  0.00     0.251 C 
ATOM     28  H   UNL A   1      38.105  21.371  25.958  1.00  0.00     0.163 HD
ATOM     29  O   UNL A   1      40.397  21.992  26.532  1.00  0.00    -0.269 OA
BRANCH  27  30
ATOM     30  C   UNL A   1      39.600  24.154  26.994  1.00  0.00     0.039 A 
ATOM     31  C   UNL A   1      39.328  24.495  28.321  1.00  0.00     0.014 A 
ATOM     32  C   UNL A   1      40.099  25.105  26.099  1.00  0.00     0.014 A 
ATOM     33  C   UNL A   1      39.626  25.782  28.775  1.00  0.00     0.010 A 
ATOM     34  C   UNL A   1      40.460  26.359  26.571  1.00  0.00     0.010 A 
ATOM     35  C   UNL A   1      40.229  26.710  27.910  1.00  0.00    -0.014 A 
BRANCH  35  36
ATOM     36  C   UNL A   1      40.641  28.060  28.364  1.00  0.00     0.031 A 
ATOM     37  C   UNL A   1      42.101  28.363  28.547  1.00  0.00     0.074 A 
ATOM     38  C   UNL A   1      39.709  28.948  28.756  1.00  0.00     0.049 A 
ATOM     39  N   UNL A   1      42.666  29.397  29.110  1.00  0.00    -0.248 NA
ATOM     40  C   UNL A   1      43.050  27.340  28.073  1.00  0.00     0.031 C 
ATOM     41  C   UNL A   1      38.261  28.736  28.704  1.00  0.00     0.029 A 
ATOM     42  N   UNL A   1      39.842  30.190  29.328  1.00  0.00    -0.354 N 
ATOM     43  C   UNL A   1      44.028  29.124  29.116  1.00  0.00     0.074 A 
ATOM     44  C   UNL A   1      44.202  27.819  28.518  1.00  0.00     0.031 C 
ATOM     45  C   UNL A   1      37.641  29.799  29.240  1.00  0.00     0.029 A 
ATOM     46  C   UNL A   1      38.645  30.753  29.704  1.00  0.00     0.049 A 
ATOM     47  H   UNL A   1      40.712  30.633  29.457  1.00  0.00     0.167 HD
ATOM     48  C   UNL A   1      45.046  29.902  29.556  1.00  0.00     0.034 A 
ATOM     49  C   UNL A   1      38.386  31.899  30.364  1.00  0.00     0.034 A 
ATOM     50  C   UNL A   1      44.869  31.226  30.084  1.00  0.00     0.049 A 
ATOM     51  C   UNL A   1      39.532  32.785  30.769  1.00  0.00     0.074 A 
ATOM     52  C   UNL A   1      45.840  32.142  30.451  1.00  0.00     0.029 A 
ATOM     53  N   UNL A   1      43.642  31.825  30.318  1.00  0.00    -0.354 N 
ATOM     54  N   UNL A   1      40.819  32.585  30.621  1.00  0.00    -0.248 NA
ATOM     55  C   UNL A   1      39.193  34.071  31.398  1.00  0.00     0.031 C 
ATOM     56  C   UNL A   1      45.195  33.295  30.914  1.00  0.00     0.029 A 
ATOM     57  C   UNL A   1      43.826  33.100  30.824  1.00  0.00     0.049 A 
ATOM     58  H   UNL A   1      42.767  31.407  30.148  1.00  0.00     0.167 HD
ATOM     59  C   UNL A   1      41.442  33.730  31.103  1.00  0.00     0.074 A 
ATOM     60  C   UNL A   1      40.390  34.627  31.537  1.00  0.00     0.031 C 
ATOM     61  C   UNL A   1      42.766  34.007  31.189  1.00  0.00     0.034 A 
BRANCH  48  62
ATOM     62  C   UNL A   1      46.441  29.353  29.429  1.00  0.00     0.023 A 
ATOM     63  C   UNL A   1      46.989  28.598  30.488  1.00  0.00     0.012 A 
ATOM     64  C   UNL A   1      47.202  29.559  28.264  1.00  0.00     0.148 A 
ATOM     65  C   UNL A   1      48.287  28.097  30.406  1.00  0.00     0.002 A 
ATOM     66  C   UNL A   1      48.479  29.017  28.171  1.00  0.00     0.091 A 
ATOM     67  F   UNL A   1      46.679  30.302  27.277  1.00  0.00    -0.205 F 
ATOM     68  C   UNL A   1      49.028  28.298  29.245  1.00  0.00     0.022 A 
BRANCH  66  69
ATOM     69  S   UNL A   1      49.471  29.166  26.681  1.00  0.00     0.127 S 
ATOM     70  O   UNL A   1      50.650  28.376  27.027  1.00  0.00    -0.237 OA
ATOM     71  O   UNL A   1      48.608  28.559  25.666  1.00  0.00    -0.237 OA
ATOM     72  O   UNL A   1      49.693  30.595  26.502  1.00  0.00    -0.744 OA
ENDBRANCH  66  69
ENDBRANCH  48  62
BRANCH  49  73
ATOM     73  C   UNL A   1      36.972  32.295  30.613  1.00  0.00     0.023 A 
ATOM     74  C   UNL A   1      36.428  32.126  31.901  1.00  0.00     0.012 A 
ATOM     75  C   UNL A   1      36.192  32.905  29.610  1.00  0.00     0.148 A 
ATOM     76  C   UNL A   1      35.126  32.540  32.183  1.00  0.00     0.002 A 
ATOM     77  C   UNL A   1      34.914  33.362  29.912  1.00  0.00     0.091 A 
ATOM     78  F   UNL A   1      36.729  33.051  28.391  1.00  0.00    -0.205 F 
ATOM     79  C   UNL A   1      34.374  33.169  31.194  1.00  0.00     0.022 A 
BRANCH  77  80
ATOM     80  S   UNL A   1      33.922  34.302  28.746  1.00  0.00     0.127 S 
ATOM     81  O   UNL A   1      32.781  34.692  29.571  1.00  0.00    -0.237 OA
ATOM     82  O   UNL A   1      34.829  35.393  28.392  1.00  0.00    -0.237 OA
ATOM     83  O   UNL A   1      33.625  33.386  27.653  1.00  0.00    -0.744 OA
ENDBRANCH  77  80
ENDBRANCH  49  73
BRANCH  61  84
ATOM     84  C   UNL A   1      43.172  35.348  31.737  1.00  0.00     0.023 A 
ATOM     85  C   UNL A   1      43.317  35.519  33.128  1.00  0.00     0.012 A 
ATOM     86  C   UNL A   1      43.517  36.402  30.868  1.00  0.00     0.148 A 
ATOM     87  C   UNL A   1      43.786  36.725  33.646  1.00  0.00     0.002 A 
ATOM     88  C   UNL A   1      44.024  37.586  31.390  1.00  0.00     0.091 A 
ATOM     89  F   UNL A   1      43.351  36.224  29.550  1.00  0.00    -0.205 F 
ATOM     90  C   UNL A   1      44.152  37.752  32.779  1.00  0.00     0.022 A 
BRANCH  88  91
ATOM     91  S   UNL A   1      44.609  38.924  30.342  1.00  0.00     0.127 S 
ATOM     92  O   UNL A   1      45.005  39.925  31.331  1.00  0.00    -0.237 OA
ATOM     93  O   UNL A   1      45.722  38.298  29.629  1.00  0.00    -0.237 OA
ATOM     94  O   UNL A   1      43.481  39.291  29.496  1.00  0.00    -0.744 OA
ENDBRANCH  88  91
ENDBRANCH  61  84
ENDBRANCH  35  36
ENDBRANCH  27  30
ENDBRANCH  25  26
ENDBRANCH  24  25
ENDBRANCH   1  24
TORSDOF 18
ENDMDL
MODEL 3
REMARK VINA RESULT:      -9.5      2.753      3.443
REMARK SMILES C[C@@H](C(=O)NCCCCNC(=O)c1ccc(-c2c3nc(c(-c4cccc(S(=O)(=O)[O-])c4F)c4ccc([nH]4)c(-c4cccc(S(=O)(=O)[O-])c4F)c4nc(c(-c5cccc(S(=O)(=O)[O-])c5F)c5ccc2[nH]5)C=C4)C=C3)cc1)c1ccc(C[C@H]2CCC[C@@H]2O)cc1F
REMARK SMILES IDX 7 1 6 2 5 3 3 4 4 5 2 7 1 8 76 9 77 10 88 11 78 12 87 13
REMARK SMILES IDX 89 14 79 15 80 16 81 17 82 18 85 19 83 20 84 21 86 22 8 24
REMARK SMILES IDX 9 25 10 26 11 27 12 29 13 30 14 31 75 32 15 33 74 34 16 35
REMARK SMILES IDX 17 36 18 37 68 38 19 39 73 40 67 41 69 42 20 43 72 44 66 45
REMARK SMILES IDX 65 46 21 48 53 49 33 50 52 51 34 52 37 53 51 54 70 55 35 56
REMARK SMILES IDX 36 57 50 59 71 60 38 61 22 62 23 63 31 64 24 65 26 66 32 67
REMARK SMILES IDX 25 68 27 69 28 70 29 71 30 72 54 73 55 74 63 75 56 76 58 77
REMARK SMILES IDX 64 78 57 79 59 80 60 81 61 82 62 83 39 84 40 85 48 86 41 87
REMARK SMILES IDX 43 88 49 89 42 90 44 91 45 92 46 93 47 94
REMARK H PARENT 5 6 86 23 10 28 69 47 37 58
REMARK Flexibility Score: inf
ROOT
ATOM      1  C   UNL A   1      34.152  35.092  29.239  1.00  0.00     0.023 C 
ENDROOT
BRANCH   1   2
ATOM      2  C   UNL A   1      34.016  34.409  30.604  1.00  0.00     0.116 C 
BRANCH   2   3
ATOM      3  N   UNL A   1      34.591  35.228  31.653  1.00  0.00    -0.356 N 
ATOM      4  C   UNL A   1      35.469  34.888  32.643  1.00  0.00     0.227 C 
ATOM      5  O   UNL A   1      35.551  35.659  33.600  1.00  0.00    -0.274 OA
ATOM      6  H   UNL A   1      34.305  36.170  31.652  1.00  0.00     0.163 HD
BRANCH   4   7
ATOM      7  C   UNL A   1      36.307  33.601  32.518  1.00  0.00     0.108 C 
ATOM      8  C   UNL A   1      36.473  33.009  33.923  1.00  0.00     0.023 C 
BRANCH   7   9
ATOM      9  C   UNL A   1      37.640  33.778  31.779  1.00  0.00    -0.000 A 
ATOM     10  C   UNL A   1      38.755  34.359  32.407  1.00  0.00     0.008 A 
ATOM     11  C   UNL A   1      37.797  33.422  30.432  1.00  0.00     0.127 A 
ATOM     12  C   UNL A   1      39.980  34.498  31.745  1.00  0.00     0.004 A 
ATOM     13  C   UNL A   1      39.007  33.580  29.758  1.00  0.00     0.043 A 
ATOM     14  F   UNL A   1      36.771  32.933  29.722  1.00  0.00    -0.207 F 
ATOM     15  C   UNL A   1      40.115  34.129  30.406  1.00  0.00    -0.045 A 
BRANCH  15  16
ATOM     16  C   UNL A   1      41.408  34.341  29.659  1.00  0.00     0.041 C 
BRANCH  16  17
ATOM     17  C   UNL A   1      42.653  33.685  30.278  1.00  0.00     0.022 C 
ATOM     18  C   UNL A   1      43.086  32.338  29.676  1.00  0.00     0.007 C 
ATOM     19  C   UNL A   1      43.920  34.546  30.255  1.00  0.00     0.117 C 
ATOM     20  C   UNL A   1      44.617  32.359  29.651  1.00  0.00     0.003 C 
ATOM     21  C   UNL A   1      45.021  33.534  30.524  1.00  0.00     0.032 C 
BRANCH  19  22
ATOM     22  O   UNL A   1      43.871  35.545  31.256  1.00  0.00    -0.393 OA
ATOM     23  H   UNL A   1      43.894  35.126  32.131  1.00  0.00     0.210 HD
ENDBRANCH  19  22
ENDBRANCH  16  17
ENDBRANCH  15  16
ENDBRANCH   7   9
ENDBRANCH   4   7
ENDBRANCH   2   3
ENDBRANCH   1   2
BRANCH   1  24
ATOM     24  C   UNL A   1      33.904  34.179  28.038  1.00  0.00     0.023 C 
BRANCH  24  25
ATOM     25  C   UNL A   1      34.768  32.929  28.000  1.00  0.00     0.116 C 
BRANCH  25  26
ATOM     26  N   UNL A   1      34.032  31.752  27.557  1.00  0.00    -0.352 N 
ATOM     27  C   UNL A   1      34.450  30.443  27.559  1.00  0.00     0.251 C 
ATOM     28  H   UNL A   1      33.124  31.915  27.215  1.00  0.00     0.163 HD
ATOM     29  O   UNL A   1      33.770  29.566  27.032  1.00  0.00    -0.269 OA
BRANCH  27  30
ATOM     30  C   UNL A   1      35.748  30.115  28.178  1.00  0.00     0.039 A 
ATOM     31  C   UNL A   1      35.780  29.653  29.496  1.00  0.00     0.014 A 
ATOM     32  C   UNL A   1      36.918  30.195  27.419  1.00  0.00     0.014 A 
ATOM     33  C   UNL A   1      36.985  29.198  30.035  1.00  0.00     0.010 A 
ATOM     34  C   UNL A   1      38.098  29.677  27.933  1.00  0.00     0.010 A 
ATOM     35  C   UNL A   1      38.144  29.174  29.243  1.00  0.00    -0.014 A 
BRANCH  35  36
ATOM     36  C   UNL A   1      39.429  28.625  29.740  1.00  0.00     0.031 A 
ATOM     37  C   UNL A   1      40.166  29.346  30.833  1.00  0.00     0.074 A 
ATOM     38  C   UNL A   1      40.002  27.583  29.107  1.00  0.00     0.049 A 
ATOM     39  N   UNL A   1      41.379  29.155  31.277  1.00  0.00    -0.248 NA
ATOM     40  C   UNL A   1      39.455  30.463  31.480  1.00  0.00     0.031 C 
ATOM     41  C   UNL A   1      39.421  26.853  27.979  1.00  0.00     0.029 A 
ATOM     42  N   UNL A   1      41.227  26.991  29.291  1.00  0.00    -0.354 N 
ATOM     43  C   UNL A   1      41.601  30.162  32.208  1.00  0.00     0.074 A 
ATOM     44  C   UNL A   1      40.405  30.973  32.249  1.00  0.00     0.031 C 
ATOM     45  C   UNL A   1      40.296  25.927  27.557  1.00  0.00     0.029 A 
ATOM     46  C   UNL A   1      41.511  26.016  28.362  1.00  0.00     0.049 A 
ATOM     47  H   UNL A   1      41.843  27.240  30.017  1.00  0.00     0.167 HD
ATOM     48  C   UNL A   1      42.694  30.376  32.978  1.00  0.00     0.034 A 
ATOM     49  C   UNL A   1      42.630  25.292  28.168  1.00  0.00     0.034 A 
ATOM     50  C   UNL A   1      43.850  29.524  32.981  1.00  0.00     0.049 A 
ATOM     51  C   UNL A   1      43.801  25.492  29.091  1.00  0.00     0.074 A 
ATOM     52  C   UNL A   1      44.962  29.585  33.804  1.00  0.00     0.029 A 
ATOM     53  N   UNL A   1      44.044  28.453  32.122  1.00  0.00    -0.354 N 
ATOM     54  N   UNL A   1      43.934  26.345  30.077  1.00  0.00    -0.248 NA
ATOM     55  C   UNL A   1      44.961  24.608  28.902  1.00  0.00     0.031 C 
ATOM     56  C   UNL A   1      45.831  28.552  33.435  1.00  0.00     0.029 A 
ATOM     57  C   UNL A   1      45.255  27.843  32.393  1.00  0.00     0.049 A 
ATOM     58  H   UNL A   1      43.412  28.168  31.424  1.00  0.00     0.167 HD
ATOM     59  C   UNL A   1      45.173  26.080  30.648  1.00  0.00     0.074 A 
ATOM     60  C   UNL A   1      45.747  24.976  29.906  1.00  0.00     0.031 C 
ATOM     61  C   UNL A   1      45.784  26.703  31.686  1.00  0.00     0.034 A 
BRANCH  48  62
ATOM     62  C   UNL A   1      42.658  31.551  33.919  1.00  0.00     0.023 A 
ATOM     63  C   UNL A   1      43.139  32.803  33.484  1.00  0.00     0.012 A 
ATOM     64  C   UNL A   1      42.130  31.428  35.218  1.00  0.00     0.148 A 
ATOM     65  C   UNL A   1      43.138  33.902  34.342  1.00  0.00     0.002 A 
ATOM     66  C   UNL A   1      42.091  32.539  36.052  1.00  0.00     0.091 A 
ATOM     67  F   UNL A   1      41.703  30.224  35.627  1.00  0.00    -0.205 F 
ATOM     68  C   UNL A   1      42.606  33.772  35.621  1.00  0.00     0.022 A 
BRANCH  66  69
ATOM     69  S   UNL A   1      41.353  32.475  37.688  1.00  0.00     0.127 S 
ATOM     70  O   UNL A   1      40.013  31.973  37.392  1.00  0.00    -0.237 OA
ATOM     71  O   UNL A   1      42.218  31.525  38.388  1.00  0.00    -0.237 OA
ATOM     72  O   UNL A   1      41.421  33.838  38.200  1.00  0.00    -0.744 OA
ENDBRANCH  66  69
ENDBRANCH  48  62
BRANCH  49  73
ATOM     73  C   UNL A   1      42.656  24.261  27.094  1.00  0.00     0.023 A 
ATOM     74  C   UNL A   1      43.353  24.530  25.900  1.00  0.00     0.012 A 
ATOM     75  C   UNL A   1      42.065  22.995  27.276  1.00  0.00     0.148 A 
ATOM     76  C   UNL A   1      43.445  23.565  24.897  1.00  0.00     0.002 A 
ATOM     77  C   UNL A   1      42.206  22.019  26.294  1.00  0.00     0.091 A 
ATOM     78  F   UNL A   1      41.403  22.762  28.417  1.00  0.00    -0.205 F 
ATOM     79  C   UNL A   1      42.884  22.306  25.099  1.00  0.00     0.022 A 
BRANCH  77  80
ATOM     80  S   UNL A   1      41.634  20.331  26.519  1.00  0.00     0.127 S 
ATOM     81  O   UNL A   1      40.184  20.505  26.525  1.00  0.00    -0.237 OA
ATOM     82  O   UNL A   1      42.172  19.672  25.328  1.00  0.00    -0.237 OA
ATOM     83  O   UNL A   1      42.221  19.880  27.773  1.00  0.00    -0.744 OA
ENDBRANCH  77  80
ENDBRANCH  49  73
BRANCH  61  84
ATOM     84  C   UNL A   1      47.131  26.192  32.121  1.00  0.00     0.023 A 
ATOM     85  C   UNL A   1      47.221  25.297  33.205  1.00  0.00     0.012 A 
ATOM     86  C   UNL A   1      48.290  26.512  31.386  1.00  0.00     0.148 A 
ATOM     87  C   UNL A   1      48.448  24.739  33.559  1.00  0.00     0.002 A 
ATOM     88  C   UNL A   1      49.501  25.918  31.719  1.00  0.00     0.091 A 
ATOM     89  F   UNL A   1      48.183  27.382  30.371  1.00  0.00    -0.205 F 
ATOM     90  C   UNL A   1      49.584  25.038  32.810  1.00  0.00     0.022 A 
BRANCH  88  91
ATOM     91  S   UNL A   1      50.993  26.171  30.749  1.00  0.00     0.127 S 
ATOM     92  O   UNL A   1      50.580  25.684  29.434  1.00  0.00    -0.237 OA
ATOM     93  O   UNL A   1      51.175  27.621  30.831  1.00  0.00    -0.237 OA
ATOM     94  O   UNL A   1      52.034  25.394  31.407  1.00  0.00    -0.744 OA
ENDBRANCH  88  91
ENDBRANCH  61  84
ENDBRANCH  35  36
ENDBRANCH  27  30
ENDBRANCH  25  26
ENDBRANCH  24  25
ENDBRANCH   1  24
TORSDOF 18
ENDMDL
