MODEL 1
REMARK VINA RESULT:     -11.8      0.000      0.000
REMARK SMILES Cc1cc(-c2cc(C(=O)NCCCCNC(=O)c3ccc(-c4c5nc(c(-c6cccc(S(=O)(=O)[O-])c6F)c6ccc([nH]6)c(-c6cccc(S(=O)(=O)[O-])c6F)c6nc(c(-c7cccc(S(=O)(=O)[O-])c7F)c7ccc4[nH]7)C=C6)C=C5)cc3)c[nH]c2=O)ccc1Cl
REMARK SMILES IDX 13 1 12 2 11 3 10 4 8 5 9 6 7 8 5 9 6 10 83 11 82 12 84 13
REMARK SMILES IDX 81 14 4 16 1 17 2 18 3 19 87 20 86 21 88 22 85 23 14 24
REMARK SMILES IDX 15 25 16 26 17 28 18 29 19 30 80 31 20 32 79 33 21 34 22 35
REMARK SMILES IDX 23 36 73 37 24 38 78 39 72 40 74 41 25 42 77 43 71 44 70 45
REMARK SMILES IDX 26 47 58 48 38 49 57 50 39 51 42 52 56 53 75 54 40 55 41 56
REMARK SMILES IDX 55 58 76 59 43 60 27 61 28 62 36 63 29 64 31 65 37 66 30 67
REMARK SMILES IDX 32 68 33 69 34 70 35 71 59 72 60 73 68 74 61 75 63 76 69 77
REMARK SMILES IDX 62 78 64 79 65 80 66 81 67 82 44 83 45 84 53 85 46 86 48 87
REMARK SMILES IDX 54 88 47 89 49 90 50 91 51 92 52 93
REMARK H PARENT 10 7 82 15 15 27 74 46 42 57
REMARK Flexibility Score: inf
ROOT
ATOM      1  C   UNL A   1      34.943  34.918  28.418  1.00  0.00     0.023 C 
ENDROOT
BRANCH   1   2
ATOM      2  C   UNL A   1      34.035  36.151  28.479  1.00  0.00     0.023 C 
BRANCH   2   3
ATOM      3  C   UNL A   1      32.771  35.950  29.320  1.00  0.00     0.116 C 
BRANCH   3   4
ATOM      4  N   UNL A   1      32.743  36.882  30.430  1.00  0.00    -0.352 N 
ATOM      5  C   UNL A   1      33.203  36.827  31.709  1.00  0.00     0.252 C 
ATOM      6  O   UNL A   1      32.984  37.811  32.420  1.00  0.00    -0.269 OA
ATOM      7  H   UNL A   1      32.297  37.732  30.214  1.00  0.00     0.163 HD
BRANCH   5   8
ATOM      8  C   UNL A   1      34.002  35.675  32.250  1.00  0.00     0.056 A 
ATOM      9  C   UNL A   1      36.090  34.528  32.818  1.00  0.00     0.048 A 
ATOM     10  C   UNL A   1      35.434  35.493  32.146  1.00  0.00     0.029 A 
ATOM     11  C   UNL A   1      35.291  33.496  33.553  1.00  0.00     0.255 A 
ATOM     12  N   UNL A   1      33.926  33.668  33.510  1.00  0.00    -0.328 N 
ATOM     13  O   UNL A   1      35.805  32.549  34.138  1.00  0.00    -0.269 OA
ATOM     14  C   UNL A   1      33.299  34.730  32.901  1.00  0.00     0.099 A 
ATOM     15  H   UNL A   1      33.362  32.987  33.943  1.00  0.00     0.169 HD
BRANCH   9  16
ATOM     16  C   UNL A   1      37.559  34.532  32.800  1.00  0.00    -0.012 A 
ATOM     17  C   UNL A   1      40.405  34.372  30.280  1.00  0.00     0.046 C 
ATOM     18  C   UNL A   1      39.675  34.493  31.586  1.00  0.00    -0.032 A 
ATOM     19  C   UNL A   1      38.271  34.400  31.603  1.00  0.00     0.014 A 
ATOM     20  C   UNL A   1      40.355  34.703  32.797  1.00  0.00     0.044 A 
ATOM     21  C   UNL A   1      39.652  34.822  33.996  1.00  0.00     0.021 A 
ATOM     22  Cl  UNL A   1      42.078  34.832  32.858  1.00  0.00    -0.084 Cl
ATOM     23  C   UNL A   1      38.260  34.737  33.998  1.00  0.00     0.010 A 
ENDBRANCH   9  16
ENDBRANCH   5   8
ENDBRANCH   3   4
ENDBRANCH   2   3
ENDBRANCH   1   2
BRANCH   1  24
ATOM     24  C   UNL A   1      34.360  33.663  29.057  1.00  0.00     0.116 C 
BRANCH  24  25
ATOM     25  N   UNL A   1      33.704  32.784  28.100  1.00  0.00    -0.352 N 
ATOM     26  C   UNL A   1      34.137  31.568  27.623  1.00  0.00     0.251 C 
ATOM     27  H   UNL A   1      32.840  33.100  27.750  1.00  0.00     0.163 HD
ATOM     28  O   UNL A   1      33.523  31.005  26.729  1.00  0.00    -0.269 OA
BRANCH  26  29
ATOM     29  C   UNL A   1      35.371  30.975  28.180  1.00  0.00     0.039 A 
ATOM     30  C   UNL A   1      36.569  31.682  28.060  1.00  0.00     0.014 A 
ATOM     31  C   UNL A   1      35.340  29.743  28.837  1.00  0.00     0.014 A 
ATOM     32  C   UNL A   1      37.730  31.170  28.641  1.00  0.00     0.010 A 
ATOM     33  C   UNL A   1      36.479  29.278  29.487  1.00  0.00     0.010 A 
ATOM     34  C   UNL A   1      37.690  29.976  29.381  1.00  0.00    -0.014 A 
BRANCH  34  35
ATOM     35  C   UNL A   1      38.913  29.434  30.025  1.00  0.00     0.031 A 
ATOM     36  C   UNL A   1      39.356  29.958  31.365  1.00  0.00     0.074 A 
ATOM     37  C   UNL A   1      39.657  28.514  29.379  1.00  0.00     0.049 A 
ATOM     38  N   UNL A   1      40.407  29.633  32.072  1.00  0.00    -0.248 NA
ATOM     39  C   UNL A   1      38.526  31.007  31.981  1.00  0.00     0.031 C 
ATOM     40  C   UNL A   1      39.384  27.991  28.039  1.00  0.00     0.029 A 
ATOM     41  N   UNL A   1      40.809  27.871  29.756  1.00  0.00    -0.354 N 
ATOM     42  C   UNL A   1      40.375  30.447  33.197  1.00  0.00     0.074 A 
ATOM     43  C   UNL A   1      39.234  31.322  33.055  1.00  0.00     0.031 C 
ATOM     44  C   UNL A   1      40.338  27.106  27.708  1.00  0.00     0.029 A 
ATOM     45  C   UNL A   1      41.303  27.015  28.799  1.00  0.00     0.049 A 
ATOM     46  H   UNL A   1      41.242  28.008  30.630  1.00  0.00     0.167 HD
ATOM     47  C   UNL A   1      41.197  30.442  34.276  1.00  0.00     0.034 A 
ATOM     48  C   UNL A   1      42.410  26.247  28.801  1.00  0.00     0.034 A 
ATOM     49  C   UNL A   1      42.311  29.548  34.431  1.00  0.00     0.049 A 
ATOM     50  C   UNL A   1      43.279  26.225  30.029  1.00  0.00     0.074 A 
ATOM     51  C   UNL A   1      43.174  29.426  35.506  1.00  0.00     0.029 A 
ATOM     52  N   UNL A   1      42.719  28.622  33.483  1.00  0.00    -0.354 N 
ATOM     53  N   UNL A   1      43.152  26.905  31.143  1.00  0.00    -0.248 NA
ATOM     54  C   UNL A   1      44.415  25.292  30.022  1.00  0.00     0.031 C 
ATOM     55  C   UNL A   1      44.113  28.435  35.201  1.00  0.00     0.029 A 
ATOM     56  C   UNL A   1      43.814  27.917  33.951  1.00  0.00     0.049 A 
ATOM     57  H   UNL A   1      42.292  28.486  32.607  1.00  0.00     0.167 HD
ATOM     58  C   UNL A   1      44.162  26.451  31.984  1.00  0.00     0.074 A 
ATOM     59  C   UNL A   1      44.876  25.421  31.258  1.00  0.00     0.031 C 
ATOM     60  C   UNL A   1      44.478  26.855  33.239  1.00  0.00     0.034 A 
BRANCH  47  61
ATOM     61  C   UNL A   1      40.874  31.392  35.400  1.00  0.00     0.023 A 
ATOM     62  C   UNL A   1      41.790  32.416  35.726  1.00  0.00     0.012 A 
ATOM     63  C   UNL A   1      39.653  31.313  36.098  1.00  0.00     0.148 A 
ATOM     64  C   UNL A   1      41.516  33.317  36.752  1.00  0.00     0.002 A 
ATOM     65  C   UNL A   1      39.365  32.246  37.087  1.00  0.00     0.091 A 
ATOM     66  F   UNL A   1      38.803  30.324  35.788  1.00  0.00    -0.205 F 
ATOM     67  C   UNL A   1      40.300  33.239  37.425  1.00  0.00     0.022 A 
BRANCH  65  68
ATOM     68  S   UNL A   1      37.795  32.286  37.959  1.00  0.00     0.127 S 
ATOM     69  O   UNL A   1      36.958  33.040  37.025  1.00  0.00    -0.237 OA
ATOM     70  O   UNL A   1      37.465  30.865  38.061  1.00  0.00    -0.237 OA
ATOM     71  O   UNL A   1      38.057  32.946  39.230  1.00  0.00    -0.744 OA
ENDBRANCH  65  68
ENDBRANCH  47  61
BRANCH  48  72
ATOM     72  C   UNL A   1      42.730  25.392  27.622  1.00  0.00     0.023 A 
ATOM     73  C   UNL A   1      43.550  25.899  26.593  1.00  0.00     0.012 A 
ATOM     74  C   UNL A   1      42.231  24.081  27.517  1.00  0.00     0.148 A 
ATOM     75  C   UNL A   1      43.827  25.131  25.461  1.00  0.00     0.002 A 
ATOM     76  C   UNL A   1      42.560  23.300  26.416  1.00  0.00     0.091 A 
ATOM     77  F   UNL A   1      41.446  23.621  28.501  1.00  0.00    -0.205 F 
ATOM     78  C   UNL A   1      43.340  23.830  25.376  1.00  0.00     0.022 A 
BRANCH  76  79
ATOM     79  S   UNL A   1      42.087  21.572  26.289  1.00  0.00     0.127 S 
ATOM     80  O   UNL A   1      40.673  21.674  25.940  1.00  0.00    -0.237 OA
ATOM     81  O   UNL A   1      42.957  21.099  25.212  1.00  0.00    -0.237 OA
ATOM     82  O   UNL A   1      42.380  20.990  27.592  1.00  0.00    -0.744 OA
ENDBRANCH  76  79
ENDBRANCH  48  72
BRANCH  60  83
ATOM     83  C   UNL A   1      45.605  26.141  33.938  1.00  0.00     0.023 A 
ATOM     84  C   UNL A   1      46.933  26.586  33.782  1.00  0.00     0.012 A 
ATOM     85  C   UNL A   1      45.337  25.054  34.793  1.00  0.00     0.148 A 
ATOM     86  C   UNL A   1      47.980  25.931  34.427  1.00  0.00     0.002 A 
ATOM     87  C   UNL A   1      46.380  24.439  35.476  1.00  0.00     0.091 A 
ATOM     88  F   UNL A   1      44.070  24.632  34.915  1.00  0.00    -0.205 F 
ATOM     89  C   UNL A   1      47.704  24.866  35.282  1.00  0.00     0.022 A 
BRANCH  87  90
ATOM     90  S   UNL A   1      46.102  23.129  36.672  1.00  0.00     0.127 S 
ATOM     91  O   UNL A   1      47.468  22.783  37.057  1.00  0.00    -0.237 OA
ATOM     92  O   UNL A   1      45.329  23.813  37.709  1.00  0.00    -0.237 OA
ATOM     93  O   UNL A   1      45.367  22.090  35.962  1.00  0.00    -0.744 OA
ENDBRANCH  87  90
ENDBRANCH  60  83
ENDBRANCH  34  35
ENDBRANCH  26  29
ENDBRANCH  24  25
ENDBRANCH   1  24
TORSDOF 15
ENDMDL
MODEL 2
REMARK VINA RESULT:     -11.3      4.009      6.597
REMARK SMILES Cc1cc(-c2cc(C(=O)NCCCCNC(=O)c3ccc(-c4c5nc(c(-c6cccc(S(=O)(=O)[O-])c6F)c6ccc([nH]6)c(-c6cccc(S(=O)(=O)[O-])c6F)c6nc(c(-c7cccc(S(=O)(=O)[O-])c7F)c7ccc4[nH]7)C=C6)C=C5)cc3)c[nH]c2=O)ccc1Cl
REMARK SMILES IDX 13 1 12 2 11 3 10 4 8 5 9 6 7 8 5 9 6 10 83 11 82 12 84 13
REMARK SMILES IDX 81 14 4 16 1 17 2 18 3 19 87 20 86 21 88 22 85 23 14 24
REMARK SMILES IDX 15 25 16 26 17 28 18 29 19 30 80 31 20 32 79 33 21 34 22 35
REMARK SMILES IDX 23 36 73 37 24 38 78 39 72 40 74 41 25 42 77 43 71 44 70 45
REMARK SMILES IDX 26 47 58 48 38 49 57 50 39 51 42 52 56 53 75 54 40 55 41 56
REMARK SMILES IDX 55 58 76 59 43 60 27 61 28 62 36 63 29 64 31 65 37 66 30 67
REMARK SMILES IDX 32 68 33 69 34 70 35 71 59 72 60 73 68 74 61 75 63 76 69 77
REMARK SMILES IDX 62 78 64 79 65 80 66 81 67 82 44 83 45 84 53 85 46 86 48 87
REMARK SMILES IDX 54 88 47 89 49 90 50 91 51 92 52 93
REMARK H PARENT 10 7 82 15 15 27 74 46 42 57
REMARK Flexibility Score: inf
ROOT
ATOM      1  C   UNL A   1      34.020  28.193  25.407  1.00  0.00     0.023 C 
ENDROOT
BRANCH   1   2
ATOM      2  C   UNL A   1      33.397  29.113  24.352  1.00  0.00     0.023 C 
BRANCH   2   3
ATOM      3  C   UNL A   1      33.076  28.411  23.029  1.00  0.00     0.116 C 
BRANCH   3   4
ATOM      4  N   UNL A   1      31.642  28.293  22.849  1.00  0.00    -0.352 N 
ATOM      5  C   UNL A   1      30.708  27.427  23.329  1.00  0.00     0.252 C 
ATOM      6  O   UNL A   1      29.548  27.596  22.946  1.00  0.00    -0.269 OA
ATOM      7  H   UNL A   1      31.265  28.982  22.256  1.00  0.00     0.163 HD
BRANCH   5   8
ATOM      8  C   UNL A   1      31.019  26.348  24.328  1.00  0.00     0.056 A 
ATOM      9  C   UNL A   1      32.394  24.547  25.256  1.00  0.00     0.048 A 
ATOM     10  C   UNL A   1      32.069  25.357  24.230  1.00  0.00     0.029 A 
ATOM     11  C   UNL A   1      31.522  24.545  26.473  1.00  0.00     0.255 A 
ATOM     12  N   UNL A   1      30.472  25.434  26.446  1.00  0.00    -0.328 N 
ATOM     13  O   UNL A   1      31.709  23.795  27.425  1.00  0.00    -0.269 OA
ATOM     14  C   UNL A   1      30.237  26.322  25.422  1.00  0.00     0.099 A 
ATOM     15  H   UNL A   1      29.848  25.435  27.208  1.00  0.00     0.169 HD
BRANCH   9  16
ATOM     16  C   UNL A   1      33.589  23.702  25.133  1.00  0.00    -0.012 A 
ATOM     17  C   UNL A   1      37.303  23.835  25.952  1.00  0.00     0.046 C 
ATOM     18  C   UNL A   1      35.971  23.315  25.492  1.00  0.00    -0.032 A 
ATOM     19  C   UNL A   1      34.849  24.163  25.532  1.00  0.00     0.014 A 
ATOM     20  C   UNL A   1      35.812  22.000  25.026  1.00  0.00     0.044 A 
ATOM     21  C   UNL A   1      34.562  21.539  24.614  1.00  0.00     0.021 A 
ATOM     22  Cl  UNL A   1      37.142  20.899  24.950  1.00  0.00    -0.084 Cl
ATOM     23  C   UNL A   1      33.455  22.385  24.667  1.00  0.00     0.010 A 
ENDBRANCH   9  16
ENDBRANCH   5   8
ENDBRANCH   3   4
ENDBRANCH   2   3
ENDBRANCH   1   2
BRANCH   1  24
ATOM     24  C   UNL A   1      33.589  28.481  26.841  1.00  0.00     0.116 C 
BRANCH  24  25
ATOM     25  N   UNL A   1      33.485  29.902  27.135  1.00  0.00    -0.352 N 
ATOM     26  C   UNL A   1      34.381  30.702  27.808  1.00  0.00     0.251 C 
ATOM     27  H   UNL A   1      32.670  30.349  26.811  1.00  0.00     0.163 HD
ATOM     28  O   UNL A   1      34.092  31.858  28.076  1.00  0.00    -0.269 OA
BRANCH  26  29
ATOM     29  C   UNL A   1      35.677  30.130  28.232  1.00  0.00     0.039 A 
ATOM     30  C   UNL A   1      36.755  30.181  27.346  1.00  0.00     0.014 A 
ATOM     31  C   UNL A   1      35.831  29.570  29.502  1.00  0.00     0.014 A 
ATOM     32  C   UNL A   1      38.003  29.709  27.756  1.00  0.00     0.010 A 
ATOM     33  C   UNL A   1      37.093  29.179  29.936  1.00  0.00     0.010 A 
ATOM     34  C   UNL A   1      38.189  29.227  29.062  1.00  0.00    -0.014 A 
BRANCH  34  35
ATOM     35  C   UNL A   1      39.517  28.745  29.518  1.00  0.00     0.031 A 
ATOM     36  C   UNL A   1      40.256  29.482  30.604  1.00  0.00     0.074 A 
ATOM     37  C   UNL A   1      40.086  27.682  28.916  1.00  0.00     0.049 A 
ATOM     38  N   UNL A   1      41.433  29.234  31.116  1.00  0.00    -0.248 NA
ATOM     39  C   UNL A   1      39.598  30.672  31.172  1.00  0.00     0.031 C 
ATOM     40  C   UNL A   1      39.513  26.937  27.793  1.00  0.00     0.029 A 
ATOM     41  N   UNL A   1      41.284  27.056  29.151  1.00  0.00    -0.354 N 
ATOM     42  C   UNL A   1      41.665  30.243  32.043  1.00  0.00     0.074 A 
ATOM     43  C   UNL A   1      40.532  31.139  31.986  1.00  0.00     0.031 C 
ATOM     44  C   UNL A   1      40.357  25.954  27.439  1.00  0.00     0.029 A 
ATOM     45  C   UNL A   1      41.540  26.012  28.292  1.00  0.00     0.049 A 
ATOM     46  H   UNL A   1      41.903  27.327  29.868  1.00  0.00     0.167 HD
ATOM     47  C   UNL A   1      42.706  30.390  32.898  1.00  0.00     0.034 A 
ATOM     48  C   UNL A   1      42.609  25.197  28.202  1.00  0.00     0.034 A 
ATOM     49  C   UNL A   1      43.815  29.480  32.978  1.00  0.00     0.049 A 
ATOM     50  C   UNL A   1      43.730  25.352  29.194  1.00  0.00     0.074 A 
ATOM     51  C   UNL A   1      44.894  29.509  33.843  1.00  0.00     0.029 A 
ATOM     52  N   UNL A   1      43.988  28.373  32.160  1.00  0.00    -0.354 N 
ATOM     53  N   UNL A   1      43.864  26.233  30.157  1.00  0.00    -0.248 NA
ATOM     54  C   UNL A   1      44.822  24.372  29.120  1.00  0.00     0.031 C 
ATOM     55  C   UNL A   1      45.728  28.429  33.538  1.00  0.00     0.029 A 
ATOM     56  C   UNL A   1      45.150  27.706  32.506  1.00  0.00     0.049 A 
ATOM     57  H   UNL A   1      43.375  28.102  31.440  1.00  0.00     0.167 HD
ATOM     58  C   UNL A   1      45.030  25.885  30.831  1.00  0.00     0.074 A 
ATOM     59  C   UNL A   1      45.550  24.701  30.178  1.00  0.00     0.031 C 
ATOM     60  C   UNL A   1      45.623  26.496  31.885  1.00  0.00     0.034 A 
BRANCH  47  61
ATOM     61  C   UNL A   1      42.656  31.548  33.862  1.00  0.00     0.023 A 
ATOM     62  C   UNL A   1      43.168  32.803  33.465  1.00  0.00     0.012 A 
ATOM     63  C   UNL A   1      42.060  31.419  35.131  1.00  0.00     0.148 A 
ATOM     64  C   UNL A   1      43.125  33.896  34.328  1.00  0.00     0.002 A 
ATOM     65  C   UNL A   1      41.976  32.526  35.968  1.00  0.00     0.091 A 
ATOM     66  F   UNL A   1      41.595  30.217  35.499  1.00  0.00    -0.205 F 
ATOM     67  C   UNL A   1      42.521  33.760  35.574  1.00  0.00     0.022 A 
BRANCH  65  68
ATOM     68  S   UNL A   1      41.146  32.482  37.560  1.00  0.00     0.127 S 
ATOM     69  O   UNL A   1      39.845  31.919  37.198  1.00  0.00    -0.237 OA
ATOM     70  O   UNL A   1      42.006  31.584  38.329  1.00  0.00    -0.237 OA
ATOM     71  O   UNL A   1      41.117  33.857  38.037  1.00  0.00    -0.744 OA
ENDBRANCH  65  68
ENDBRANCH  47  61
BRANCH  48  72
ATOM     72  C   UNL A   1      42.646  24.122  27.168  1.00  0.00     0.023 A 
ATOM     73  C   UNL A   1      43.311  24.350  25.947  1.00  0.00     0.012 A 
ATOM     74  C   UNL A   1      42.031  22.877  27.391  1.00  0.00     0.148 A 
ATOM     75  C   UNL A   1      43.321  23.374  24.950  1.00  0.00     0.002 A 
ATOM     76  C   UNL A   1      42.096  21.887  26.418  1.00  0.00     0.091 A 
ATOM     77  F   UNL A   1      41.396  22.683  28.556  1.00  0.00    -0.205 F 
ATOM     78  C   UNL A   1      42.722  22.140  25.188  1.00  0.00     0.022 A 
BRANCH  76  79
ATOM     79  S   UNL A   1      41.468  20.227  26.694  1.00  0.00     0.127 S 
ATOM     80  O   UNL A   1      40.038  20.471  26.855  1.00  0.00    -0.237 OA
ATOM     81  O   UNL A   1      41.845  19.552  25.452  1.00  0.00    -0.237 OA
ATOM     82  O   UNL A   1      42.166  19.736  27.875  1.00  0.00    -0.744 OA
ENDBRANCH  76  79
ENDBRANCH  48  72
BRANCH  60  83
ATOM     83  C   UNL A   1      46.869  25.861  32.447  1.00  0.00     0.023 A 
ATOM     84  C   UNL A   1      48.133  26.186  31.916  1.00  0.00     0.012 A 
ATOM     85  C   UNL A   1      46.785  24.976  33.541  1.00  0.00     0.148 A 
ATOM     86  C   UNL A   1      49.289  25.603  32.433  1.00  0.00     0.002 A 
ATOM     87  C   UNL A   1      47.946  24.441  34.086  1.00  0.00     0.091 A 
ATOM     88  F   UNL A   1      45.573  24.664  34.020  1.00  0.00    -0.205 F 
ATOM     89  C   UNL A   1      49.197  24.741  33.524  1.00  0.00     0.022 A 
BRANCH  87  90
ATOM     90  S   UNL A   1      47.926  23.404  35.551  1.00  0.00     0.127 S 
ATOM     91  O   UNL A   1      47.199  22.229  35.074  1.00  0.00    -0.237 OA
ATOM     92  O   UNL A   1      49.352  23.183  35.796  1.00  0.00    -0.237 OA
ATOM     93  O   UNL A   1      47.252  24.183  36.582  1.00  0.00    -0.744 OA
ENDBRANCH  87  90
ENDBRANCH  60  83
ENDBRANCH  34  35
ENDBRANCH  26  29
ENDBRANCH  24  25
ENDBRANCH   1  24
TORSDOF 15
ENDMDL
MODEL 3
REMARK VINA RESULT:     -11.2      1.913      2.118
REMARK SMILES Cc1cc(-c2cc(C(=O)NCCCCNC(=O)c3ccc(-c4c5nc(c(-c6cccc(S(=O)(=O)[O-])c6F)c6ccc([nH]6)c(-c6cccc(S(=O)(=O)[O-])c6F)c6nc(c(-c7cccc(S(=O)(=O)[O-])c7F)c7ccc4[nH]7)C=C6)C=C5)cc3)c[nH]c2=O)ccc1Cl
REMARK SMILES IDX 13 1 12 2 11 3 10 4 8 5 9 6 7 8 5 9 6 10 83 11 82 12 84 13
REMARK SMILES IDX 81 14 4 16 1 17 2 18 3 19 87 20 86 21 88 22 85 23 14 24
REMARK SMILES IDX 15 25 16 26 17 28 18 29 19 30 80 31 20 32 79 33 21 34 22 35
REMARK SMILES IDX 23 36 73 37 24 38 78 39 72 40 74 41 25 42 77 43 71 44 70 45
REMARK SMILES IDX 26 47 58 48 38 49 57 50 39 51 42 52 56 53 75 54 40 55 41 56
REMARK SMILES IDX 55 58 76 59 43 60 27 61 28 62 36 63 29 64 31 65 37 66 30 67
REMARK SMILES IDX 32 68 33 69 34 70 35 71 59 72 60 73 68 74 61 75 63 76 69 77
REMARK SMILES IDX 62 78 64 79 65 80 66 81 67 82 44 83 45 84 53 85 46 86 48 87
REMARK SMILES IDX 54 88 47 89 49 90 50 91 51 92 52 93
REMARK H PARENT 10 7 82 15 15 27 74 46 42 57
REMARK Flexibility Score: inf
ROOT
ATOM      1  C   UNL A   1      35.238  34.326  28.263  1.00  0.00     0.023 C 
ENDROOT
BRANCH   1   2
ATOM      2  C   UNL A   1      34.369  35.568  28.490  1.00  0.00     0.023 C 
BRANCH   2   3
ATOM      3  C   UNL A   1      33.035  35.273  29.183  1.00  0.00     0.116 C 
BRANCH   3   4
ATOM      4  N   UNL A   1      32.784  36.237  30.236  1.00  0.00    -0.352 N 
ATOM      5  C   UNL A   1      33.141  36.304  31.547  1.00  0.00     0.252 C 
ATOM      6  O   UNL A   1      32.726  37.275  32.186  1.00  0.00    -0.269 OA
ATOM      7  H   UNL A   1      32.241  37.003  29.941  1.00  0.00     0.163 HD
BRANCH   5   8
ATOM      8  C   UNL A   1      34.049  35.306  32.207  1.00  0.00     0.056 A 
ATOM      9  C   UNL A   1      36.236  34.318  32.700  1.00  0.00     0.048 A 
ATOM     10  C   UNL A   1      35.456  35.105  31.934  1.00  0.00     0.029 A 
ATOM     11  C   UNL A   1      35.588  33.480  33.759  1.00  0.00     0.255 A 
ATOM     12  N   UNL A   1      34.226  33.638  33.883  1.00  0.00    -0.328 N 
ATOM     13  O   UNL A   1      36.213  32.691  34.458  1.00  0.00    -0.269 OA
ATOM     14  C   UNL A   1      33.481  34.534  33.152  1.00  0.00     0.099 A 
ATOM     15  H   UNL A   1      33.754  33.074  34.538  1.00  0.00     0.169 HD
BRANCH   9  16
ATOM     16  C   UNL A   1      37.685  34.318  32.463  1.00  0.00    -0.012 A 
ATOM     17  C   UNL A   1      40.121  34.432  29.541  1.00  0.00     0.046 C 
ATOM     18  C   UNL A   1      39.596  34.408  30.948  1.00  0.00    -0.032 A 
ATOM     19  C   UNL A   1      38.208  34.319  31.165  1.00  0.00     0.014 A 
ATOM     20  C   UNL A   1      40.453  34.478  32.059  1.00  0.00     0.044 A 
ATOM     21  C   UNL A   1      39.938  34.465  33.355  1.00  0.00     0.021 A 
ATOM     22  Cl  UNL A   1      42.167  34.592  31.874  1.00  0.00    -0.084 Cl
ATOM     23  C   UNL A   1      38.561  34.386  33.557  1.00  0.00     0.010 A 
ENDBRANCH   9  16
ENDBRANCH   5   8
ENDBRANCH   3   4
ENDBRANCH   2   3
ENDBRANCH   1   2
BRANCH   1  24
ATOM     24  C   UNL A   1      34.753  33.067  28.974  1.00  0.00     0.116 C 
BRANCH  24  25
ATOM     25  N   UNL A   1      33.999  32.175  28.107  1.00  0.00    -0.352 N 
ATOM     26  C   UNL A   1      34.350  30.921  27.661  1.00  0.00     0.251 C 
ATOM     27  H   UNL A   1      33.126  32.511  27.800  1.00  0.00     0.163 HD
ATOM     28  O   UNL A   1      33.654  30.344  26.839  1.00  0.00    -0.269 OA
BRANCH  26  29
ATOM     29  C   UNL A   1      35.595  30.302  28.163  1.00  0.00     0.039 A 
ATOM     30  C   UNL A   1      36.741  30.356  27.366  1.00  0.00     0.014 A 
ATOM     31  C   UNL A   1      35.637  29.695  29.420  1.00  0.00     0.014 A 
ATOM     32  C   UNL A   1      37.942  29.839  27.853  1.00  0.00     0.010 A 
ATOM     33  C   UNL A   1      36.852  29.258  29.936  1.00  0.00     0.010 A 
ATOM     34  C   UNL A   1      38.013  29.308  29.152  1.00  0.00    -0.014 A 
BRANCH  34  35
ATOM     35  C   UNL A   1      39.291  28.778  29.692  1.00  0.00     0.031 A 
ATOM     36  C   UNL A   1      39.926  29.420  30.897  1.00  0.00     0.074 A 
ATOM     37  C   UNL A   1      39.910  27.758  29.065  1.00  0.00     0.049 A 
ATOM     38  N   UNL A   1      41.048  29.121  31.497  1.00  0.00    -0.248 NA
ATOM     39  C   UNL A   1      39.222  30.569  31.493  1.00  0.00     0.031 C 
ATOM     40  C   UNL A   1      39.444  27.109  27.838  1.00  0.00     0.029 A 
ATOM     41  N   UNL A   1      41.078  27.103  29.362  1.00  0.00    -0.354 N 
ATOM     42  C   UNL A   1      41.195  30.051  32.518  1.00  0.00     0.074 A 
ATOM     43  C   UNL A   1      40.076  30.962  32.424  1.00  0.00     0.031 C 
ATOM     44  C   UNL A   1      40.314  26.148  27.490  1.00  0.00     0.029 A 
ATOM     45  C   UNL A   1      41.411  26.126  28.452  1.00  0.00     0.049 A 
ATOM     46  H   UNL A   1      41.628  27.311  30.153  1.00  0.00     0.167 HD
ATOM     47  C   UNL A   1      42.151  30.121  33.476  1.00  0.00     0.034 A 
ATOM     48  C   UNL A   1      42.481  25.309  28.399  1.00  0.00     0.034 A 
ATOM     49  C   UNL A   1      43.244  29.194  33.588  1.00  0.00     0.049 A 
ATOM     50  C   UNL A   1      43.503  25.374  29.502  1.00  0.00     0.074 A 
ATOM     51  C   UNL A   1      44.236  29.145  34.551  1.00  0.00     0.029 A 
ATOM     52  N   UNL A   1      43.489  28.153  32.707  1.00  0.00    -0.354 N 
ATOM     53  N   UNL A   1      43.548  26.176  30.539  1.00  0.00    -0.248 NA
ATOM     54  C   UNL A   1      44.594  24.391  29.455  1.00  0.00     0.031 C 
ATOM     55  C   UNL A   1      45.091  28.082  34.243  1.00  0.00     0.029 A 
ATOM     56  C   UNL A   1      44.611  27.449  33.107  1.00  0.00     0.049 A 
ATOM     57  H   UNL A   1      42.946  27.945  31.913  1.00  0.00     0.167 HD
ATOM     58  C   UNL A   1      44.644  25.764  31.290  1.00  0.00     0.074 A 
ATOM     59  C   UNL A   1      45.219  24.629  30.599  1.00  0.00     0.031 C 
ATOM     60  C   UNL A   1      45.137  26.284  32.441  1.00  0.00     0.034 A 
BRANCH  47  61
ATOM     61  C   UNL A   1      42.013  31.201  34.519  1.00  0.00     0.023 A 
ATOM     62  C   UNL A   1      41.007  31.089  35.503  1.00  0.00     0.012 A 
ATOM     63  C   UNL A   1      42.902  32.292  34.563  1.00  0.00     0.148 A 
ATOM     64  C   UNL A   1      40.862  32.064  36.488  1.00  0.00     0.002 A 
ATOM     65  C   UNL A   1      42.782  33.235  35.578  1.00  0.00     0.091 A 
ATOM     66  F   UNL A   1      43.839  32.393  33.610  1.00  0.00    -0.205 F 
ATOM     67  C   UNL A   1      41.755  33.131  36.531  1.00  0.00     0.022 A 
BRANCH  65  68
ATOM     68  S   UNL A   1      43.929  34.604  35.774  1.00  0.00     0.127 S 
ATOM     69  O   UNL A   1      43.784  35.295  34.493  1.00  0.00    -0.237 OA
ATOM     70  O   UNL A   1      43.362  35.317  36.919  1.00  0.00    -0.237 OA
ATOM     71  O   UNL A   1      45.234  34.004  36.013  1.00  0.00    -0.744 OA
ENDBRANCH  65  68
ENDBRANCH  47  61
BRANCH  48  72
ATOM     72  C   UNL A   1      42.611  24.318  27.293  1.00  0.00     0.023 A 
ATOM     73  C   UNL A   1      43.346  24.652  26.138  1.00  0.00     0.012 A 
ATOM     74  C   UNL A   1      42.016  23.046  27.381  1.00  0.00     0.148 A 
ATOM     75  C   UNL A   1      43.445  23.755  25.073  1.00  0.00     0.002 A 
ATOM     76  C   UNL A   1      42.169  22.135  26.343  1.00  0.00     0.091 A 
ATOM     77  F   UNL A   1      41.314  22.749  28.484  1.00  0.00    -0.205 F 
ATOM     78  C   UNL A   1      42.865  22.495  25.179  1.00  0.00     0.022 A 
BRANCH  76  79
ATOM     79  S   UNL A   1      41.570  20.445  26.453  1.00  0.00     0.127 S 
ATOM     80  O   UNL A   1      40.123  20.640  26.430  1.00  0.00    -0.237 OA
ATOM     81  O   UNL A   1      42.132  19.847  25.242  1.00  0.00    -0.237 OA
ATOM     82  O   UNL A   1      42.120  19.914  27.692  1.00  0.00    -0.744 OA
ENDBRANCH  76  79
ENDBRANCH  48  72
BRANCH  60  83
ATOM     83  C   UNL A   1      46.321  25.594  33.066  1.00  0.00     0.023 A 
ATOM     84  C   UNL A   1      47.630  26.034  32.784  1.00  0.00     0.012 A 
ATOM     85  C   UNL A   1      46.129  24.536  33.977  1.00  0.00     0.148 A 
ATOM     86  C   UNL A   1      48.730  25.401  33.361  1.00  0.00     0.002 A 
ATOM     87  C   UNL A   1      47.226  23.945  34.589  1.00  0.00     0.091 A 
ATOM     88  F   UNL A   1      44.878  24.118  34.218  1.00  0.00    -0.205 F 
ATOM     89  C   UNL A   1      48.528  24.365  34.271  1.00  0.00     0.022 A 
BRANCH  87  90
ATOM     90  S   UNL A   1      47.053  22.675  35.847  1.00  0.00     0.127 S 
ATOM     91  O   UNL A   1      46.703  21.506  35.043  1.00  0.00    -0.237 OA
ATOM     92  O   UNL A   1      48.393  22.634  36.435  1.00  0.00    -0.237 OA
ATOM     93  O   UNL A   1      46.014  23.149  36.752  1.00  0.00    -0.744 OA
ENDBRANCH  87  90
ENDBRANCH  60  83
ENDBRANCH  34  35
ENDBRANCH  26  29
ENDBRANCH  24  25
ENDBRANCH   1  24
TORSDOF 15
ENDMDL
