MODEL 1
REMARK VINA RESULT:     -13.1      0.000      0.000
REMARK SMILES CC1(C)O[C@](C)([C@H](O)C2CCCCC2)CC[C@H]1C(=O)NCCCCNC(=O)c1ccc(-c2c3nc(c(-c4cccc(S(=O)(=O)[O-])c4F)c4ccc([nH]4)c(-c4cccc(S(=O)(=O)[O-])c4F)c4nc(c(-c5cccc(S(=O)(=O)[O-])c5F)c5ccc2[nH]5)C=C4)C=C3)cc1
REMARK SMILES IDX 23 1 22 2 21 3 20 4 18 5 19 6 17 8 1 9 2 10 3 11 4 12 5 13
REMARK SMILES IDX 16 14 6 15 15 16 7 17 9 18 10 19 14 20 11 21 13 22 12 23
REMARK SMILES IDX 8 24 24 26 25 27 26 28 27 30 28 31 29 32 90 33 30 34 89 35
REMARK SMILES IDX 31 36 32 37 33 38 83 39 34 40 88 41 82 42 84 43 35 44 87 45
REMARK SMILES IDX 81 46 80 47 36 49 68 50 48 51 67 52 49 53 52 54 66 55 85 56
REMARK SMILES IDX 50 57 51 58 65 60 86 61 53 62 37 63 38 64 46 65 39 66 41 67
REMARK SMILES IDX 47 68 40 69 42 70 43 71 44 72 45 73 69 74 70 75 78 76 71 77
REMARK SMILES IDX 73 78 79 79 72 80 74 81 75 82 76 83 77 84 54 85 55 86 63 87
REMARK SMILES IDX 56 88 58 89 64 90 57 91 59 92 60 93 61 94 62 95
REMARK H PARENT 20 7 8 25 25 29 84 48 52 59
REMARK Flexibility Score: inf
ROOT
ATOM      1  C   UNL A   1      36.213  21.810  24.556  1.00  0.00     0.023 C 
ENDROOT
BRANCH   1   2
ATOM      2  C   UNL A   1      36.083  22.931  23.541  1.00  0.00     0.023 C 
BRANCH   2   3
ATOM      3  C   UNL A   1      34.755  23.689  23.564  1.00  0.00     0.116 C 
BRANCH   3   4
ATOM      4  N   UNL A   1      34.591  24.465  24.776  1.00  0.00    -0.356 N 
ATOM      5  C   UNL A   1      33.934  25.623  25.041  1.00  0.00     0.226 C 
ATOM      6  O   UNL A   1      34.041  26.065  26.190  1.00  0.00    -0.275 OA
ATOM      7  H   UNL A   1      35.043  24.076  25.560  1.00  0.00     0.163 HD
BRANCH   5   8
ATOM      8  C   UNL A   1      33.074  26.388  24.025  1.00  0.00     0.110 C 
ATOM      9  C   UNL A   1      30.942  26.231  25.593  1.00  0.00     0.043 C 
ATOM     10  C   UNL A   1      31.528  26.258  24.186  1.00  0.00     0.075 C 
ATOM     11  C   UNL A   1      31.111  24.900  23.567  1.00  0.00     0.043 C 
ATOM     12  O   UNL A   1      30.774  27.242  23.461  1.00  0.00    -0.366 OA
ATOM     13  C   UNL A   1      31.245  28.591  23.357  1.00  0.00     0.092 C 
ATOM     14  C   UNL A   1      33.635  27.767  23.665  1.00  0.00     0.019 C 
ATOM     15  C   UNL A   1      31.275  29.356  24.692  1.00  0.00     0.045 C 
ATOM     16  C   UNL A   1      32.672  28.551  22.772  1.00  0.00     0.039 C 
BRANCH  13  17
ATOM     17  C   UNL A   1      30.269  29.287  22.332  1.00  0.00     0.149 C 
BRANCH  17  18
ATOM     18  C   UNL A   1      28.897  29.834  22.872  1.00  0.00     0.021 C 
ATOM     19  C   UNL A   1      28.852  31.173  23.630  1.00  0.00     0.006 C 
ATOM     20  C   UNL A   1      27.829  29.916  21.757  1.00  0.00     0.006 C 
ATOM     21  C   UNL A   1      29.108  32.389  22.752  1.00  0.00     0.000 C 
ATOM     22  C   UNL A   1      27.956  31.143  20.849  1.00  0.00     0.000 C 
ATOM     23  C   UNL A   1      28.099  32.458  21.613  1.00  0.00     0.000 C 
ENDBRANCH  17  18
BRANCH  17  24
ATOM     24  O   UNL A   1      30.960  30.228  21.511  1.00  0.00    -0.390 OA
ATOM     25  H   UNL A   1      31.381  29.765  20.770  1.00  0.00     0.211 HD
ENDBRANCH  17  24
ENDBRANCH  13  17
ENDBRANCH   5   8
ENDBRANCH   3   4
ENDBRANCH   2   3
ENDBRANCH   1   2
BRANCH   1  26
ATOM     26  C   UNL A   1      37.204  22.085  25.669  1.00  0.00     0.116 C 
BRANCH  26  27
ATOM     27  N   UNL A   1      38.320  21.144  25.715  1.00  0.00    -0.352 N 
ATOM     28  C   UNL A   1      39.592  21.368  26.190  1.00  0.00     0.251 C 
ATOM     29  H   UNL A   1      38.141  20.243  25.363  1.00  0.00     0.163 HD
ATOM     30  O   UNL A   1      40.462  20.509  26.092  1.00  0.00    -0.269 OA
BRANCH  28  31
ATOM     31  C   UNL A   1      39.889  22.686  26.782  1.00  0.00     0.039 A 
ATOM     32  C   UNL A   1      40.759  22.765  27.871  1.00  0.00     0.014 A 
ATOM     33  C   UNL A   1      39.416  23.843  26.158  1.00  0.00     0.014 A 
ATOM     34  C   UNL A   1      41.220  24.015  28.283  1.00  0.00     0.010 A 
ATOM     35  C   UNL A   1      39.966  25.069  26.495  1.00  0.00     0.010 A 
ATOM     36  C   UNL A   1      40.863  25.172  27.569  1.00  0.00    -0.014 A 
BRANCH  36  37
ATOM     37  C   UNL A   1      41.404  26.506  27.930  1.00  0.00     0.031 A 
ATOM     38  C   UNL A   1      42.829  26.849  27.588  1.00  0.00     0.074 A 
ATOM     39  C   UNL A   1      40.652  27.365  28.648  1.00  0.00     0.049 A 
ATOM     40  N   UNL A   1      43.505  27.932  27.865  1.00  0.00    -0.248 NA
ATOM     41  C   UNL A   1      43.614  25.820  26.882  1.00  0.00     0.031 C 
ATOM     42  C   UNL A   1      39.297  27.103  29.140  1.00  0.00     0.029 A 
ATOM     43  N   UNL A   1      40.932  28.626  29.110  1.00  0.00    -0.354 N 
ATOM     44  C   UNL A   1      44.798  27.696  27.412  1.00  0.00     0.074 A 
ATOM     45  C   UNL A   1      44.828  26.349  26.892  1.00  0.00     0.031 C 
ATOM     46  C   UNL A   1      38.858  28.178  29.816  1.00  0.00     0.029 A 
ATOM     47  C   UNL A   1      39.902  29.197  29.822  1.00  0.00     0.049 A 
ATOM     48  H   UNL A   1      41.790  29.081  28.946  1.00  0.00     0.167 HD
ATOM     49  C   UNL A   1      45.856  28.540  27.387  1.00  0.00     0.034 A 
ATOM     50  C   UNL A   1      39.809  30.410  30.401  1.00  0.00     0.034 A 
ATOM     51  C   UNL A   1      45.796  29.904  27.830  1.00  0.00     0.049 A 
ATOM     52  C   UNL A   1      40.961  31.370  30.262  1.00  0.00     0.074 A 
ATOM     53  C   UNL A   1      46.774  30.879  27.751  1.00  0.00     0.029 A 
ATOM     54  N   UNL A   1      44.690  30.491  28.424  1.00  0.00    -0.354 N 
ATOM     55  N   UNL A   1      42.118  31.188  29.673  1.00  0.00    -0.248 NA
ATOM     56  C   UNL A   1      40.779  32.716  30.825  1.00  0.00     0.031 C 
ATOM     57  C   UNL A   1      46.259  32.056  28.302  1.00  0.00     0.029 A 
ATOM     58  C   UNL A   1      44.956  31.817  28.711  1.00  0.00     0.049 A 
ATOM     59  H   UNL A   1      43.840  30.031  28.614  1.00  0.00     0.167 HD
ATOM     60  C   UNL A   1      42.785  32.404  29.757  1.00  0.00     0.074 A 
ATOM     61  C   UNL A   1      41.893  33.321  30.439  1.00  0.00     0.031 C 
ATOM     62  C   UNL A   1      44.029  32.731  29.327  1.00  0.00     0.034 A 
BRANCH  49  63
ATOM     63  C   UNL A   1      47.138  28.031  26.785  1.00  0.00     0.023 A 
ATOM     64  C   UNL A   1      48.176  27.593  27.634  1.00  0.00     0.012 A 
ATOM     65  C   UNL A   1      47.307  27.948  25.390  1.00  0.00     0.148 A 
ATOM     66  C   UNL A   1      49.376  27.120  27.107  1.00  0.00     0.002 A 
ATOM     67  C   UNL A   1      48.489  27.432  24.871  1.00  0.00     0.091 A 
ATOM     68  F   UNL A   1      46.321  28.392  24.597  1.00  0.00    -0.205 F 
ATOM     69  C   UNL A   1      49.528  27.030  25.727  1.00  0.00     0.022 A 
BRANCH  67  70
ATOM     70  S   UNL A   1      48.752  27.201  23.109  1.00  0.00     0.127 S 
ATOM     71  O   UNL A   1      50.207  27.299  23.012  1.00  0.00    -0.237 OA
ATOM     72  O   UNL A   1      48.216  25.856  22.890  1.00  0.00    -0.237 OA
ATOM     73  O   UNL A   1      48.004  28.264  22.451  1.00  0.00    -0.744 OA
ENDBRANCH  67  70
ENDBRANCH  49  63
BRANCH  50  74
ATOM     74  C   UNL A   1      38.539  30.825  31.062  1.00  0.00     0.023 A 
ATOM     75  C   UNL A   1      38.378  30.601  32.443  1.00  0.00     0.012 A 
ATOM     76  C   UNL A   1      37.509  31.466  30.348  1.00  0.00     0.148 A 
ATOM     77  C   UNL A   1      37.203  30.977  33.096  1.00  0.00     0.002 A 
ATOM     78  C   UNL A   1      36.361  31.887  31.014  1.00  0.00     0.091 A 
ATOM     79  F   UNL A   1      37.673  31.661  29.032  1.00  0.00    -0.205 F 
ATOM     80  C   UNL A   1      36.201  31.629  32.384  1.00  0.00     0.022 A 
BRANCH  78  81
ATOM     81  S   UNL A   1      35.079  32.848  30.204  1.00  0.00     0.127 S 
ATOM     82  O   UNL A   1      35.840  33.973  29.668  1.00  0.00    -0.237 OA
ATOM     83  O   UNL A   1      34.579  31.907  29.201  1.00  0.00    -0.237 OA
ATOM     84  O   UNL A   1      34.117  33.171  31.250  1.00  0.00    -0.744 OA
ENDBRANCH  78  81
ENDBRANCH  50  74
BRANCH  62  85
ATOM     85  C   UNL A   1      44.491  34.146  29.535  1.00  0.00     0.023 A 
ATOM     86  C   UNL A   1      45.249  34.472  30.676  1.00  0.00     0.012 A 
ATOM     87  C   UNL A   1      44.251  35.131  28.557  1.00  0.00     0.148 A 
ATOM     88  C   UNL A   1      45.736  35.767  30.856  1.00  0.00     0.002 A 
ATOM     89  C   UNL A   1      44.777  36.406  28.721  1.00  0.00     0.091 A 
ATOM     90  F   UNL A   1      43.509  34.805  27.489  1.00  0.00    -0.205 F 
ATOM     91  C   UNL A   1      45.512  36.728  29.873  1.00  0.00     0.022 A 
BRANCH  89  92
ATOM     92  S   UNL A   1      44.617  37.673  27.457  1.00  0.00     0.127 S 
ATOM     93  O   UNL A   1      44.854  38.893  28.227  1.00  0.00    -0.237 OA
ATOM     94  O   UNL A   1      45.688  37.323  26.523  1.00  0.00    -0.237 OA
ATOM     95  O   UNL A   1      43.274  37.521  26.913  1.00  0.00    -0.744 OA
ENDBRANCH  89  92
ENDBRANCH  62  85
ENDBRANCH  36  37
ENDBRANCH  28  31
ENDBRANCH  26  27
ENDBRANCH   1  26
TORSDOF 17
ENDMDL
MODEL 2
REMARK VINA RESULT:     -13.0      1.580      2.012
REMARK SMILES CC1(C)O[C@](C)([C@H](O)C2CCCCC2)CC[C@H]1C(=O)NCCCCNC(=O)c1ccc(-c2c3nc(c(-c4cccc(S(=O)(=O)[O-])c4F)c4ccc([nH]4)c(-c4cccc(S(=O)(=O)[O-])c4F)c4nc(c(-c5cccc(S(=O)(=O)[O-])c5F)c5ccc2[nH]5)C=C4)C=C3)cc1
REMARK SMILES IDX 23 1 22 2 21 3 20 4 18 5 19 6 17 8 1 9 2 10 3 11 4 12 5 13
REMARK SMILES IDX 16 14 6 15 15 16 7 17 9 18 10 19 14 20 11 21 13 22 12 23
REMARK SMILES IDX 8 24 24 26 25 27 26 28 27 30 28 31 29 32 90 33 30 34 89 35
REMARK SMILES IDX 31 36 32 37 33 38 83 39 34 40 88 41 82 42 84 43 35 44 87 45
REMARK SMILES IDX 81 46 80 47 36 49 68 50 48 51 67 52 49 53 52 54 66 55 85 56
REMARK SMILES IDX 50 57 51 58 65 60 86 61 53 62 37 63 38 64 46 65 39 66 41 67
REMARK SMILES IDX 47 68 40 69 42 70 43 71 44 72 45 73 69 74 70 75 78 76 71 77
REMARK SMILES IDX 73 78 79 79 72 80 74 81 75 82 76 83 77 84 54 85 55 86 63 87
REMARK SMILES IDX 56 88 58 89 64 90 57 91 59 92 60 93 61 94 62 95
REMARK H PARENT 20 7 8 25 25 29 84 48 52 59
REMARK Flexibility Score: inf
ROOT
ATOM      1  C   UNL A   1      35.626  22.785  24.421  1.00  0.00     0.023 C 
ENDROOT
BRANCH   1   2
ATOM      2  C   UNL A   1      34.898  24.109  24.567  1.00  0.00     0.023 C 
BRANCH   2   3
ATOM      3  C   UNL A   1      33.389  24.061  24.321  1.00  0.00     0.116 C 
BRANCH   3   4
ATOM      4  N   UNL A   1      32.645  23.843  25.544  1.00  0.00    -0.356 N 
ATOM      5  C   UNL A   1      31.669  24.558  26.162  1.00  0.00     0.226 C 
ATOM      6  O   UNL A   1      31.275  24.122  27.250  1.00  0.00    -0.275 OA
ATOM      7  H   UNL A   1      32.893  23.016  26.018  1.00  0.00     0.163 HD
BRANCH   5   8
ATOM      8  C   UNL A   1      31.033  25.835  25.596  1.00  0.00     0.110 C 
ATOM      9  C   UNL A   1      33.297  27.184  25.882  1.00  0.00     0.043 C 
ATOM     10  C   UNL A   1      31.774  27.173  25.900  1.00  0.00     0.075 C 
ATOM     11  C   UNL A   1      31.401  27.590  27.346  1.00  0.00     0.043 C 
ATOM     12  O   UNL A   1      31.360  28.277  25.079  1.00  0.00    -0.366 OA
ATOM     13  C   UNL A   1      31.043  28.078  23.696  1.00  0.00     0.092 C 
ATOM     14  C   UNL A   1      30.446  25.654  24.193  1.00  0.00     0.019 C 
ATOM     15  C   UNL A   1      32.243  27.665  22.825  1.00  0.00     0.045 C 
ATOM     16  C   UNL A   1      29.961  26.981  23.610  1.00  0.00     0.039 C 
BRANCH  13  17
ATOM     17  C   UNL A   1      30.444  29.455  23.212  1.00  0.00     0.149 C 
BRANCH  17  18
ATOM     18  C   UNL A   1      29.038  29.443  22.507  1.00  0.00     0.021 C 
ATOM     19  C   UNL A   1      27.768  29.725  23.328  1.00  0.00     0.006 C 
ATOM     20  C   UNL A   1      28.998  30.388  21.284  1.00  0.00     0.006 C 
ATOM     21  C   UNL A   1      27.638  31.169  23.790  1.00  0.00     0.000 C 
ATOM     22  C   UNL A   1      28.805  31.867  21.633  1.00  0.00     0.000 C 
ATOM     23  C   UNL A   1      27.652  32.122  22.602  1.00  0.00     0.000 C 
ENDBRANCH  17  18
BRANCH  17  24
ATOM     24  O   UNL A   1      30.551  30.455  24.225  1.00  0.00    -0.390 OA
ATOM     25  H   UNL A   1      29.670  30.806  24.428  1.00  0.00     0.211 HD
ENDBRANCH  17  24
ENDBRANCH  13  17
ENDBRANCH   5   8
ENDBRANCH   3   4
ENDBRANCH   2   3
ENDBRANCH   1   2
BRANCH   1  26
ATOM     26  C   UNL A   1      36.197  22.238  25.714  1.00  0.00     0.116 C 
BRANCH  26  27
ATOM     27  N   UNL A   1      37.217  21.211  25.524  1.00  0.00    -0.352 N 
ATOM     28  C   UNL A   1      38.558  21.288  25.826  1.00  0.00     0.251 C 
ATOM     29  H   UNL A   1      36.909  20.363  25.132  1.00  0.00     0.163 HD
ATOM     30  O   UNL A   1      39.323  20.375  25.536  1.00  0.00    -0.269 OA
BRANCH  28  31
ATOM     31  C   UNL A   1      39.054  22.520  26.470  1.00  0.00     0.039 A 
ATOM     32  C   UNL A   1      40.142  22.444  27.340  1.00  0.00     0.014 A 
ATOM     33  C   UNL A   1      38.525  23.755  26.089  1.00  0.00     0.014 A 
ATOM     34  C   UNL A   1      40.755  23.622  27.766  1.00  0.00     0.010 A 
ATOM     35  C   UNL A   1      39.207  24.916  26.420  1.00  0.00     0.010 A 
ATOM     36  C   UNL A   1      40.320  24.865  27.273  1.00  0.00    -0.014 A 
BRANCH  36  37
ATOM     37  C   UNL A   1      41.004  26.130  27.639  1.00  0.00     0.031 A 
ATOM     38  C   UNL A   1      42.442  26.339  27.248  1.00  0.00     0.074 A 
ATOM     39  C   UNL A   1      40.369  27.040  28.406  1.00  0.00     0.049 A 
ATOM     40  N   UNL A   1      43.232  27.343  27.520  1.00  0.00    -0.248 NA
ATOM     41  C   UNL A   1      43.094  25.255  26.489  1.00  0.00     0.031 C 
ATOM     42  C   UNL A   1      39.015  26.900  28.946  1.00  0.00     0.029 A 
ATOM     43  N   UNL A   1      40.790  28.255  28.882  1.00  0.00    -0.354 N 
ATOM     44  C   UNL A   1      44.477  26.993  27.011  1.00  0.00     0.074 A 
ATOM     45  C   UNL A   1      44.353  25.662  26.461  1.00  0.00     0.031 C 
ATOM     46  C   UNL A   1      38.710  27.995  29.662  1.00  0.00     0.029 A 
ATOM     47  C   UNL A   1      39.850  28.906  29.648  1.00  0.00     0.049 A 
ATOM     48  H   UNL A   1      41.682  28.628  28.694  1.00  0.00     0.167 HD
ATOM     49  C   UNL A   1      45.612  27.729  26.961  1.00  0.00     0.034 A 
ATOM     50  C   UNL A   1      39.899  30.108  30.256  1.00  0.00     0.034 A 
ATOM     51  C   UNL A   1      45.705  29.080  27.435  1.00  0.00     0.049 A 
ATOM     52  C   UNL A   1      41.135  30.953  30.090  1.00  0.00     0.074 A 
ATOM     53  C   UNL A   1      46.771  29.956  27.337  1.00  0.00     0.029 A 
ATOM     54  N   UNL A   1      44.686  29.758  28.086  1.00  0.00    -0.354 N 
ATOM     55  N   UNL A   1      42.245  30.673  29.452  1.00  0.00    -0.248 NA
ATOM     56  C   UNL A   1      41.109  32.295  30.689  1.00  0.00     0.031 C 
ATOM     57  C   UNL A   1      46.396  31.164  27.933  1.00  0.00     0.029 A 
ATOM     58  C   UNL A   1      45.093  31.044  28.390  1.00  0.00     0.049 A 
ATOM     59  H   UNL A   1      43.803  29.380  28.300  1.00  0.00     0.167 HD
ATOM     60  C   UNL A   1      43.032  31.815  29.535  1.00  0.00     0.074 A 
ATOM     61  C   UNL A   1      42.263  32.798  30.271  1.00  0.00     0.031 C 
ATOM     62  C   UNL A   1      44.285  32.028  29.062  1.00  0.00     0.034 A 
BRANCH  49  63
ATOM     63  C   UNL A   1      46.813  27.111  26.297  1.00  0.00     0.023 A 
ATOM     64  C   UNL A   1      46.946  27.192  24.895  1.00  0.00     0.012 A 
ATOM     65  C   UNL A   1      47.824  26.486  27.051  1.00  0.00     0.148 A 
ATOM     66  C   UNL A   1      48.045  26.627  24.249  1.00  0.00     0.002 A 
ATOM     67  C   UNL A   1      48.939  25.964  26.405  1.00  0.00     0.091 A 
ATOM     68  F   UNL A   1      47.669  26.395  28.379  1.00  0.00    -0.205 F 
ATOM     69  C   UNL A   1      49.045  26.023  25.005  1.00  0.00     0.022 A 
BRANCH  67  70
ATOM     70  S   UNL A   1      50.320  25.237  27.294  1.00  0.00     0.127 S 
ATOM     71  O   UNL A   1      51.245  24.932  26.205  1.00  0.00    -0.237 OA
ATOM     72  O   UNL A   1      50.742  26.336  28.164  1.00  0.00    -0.237 OA
ATOM     73  O   UNL A   1      49.777  24.084  28.000  1.00  0.00    -0.744 OA
ENDBRANCH  67  70
ENDBRANCH  49  63
BRANCH  50  74
ATOM     74  C   UNL A   1      38.703  30.629  30.976  1.00  0.00     0.023 A 
ATOM     75  C   UNL A   1      38.629  30.491  32.376  1.00  0.00     0.012 A 
ATOM     76  C   UNL A   1      37.659  31.286  30.297  1.00  0.00     0.148 A 
ATOM     77  C   UNL A   1      37.526  30.968  33.084  1.00  0.00     0.002 A 
ATOM     78  C   UNL A   1      36.586  31.806  31.014  1.00  0.00     0.091 A 
ATOM     79  F   UNL A   1      37.739  31.398  28.963  1.00  0.00    -0.205 F 
ATOM     80  C   UNL A   1      36.510  31.634  32.404  1.00  0.00     0.022 A 
BRANCH  78  81
ATOM     81  S   UNL A   1      35.300  32.791  30.237  1.00  0.00     0.127 S 
ATOM     82  O   UNL A   1      34.782  31.869  29.231  1.00  0.00    -0.237 OA
ATOM     83  O   UNL A   1      34.396  33.053  31.359  1.00  0.00    -0.237 OA
ATOM     84  O   UNL A   1      35.975  33.977  29.727  1.00  0.00    -0.744 OA
ENDBRANCH  78  81
ENDBRANCH  50  74
BRANCH  62  85
ATOM     85  C   UNL A   1      44.893  33.386  29.281  1.00  0.00     0.023 A 
ATOM     86  C   UNL A   1      45.641  33.636  30.448  1.00  0.00     0.012 A 
ATOM     87  C   UNL A   1      44.799  34.383  28.291  1.00  0.00     0.148 A 
ATOM     88  C   UNL A   1      46.261  34.870  30.640  1.00  0.00     0.002 A 
ATOM     89  C   UNL A   1      45.456  35.594  28.469  1.00  0.00     0.091 A 
ATOM     90  F   UNL A   1      44.064  34.133  27.197  1.00  0.00    -0.205 F 
ATOM     91  C   UNL A   1      46.180  35.842  29.646  1.00  0.00     0.022 A 
BRANCH  89  92
ATOM     92  S   UNL A   1      45.483  36.861  27.196  1.00  0.00     0.127 S 
ATOM     93  O   UNL A   1      46.409  37.837  27.765  1.00  0.00    -0.237 OA
ATOM     94  O   UNL A   1      46.000  36.132  26.036  1.00  0.00    -0.237 OA
ATOM     95  O   UNL A   1      44.103  37.308  27.054  1.00  0.00    -0.744 OA
ENDBRANCH  89  92
ENDBRANCH  62  85
ENDBRANCH  36  37
ENDBRANCH  28  31
ENDBRANCH  26  27
ENDBRANCH   1  26
TORSDOF 17
ENDMDL
MODEL 3
REMARK VINA RESULT:     -12.9      5.425      8.511
REMARK SMILES CC1(C)O[C@](C)([C@H](O)C2CCCCC2)CC[C@H]1C(=O)NCCCCNC(=O)c1ccc(-c2c3nc(c(-c4cccc(S(=O)(=O)[O-])c4F)c4ccc([nH]4)c(-c4cccc(S(=O)(=O)[O-])c4F)c4nc(c(-c5cccc(S(=O)(=O)[O-])c5F)c5ccc2[nH]5)C=C4)C=C3)cc1
REMARK SMILES IDX 23 1 22 2 21 3 20 4 18 5 19 6 17 8 1 9 2 10 3 11 4 12 5 13
REMARK SMILES IDX 16 14 6 15 15 16 7 17 9 18 10 19 14 20 11 21 13 22 12 23
REMARK SMILES IDX 8 24 24 26 25 27 26 28 27 30 28 31 29 32 90 33 30 34 89 35
REMARK SMILES IDX 31 36 32 37 33 38 83 39 34 40 88 41 82 42 84 43 35 44 87 45
REMARK SMILES IDX 81 46 80 47 36 49 68 50 48 51 67 52 49 53 52 54 66 55 85 56
REMARK SMILES IDX 50 57 51 58 65 60 86 61 53 62 37 63 38 64 46 65 39 66 41 67
REMARK SMILES IDX 47 68 40 69 42 70 43 71 44 72 45 73 69 74 70 75 78 76 71 77
REMARK SMILES IDX 73 78 79 79 72 80 74 81 75 82 76 83 77 84 54 85 55 86 63 87
REMARK SMILES IDX 56 88 58 89 64 90 57 91 59 92 60 93 61 94 62 95
REMARK H PARENT 20 7 8 25 25 29 84 48 52 59
REMARK Flexibility Score: inf
ROOT
ATOM      1  C   UNL A   1      31.729  28.063  24.914  1.00  0.00     0.023 C 
ENDROOT
BRANCH   1   2
ATOM      2  C   UNL A   1      31.550  26.775  25.698  1.00  0.00     0.023 C 
BRANCH   2   3
ATOM      3  C   UNL A   1      32.246  25.545  25.113  1.00  0.00     0.116 C 
BRANCH   3   4
ATOM      4  N   UNL A   1      32.868  25.827  23.836  1.00  0.00    -0.356 N 
ATOM      5  C   UNL A   1      33.569  25.053  22.968  1.00  0.00     0.226 C 
ATOM      6  O   UNL A   1      34.029  25.623  21.972  1.00  0.00    -0.275 OA
ATOM      7  H   UNL A   1      32.761  26.760  23.540  1.00  0.00     0.163 HD
BRANCH   5   8
ATOM      8  C   UNL A   1      33.802  23.545  23.139  1.00  0.00     0.110 C 
ATOM      9  C   UNL A   1      35.353  23.947  25.252  1.00  0.00     0.043 C 
ATOM     10  C   UNL A   1      35.028  23.128  24.009  1.00  0.00     0.075 C 
ATOM     11  C   UNL A   1      36.291  23.256  23.120  1.00  0.00     0.043 C 
ATOM     12  O   UNL A   1      35.012  21.755  24.431  1.00  0.00    -0.366 OA
ATOM     13  C   UNL A   1      33.782  21.120  24.801  1.00  0.00     0.092 C 
ATOM     14  C   UNL A   1      32.510  22.742  23.305  1.00  0.00     0.019 C 
ATOM     15  C   UNL A   1      33.132  21.693  26.073  1.00  0.00     0.045 C 
ATOM     16  C   UNL A   1      32.796  21.273  23.623  1.00  0.00     0.039 C 
BRANCH  13  17
ATOM     17  C   UNL A   1      34.148  19.598  24.993  1.00  0.00     0.149 C 
BRANCH  17  18
ATOM     18  C   UNL A   1      33.385  18.537  24.117  1.00  0.00     0.021 C 
ATOM     19  C   UNL A   1      34.157  17.360  23.496  1.00  0.00     0.006 C 
ATOM     20  C   UNL A   1      32.176  17.933  24.867  1.00  0.00     0.006 C 
ATOM     21  C   UNL A   1      34.634  16.330  24.510  1.00  0.00     0.000 C 
ATOM     22  C   UNL A   1      32.539  16.835  25.873  1.00  0.00     0.000 C 
ATOM     23  C   UNL A   1      33.462  15.762  25.300  1.00  0.00     0.000 C 
ENDBRANCH  17  18
BRANCH  17  24
ATOM     24  O   UNL A   1      35.562  19.400  25.002  1.00  0.00    -0.390 OA
ATOM     25  H   UNL A   1      35.818  18.929  25.810  1.00  0.00     0.211 HD
ENDBRANCH  17  24
ENDBRANCH  13  17
ENDBRANCH   5   8
ENDBRANCH   3   4
ENDBRANCH   2   3
ENDBRANCH   1   2
BRANCH   1  26
ATOM     26  C   UNL A   1      32.761  29.010  25.493  1.00  0.00     0.116 C 
BRANCH  26  27
ATOM     27  N   UNL A   1      32.204  30.270  25.976  1.00  0.00    -0.352 N 
ATOM     28  C   UNL A   1      32.772  31.158  26.861  1.00  0.00     0.251 C 
ATOM     29  H   UNL A   1      31.317  30.512  25.627  1.00  0.00     0.163 HD
ATOM     30  O   UNL A   1      32.155  32.144  27.248  1.00  0.00    -0.269 OA
BRANCH  28  31
ATOM     31  C   UNL A   1      34.127  30.865  27.364  1.00  0.00     0.039 A 
ATOM     32  C   UNL A   1      35.001  31.920  27.626  1.00  0.00     0.014 A 
ATOM     33  C   UNL A   1      34.464  29.553  27.709  1.00  0.00     0.014 A 
ATOM     34  C   UNL A   1      36.188  31.666  28.314  1.00  0.00     0.010 A 
ATOM     35  C   UNL A   1      35.585  29.324  28.491  1.00  0.00     0.010 A 
ATOM     36  C   UNL A   1      36.467  30.373  28.791  1.00  0.00    -0.014 A 
BRANCH  36  37
ATOM     37  C   UNL A   1      37.678  30.087  29.599  1.00  0.00     0.031 A 
ATOM     38  C   UNL A   1      38.736  29.166  29.053  1.00  0.00     0.074 A 
ATOM     39  C   UNL A   1      37.779  30.571  30.854  1.00  0.00     0.049 A 
ATOM     40  N   UNL A   1      39.835  28.746  29.622  1.00  0.00    -0.248 NA
ATOM     41  C   UNL A   1      38.508  28.605  27.710  1.00  0.00     0.031 C 
ATOM     42  C   UNL A   1      36.766  31.380  31.537  1.00  0.00     0.029 A 
ATOM     43  N   UNL A   1      38.775  30.432  31.787  1.00  0.00    -0.354 N 
ATOM     44  C   UNL A   1      40.399  27.842  28.731  1.00  0.00     0.074 A 
ATOM     45  C   UNL A   1      39.497  27.731  27.608  1.00  0.00     0.031 C 
ATOM     46  C   UNL A   1      37.203  31.682  32.772  1.00  0.00     0.029 A 
ATOM     47  C   UNL A   1      38.514  31.076  32.975  1.00  0.00     0.049 A 
ATOM     48  H   UNL A   1      39.600  29.921  31.622  1.00  0.00     0.167 HD
ATOM     49  C   UNL A   1      41.585  27.194  28.814  1.00  0.00     0.034 A 
ATOM     50  C   UNL A   1      39.257  31.175  34.095  1.00  0.00     0.034 A 
ATOM     51  C   UNL A   1      42.514  27.372  29.893  1.00  0.00     0.049 A 
ATOM     52  C   UNL A   1      40.621  30.536  34.118  1.00  0.00     0.074 A 
ATOM     53  C   UNL A   1      43.789  26.852  30.027  1.00  0.00     0.029 A 
ATOM     54  N   UNL A   1      42.273  28.142  31.021  1.00  0.00    -0.354 N 
ATOM     55  N   UNL A   1      41.214  29.826  33.190  1.00  0.00    -0.248 NA
ATOM     56  C   UNL A   1      41.437  30.751  35.322  1.00  0.00     0.031 C 
ATOM     57  C   UNL A   1      44.317  27.306  31.240  1.00  0.00     0.029 A 
ATOM     58  C   UNL A   1      43.376  28.118  31.853  1.00  0.00     0.049 A 
ATOM     59  H   UNL A   1      41.439  28.632  31.202  1.00  0.00     0.167 HD
ATOM     60  C   UNL A   1      42.485  29.544  33.678  1.00  0.00     0.074 A 
ATOM     61  C   UNL A   1      42.581  30.177  34.978  1.00  0.00     0.031 C 
ATOM     62  C   UNL A   1      43.476  28.813  33.111  1.00  0.00     0.034 A 
BRANCH  49  63
ATOM     63  C   UNL A   1      41.974  26.303  27.665  1.00  0.00     0.023 A 
ATOM     64  C   UNL A   1      42.701  26.846  26.584  1.00  0.00     0.012 A 
ATOM     65  C   UNL A   1      41.658  24.932  27.664  1.00  0.00     0.148 A 
ATOM     66  C   UNL A   1      43.072  26.048  25.503  1.00  0.00     0.002 A 
ATOM     67  C   UNL A   1      42.071  24.132  26.605  1.00  0.00     0.091 A 
ATOM     68  F   UNL A   1      40.944  24.438  28.687  1.00  0.00    -0.205 F 
ATOM     69  C   UNL A   1      42.766  24.691  25.519  1.00  0.00     0.022 A 
BRANCH  67  70
ATOM     70  S   UNL A   1      41.795  22.358  26.568  1.00  0.00     0.127 S 
ATOM     71  O   UNL A   1      40.340  22.287  26.458  1.00  0.00    -0.237 OA
ATOM     72  O   UNL A   1      42.518  21.957  25.359  1.00  0.00    -0.237 OA
ATOM     73  O   UNL A   1      42.359  21.841  27.807  1.00  0.00    -0.744 OA
ENDBRANCH  67  70
ENDBRANCH  49  63
BRANCH  50  74
ATOM     74  C   UNL A   1      38.777  32.003  35.238  1.00  0.00     0.023 A 
ATOM     75  C   UNL A   1      38.797  33.407  35.125  1.00  0.00     0.012 A 
ATOM     76  C   UNL A   1      38.272  31.418  36.414  1.00  0.00     0.148 A 
ATOM     77  C   UNL A   1      38.354  34.214  36.173  1.00  0.00     0.002 A 
ATOM     78  C   UNL A   1      37.783  32.227  37.436  1.00  0.00     0.091 A 
ATOM     79  F   UNL A   1      38.272  30.080  36.510  1.00  0.00    -0.205 F 
ATOM     80  C   UNL A   1      37.838  33.624  37.323  1.00  0.00     0.022 A 
BRANCH  78  81
ATOM     81  S   UNL A   1      36.981  31.551  38.894  1.00  0.00     0.127 S 
ATOM     82  O   UNL A   1      36.763  30.162  38.501  1.00  0.00    -0.237 OA
ATOM     83  O   UNL A   1      38.003  31.748  39.923  1.00  0.00    -0.237 OA
ATOM     84  O   UNL A   1      35.782  32.356  39.084  1.00  0.00    -0.744 OA
ENDBRANCH  78  81
ENDBRANCH  50  74
BRANCH  62  85
ATOM     85  C   UNL A   1      44.771  28.688  33.866  1.00  0.00     0.023 A 
ATOM     86  C   UNL A   1      45.790  29.641  33.666  1.00  0.00     0.012 A 
ATOM     87  C   UNL A   1      44.944  27.681  34.834  1.00  0.00     0.148 A 
ATOM     88  C   UNL A   1      46.973  29.575  34.400  1.00  0.00     0.002 A 
ATOM     89  C   UNL A   1      46.107  27.648  35.593  1.00  0.00     0.091 A 
ATOM     90  F   UNL A   1      43.971  26.771  34.993  1.00  0.00    -0.205 F 
ATOM     91  C   UNL A   1      47.126  28.588  35.371  1.00  0.00     0.022 A 
BRANCH  89  92
ATOM     92  S   UNL A   1      46.340  26.470  36.929  1.00  0.00     0.127 S 
ATOM     93  O   UNL A   1      46.063  25.200  36.261  1.00  0.00    -0.237 OA
ATOM     94  O   UNL A   1      47.744  26.677  37.290  1.00  0.00    -0.237 OA
ATOM     95  O   UNL A   1      45.392  26.857  37.967  1.00  0.00    -0.744 OA
ENDBRANCH  89  92
ENDBRANCH  62  85
ENDBRANCH  36  37
ENDBRANCH  28  31
ENDBRANCH  26  27
ENDBRANCH   1  26
TORSDOF 17
ENDMDL
