MODEL 1
REMARK VINA RESULT:     -11.5      0.000      0.000
REMARK SMILES C[C@@H](C(=O)NCCCCNC(=O)c1ccc(-c2c3nc(c(-c4cccc(S(=O)(=O)[O-])c4F)c4ccc([nH]4)c(-c4cccc(S(=O)(=O)[O-])c4F)c4nc(c(-c5cccc(S(=O)(=O)[O-])c5F)c5ccc2[nH]5)C=C4)C=C3)cc1)N1C(=O)/C(=C/c2ccc(N(C)C)cc2)SC1=S
REMARK SMILES IDX 7 1 6 2 5 3 3 4 4 5 2 7 1 8 76 9 77 10 91 11 78 12 79 13
REMARK SMILES IDX 90 14 92 15 80 16 81 17 82 18 89 19 83 20 88 21 84 22 85 23
REMARK SMILES IDX 86 24 87 25 8 26 9 27 10 28 11 29 12 31 13 32 14 33 75 34
REMARK SMILES IDX 15 35 74 36 16 37 17 38 18 39 68 40 19 41 73 42 67 43 69 44
REMARK SMILES IDX 20 45 72 46 66 47 65 48 21 50 53 51 33 52 52 53 34 54 37 55
REMARK SMILES IDX 51 56 70 57 35 58 36 59 50 61 71 62 38 63 22 64 23 65 31 66
REMARK SMILES IDX 24 67 26 68 32 69 25 70 27 71 28 72 29 73 30 74 54 75 55 76
REMARK SMILES IDX 63 77 56 78 58 79 64 80 57 81 59 82 60 83 61 84 62 85 39 86
REMARK SMILES IDX 40 87 48 88 41 89 43 90 49 91 42 92 44 93 45 94 46 95 47 96
REMARK H PARENT 5 6 10 30 69 49 37 60
REMARK Flexibility Score: inf
ROOT
ATOM      1  C   UNL A   1      35.489  22.217  23.886  1.00  0.00     0.023 C 
ENDROOT
BRANCH   1   2
ATOM      2  C   UNL A   1      34.014  22.528  23.635  1.00  0.00     0.116 C 
BRANCH   2   3
ATOM      3  N   UNL A   1      33.838  23.470  22.550  1.00  0.00    -0.354 N 
ATOM      4  C   UNL A   1      33.096  24.610  22.493  1.00  0.00     0.242 C 
ATOM      5  O   UNL A   1      33.271  25.338  21.511  1.00  0.00    -0.273 OA
ATOM      6  H   UNL A   1      34.332  23.252  21.726  1.00  0.00     0.163 HD
BRANCH   4   7
ATOM      7  C   UNL A   1      32.159  25.015  23.653  1.00  0.00     0.178 C 
ATOM      8  C   UNL A   1      30.652  24.883  23.443  1.00  0.00     0.042 C 
BRANCH   7   9
ATOM      9  N   UNL A   1      32.511  26.371  24.127  1.00  0.00    -0.281 N 
ATOM     10  C   UNL A   1      33.405  26.477  25.181  1.00  0.00     0.266 C 
ATOM     11  C   UNL A   1      31.989  27.558  23.640  1.00  0.00     0.149 C 
ATOM     12  O   UNL A   1      33.944  25.552  25.771  1.00  0.00    -0.268 OA
ATOM     13  C   UNL A   1      33.559  27.897  25.585  1.00  0.00     0.081 C 
ATOM     14  S   UNL A   1      32.712  28.916  24.496  1.00  0.00    -0.054 SA
ATOM     15  S   UNL A   1      30.820  27.824  22.479  1.00  0.00    -0.052 S 
ATOM     16  C   UNL A   1      34.225  28.252  26.692  1.00  0.00     0.029 C 
BRANCH  16  17
ATOM     17  C   UNL A   1      34.337  29.622  27.194  1.00  0.00    -0.024 A 
ATOM     18  C   UNL A   1      33.236  30.470  27.170  1.00  0.00     0.010 A 
ATOM     19  C   UNL A   1      35.537  30.107  27.710  1.00  0.00     0.010 A 
ATOM     20  C   UNL A   1      33.326  31.768  27.701  1.00  0.00     0.026 A 
ATOM     21  C   UNL A   1      35.612  31.401  28.240  1.00  0.00     0.026 A 
ATOM     22  C   UNL A   1      34.508  32.273  28.269  1.00  0.00     0.036 A 
BRANCH  22  23
ATOM     23  N   UNL A   1      34.607  33.550  28.808  1.00  0.00    -0.378 N 
ATOM     24  C   UNL A   1      34.615  34.765  28.004  1.00  0.00     0.143 C 
ATOM     25  C   UNL A   1      34.435  33.752  30.245  1.00  0.00     0.143 C 
ENDBRANCH  22  23
ENDBRANCH  16  17
ENDBRANCH   7   9
ENDBRANCH   4   7
ENDBRANCH   2   3
ENDBRANCH   1   2
BRANCH   1  26
ATOM     26  C   UNL A   1      36.313  23.400  24.400  1.00  0.00     0.023 C 
BRANCH  26  27
ATOM     27  C   UNL A   1      36.815  23.270  25.832  1.00  0.00     0.116 C 
BRANCH  27  28
ATOM     28  N   UNL A   1      37.634  22.086  26.037  1.00  0.00    -0.352 N 
ATOM     29  C   UNL A   1      38.962  22.002  26.373  1.00  0.00     0.251 C 
ATOM     30  H   UNL A   1      37.171  21.225  25.920  1.00  0.00     0.163 HD
ATOM     31  O   UNL A   1      39.521  20.908  26.363  1.00  0.00    -0.269 OA
BRANCH  29  32
ATOM     32  C   UNL A   1      39.722  23.223  26.724  1.00  0.00     0.039 A 
ATOM     33  C   UNL A   1      39.511  24.384  25.976  1.00  0.00     0.014 A 
ATOM     34  C   UNL A   1      40.651  23.225  27.768  1.00  0.00     0.014 A 
ATOM     35  C   UNL A   1      40.212  25.549  26.292  1.00  0.00     0.010 A 
ATOM     36  C   UNL A   1      41.280  24.409  28.138  1.00  0.00     0.010 A 
ATOM     37  C   UNL A   1      41.094  25.577  27.385  1.00  0.00    -0.014 A 
BRANCH  37  38
ATOM     38  C   UNL A   1      41.858  26.806  27.719  1.00  0.00     0.031 A 
ATOM     39  C   UNL A   1      43.292  26.949  27.276  1.00  0.00     0.074 A 
ATOM     40  C   UNL A   1      41.282  27.774  28.458  1.00  0.00     0.049 A 
ATOM     41  N   UNL A   1      44.116  27.949  27.457  1.00  0.00    -0.248 NA
ATOM     42  C   UNL A   1      43.892  25.807  26.563  1.00  0.00     0.031 C 
ATOM     43  C   UNL A   1      39.929  27.722  29.016  1.00  0.00     0.029 A 
ATOM     44  N   UNL A   1      41.767  28.988  28.877  1.00  0.00    -0.354 N 
ATOM     45  C   UNL A   1      45.331  27.545  26.917  1.00  0.00     0.074 A 
ATOM     46  C   UNL A   1      45.152  26.193  26.439  1.00  0.00     0.031 C 
ATOM     47  C   UNL A   1      39.685  28.860  29.685  1.00  0.00     0.029 A 
ATOM     48  C   UNL A   1      40.869  29.712  29.628  1.00  0.00     0.049 A 
ATOM     49  H   UNL A   1      42.672  29.310  28.662  1.00  0.00     0.167 HD
ATOM     50  C   UNL A   1      46.485  28.245  26.797  1.00  0.00     0.034 A 
ATOM     51  C   UNL A   1      40.987  30.926  30.199  1.00  0.00     0.034 A 
ATOM     52  C   UNL A   1      46.645  29.606  27.233  1.00  0.00     0.049 A 
ATOM     53  C   UNL A   1      42.262  31.704  30.005  1.00  0.00     0.074 A 
ATOM     54  C   UNL A   1      47.741  30.435  27.076  1.00  0.00     0.029 A 
ATOM     55  N   UNL A   1      45.686  30.334  27.919  1.00  0.00    -0.354 N 
ATOM     56  N   UNL A   1      43.344  31.367  29.349  1.00  0.00    -0.248 NA
ATOM     57  C   UNL A   1      42.312  33.050  30.594  1.00  0.00     0.031 C 
ATOM     58  C   UNL A   1      47.457  31.656  27.698  1.00  0.00     0.029 A 
ATOM     59  C   UNL A   1      46.167  31.600  28.202  1.00  0.00     0.049 A 
ATOM     60  H   UNL A   1      44.795  30.000  28.168  1.00  0.00     0.167 HD
ATOM     61  C   UNL A   1      44.183  32.474  29.402  1.00  0.00     0.074 A 
ATOM     62  C   UNL A   1      43.474  33.497  30.143  1.00  0.00     0.031 C 
ATOM     63  C   UNL A   1      45.430  32.629  28.891  1.00  0.00     0.034 A 
BRANCH  50  64
ATOM     64  C   UNL A   1      47.654  27.562  26.135  1.00  0.00     0.023 A 
ATOM     65  C   UNL A   1      47.865  27.717  24.748  1.00  0.00     0.012 A 
ATOM     66  C   UNL A   1      48.575  26.811  26.891  1.00  0.00     0.148 A 
ATOM     67  C   UNL A   1      48.946  27.101  24.119  1.00  0.00     0.002 A 
ATOM     68  C   UNL A   1      49.679  26.242  26.266  1.00  0.00     0.091 A 
ATOM     69  F   UNL A   1      48.349  26.657  28.203  1.00  0.00    -0.205 F 
ATOM     70  C   UNL A   1      49.858  26.374  24.879  1.00  0.00     0.022 A 
BRANCH  68  71
ATOM     71  S   UNL A   1      50.956  25.360  27.169  1.00  0.00     0.127 S 
ATOM     72  O   UNL A   1      50.183  24.299  27.812  1.00  0.00    -0.237 OA
ATOM     73  O   UNL A   1      51.834  24.906  26.091  1.00  0.00    -0.237 OA
ATOM     74  O   UNL A   1      51.555  26.332  28.072  1.00  0.00    -0.744 OA
ENDBRANCH  68  71
ENDBRANCH  50  64
BRANCH  51  75
ATOM     75  C   UNL A   1      39.837  31.520  30.939  1.00  0.00     0.023 A 
ATOM     76  C   UNL A   1      38.860  32.248  30.231  1.00  0.00     0.012 A 
ATOM     77  C   UNL A   1      39.698  31.359  32.330  1.00  0.00     0.148 A 
ATOM     78  C   UNL A   1      37.790  32.841  30.901  1.00  0.00     0.002 A 
ATOM     79  C   UNL A   1      38.599  31.904  32.984  1.00  0.00     0.091 A 
ATOM     80  F   UNL A   1      40.642  30.667  32.986  1.00  0.00    -0.205 F 
ATOM     81  C   UNL A   1      37.655  32.662  32.274  1.00  0.00     0.022 A 
BRANCH  79  82
ATOM     82  S   UNL A   1      38.275  31.620  34.726  1.00  0.00     0.127 S 
ATOM     83  O   UNL A   1      36.979  32.271  34.900  1.00  0.00    -0.237 OA
ATOM     84  O   UNL A   1      38.245  30.158  34.792  1.00  0.00    -0.237 OA
ATOM     85  O   UNL A   1      39.389  32.230  35.440  1.00  0.00    -0.744 OA
ENDBRANCH  79  82
ENDBRANCH  51  75
BRANCH  63  86
ATOM     86  C   UNL A   1      46.091  33.973  29.054  1.00  0.00     0.023 A 
ATOM     87  C   UNL A   1      46.983  34.204  30.119  1.00  0.00     0.012 A 
ATOM     88  C   UNL A   1      45.864  34.995  28.109  1.00  0.00     0.148 A 
ATOM     89  C   UNL A   1      47.604  35.443  30.267  1.00  0.00     0.002 A 
ATOM     90  C   UNL A   1      46.531  36.207  28.231  1.00  0.00     0.091 A 
ATOM     91  F   UNL A   1      44.998  34.765  27.112  1.00  0.00    -0.205 F 
ATOM     92  C   UNL A   1      47.388  36.440  29.318  1.00  0.00     0.022 A 
BRANCH  90  93
ATOM     93  S   UNL A   1      46.391  37.506  26.998  1.00  0.00     0.127 S 
ATOM     94  O   UNL A   1      46.849  36.820  25.791  1.00  0.00    -0.237 OA
ATOM     95  O   UNL A   1      44.960  37.807  27.023  1.00  0.00    -0.237 OA
ATOM     96  O   UNL A   1      47.244  38.592  27.463  1.00  0.00    -0.744 OA
ENDBRANCH  90  93
ENDBRANCH  63  86
ENDBRANCH  37  38
ENDBRANCH  29  32
ENDBRANCH  27  28
ENDBRANCH  26  27
ENDBRANCH   1  26
TORSDOF 17
ENDMDL
MODEL 2
REMARK VINA RESULT:     -11.1      2.851      4.127
REMARK SMILES C[C@@H](C(=O)NCCCCNC(=O)c1ccc(-c2c3nc(c(-c4cccc(S(=O)(=O)[O-])c4F)c4ccc([nH]4)c(-c4cccc(S(=O)(=O)[O-])c4F)c4nc(c(-c5cccc(S(=O)(=O)[O-])c5F)c5ccc2[nH]5)C=C4)C=C3)cc1)N1C(=O)/C(=C/c2ccc(N(C)C)cc2)SC1=S
REMARK SMILES IDX 7 1 6 2 5 3 3 4 4 5 2 7 1 8 76 9 77 10 91 11 78 12 79 13
REMARK SMILES IDX 90 14 92 15 80 16 81 17 82 18 89 19 83 20 88 21 84 22 85 23
REMARK SMILES IDX 86 24 87 25 8 26 9 27 10 28 11 29 12 31 13 32 14 33 75 34
REMARK SMILES IDX 15 35 74 36 16 37 17 38 18 39 68 40 19 41 73 42 67 43 69 44
REMARK SMILES IDX 20 45 72 46 66 47 65 48 21 50 53 51 33 52 52 53 34 54 37 55
REMARK SMILES IDX 51 56 70 57 35 58 36 59 50 61 71 62 38 63 22 64 23 65 31 66
REMARK SMILES IDX 24 67 26 68 32 69 25 70 27 71 28 72 29 73 30 74 54 75 55 76
REMARK SMILES IDX 63 77 56 78 58 79 64 80 57 81 59 82 60 83 61 84 62 85 39 86
REMARK SMILES IDX 40 87 48 88 41 89 43 90 49 91 42 92 44 93 45 94 46 95 47 96
REMARK H PARENT 5 6 10 30 69 49 37 60
REMARK Flexibility Score: inf
ROOT
ATOM      1  C   UNL A   1      38.979  22.562  26.361  1.00  0.00     0.023 C 
ENDROOT
BRANCH   1   2
ATOM      2  C   UNL A   1      37.711  23.292  25.923  1.00  0.00     0.116 C 
BRANCH   2   3
ATOM      3  N   UNL A   1      37.420  23.075  24.521  1.00  0.00    -0.354 N 
ATOM      4  C   UNL A   1      36.224  22.923  23.888  1.00  0.00     0.242 C 
ATOM      5  O   UNL A   1      36.242  22.946  22.654  1.00  0.00    -0.273 OA
ATOM      6  H   UNL A   1      38.211  23.031  23.935  1.00  0.00     0.163 HD
BRANCH   4   7
ATOM      7  C   UNL A   1      34.903  22.831  24.685  1.00  0.00     0.178 C 
ATOM      8  C   UNL A   1      34.250  21.460  24.842  1.00  0.00     0.042 C 
BRANCH   7   9
ATOM      9  N   UNL A   1      33.937  23.821  24.162  1.00  0.00    -0.281 N 
ATOM     10  C   UNL A   1      33.932  25.085  24.732  1.00  0.00     0.266 C 
ATOM     11  C   UNL A   1      32.993  23.588  23.175  1.00  0.00     0.149 C 
ATOM     12  O   UNL A   1      34.654  25.474  25.638  1.00  0.00    -0.268 OA
ATOM     13  C   UNL A   1      32.836  25.904  24.158  1.00  0.00     0.081 C 
ATOM     14  S   UNL A   1      32.078  25.060  22.872  1.00  0.00    -0.054 SA
ATOM     15  S   UNL A   1      32.621  22.183  22.353  1.00  0.00    -0.052 S 
ATOM     16  C   UNL A   1      32.503  27.099  24.664  1.00  0.00     0.029 C 
BRANCH  16  17
ATOM     17  C   UNL A   1      31.379  27.916  24.203  1.00  0.00    -0.024 A 
ATOM     18  C   UNL A   1      31.408  29.298  24.355  1.00  0.00     0.010 A 
ATOM     19  C   UNL A   1      30.263  27.338  23.602  1.00  0.00     0.010 A 
ATOM     20  C   UNL A   1      30.355  30.089  23.865  1.00  0.00     0.026 A 
ATOM     21  C   UNL A   1      29.223  28.138  23.115  1.00  0.00     0.026 A 
ATOM     22  C   UNL A   1      29.237  29.542  23.214  1.00  0.00     0.036 A 
BRANCH  22  23
ATOM     23  N   UNL A   1      28.195  30.314  22.715  1.00  0.00    -0.378 N 
ATOM     24  C   UNL A   1      27.397  31.217  23.535  1.00  0.00     0.143 C 
ATOM     25  C   UNL A   1      28.020  30.461  21.272  1.00  0.00     0.143 C 
ENDBRANCH  22  23
ENDBRANCH  16  17
ENDBRANCH   7   9
ENDBRANCH   4   7
ENDBRANCH   2   3
ENDBRANCH   1   2
BRANCH   1  26
ATOM     26  C   UNL A   1      39.168  21.178  25.736  1.00  0.00     0.023 C 
BRANCH  26  27
ATOM     27  C   UNL A   1      39.767  20.123  26.658  1.00  0.00     0.116 C 
BRANCH  27  28
ATOM     28  N   UNL A   1      40.985  19.534  26.125  1.00  0.00    -0.352 N 
ATOM     29  C   UNL A   1      42.197  20.129  25.882  1.00  0.00     0.251 C 
ATOM     30  H   UNL A   1      40.932  18.575  25.909  1.00  0.00     0.163 HD
ATOM     31  O   UNL A   1      43.072  19.500  25.292  1.00  0.00    -0.269 OA
BRANCH  29  32
ATOM     32  C   UNL A   1      42.442  21.525  26.307  1.00  0.00     0.039 A 
ATOM     33  C   UNL A   1      42.584  21.797  27.671  1.00  0.00     0.014 A 
ATOM     34  C   UNL A   1      42.512  22.566  25.377  1.00  0.00     0.014 A 
ATOM     35  C   UNL A   1      42.820  23.106  28.095  1.00  0.00     0.010 A 
ATOM     36  C   UNL A   1      42.836  23.853  25.795  1.00  0.00     0.010 A 
ATOM     37  C   UNL A   1      42.962  24.144  27.160  1.00  0.00    -0.014 A 
BRANCH  37  38
ATOM     38  C   UNL A   1      43.196  25.544  27.602  1.00  0.00     0.031 A 
ATOM     39  C   UNL A   1      44.584  26.130  27.555  1.00  0.00     0.074 A 
ATOM     40  C   UNL A   1      42.173  26.274  28.087  1.00  0.00     0.049 A 
ATOM     41  N   UNL A   1      44.983  27.332  27.881  1.00  0.00    -0.248 NA
ATOM     42  C   UNL A   1      45.673  25.242  27.113  1.00  0.00     0.031 C 
ATOM     43  C   UNL A   1      40.799  25.797  28.259  1.00  0.00     0.029 A 
ATOM     44  N   UNL A   1      42.132  27.571  28.535  1.00  0.00    -0.354 N 
ATOM     45  C   UNL A   1      46.364  27.332  27.721  1.00  0.00     0.074 A 
ATOM     46  C   UNL A   1      46.741  26.000  27.309  1.00  0.00     0.031 C 
ATOM     47  C   UNL A   1      40.047  26.792  28.756  1.00  0.00     0.029 A 
ATOM     48  C   UNL A   1      40.886  27.969  28.961  1.00  0.00     0.049 A 
ATOM     49  H   UNL A   1      42.920  28.160  28.551  1.00  0.00     0.167 HD
ATOM     50  C   UNL A   1      47.238  28.356  27.869  1.00  0.00     0.034 A 
ATOM     51  C   UNL A   1      40.468  29.150  29.456  1.00  0.00     0.034 A 
ATOM     52  C   UNL A   1      46.853  29.692  28.235  1.00  0.00     0.049 A 
ATOM     53  C   UNL A   1      41.450  30.287  29.561  1.00  0.00     0.074 A 
ATOM     54  C   UNL A   1      47.647  30.822  28.323  1.00  0.00     0.029 A 
ATOM     55  N   UNL A   1      45.568  30.077  28.583  1.00  0.00    -0.354 N 
ATOM     56  N   UNL A   1      42.722  30.311  29.248  1.00  0.00    -0.248 NA
ATOM     57  C   UNL A   1      40.926  31.572  30.045  1.00  0.00     0.031 C 
ATOM     58  C   UNL A   1      46.846  31.884  28.757  1.00  0.00     0.029 A 
ATOM     59  C   UNL A   1      45.546  31.425  28.895  1.00  0.00     0.049 A 
ATOM     60  H   UNL A   1      44.786  29.480  28.604  1.00  0.00     0.167 HD
ATOM     61  C   UNL A   1      43.139  31.622  29.448  1.00  0.00     0.074 A 
ATOM     62  C   UNL A   1      41.978  32.364  29.895  1.00  0.00     0.031 C 
ATOM     63  C   UNL A   1      44.372  32.163  29.285  1.00  0.00     0.034 A 
BRANCH  50  64
ATOM     64  C   UNL A   1      48.695  28.079  27.598  1.00  0.00     0.023 A 
ATOM     65  C   UNL A   1      49.566  27.788  28.669  1.00  0.00     0.012 A 
ATOM     66  C   UNL A   1      49.192  28.054  26.280  1.00  0.00     0.148 A 
ATOM     67  C   UNL A   1      50.915  27.519  28.437  1.00  0.00     0.002 A 
ATOM     68  C   UNL A   1      50.526  27.735  26.053  1.00  0.00     0.091 A 
ATOM     69  F   UNL A   1      48.357  28.353  25.276  1.00  0.00    -0.205 F 
ATOM     70  C   UNL A   1      51.392  27.482  27.131  1.00  0.00     0.022 A 
BRANCH  68  71
ATOM     71  S   UNL A   1      51.217  27.577  24.403  1.00  0.00     0.127 S 
ATOM     72  O   UNL A   1      51.245  28.970  23.960  1.00  0.00    -0.237 OA
ATOM     73  O   UNL A   1      52.533  26.998  24.677  1.00  0.00    -0.237 OA
ATOM     74  O   UNL A   1      50.311  26.706  23.669  1.00  0.00    -0.744 OA
ENDBRANCH  68  71
ENDBRANCH  50  64
BRANCH  51  75
ATOM     75  C   UNL A   1      39.034  29.347  29.813  1.00  0.00     0.023 A 
ATOM     76  C   UNL A   1      38.590  29.006  31.107  1.00  0.00     0.012 A 
ATOM     77  C   UNL A   1      38.114  29.876  28.890  1.00  0.00     0.148 A 
ATOM     78  C   UNL A   1      37.248  29.150  31.460  1.00  0.00     0.002 A 
ATOM     79  C   UNL A   1      36.789  30.070  29.266  1.00  0.00     0.091 A 
ATOM     80  F   UNL A   1      38.555  30.189  27.662  1.00  0.00    -0.205 F 
ATOM     81  C   UNL A   1      36.351  29.689  30.543  1.00  0.00     0.022 A 
BRANCH  79  82
ATOM     82  S   UNL A   1      35.592  30.874  28.197  1.00  0.00     0.127 S 
ATOM     83  O   UNL A   1      35.268  29.806  27.255  1.00  0.00    -0.237 OA
ATOM     84  O   UNL A   1      34.525  31.209  29.141  1.00  0.00    -0.237 OA
ATOM     85  O   UNL A   1      36.278  32.028  27.633  1.00  0.00    -0.744 OA
ENDBRANCH  79  82
ENDBRANCH  51  75
BRANCH  63  86
ATOM     86  C   UNL A   1      44.524  33.643  29.525  1.00  0.00     0.023 A 
ATOM     87  C   UNL A   1      45.066  34.115  30.737  1.00  0.00     0.012 A 
ATOM     88  C   UNL A   1      44.178  34.566  28.517  1.00  0.00     0.148 A 
ATOM     89  C   UNL A   1      45.218  35.483  30.959  1.00  0.00     0.002 A 
ATOM     90  C   UNL A   1      44.386  35.923  28.724  1.00  0.00     0.091 A 
ATOM     91  F   UNL A   1      43.648  34.100  27.378  1.00  0.00    -0.205 F 
ATOM     92  C   UNL A   1      44.889  36.386  29.950  1.00  0.00     0.022 A 
BRANCH  90  93
ATOM     93  S   UNL A   1      44.090  37.144  27.440  1.00  0.00     0.127 S 
ATOM     94  O   UNL A   1      43.624  38.289  28.220  1.00  0.00    -0.237 OA
ATOM     95  O   UNL A   1      45.420  37.306  26.852  1.00  0.00    -0.237 OA
ATOM     96  O   UNL A   1      43.104  36.552  26.546  1.00  0.00    -0.744 OA
ENDBRANCH  90  93
ENDBRANCH  63  86
ENDBRANCH  37  38
ENDBRANCH  29  32
ENDBRANCH  27  28
ENDBRANCH  26  27
ENDBRANCH   1  26
TORSDOF 17
ENDMDL
MODEL 3
REMARK VINA RESULT:     -11.0      3.054      8.338
REMARK SMILES C[C@@H](C(=O)NCCCCNC(=O)c1ccc(-c2c3nc(c(-c4cccc(S(=O)(=O)[O-])c4F)c4ccc([nH]4)c(-c4cccc(S(=O)(=O)[O-])c4F)c4nc(c(-c5cccc(S(=O)(=O)[O-])c5F)c5ccc2[nH]5)C=C4)C=C3)cc1)N1C(=O)/C(=C/c2ccc(N(C)C)cc2)SC1=S
REMARK SMILES IDX 7 1 6 2 5 3 3 4 4 5 2 7 1 8 76 9 77 10 91 11 78 12 79 13
REMARK SMILES IDX 90 14 92 15 80 16 81 17 82 18 89 19 83 20 88 21 84 22 85 23
REMARK SMILES IDX 86 24 87 25 8 26 9 27 10 28 11 29 12 31 13 32 14 33 75 34
REMARK SMILES IDX 15 35 74 36 16 37 17 38 18 39 68 40 19 41 73 42 67 43 69 44
REMARK SMILES IDX 20 45 72 46 66 47 65 48 21 50 53 51 33 52 52 53 34 54 37 55
REMARK SMILES IDX 51 56 70 57 35 58 36 59 50 61 71 62 38 63 22 64 23 65 31 66
REMARK SMILES IDX 24 67 26 68 32 69 25 70 27 71 28 72 29 73 30 74 54 75 55 76
REMARK SMILES IDX 63 77 56 78 58 79 64 80 57 81 59 82 60 83 61 84 62 85 39 86
REMARK SMILES IDX 40 87 48 88 41 89 43 90 49 91 42 92 44 93 45 94 46 95 47 96
REMARK H PARENT 5 6 10 30 69 49 37 60
REMARK Flexibility Score: inf
ROOT
ATOM      1  C   UNL A   1      36.536  19.860  24.945  1.00  0.00     0.023 C 
ENDROOT
BRANCH   1   2
ATOM      2  C   UNL A   1      36.090  21.313  24.796  1.00  0.00     0.116 C 
BRANCH   2   3
ATOM      3  N   UNL A   1      35.616  21.863  26.049  1.00  0.00    -0.354 N 
ATOM      4  C   UNL A   1      34.346  22.132  26.462  1.00  0.00     0.242 C 
ATOM      5  O   UNL A   1      34.198  22.417  27.654  1.00  0.00    -0.273 OA
ATOM      6  H   UNL A   1      36.320  22.075  26.704  1.00  0.00     0.163 HD
BRANCH   4   7
ATOM      7  C   UNL A   1      33.144  21.983  25.502  1.00  0.00     0.178 C 
ATOM      8  C   UNL A   1      33.251  20.969  24.364  1.00  0.00     0.042 C 
BRANCH   7   9
ATOM      9  N   UNL A   1      32.747  23.312  24.991  1.00  0.00    -0.281 N 
ATOM     10  C   UNL A   1      31.722  23.978  25.645  1.00  0.00     0.266 C 
ATOM     11  C   UNL A   1      33.279  23.943  23.878  1.00  0.00     0.149 C 
ATOM     12  O   UNL A   1      31.100  23.575  26.617  1.00  0.00    -0.268 OA
ATOM     13  C   UNL A   1      31.393  25.239  24.936  1.00  0.00     0.081 C 
ATOM     14  S   UNL A   1      32.510  25.511  23.664  1.00  0.00    -0.054 SA
ATOM     15  S   UNL A   1      34.423  23.411  22.784  1.00  0.00    -0.052 S 
ATOM     16  C   UNL A   1      30.322  25.977  25.260  1.00  0.00     0.029 C 
BRANCH  16  17
ATOM     17  C   UNL A   1      29.891  27.180  24.545  1.00  0.00    -0.024 A 
ATOM     18  C   UNL A   1      30.650  28.342  24.608  1.00  0.00     0.010 A 
ATOM     19  C   UNL A   1      28.721  27.191  23.788  1.00  0.00     0.010 A 
ATOM     20  C   UNL A   1      30.267  29.482  23.879  1.00  0.00     0.026 A 
ATOM     21  C   UNL A   1      28.354  28.331  23.064  1.00  0.00     0.026 A 
ATOM     22  C   UNL A   1      29.119  29.512  23.071  1.00  0.00     0.036 A 
BRANCH  22  23
ATOM     23  N   UNL A   1      28.736  30.629  22.337  1.00  0.00    -0.378 N 
ATOM     24  C   UNL A   1      28.979  31.999  22.769  1.00  0.00     0.143 C 
ATOM     25  C   UNL A   1      28.304  30.478  20.949  1.00  0.00     0.143 C 
ENDBRANCH  22  23
ENDBRANCH  16  17
ENDBRANCH   7   9
ENDBRANCH   4   7
ENDBRANCH   2   3
ENDBRANCH   1   2
BRANCH   1  26
ATOM     26  C   UNL A   1      38.033  19.624  24.725  1.00  0.00     0.023 C 
BRANCH  26  27
ATOM     27  C   UNL A   1      38.943  20.153  25.826  1.00  0.00     0.116 C 
BRANCH  27  28
ATOM     28  N   UNL A   1      40.036  19.246  26.137  1.00  0.00    -0.352 N 
ATOM     29  C   UNL A   1      41.334  19.539  26.471  1.00  0.00     0.251 C 
ATOM     30  H   UNL A   1      39.812  18.287  26.105  1.00  0.00     0.163 HD
ATOM     31  O   UNL A   1      42.156  18.630  26.562  1.00  0.00    -0.269 OA
BRANCH  29  32
ATOM     32  C   UNL A   1      41.747  20.942  26.700  1.00  0.00     0.039 A 
ATOM     33  C   UNL A   1      41.758  21.824  25.616  1.00  0.00     0.014 A 
ATOM     34  C   UNL A   1      42.140  21.386  27.965  1.00  0.00     0.014 A 
ATOM     35  C   UNL A   1      42.139  23.153  25.809  1.00  0.00     0.010 A 
ATOM     36  C   UNL A   1      42.432  22.730  28.172  1.00  0.00     0.010 A 
ATOM     37  C   UNL A   1      42.467  23.623  27.092  1.00  0.00    -0.014 A 
BRANCH  37  38
ATOM     38  C   UNL A   1      42.890  25.031  27.305  1.00  0.00     0.031 A 
ATOM     39  C   UNL A   1      41.950  26.014  27.954  1.00  0.00     0.074 A 
ATOM     40  C   UNL A   1      44.100  25.439  26.876  1.00  0.00     0.049 A 
ATOM     41  N   UNL A   1      42.144  27.276  28.240  1.00  0.00    -0.248 NA
ATOM     42  C   UNL A   1      40.604  25.525  28.303  1.00  0.00     0.031 C 
ATOM     43  C   UNL A   1      45.071  24.608  26.162  1.00  0.00     0.029 A 
ATOM     44  N   UNL A   1      44.717  26.663  26.968  1.00  0.00    -0.354 N 
ATOM     45  C   UNL A   1      40.941  27.737  28.762  1.00  0.00     0.074 A 
ATOM     46  C   UNL A   1      40.009  26.634  28.717  1.00  0.00     0.031 C 
ATOM     47  C   UNL A   1      46.167  25.338  25.899  1.00  0.00     0.029 A 
ATOM     48  C   UNL A   1      45.970  26.694  26.402  1.00  0.00     0.049 A 
ATOM     49  H   UNL A   1      44.301  27.444  27.399  1.00  0.00     0.167 HD
ATOM     50  C   UNL A   1      40.645  28.959  29.266  1.00  0.00     0.034 A 
ATOM     51  C   UNL A   1      46.860  27.700  26.305  1.00  0.00     0.034 A 
ATOM     52  C   UNL A   1      41.588  30.041  29.352  1.00  0.00     0.049 A 
ATOM     53  C   UNL A   1      46.526  29.033  26.921  1.00  0.00     0.074 A 
ATOM     54  C   UNL A   1      41.418  31.288  29.927  1.00  0.00     0.029 A 
ATOM     55  N   UNL A   1      42.875  30.009  28.838  1.00  0.00    -0.354 N 
ATOM     56  N   UNL A   1      45.441  29.401  27.557  1.00  0.00    -0.248 NA
ATOM     57  C   UNL A   1      47.559  30.076  26.844  1.00  0.00     0.031 C 
ATOM     58  C   UNL A   1      42.592  32.022  29.732  1.00  0.00     0.029 A 
ATOM     59  C   UNL A   1      43.508  31.217  29.075  1.00  0.00     0.049 A 
ATOM     60  H   UNL A   1      43.280  29.241  28.374  1.00  0.00     0.167 HD
ATOM     61  C   UNL A   1      45.679  30.697  28.000  1.00  0.00     0.074 A 
ATOM     62  C   UNL A   1      47.019  31.043  27.570  1.00  0.00     0.031 C 
ATOM     63  C   UNL A   1      44.862  31.529  28.692  1.00  0.00     0.034 A 
BRANCH  50  64
ATOM     64  C   UNL A   1      39.253  29.179  29.801  1.00  0.00     0.023 A 
ATOM     65  C   UNL A   1      38.939  28.797  31.122  1.00  0.00     0.012 A 
ATOM     66  C   UNL A   1      38.269  29.811  29.015  1.00  0.00     0.148 A 
ATOM     67  C   UNL A   1      37.659  29.001  31.638  1.00  0.00     0.002 A 
ATOM     68  C   UNL A   1      37.011  30.057  29.552  1.00  0.00     0.091 A 
ATOM     69  F   UNL A   1      38.577  30.148  27.755  1.00  0.00    -0.205 F 
ATOM     70  C   UNL A   1      36.700  29.640  30.858  1.00  0.00     0.022 A 
BRANCH  68  71
ATOM     71  S   UNL A   1      35.734  30.950  28.660  1.00  0.00     0.127 S 
ATOM     72  O   UNL A   1      34.873  31.403  29.752  1.00  0.00    -0.237 OA
ATOM     73  O   UNL A   1      36.500  32.012  28.008  1.00  0.00    -0.237 OA
ATOM     74  O   UNL A   1      35.132  29.987  27.749  1.00  0.00    -0.744 OA
ENDBRANCH  68  71
ENDBRANCH  50  64
BRANCH  51  75
ATOM     75  C   UNL A   1      48.189  27.466  25.670  1.00  0.00     0.023 A 
ATOM     76  C   UNL A   1      49.284  27.094  26.475  1.00  0.00     0.012 A 
ATOM     77  C   UNL A   1      48.371  27.597  24.281  1.00  0.00     0.148 A 
ATOM     78  C   UNL A   1      50.546  26.898  25.913  1.00  0.00     0.002 A 
ATOM     79  C   UNL A   1      49.618  27.345  23.720  1.00  0.00     0.091 A 
ATOM     80  F   UNL A   1      47.317  27.957  23.534  1.00  0.00    -0.205 F 
ATOM     81  C   UNL A   1      50.711  27.016  24.536  1.00  0.00     0.022 A 
BRANCH  79  82
ATOM     82  S   UNL A   1      49.896  27.347  21.946  1.00  0.00     0.127 S 
ATOM     83  O   UNL A   1      48.907  26.375  21.487  1.00  0.00    -0.237 OA
ATOM     84  O   UNL A   1      49.601  28.738  21.599  1.00  0.00    -0.237 OA
ATOM     85  O   UNL A   1      51.289  26.965  21.765  1.00  0.00    -0.744 OA
ENDBRANCH  79  82
ENDBRANCH  51  75
BRANCH  63  86
ATOM     86  C   UNL A   1      45.409  32.874  29.091  1.00  0.00     0.023 A 
ATOM     87  C   UNL A   1      46.107  33.029  30.304  1.00  0.00     0.012 A 
ATOM     88  C   UNL A   1      45.277  33.980  28.226  1.00  0.00     0.148 A 
ATOM     89  C   UNL A   1      46.625  34.270  30.672  1.00  0.00     0.002 A 
ATOM     90  C   UNL A   1      45.844  35.199  28.572  1.00  0.00     0.091 A 
ATOM     91  F   UNL A   1      44.594  33.821  27.083  1.00  0.00    -0.205 F 
ATOM     92  C   UNL A   1      46.504  35.351  29.802  1.00  0.00     0.022 A 
BRANCH  90  93
ATOM     93  S   UNL A   1      45.827  36.613  27.465  1.00  0.00     0.127 S 
ATOM     94  O   UNL A   1      44.395  36.885  27.351  1.00  0.00    -0.237 OA
ATOM     95  O   UNL A   1      46.580  37.612  28.223  1.00  0.00    -0.237 OA
ATOM     96  O   UNL A   1      46.480  36.170  26.240  1.00  0.00    -0.744 OA
ENDBRANCH  90  93
ENDBRANCH  63  86
ENDBRANCH  37  38
ENDBRANCH  29  32
ENDBRANCH  27  28
ENDBRANCH  26  27
ENDBRANCH   1  26
TORSDOF 17
ENDMDL
