MODEL 1
REMARK VINA RESULT:      -9.6      0.000      0.000
REMARK SMILES O=C(COc1ccc(N2C[C@@H](C(=O)NCCCCNC(=O)c3ccc(-c4c5nc(c(-c6cccc(S(=O)(=O)[O-])c6F)c6ccc([nH]6)c(-c6cccc(S(=O)(=O)[O-])c6F)c6nc(c(-c7cccc(S(=O)(=O)[O-])c7F)c7ccc4[nH]7)C=C6)C=C5)cc3)CC2=O)cc1)Nc1ccc(Cl)cc1Cl
REMARK SMILES IDX 15 1 14 2 12 3 13 4 11 6 9 7 10 8 86 9 85 10 87 11 8 12 5 13
REMARK SMILES IDX 6 14 89 15 7 16 88 17 4 18 3 19 2 20 1 21 90 22 91 24 92 25
REMARK SMILES IDX 97 26 93 27 96 28 98 29 94 30 95 31 16 32 17 33 18 34 19 35
REMARK SMILES IDX 20 36 21 38 22 39 23 40 84 41 24 42 83 43 25 44 26 45 27 46
REMARK SMILES IDX 77 47 28 48 82 49 76 50 78 51 29 52 81 53 75 54 74 55 30 57
REMARK SMILES IDX 62 58 42 59 61 60 43 61 46 62 60 63 79 64 44 65 45 66 59 68
REMARK SMILES IDX 80 69 47 70 31 71 32 72 40 73 33 74 35 75 41 76 34 77 36 78
REMARK SMILES IDX 37 79 38 80 39 81 63 82 64 83 72 84 65 85 67 86 73 87 66 88
REMARK SMILES IDX 68 89 69 90 70 91 71 92 48 93 49 94 57 95 50 96 52 97 58 98
REMARK SMILES IDX 51 99 53 100 54 101 55 102 56 103
REMARK H PARENT 14 5 90 23 19 37 78 56 46 67
REMARK Flexibility Score: inf
ROOT
ATOM      1  C   UNL A   1      42.921  20.159  25.295  1.00  0.00     0.116 C 
ENDROOT
BRANCH   1   2
ATOM      2  N   UNL A   1      44.119  19.632  24.665  1.00  0.00    -0.356 N 
ATOM      3  C   UNL A   1      45.310  20.203  24.355  1.00  0.00     0.225 C 
ATOM      4  O   UNL A   1      46.172  19.485  23.841  1.00  0.00    -0.275 OA
ATOM      5  H   UNL A   1      44.054  18.681  24.415  1.00  0.00     0.163 HD
BRANCH   3   6
ATOM      6  C   UNL A   1      45.633  21.655  24.642  1.00  0.00     0.107 C 
ATOM      7  N   UNL A   1      45.035  23.083  26.414  1.00  0.00    -0.312 N 
ATOM      8  C   UNL A   1      45.844  21.929  26.121  1.00  0.00     0.139 C 
ATOM      9  C   UNL A   1      44.281  23.512  25.324  1.00  0.00     0.227 C 
ATOM     10  C   UNL A   1      44.594  22.645  24.140  1.00  0.00     0.116 C 
ATOM     11  O   UNL A   1      43.495  24.451  25.276  1.00  0.00    -0.274 OA
BRANCH   7  12
ATOM     12  C   UNL A   1      44.907  23.602  27.718  1.00  0.00     0.044 A 
ATOM     13  C   UNL A   1      44.780  24.574  30.355  1.00  0.00     0.120 A 
ATOM     14  C   UNL A   1      43.747  23.784  29.846  1.00  0.00     0.048 A 
ATOM     15  C   UNL A   1      45.858  24.891  29.535  1.00  0.00     0.048 A 
ATOM     16  C   UNL A   1      43.791  23.331  28.517  1.00  0.00     0.030 A 
ATOM     17  C   UNL A   1      45.929  24.395  28.237  1.00  0.00     0.030 A 
BRANCH  13  18
ATOM     18  O   UNL A   1      44.772  24.866  31.694  1.00  0.00    -0.484 OA
BRANCH  18  19
ATOM     19  C   UNL A   1      45.083  26.223  32.005  1.00  0.00     0.329 C 
BRANCH  19  20
ATOM     20  C   UNL A   1      43.991  27.034  32.713  1.00  0.00     0.262 C 
ATOM     21  O   UNL A   1      43.168  26.480  33.435  1.00  0.00    -0.271 OA
ATOM     22  N   UNL A   1      43.996  28.378  32.353  1.00  0.00    -0.322 N 
ATOM     23  H   UNL A   1      44.760  28.714  31.830  1.00  0.00     0.170 HD
BRANCH  22  24
ATOM     24  C   UNL A   1      42.969  29.294  32.692  1.00  0.00     0.060 A 
ATOM     25  C   UNL A   1      41.668  28.917  32.316  1.00  0.00     0.029 A 
ATOM     26  C   UNL A   1      43.144  30.498  33.399  1.00  0.00     0.066 A 
ATOM     27  C   UNL A   1      40.562  29.668  32.721  1.00  0.00     0.023 A 
ATOM     28  C   UNL A   1      42.031  31.243  33.810  1.00  0.00     0.043 A 
ATOM     29  Cl  UNL A   1      44.690  31.245  33.626  1.00  0.00    -0.082 Cl
ATOM     30  C   UNL A   1      40.748  30.817  33.484  1.00  0.00     0.042 A 
ATOM     31  Cl  UNL A   1      39.385  31.732  33.995  1.00  0.00    -0.084 Cl
ENDBRANCH  22  24
ENDBRANCH  19  20
ENDBRANCH  18  19
ENDBRANCH  13  18
ENDBRANCH   7  12
ENDBRANCH   3   6
ENDBRANCH   1   2
BRANCH   1  32
ATOM     32  C   UNL A   1      42.607  19.459  26.617  1.00  0.00     0.023 C 
BRANCH  32  33
ATOM     33  C   UNL A   1      41.762  20.277  27.596  1.00  0.00     0.023 C 
BRANCH  33  34
ATOM     34  C   UNL A   1      41.305  21.641  27.087  1.00  0.00     0.116 C 
BRANCH  34  35
ATOM     35  N   UNL A   1      40.027  21.588  26.392  1.00  0.00    -0.352 N 
ATOM     36  C   UNL A   1      39.086  22.578  26.233  1.00  0.00     0.251 C 
ATOM     37  H   UNL A   1      39.804  20.723  25.979  1.00  0.00     0.163 HD
ATOM     38  O   UNL A   1      37.997  22.313  25.734  1.00  0.00    -0.269 OA
BRANCH  36  39
ATOM     39  C   UNL A   1      39.380  23.953  26.693  1.00  0.00     0.039 A 
ATOM     40  C   UNL A   1      39.036  24.316  27.997  1.00  0.00     0.014 A 
ATOM     41  C   UNL A   1      40.011  24.872  25.850  1.00  0.00     0.014 A 
ATOM     42  C   UNL A   1      39.389  25.579  28.479  1.00  0.00     0.010 A 
ATOM     43  C   UNL A   1      40.432  26.098  26.357  1.00  0.00     0.010 A 
ATOM     44  C   UNL A   1      40.125  26.466  27.676  1.00  0.00    -0.014 A 
BRANCH  44  45
ATOM     45  C   UNL A   1      40.604  27.769  28.206  1.00  0.00     0.031 A 
ATOM     46  C   UNL A   1      42.076  28.033  28.371  1.00  0.00     0.074 A 
ATOM     47  C   UNL A   1      39.707  28.687  28.623  1.00  0.00     0.049 A 
ATOM     48  N   UNL A   1      42.673  29.086  28.865  1.00  0.00    -0.248 NA
ATOM     49  C   UNL A   1      42.998  26.963  27.953  1.00  0.00     0.031 C 
ATOM     50  C   UNL A   1      38.252  28.522  28.593  1.00  0.00     0.029 A 
ATOM     51  N   UNL A   1      39.888  29.930  29.179  1.00  0.00    -0.354 N 
ATOM     52  C   UNL A   1      44.032  28.791  28.858  1.00  0.00     0.074 A 
ATOM     53  C   UNL A   1      44.170  27.450  28.333  1.00  0.00     0.031 C 
ATOM     54  C   UNL A   1      37.673  29.623  29.099  1.00  0.00     0.029 A 
ATOM     55  C   UNL A   1      38.712  30.557  29.522  1.00  0.00     0.049 A 
ATOM     56  H   UNL A   1      40.774  30.333  29.320  1.00  0.00     0.167 HD
ATOM     57  C   UNL A   1      45.071  29.575  29.231  1.00  0.00     0.034 A 
ATOM     58  C   UNL A   1      38.491  31.744  30.120  1.00  0.00     0.034 A 
ATOM     59  C   UNL A   1      44.933  30.924  29.710  1.00  0.00     0.049 A 
ATOM     60  C   UNL A   1      39.664  32.613  30.481  1.00  0.00     0.074 A 
ATOM     61  C   UNL A   1      45.933  31.832  30.014  1.00  0.00     0.029 A 
ATOM     62  N   UNL A   1      43.728  31.556  29.969  1.00  0.00    -0.354 N 
ATOM     63  N   UNL A   1      40.943  32.380  30.319  1.00  0.00    -0.248 NA
ATOM     64  C   UNL A   1      39.364  33.925  31.073  1.00  0.00     0.031 C 
ATOM     65  C   UNL A   1      45.332  32.999  30.494  1.00  0.00     0.029 A 
ATOM     66  C   UNL A   1      43.957  32.835  30.445  1.00  0.00     0.049 A 
ATOM     67  H   UNL A   1      42.839  31.154  29.834  1.00  0.00     0.167 HD
ATOM     68  C   UNL A   1      41.599  33.526  30.756  1.00  0.00     0.074 A 
ATOM     69  C   UNL A   1      40.573  34.460  31.172  1.00  0.00     0.031 C 
ATOM     70  C   UNL A   1      42.930  33.775  30.816  1.00  0.00     0.034 A 
BRANCH  57  71
ATOM     71  C   UNL A   1      46.462  29.011  29.101  1.00  0.00     0.023 A 
ATOM     72  C   UNL A   1      47.095  28.443  30.225  1.00  0.00     0.012 A 
ATOM     73  C   UNL A   1      47.108  28.969  27.850  1.00  0.00     0.148 A 
ATOM     74  C   UNL A   1      48.361  27.868  30.113  1.00  0.00     0.002 A 
ATOM     75  C   UNL A   1      48.347  28.354  27.736  1.00  0.00     0.091 A 
ATOM     76  F   UNL A   1      46.496  29.533  26.798  1.00  0.00    -0.205 F 
ATOM     77  C   UNL A   1      48.980  27.813  28.867  1.00  0.00     0.022 A 
BRANCH  75  78
ATOM     78  S   UNL A   1      49.192  28.155  26.163  1.00  0.00     0.127 S 
ATOM     79  O   UNL A   1      48.101  27.713  25.295  1.00  0.00    -0.237 OA
ATOM     80  O   UNL A   1      49.669  29.513  25.898  1.00  0.00    -0.237 OA
ATOM     81  O   UNL A   1      50.243  27.173  26.388  1.00  0.00    -0.744 OA
ENDBRANCH  75  78
ENDBRANCH  57  71
BRANCH  58  82
ATOM     82  C   UNL A   1      37.094  32.203  30.359  1.00  0.00     0.023 A 
ATOM     83  C   UNL A   1      36.566  32.166  31.665  1.00  0.00     0.012 A 
ATOM     84  C   UNL A   1      36.303  32.715  29.312  1.00  0.00     0.148 A 
ATOM     85  C   UNL A   1      35.267  32.606  31.920  1.00  0.00     0.002 A 
ATOM     86  C   UNL A   1      35.031  33.203  29.582  1.00  0.00     0.091 A 
ATOM     87  F   UNL A   1      36.823  32.733  28.078  1.00  0.00    -0.205 F 
ATOM     88  C   UNL A   1      34.503  33.134  30.881  1.00  0.00     0.022 A 
BRANCH  86  89
ATOM     89  S   UNL A   1      34.027  34.021  28.338  1.00  0.00     0.127 S 
ATOM     90  O   UNL A   1      33.274  32.901  27.777  1.00  0.00    -0.237 OA
ATOM     91  O   UNL A   1      33.239  34.948  29.152  1.00  0.00    -0.237 OA
ATOM     92  O   UNL A   1      34.966  34.665  27.431  1.00  0.00    -0.744 OA
ENDBRANCH  86  89
ENDBRANCH  58  82
BRANCH  70  93
ATOM     93  C   UNL A   1      43.371  35.127  31.315  1.00  0.00     0.023 A 
ATOM     94  C   UNL A   1      43.697  36.146  30.399  1.00  0.00     0.012 A 
ATOM     95  C   UNL A   1      43.381  35.409  32.696  1.00  0.00     0.148 A 
ATOM     96  C   UNL A   1      44.059  37.415  30.851  1.00  0.00     0.002 A 
ATOM     97  C   UNL A   1      43.691  36.690  33.136  1.00  0.00     0.091 A 
ATOM     98  F   UNL A   1      43.082  34.421  33.552  1.00  0.00    -0.205 F 
ATOM     99  C   UNL A   1      44.045  37.690  32.216  1.00  0.00     0.022 A 
BRANCH  97 100
ATOM    100  S   UNL A   1      43.601  37.162  34.867  1.00  0.00     0.127 S 
ATOM    101  O   UNL A   1      42.200  36.887  35.179  1.00  0.00    -0.237 OA
ATOM    102  O   UNL A   1      44.558  36.244  35.488  1.00  0.00    -0.237 OA
ATOM    103  O   UNL A   1      43.988  38.566  34.922  1.00  0.00    -0.744 OA
ENDBRANCH  97 100
ENDBRANCH  70  93
ENDBRANCH  44  45
ENDBRANCH  36  39
ENDBRANCH  34  35
ENDBRANCH  33  34
ENDBRANCH  32  33
ENDBRANCH   1  32
TORSDOF 19
ENDMDL
MODEL 2
REMARK VINA RESULT:      -9.0      3.699      7.288
REMARK SMILES O=C(COc1ccc(N2C[C@@H](C(=O)NCCCCNC(=O)c3ccc(-c4c5nc(c(-c6cccc(S(=O)(=O)[O-])c6F)c6ccc([nH]6)c(-c6cccc(S(=O)(=O)[O-])c6F)c6nc(c(-c7cccc(S(=O)(=O)[O-])c7F)c7ccc4[nH]7)C=C6)C=C5)cc3)CC2=O)cc1)Nc1ccc(Cl)cc1Cl
REMARK SMILES IDX 15 1 14 2 12 3 13 4 11 6 9 7 10 8 86 9 85 10 87 11 8 12 5 13
REMARK SMILES IDX 6 14 89 15 7 16 88 17 4 18 3 19 2 20 1 21 90 22 91 24 92 25
REMARK SMILES IDX 97 26 93 27 96 28 98 29 94 30 95 31 16 32 17 33 18 34 19 35
REMARK SMILES IDX 20 36 21 38 22 39 23 40 84 41 24 42 83 43 25 44 26 45 27 46
REMARK SMILES IDX 77 47 28 48 82 49 76 50 78 51 29 52 81 53 75 54 74 55 30 57
REMARK SMILES IDX 62 58 42 59 61 60 43 61 46 62 60 63 79 64 44 65 45 66 59 68
REMARK SMILES IDX 80 69 47 70 31 71 32 72 40 73 33 74 35 75 41 76 34 77 36 78
REMARK SMILES IDX 37 79 38 80 39 81 63 82 64 83 72 84 65 85 67 86 73 87 66 88
REMARK SMILES IDX 68 89 69 90 70 91 71 92 48 93 49 94 57 95 50 96 52 97 58 98
REMARK SMILES IDX 51 99 53 100 54 101 55 102 56 103
REMARK H PARENT 14 5 90 23 19 37 78 56 46 67
REMARK Flexibility Score: inf
ROOT
ATOM      1  C   UNL A   1      43.269  21.951  26.103  1.00  0.00     0.116 C 
ENDROOT
BRANCH   1   2
ATOM      2  N   UNL A   1      41.836  22.177  26.181  1.00  0.00    -0.356 N 
ATOM      3  C   UNL A   1      41.105  23.268  26.519  1.00  0.00     0.225 C 
ATOM      4  O   UNL A   1      39.875  23.173  26.463  1.00  0.00    -0.275 OA
ATOM      5  H   UNL A   1      41.293  21.389  25.943  1.00  0.00     0.163 HD
BRANCH   3   6
ATOM      6  C   UNL A   1      41.725  24.589  26.925  1.00  0.00     0.107 C 
ATOM      7  N   UNL A   1      40.881  26.422  28.135  1.00  0.00    -0.312 N 
ATOM      8  C   UNL A   1      41.280  25.049  28.303  1.00  0.00     0.139 C 
ATOM      9  C   UNL A   1      40.942  26.851  26.811  1.00  0.00     0.227 C 
ATOM     10  C   UNL A   1      41.467  25.733  25.958  1.00  0.00     0.116 C 
ATOM     11  O   UNL A   1      40.651  27.954  26.364  1.00  0.00    -0.274 OA
BRANCH   7  12
ATOM     12  C   UNL A   1      40.329  27.180  29.188  1.00  0.00     0.044 A 
ATOM     13  C   UNL A   1      39.344  28.654  31.371  1.00  0.00     0.120 A 
ATOM     14  C   UNL A   1      38.571  27.642  30.801  1.00  0.00     0.048 A 
ATOM     15  C   UNL A   1      40.595  28.938  30.833  1.00  0.00     0.048 A 
ATOM     16  C   UNL A   1      39.046  26.931  29.685  1.00  0.00     0.030 A 
ATOM     17  C   UNL A   1      41.089  28.196  29.764  1.00  0.00     0.030 A 
BRANCH  13  18
ATOM     18  O   UNL A   1      38.911  29.215  32.544  1.00  0.00    -0.484 OA
BRANCH  18  19
ATOM     19  C   UNL A   1      37.535  29.595  32.546  1.00  0.00     0.329 C 
BRANCH  19  20
ATOM     20  C   UNL A   1      37.200  30.965  31.945  1.00  0.00     0.262 C 
ATOM     21  O   UNL A   1      38.063  31.831  31.839  1.00  0.00    -0.271 OA
ATOM     22  N   UNL A   1      35.845  31.116  31.663  1.00  0.00    -0.322 N 
ATOM     23  H   UNL A   1      35.271  30.317  31.715  1.00  0.00     0.170 HD
BRANCH  22  24
ATOM     24  C   UNL A   1      35.241  32.346  31.306  1.00  0.00     0.060 A 
ATOM     25  C   UNL A   1      35.054  32.556  29.929  1.00  0.00     0.029 A 
ATOM     26  C   UNL A   1      34.783  33.327  32.205  1.00  0.00     0.066 A 
ATOM     27  C   UNL A   1      34.341  33.665  29.465  1.00  0.00     0.023 A 
ATOM     28  C   UNL A   1      34.061  34.432  31.737  1.00  0.00     0.043 A 
ATOM     29  Cl  UNL A   1      35.238  33.364  33.876  1.00  0.00    -0.082 Cl
ATOM     30  C   UNL A   1      33.830  34.587  30.374  1.00  0.00     0.042 A 
ATOM     31  Cl  UNL A   1      32.940  35.943  29.804  1.00  0.00    -0.084 Cl
ENDBRANCH  22  24
ENDBRANCH  19  20
ENDBRANCH  18  19
ENDBRANCH  13  18
ENDBRANCH   7  12
ENDBRANCH   3   6
ENDBRANCH   1   2
BRANCH   1  32
ATOM     32  C   UNL A   1      43.933  22.811  25.028  1.00  0.00     0.023 C 
BRANCH  32  33
ATOM     33  C   UNL A   1      45.453  22.663  24.930  1.00  0.00     0.023 C 
BRANCH  33  34
ATOM     34  C   UNL A   1      46.264  23.725  25.665  1.00  0.00     0.116 C 
BRANCH  34  35
ATOM     35  N   UNL A   1      47.027  24.578  24.766  1.00  0.00    -0.352 N 
ATOM     36  C   UNL A   1      47.156  25.948  24.773  1.00  0.00     0.251 C 
ATOM     37  H   UNL A   1      47.520  24.111  24.054  1.00  0.00     0.163 HD
ATOM     38  O   UNL A   1      47.732  26.513  23.849  1.00  0.00    -0.269 OA
BRANCH  36  39
ATOM     39  C   UNL A   1      46.572  26.736  25.880  1.00  0.00     0.039 A 
ATOM     40  C   UNL A   1      45.184  26.869  25.955  1.00  0.00     0.014 A 
ATOM     41  C   UNL A   1      47.388  27.322  26.852  1.00  0.00     0.014 A 
ATOM     42  C   UNL A   1      44.610  27.531  27.043  1.00  0.00     0.010 A 
ATOM     43  C   UNL A   1      46.812  27.910  27.974  1.00  0.00     0.010 A 
ATOM     44  C   UNL A   1      45.417  28.023  28.082  1.00  0.00    -0.014 A 
BRANCH  44  45
ATOM     45  C   UNL A   1      44.821  28.632  29.299  1.00  0.00     0.031 A 
ATOM     46  C   UNL A   1      44.640  27.818  30.552  1.00  0.00     0.074 A 
ATOM     47  C   UNL A   1      44.358  29.899  29.250  1.00  0.00     0.049 A 
ATOM     48  N   UNL A   1      44.092  28.165  31.687  1.00  0.00    -0.248 NA
ATOM     49  C   UNL A   1      45.112  26.423  30.517  1.00  0.00     0.031 C 
ATOM     50  C   UNL A   1      44.398  30.768  28.073  1.00  0.00     0.029 A 
ATOM     51  N   UNL A   1      43.739  30.665  30.207  1.00  0.00    -0.354 N 
ATOM     52  C   UNL A   1      44.113  27.026  32.484  1.00  0.00     0.074 A 
ATOM     53  C   UNL A   1      44.706  25.969  31.694  1.00  0.00     0.031 C 
ATOM     54  C   UNL A   1      43.838  31.949  28.377  1.00  0.00     0.029 A 
ATOM     55  C   UNL A   1      43.366  31.911  29.758  1.00  0.00     0.049 A 
ATOM     56  H   UNL A   1      43.577  30.353  31.126  1.00  0.00     0.167 HD
ATOM     57  C   UNL A   1      43.699  26.880  33.765  1.00  0.00     0.034 A 
ATOM     58  C   UNL A   1      42.708  32.909  30.381  1.00  0.00     0.034 A 
ATOM     59  C   UNL A   1      43.152  27.943  34.562  1.00  0.00     0.049 A 
ATOM     60  C   UNL A   1      42.302  32.735  31.818  1.00  0.00     0.074 A 
ATOM     61  C   UNL A   1      42.800  27.917  35.901  1.00  0.00     0.029 A 
ATOM     62  N   UNL A   1      42.862  29.216  34.098  1.00  0.00    -0.354 N 
ATOM     63  N   UNL A   1      42.474  31.700  32.603  1.00  0.00    -0.248 NA
ATOM     64  C   UNL A   1      41.644  33.878  32.468  1.00  0.00     0.031 C 
ATOM     65  C   UNL A   1      42.263  29.164  36.236  1.00  0.00     0.029 A 
ATOM     66  C   UNL A   1      42.322  29.980  35.118  1.00  0.00     0.049 A 
ATOM     67  H   UNL A   1      43.019  29.531  33.179  1.00  0.00     0.167 HD
ATOM     68  C   UNL A   1      41.978  32.077  33.847  1.00  0.00     0.074 A 
ATOM     69  C   UNL A   1      41.516  33.444  33.714  1.00  0.00     0.031 C 
ATOM     70  C   UNL A   1      41.904  31.353  34.990  1.00  0.00     0.034 A 
BRANCH  57  71
ATOM     71  C   UNL A   1      43.856  25.525  34.406  1.00  0.00     0.023 A 
ATOM     72  C   UNL A   1      42.766  24.632  34.432  1.00  0.00     0.012 A 
ATOM     73  C   UNL A   1      45.104  25.107  34.909  1.00  0.00     0.148 A 
ATOM     74  C   UNL A   1      42.906  23.355  34.974  1.00  0.00     0.002 A 
ATOM     75  C   UNL A   1      45.249  23.818  35.404  1.00  0.00     0.091 A 
ATOM     76  F   UNL A   1      46.122  25.979  34.892  1.00  0.00    -0.205 F 
ATOM     77  C   UNL A   1      44.150  22.944  35.448  1.00  0.00     0.022 A 
BRANCH  75  78
ATOM     78  S   UNL A   1      46.827  23.163  35.960  1.00  0.00     0.127 S 
ATOM     79  O   UNL A   1      47.052  23.935  37.182  1.00  0.00    -0.237 OA
ATOM     80  O   UNL A   1      46.511  21.751  36.180  1.00  0.00    -0.237 OA
ATOM     81  O   UNL A   1      47.772  23.416  34.882  1.00  0.00    -0.744 OA
ENDBRANCH  75  78
ENDBRANCH  57  71
BRANCH  58  82
ATOM     82  C   UNL A   1      42.447  34.186  29.659  1.00  0.00     0.023 A 
ATOM     83  C   UNL A   1      41.184  34.408  29.078  1.00  0.00     0.012 A 
ATOM     84  C   UNL A   1      43.426  35.196  29.584  1.00  0.00     0.148 A 
ATOM     85  C   UNL A   1      40.908  35.602  28.411  1.00  0.00     0.002 A 
ATOM     86  C   UNL A   1      43.126  36.405  28.968  1.00  0.00     0.091 A 
ATOM     87  F   UNL A   1      44.623  34.960  30.138  1.00  0.00    -0.205 F 
ATOM     88  C   UNL A   1      41.875  36.604  28.366  1.00  0.00     0.022 A 
BRANCH  86  89
ATOM     89  S   UNL A   1      44.258  37.800  28.976  1.00  0.00     0.127 S 
ATOM     90  O   UNL A   1      43.683  38.657  27.943  1.00  0.00    -0.237 OA
ATOM     91  O   UNL A   1      44.109  38.297  30.344  1.00  0.00    -0.237 OA
ATOM     92  O   UNL A   1      45.571  37.246  28.677  1.00  0.00    -0.744 OA
ENDBRANCH  86  89
ENDBRANCH  58  82
BRANCH  70  93
ATOM     93  C   UNL A   1      41.336  32.025  36.213  1.00  0.00     0.023 A 
ATOM     94  C   UNL A   1      42.159  32.836  37.020  1.00  0.00     0.012 A 
ATOM     95  C   UNL A   1      39.963  31.916  36.515  1.00  0.00     0.148 A 
ATOM     96  C   UNL A   1      41.630  33.501  38.126  1.00  0.00     0.002 A 
ATOM     97  C   UNL A   1      39.434  32.623  37.587  1.00  0.00     0.091 A 
ATOM     98  F   UNL A   1      39.200  31.127  35.744  1.00  0.00    -0.205 F 
ATOM     99  C   UNL A   1      40.269  33.405  38.402  1.00  0.00     0.022 A 
BRANCH  97 100
ATOM    100  S   UNL A   1      37.677  32.639  37.958  1.00  0.00     0.127 S 
ATOM    101  O   UNL A   1      37.398  31.217  38.146  1.00  0.00    -0.237 OA
ATOM    102  O   UNL A   1      37.627  33.439  39.183  1.00  0.00    -0.237 OA
ATOM    103  O   UNL A   1      37.028  33.255  36.808  1.00  0.00    -0.744 OA
ENDBRANCH  97 100
ENDBRANCH  70  93
ENDBRANCH  44  45
ENDBRANCH  36  39
ENDBRANCH  34  35
ENDBRANCH  33  34
ENDBRANCH  32  33
ENDBRANCH   1  32
TORSDOF 19
ENDMDL
MODEL 3
REMARK VINA RESULT:      -8.9      2.584      3.704
REMARK SMILES O=C(COc1ccc(N2C[C@@H](C(=O)NCCCCNC(=O)c3ccc(-c4c5nc(c(-c6cccc(S(=O)(=O)[O-])c6F)c6ccc([nH]6)c(-c6cccc(S(=O)(=O)[O-])c6F)c6nc(c(-c7cccc(S(=O)(=O)[O-])c7F)c7ccc4[nH]7)C=C6)C=C5)cc3)CC2=O)cc1)Nc1ccc(Cl)cc1Cl
REMARK SMILES IDX 15 1 14 2 12 3 13 4 11 6 9 7 10 8 86 9 85 10 87 11 8 12 5 13
REMARK SMILES IDX 6 14 89 15 7 16 88 17 4 18 3 19 2 20 1 21 90 22 91 24 92 25
REMARK SMILES IDX 97 26 93 27 96 28 98 29 94 30 95 31 16 32 17 33 18 34 19 35
REMARK SMILES IDX 20 36 21 38 22 39 23 40 84 41 24 42 83 43 25 44 26 45 27 46
REMARK SMILES IDX 77 47 28 48 82 49 76 50 78 51 29 52 81 53 75 54 74 55 30 57
REMARK SMILES IDX 62 58 42 59 61 60 43 61 46 62 60 63 79 64 44 65 45 66 59 68
REMARK SMILES IDX 80 69 47 70 31 71 32 72 40 73 33 74 35 75 41 76 34 77 36 78
REMARK SMILES IDX 37 79 38 80 39 81 63 82 64 83 72 84 65 85 67 86 73 87 66 88
REMARK SMILES IDX 68 89 69 90 70 91 71 92 48 93 49 94 57 95 50 96 52 97 58 98
REMARK SMILES IDX 51 99 53 100 54 101 55 102 56 103
REMARK H PARENT 14 5 90 23 19 37 78 56 46 67
REMARK Flexibility Score: inf
ROOT
ATOM      1  C   UNL A   1      42.640  20.340  25.815  1.00  0.00     0.116 C 
ENDROOT
BRANCH   1   2
ATOM      2  N   UNL A   1      43.469  19.444  25.028  1.00  0.00    -0.356 N 
ATOM      3  C   UNL A   1      44.794  19.451  24.737  1.00  0.00     0.225 C 
ATOM      4  O   UNL A   1      45.235  18.522  24.054  1.00  0.00    -0.275 OA
ATOM      5  H   UNL A   1      42.976  18.689  24.629  1.00  0.00     0.163 HD
BRANCH   3   6
ATOM      6  C   UNL A   1      45.747  20.517  25.237  1.00  0.00     0.107 C 
ATOM      7  N   UNL A   1      45.633  22.867  25.220  1.00  0.00    -0.312 N 
ATOM      8  C   UNL A   1      45.028  21.714  25.835  1.00  0.00     0.139 C 
ATOM      9  C   UNL A   1      46.579  22.537  24.252  1.00  0.00     0.227 C 
ATOM     10  C   UNL A   1      46.713  21.044  24.187  1.00  0.00     0.116 C 
ATOM     11  O   UNL A   1      47.241  23.299  23.558  1.00  0.00    -0.274 OA
BRANCH   7  12
ATOM     12  C   UNL A   1      45.177  24.177  25.468  1.00  0.00     0.044 A 
ATOM     13  C   UNL A   1      44.283  26.767  26.104  1.00  0.00     0.120 A 
ATOM     14  C   UNL A   1      43.476  25.910  25.354  1.00  0.00     0.048 A 
ATOM     15  C   UNL A   1      45.540  26.333  26.512  1.00  0.00     0.048 A 
ATOM     16  C   UNL A   1      43.938  24.630  25.002  1.00  0.00     0.030 A 
ATOM     17  C   UNL A   1      45.974  25.045  26.211  1.00  0.00     0.030 A 
BRANCH  13  18
ATOM     18  O   UNL A   1      43.737  27.942  26.553  1.00  0.00    -0.484 OA
BRANCH  18  19
ATOM     19  C   UNL A   1      44.663  29.023  26.659  1.00  0.00     0.329 C 
BRANCH  19  20
ATOM     20  C   UNL A   1      44.088  30.381  27.076  1.00  0.00     0.262 C 
ATOM     21  O   UNL A   1      43.030  30.451  27.693  1.00  0.00    -0.271 OA
ATOM     22  N   UNL A   1      44.828  31.455  26.587  1.00  0.00    -0.322 N 
ATOM     23  H   UNL A   1      45.703  31.264  26.177  1.00  0.00     0.170 HD
BRANCH  22  24
ATOM     24  C   UNL A   1      44.401  32.804  26.644  1.00  0.00     0.060 A 
ATOM     25  C   UNL A   1      43.980  33.361  25.424  1.00  0.00     0.029 A 
ATOM     26  C   UNL A   1      44.324  33.593  27.807  1.00  0.00     0.066 A 
ATOM     27  C   UNL A   1      43.404  34.634  25.381  1.00  0.00     0.023 A 
ATOM     28  C   UNL A   1      43.738  34.864  27.761  1.00  0.00     0.043 A 
ATOM     29  Cl  UNL A   1      45.109  33.167  29.291  1.00  0.00    -0.082 Cl
ATOM     30  C   UNL A   1      43.267  35.370  26.554  1.00  0.00     0.042 A 
ATOM     31  Cl  UNL A   1      42.544  36.930  26.502  1.00  0.00    -0.084 Cl
ENDBRANCH  22  24
ENDBRANCH  19  20
ENDBRANCH  18  19
ENDBRANCH  13  18
ENDBRANCH   7  12
ENDBRANCH   3   6
ENDBRANCH   1   2
BRANCH   1  32
ATOM     32  C   UNL A   1      41.976  19.627  26.993  1.00  0.00     0.023 C 
BRANCH  32  33
ATOM     33  C   UNL A   1      40.805  20.382  27.626  1.00  0.00     0.023 C 
BRANCH  33  34
ATOM     34  C   UNL A   1      40.644  21.833  27.184  1.00  0.00     0.116 C 
BRANCH  34  35
ATOM     35  N   UNL A   1      39.498  22.036  26.309  1.00  0.00    -0.352 N 
ATOM     36  C   UNL A   1      38.723  23.160  26.144  1.00  0.00     0.251 C 
ATOM     37  H   UNL A   1      39.241  21.261  25.760  1.00  0.00     0.163 HD
ATOM     38  O   UNL A   1      37.705  23.107  25.461  1.00  0.00    -0.269 OA
BRANCH  36  39
ATOM     39  C   UNL A   1      39.105  24.422  26.815  1.00  0.00     0.039 A 
ATOM     40  C   UNL A   1      38.682  24.642  28.127  1.00  0.00     0.014 A 
ATOM     41  C   UNL A   1      39.893  25.373  26.161  1.00  0.00     0.014 A 
ATOM     42  C   UNL A   1      39.110  25.785  28.809  1.00  0.00     0.010 A 
ATOM     43  C   UNL A   1      40.382  26.468  26.867  1.00  0.00     0.010 A 
ATOM     44  C   UNL A   1      39.995  26.687  28.197  1.00  0.00    -0.014 A 
BRANCH  44  45
ATOM     45  C   UNL A   1      40.547  27.850  28.942  1.00  0.00     0.031 A 
ATOM     46  C   UNL A   1      41.903  27.769  29.589  1.00  0.00     0.074 A 
ATOM     47  C   UNL A   1      39.787  28.952  29.111  1.00  0.00     0.049 A 
ATOM     48  N   UNL A   1      42.520  28.660  30.320  1.00  0.00    -0.248 NA
ATOM     49  C   UNL A   1      42.653  26.513  29.416  1.00  0.00     0.031 C 
ATOM     50  C   UNL A   1      38.424  29.125  28.604  1.00  0.00     0.029 A 
ATOM     51  N   UNL A   1      40.043  30.123  29.780  1.00  0.00    -0.354 N 
ATOM     52  C   UNL A   1      43.706  28.061  30.729  1.00  0.00     0.074 A 
ATOM     53  C   UNL A   1      43.712  26.721  30.185  1.00  0.00     0.031 C 
ATOM     54  C   UNL A   1      37.968  30.333  28.971  1.00  0.00     0.029 A 
ATOM     55  C   UNL A   1      38.988  31.006  29.769  1.00  0.00     0.049 A 
ATOM     56  H   UNL A   1      40.900  30.314  30.225  1.00  0.00     0.167 HD
ATOM     57  C   UNL A   1      44.711  28.588  31.469  1.00  0.00     0.034 A 
ATOM     58  C   UNL A   1      38.849  32.217  30.345  1.00  0.00     0.034 A 
ATOM     59  C   UNL A   1      44.722  29.936  31.970  1.00  0.00     0.049 A 
ATOM     60  C   UNL A   1      39.999  32.796  31.122  1.00  0.00     0.074 A 
ATOM     61  C   UNL A   1      45.740  30.592  32.641  1.00  0.00     0.029 A 
ATOM     62  N   UNL A   1      43.668  30.830  31.871  1.00  0.00    -0.354 N 
ATOM     63  N   UNL A   1      41.176  32.274  31.364  1.00  0.00    -0.248 NA
ATOM     64  C   UNL A   1      39.816  34.146  31.675  1.00  0.00     0.031 C 
ATOM     65  C   UNL A   1      45.286  31.870  32.981  1.00  0.00     0.029 A 
ATOM     66  C   UNL A   1      44.003  32.025  32.482  1.00  0.00     0.049 A 
ATOM     67  H   UNL A   1      42.808  30.642  31.430  1.00  0.00     0.167 HD
ATOM     68  C   UNL A   1      41.886  33.241  32.067  1.00  0.00     0.074 A 
ATOM     69  C   UNL A   1      41.012  34.389  32.194  1.00  0.00     0.031 C 
ATOM     70  C   UNL A   1      43.144  33.179  32.567  1.00  0.00     0.034 A 
BRANCH  57  71
ATOM     71  C   UNL A   1      45.907  27.718  31.754  1.00  0.00     0.023 A 
ATOM     72  C   UNL A   1      45.956  26.961  32.942  1.00  0.00     0.012 A 
ATOM     73  C   UNL A   1      46.944  27.589  30.809  1.00  0.00     0.148 A 
ATOM     74  C   UNL A   1      47.030  26.110  33.199  1.00  0.00     0.002 A 
ATOM     75  C   UNL A   1      47.987  26.704  31.050  1.00  0.00     0.091 A 
ATOM     76  F   UNL A   1      46.888  28.333  29.695  1.00  0.00    -0.205 F 
ATOM     77  C   UNL A   1      48.038  25.973  32.248  1.00  0.00     0.022 A 
BRANCH  75  78
ATOM     78  S   UNL A   1      49.291  26.392  29.854  1.00  0.00     0.127 S 
ATOM     79  O   UNL A   1      49.922  25.196  30.411  1.00  0.00    -0.237 OA
ATOM     80  O   UNL A   1      48.530  26.163  28.625  1.00  0.00    -0.237 OA
ATOM     81  O   UNL A   1      50.124  27.586  29.842  1.00  0.00    -0.744 OA
ENDBRANCH  75  78
ENDBRANCH  57  71
BRANCH  58  82
ATOM     82  C   UNL A   1      37.587  32.986  30.154  1.00  0.00     0.023 A 
ATOM     83  C   UNL A   1      37.253  33.462  28.871  1.00  0.00     0.012 A 
ATOM     84  C   UNL A   1      36.699  33.209  31.223  1.00  0.00     0.148 A 
ATOM     85  C   UNL A   1      36.069  34.169  28.661  1.00  0.00     0.002 A 
ATOM     86  C   UNL A   1      35.496  33.866  30.997  1.00  0.00     0.091 A 
ATOM     87  F   UNL A   1      37.041  32.754  32.436  1.00  0.00    -0.205 F 
ATOM     88  C   UNL A   1      35.186  34.362  29.721  1.00  0.00     0.022 A 
BRANCH  86  89
ATOM     89  S   UNL A   1      34.238  34.044  32.267  1.00  0.00     0.127 S 
ATOM     90  O   UNL A   1      34.871  34.989  33.184  1.00  0.00    -0.237 OA
ATOM     91  O   UNL A   1      33.115  34.586  31.501  1.00  0.00    -0.237 OA
ATOM     92  O   UNL A   1      34.016  32.706  32.796  1.00  0.00    -0.744 OA
ENDBRANCH  86  89
ENDBRANCH  58  82
BRANCH  70  93
ATOM     93  C   UNL A   1      43.681  34.397  33.274  1.00  0.00     0.023 A 
ATOM     94  C   UNL A   1      43.665  34.462  34.681  1.00  0.00     0.012 A 
ATOM     95  C   UNL A   1      44.276  35.443  32.540  1.00  0.00     0.148 A 
ATOM     96  C   UNL A   1      44.203  35.564  35.345  1.00  0.00     0.002 A 
ATOM     97  C   UNL A   1      44.857  36.512  33.210  1.00  0.00     0.091 A 
ATOM     98  F   UNL A   1      44.267  35.370  31.201  1.00  0.00    -0.205 F 
ATOM     99  C   UNL A   1      44.809  36.581  34.612  1.00  0.00     0.022 A 
BRANCH  97 100
ATOM    100  S   UNL A   1      45.747  37.817  32.355  1.00  0.00     0.127 S 
ATOM    101  O   UNL A   1      46.176  38.664  33.466  1.00  0.00    -0.237 OA
ATOM    102  O   UNL A   1      46.826  37.077  31.698  1.00  0.00    -0.237 OA
ATOM    103  O   UNL A   1      44.789  38.426  31.441  1.00  0.00    -0.744 OA
ENDBRANCH  97 100
ENDBRANCH  70  93
ENDBRANCH  44  45
ENDBRANCH  36  39
ENDBRANCH  34  35
ENDBRANCH  33  34
ENDBRANCH  32  33
ENDBRANCH   1  32
TORSDOF 19
ENDMDL
