MODEL 1
REMARK VINA RESULT:     -12.5      0.000      0.000
REMARK SMILES O=C(NCCCCNC(=O)c1ccnc(Oc2cccc(C(F)(F)F)c2)c1)c1ccc(-c2c3nc(c(-c4cccc(S(=O)(=O)[O-])c4F)c4ccc([nH]4)c(-c4cccc(S(=O)(=O)[O-])c4F)c4nc(c(-c5cccc(S(=O)(=O)[O-])c5F)c5ccc2[nH]5)C=C4)C=C3)cc1
REMARK SMILES IDX 5 1 4 2 3 3 1 4 2 5 28 7 29 8 90 9 30 10 89 11 31 12 32 13
REMARK SMILES IDX 33 14 83 15 34 16 88 17 82 18 84 19 35 20 87 21 81 22 80 23
REMARK SMILES IDX 36 25 68 26 48 27 67 28 49 29 52 30 66 31 85 32 50 33 51 34
REMARK SMILES IDX 65 36 86 37 53 38 37 39 38 40 46 41 39 42 41 43 47 44 40 45
REMARK SMILES IDX 42 46 43 47 44 48 45 49 69 50 70 51 78 52 71 53 73 54 79 55
REMARK SMILES IDX 72 56 74 57 75 58 76 59 77 60 54 61 55 62 63 63 56 64 58 65
REMARK SMILES IDX 64 66 57 67 59 68 60 69 61 70 62 71 6 72 7 73 8 74 9 75
REMARK SMILES IDX 10 77 11 78 12 79 27 80 13 81 15 82 14 83 16 84 17 85 18 86
REMARK SMILES IDX 26 87 19 88 21 89 20 90 22 91 23 92 24 93 25 94
REMARK H PARENT 3 6 84 24 52 35 8 76
REMARK Flexibility Score: inf
ROOT
ATOM      1  C   UNL A   1      31.454  29.409  27.037  1.00  0.00     0.023 C 
ENDROOT
BRANCH   1   2
ATOM      2  C   UNL A   1      32.353  30.372  26.272  1.00  0.00     0.116 C 
BRANCH   2   3
ATOM      3  N   UNL A   1      32.187  31.763  26.666  1.00  0.00    -0.352 N 
ATOM      4  O   UNL A   1      32.645  33.699  27.719  1.00  0.00    -0.269 OA
ATOM      5  C   UNL A   1      33.017  32.569  27.412  1.00  0.00     0.251 C 
ATOM      6  H   UNL A   1      31.357  32.190  26.352  1.00  0.00     0.163 HD
BRANCH   5   7
ATOM      7  C   UNL A   1      34.326  32.059  27.880  1.00  0.00     0.039 A 
ATOM      8  C   UNL A   1      34.489  30.720  28.239  1.00  0.00     0.014 A 
ATOM      9  C   UNL A   1      35.402  32.945  27.991  1.00  0.00     0.014 A 
ATOM     10  C   UNL A   1      35.653  30.315  28.885  1.00  0.00     0.010 A 
ATOM     11  C   UNL A   1      36.606  32.512  28.556  1.00  0.00     0.010 A 
ATOM     12  C   UNL A   1      36.723  31.208  29.063  1.00  0.00    -0.014 A 
BRANCH  12  13
ATOM     13  C   UNL A   1      37.948  30.746  29.772  1.00  0.00     0.031 A 
ATOM     14  C   UNL A   1      38.239  31.168  31.189  1.00  0.00     0.074 A 
ATOM     15  C   UNL A   1      38.790  29.906  29.138  1.00  0.00     0.049 A 
ATOM     16  N   UNL A   1      39.214  30.788  31.975  1.00  0.00    -0.248 NA
ATOM     17  C   UNL A   1      37.330  32.150  31.804  1.00  0.00     0.031 C 
ATOM     18  C   UNL A   1      38.649  29.462  27.750  1.00  0.00     0.029 A 
ATOM     19  N   UNL A   1      39.921  29.265  29.578  1.00  0.00    -0.354 N 
ATOM     20  C   UNL A   1      39.066  31.512  33.152  1.00  0.00     0.074 A 
ATOM     21  C   UNL A   1      37.908  32.362  32.978  1.00  0.00     0.031 C 
ATOM     22  C   UNL A   1      39.626  28.589  27.465  1.00  0.00     0.029 A 
ATOM     23  C   UNL A   1      40.487  28.440  28.634  1.00  0.00     0.049 A 
ATOM     24  H   UNL A   1      40.291  29.384  30.482  1.00  0.00     0.167 HD
ATOM     25  C   UNL A   1      39.811  31.460  34.284  1.00  0.00     0.034 A 
ATOM     26  C   UNL A   1      41.573  27.645  28.700  1.00  0.00     0.034 A 
ATOM     27  C   UNL A   1      40.924  30.570  34.482  1.00  0.00     0.049 A 
ATOM     28  C   UNL A   1      42.339  27.559  29.989  1.00  0.00     0.074 A 
ATOM     29  C   UNL A   1      41.692  30.392  35.619  1.00  0.00     0.029 A 
ATOM     30  N   UNL A   1      41.429  29.708  33.521  1.00  0.00    -0.354 N 
ATOM     31  N   UNL A   1      42.094  28.147  31.134  1.00  0.00    -0.248 NA
ATOM     32  C   UNL A   1      43.512  26.675  30.005  1.00  0.00     0.031 C 
ATOM     33  C   UNL A   1      42.666  29.426  35.344  1.00  0.00     0.029 A 
ATOM     34  C   UNL A   1      42.499  28.996  34.039  1.00  0.00     0.049 A 
ATOM     35  H   UNL A   1      41.079  29.614  32.606  1.00  0.00     0.167 HD
ATOM     36  C   UNL A   1      43.064  27.684  32.015  1.00  0.00     0.074 A 
ATOM     37  C   UNL A   1      43.884  26.744  31.276  1.00  0.00     0.031 C 
ATOM     38  C   UNL A   1      43.269  28.020  33.311  1.00  0.00     0.034 A 
BRANCH  25  39
ATOM     39  C   UNL A   1      39.416  32.358  35.429  1.00  0.00     0.023 A 
ATOM     40  C   UNL A   1      38.598  31.851  36.458  1.00  0.00     0.012 A 
ATOM     41  C   UNL A   1      39.914  33.673  35.526  1.00  0.00     0.148 A 
ATOM     42  C   UNL A   1      38.260  32.646  37.553  1.00  0.00     0.002 A 
ATOM     43  C   UNL A   1      39.602  34.446  36.640  1.00  0.00     0.091 A 
ATOM     44  F   UNL A   1      40.671  34.147  34.528  1.00  0.00    -0.205 F 
ATOM     45  C   UNL A   1      38.770  33.937  37.649  1.00  0.00     0.022 A 
BRANCH  43  46
ATOM     46  S   UNL A   1      40.275  36.095  36.883  1.00  0.00     0.127 S 
ATOM     47  O   UNL A   1      41.693  35.809  37.090  1.00  0.00    -0.237 OA
ATOM     48  O   UNL A   1      39.965  36.750  35.612  1.00  0.00    -0.237 OA
ATOM     49  O   UNL A   1      39.568  36.645  38.031  1.00  0.00    -0.744 OA
ENDBRANCH  43  46
ENDBRANCH  25  39
BRANCH  26  50
ATOM     50  C   UNL A   1      41.942  26.806  27.526  1.00  0.00     0.023 A 
ATOM     51  C   UNL A   1      42.680  27.380  26.473  1.00  0.00     0.012 A 
ATOM     52  C   UNL A   1      41.619  25.437  27.472  1.00  0.00     0.148 A 
ATOM     53  C   UNL A   1      43.071  26.611  25.377  1.00  0.00     0.002 A 
ATOM     54  C   UNL A   1      42.061  24.663  26.405  1.00  0.00     0.091 A 
ATOM     55  F   UNL A   1      40.898  24.912  28.472  1.00  0.00    -0.205 F 
ATOM     56  C   UNL A   1      42.775  25.251  25.349  1.00  0.00     0.022 A 
BRANCH  54  57
ATOM     57  S   UNL A   1      41.847  22.880  26.372  1.00  0.00     0.127 S 
ATOM     58  O   UNL A   1      42.524  22.520  25.129  1.00  0.00    -0.237 OA
ATOM     59  O   UNL A   1      42.538  22.463  27.593  1.00  0.00    -0.237 OA
ATOM     60  O   UNL A   1      40.406  22.666  26.402  1.00  0.00    -0.744 OA
ENDBRANCH  54  57
ENDBRANCH  26  50
BRANCH  38  61
ATOM     61  C   UNL A   1      44.412  27.354  34.029  1.00  0.00     0.023 A 
ATOM     62  C   UNL A   1      45.703  27.908  33.944  1.00  0.00     0.012 A 
ATOM     63  C   UNL A   1      44.198  26.217  34.833  1.00  0.00     0.148 A 
ATOM     64  C   UNL A   1      46.772  27.324  34.624  1.00  0.00     0.002 A 
ATOM     65  C   UNL A   1      45.259  25.666  35.543  1.00  0.00     0.091 A 
ATOM     66  F   UNL A   1      42.967  25.688  34.883  1.00  0.00    -0.205 F 
ATOM     67  C   UNL A   1      46.547  26.211  35.432  1.00  0.00     0.022 A 
BRANCH  65  68
ATOM     68  S   UNL A   1      45.029  24.286  36.670  1.00  0.00     0.127 S 
ATOM     69  O   UNL A   1      44.053  24.828  37.613  1.00  0.00    -0.237 OA
ATOM     70  O   UNL A   1      44.509  23.239  35.789  1.00  0.00    -0.237 OA
ATOM     71  O   UNL A   1      46.351  24.004  37.216  1.00  0.00    -0.744 OA
ENDBRANCH  65  68
ENDBRANCH  38  61
ENDBRANCH  12  13
ENDBRANCH   5   7
ENDBRANCH   2   3
ENDBRANCH   1   2
BRANCH   1  72
ATOM     72  C   UNL A   1      32.081  28.068  27.415  1.00  0.00     0.023 C 
BRANCH  72  73
ATOM     73  C   UNL A   1      31.875  26.933  26.416  1.00  0.00     0.116 C 
BRANCH  73  74
ATOM     74  N   UNL A   1      30.683  27.097  25.599  1.00  0.00    -0.352 N 
ATOM     75  C   UNL A   1      30.539  27.100  24.236  1.00  0.00     0.251 C 
ATOM     76  H   UNL A   1      29.849  27.227  26.106  1.00  0.00     0.163 HD
ATOM     77  O   UNL A   1      29.454  27.365  23.725  1.00  0.00    -0.269 OA
BRANCH  75  78
ATOM     78  C   UNL A   1      31.692  26.825  23.362  1.00  0.00     0.046 A 
ATOM     79  C   UNL A   1      32.507  27.846  22.890  1.00  0.00     0.034 A 
ATOM     80  C   UNL A   1      31.968  25.495  23.045  1.00  0.00     0.082 A 
ATOM     81  C   UNL A   1      33.530  27.493  22.035  1.00  0.00     0.116 A 
ATOM     82  C   UNL A   1      33.004  25.235  22.163  1.00  0.00     0.219 A 
ATOM     83  N   UNL A   1      33.780  26.222  21.653  1.00  0.00    -0.222 NA
BRANCH  82  84
ATOM     84  O   UNL A   1      33.372  23.983  21.721  1.00  0.00    -0.439 OA
BRANCH  84  85
ATOM     85  C   UNL A   1      33.654  22.999  22.634  1.00  0.00     0.130 A 
ATOM     86  C   UNL A   1      32.656  22.063  22.899  1.00  0.00     0.047 A 
ATOM     87  C   UNL A   1      34.856  22.976  23.347  1.00  0.00     0.060 A 
ATOM     88  C   UNL A   1      32.879  21.059  23.839  1.00  0.00     0.004 A 
ATOM     89  C   UNL A   1      35.102  21.951  24.275  1.00  0.00     0.059 A 
ATOM     90  C   UNL A   1      34.099  20.997  24.516  1.00  0.00     0.013 A 
BRANCH  89  91
ATOM     91  C   UNL A   1      36.416  21.863  25.010  1.00  0.00     0.416 C 
ATOM     92  F   UNL A   1      36.702  20.593  25.409  1.00  0.00    -0.166 F 
ATOM     93  F   UNL A   1      37.469  22.261  24.245  1.00  0.00    -0.166 F 
ATOM     94  F   UNL A   1      36.461  22.629  26.136  1.00  0.00    -0.166 F 
ENDBRANCH  89  91
ENDBRANCH  84  85
ENDBRANCH  82  84
ENDBRANCH  75  78
ENDBRANCH  73  74
ENDBRANCH  72  73
ENDBRANCH   1  72
TORSDOF 17
ENDMDL
MODEL 2
REMARK VINA RESULT:     -12.3      2.079      2.759
REMARK SMILES O=C(NCCCCNC(=O)c1ccnc(Oc2cccc(C(F)(F)F)c2)c1)c1ccc(-c2c3nc(c(-c4cccc(S(=O)(=O)[O-])c4F)c4ccc([nH]4)c(-c4cccc(S(=O)(=O)[O-])c4F)c4nc(c(-c5cccc(S(=O)(=O)[O-])c5F)c5ccc2[nH]5)C=C4)C=C3)cc1
REMARK SMILES IDX 5 1 4 2 3 3 1 4 2 5 28 7 29 8 90 9 30 10 89 11 31 12 32 13
REMARK SMILES IDX 33 14 83 15 34 16 88 17 82 18 84 19 35 20 87 21 81 22 80 23
REMARK SMILES IDX 36 25 68 26 48 27 67 28 49 29 52 30 66 31 85 32 50 33 51 34
REMARK SMILES IDX 65 36 86 37 53 38 37 39 38 40 46 41 39 42 41 43 47 44 40 45
REMARK SMILES IDX 42 46 43 47 44 48 45 49 69 50 70 51 78 52 71 53 73 54 79 55
REMARK SMILES IDX 72 56 74 57 75 58 76 59 77 60 54 61 55 62 63 63 56 64 58 65
REMARK SMILES IDX 64 66 57 67 59 68 60 69 61 70 62 71 6 72 7 73 8 74 9 75
REMARK SMILES IDX 10 77 11 78 12 79 27 80 13 81 15 82 14 83 16 84 17 85 18 86
REMARK SMILES IDX 26 87 19 88 21 89 20 90 22 91 23 92 24 93 25 94
REMARK H PARENT 3 6 84 24 52 35 8 76
REMARK Flexibility Score: inf
ROOT
ATOM      1  C   UNL A   1      33.224  27.746  26.070  1.00  0.00     0.023 C 
ENDROOT
BRANCH   1   2
ATOM      2  C   UNL A   1      33.896  29.026  25.589  1.00  0.00     0.116 C 
BRANCH   2   3
ATOM      3  N   UNL A   1      33.348  30.233  26.188  1.00  0.00    -0.352 N 
ATOM      4  O   UNL A   1      33.164  31.935  27.651  1.00  0.00    -0.269 OA
ATOM      5  C   UNL A   1      33.834  30.996  27.226  1.00  0.00     0.251 C 
ATOM      6  H   UNL A   1      32.505  30.551  25.791  1.00  0.00     0.163 HD
BRANCH   5   7
ATOM      7  C   UNL A   1      35.130  30.656  27.856  1.00  0.00     0.039 A 
ATOM      8  C   UNL A   1      35.317  29.432  28.501  1.00  0.00     0.014 A 
ATOM      9  C   UNL A   1      36.167  31.594  27.828  1.00  0.00     0.014 A 
ATOM     10  C   UNL A   1      36.456  29.227  29.274  1.00  0.00     0.010 A 
ATOM     11  C   UNL A   1      37.351  31.345  28.531  1.00  0.00     0.010 A 
ATOM     12  C   UNL A   1      37.483  30.185  29.310  1.00  0.00    -0.014 A 
BRANCH  12  13
ATOM     13  C   UNL A   1      38.679  29.940  30.160  1.00  0.00     0.031 A 
ATOM     14  C   UNL A   1      38.800  30.543  31.536  1.00  0.00     0.074 A 
ATOM     15  C   UNL A   1      39.654  29.132  29.697  1.00  0.00     0.049 A 
ATOM     16  N   UNL A   1      39.734  30.360  32.434  1.00  0.00    -0.248 NA
ATOM     17  C   UNL A   1      37.746  31.481  31.959  1.00  0.00     0.031 C 
ATOM     18  C   UNL A   1      39.682  28.526  28.364  1.00  0.00     0.029 A 
ATOM     19  N   UNL A   1      40.800  28.670  30.295  1.00  0.00    -0.354 N 
ATOM     20  C   UNL A   1      39.410  31.188  33.503  1.00  0.00     0.074 A 
ATOM     21  C   UNL A   1      38.194  31.882  33.141  1.00  0.00     0.031 C 
ATOM     22  C   UNL A   1      40.763  27.740  28.260  1.00  0.00     0.029 A 
ATOM     23  C   UNL A   1      41.527  27.814  29.501  1.00  0.00     0.049 A 
ATOM     24  H   UNL A   1      41.075  28.927  31.204  1.00  0.00     0.167 HD
ATOM     25  C   UNL A   1      40.053  31.341  34.687  1.00  0.00     0.034 A 
ATOM     26  C   UNL A   1      42.676  27.155  29.744  1.00  0.00     0.034 A 
ATOM     27  C   UNL A   1      41.228  30.605  35.073  1.00  0.00     0.049 A 
ATOM     28  C   UNL A   1      43.330  27.294  31.089  1.00  0.00     0.074 A 
ATOM     29  C   UNL A   1      41.905  30.637  36.279  1.00  0.00     0.029 A 
ATOM     30  N   UNL A   1      41.899  29.703  34.262  1.00  0.00    -0.354 N 
ATOM     31  N   UNL A   1      42.926  27.973  32.135  1.00  0.00    -0.248 NA
ATOM     32  C   UNL A   1      44.579  26.550  31.299  1.00  0.00     0.031 C 
ATOM     33  C   UNL A   1      42.992  29.759  36.196  1.00  0.00     0.029 A 
ATOM     34  C   UNL A   1      42.985  29.173  34.941  1.00  0.00     0.049 A 
ATOM     35  H   UNL A   1      41.643  29.472  33.341  1.00  0.00     0.167 HD
ATOM     36  C   UNL A   1      43.855  27.717  33.136  1.00  0.00     0.074 A 
ATOM     37  C   UNL A   1      44.827  26.798  32.578  1.00  0.00     0.031 C 
ATOM     38  C   UNL A   1      43.910  28.213  34.395  1.00  0.00     0.034 A 
BRANCH  25  39
ATOM     39  C   UNL A   1      39.471  32.310  35.684  1.00  0.00     0.023 A 
ATOM     40  C   UNL A   1      38.472  31.871  36.576  1.00  0.00     0.012 A 
ATOM     41  C   UNL A   1      39.963  33.626  35.790  1.00  0.00     0.148 A 
ATOM     42  C   UNL A   1      37.953  32.733  37.541  1.00  0.00     0.002 A 
ATOM     43  C   UNL A   1      39.465  34.469  36.779  1.00  0.00     0.091 A 
ATOM     44  F   UNL A   1      40.895  34.034  34.919  1.00  0.00    -0.205 F 
ATOM     45  C   UNL A   1      38.455  34.026  37.649  1.00  0.00     0.022 A 
BRANCH  43  46
ATOM     46  S   UNL A   1      40.107  36.127  37.040  1.00  0.00     0.127 S 
ATOM     47  O   UNL A   1      39.753  36.783  35.783  1.00  0.00    -0.237 OA
ATOM     48  O   UNL A   1      39.339  36.581  38.201  1.00  0.00    -0.237 OA
ATOM     49  O   UNL A   1      41.532  35.966  37.288  1.00  0.00    -0.744 OA
ENDBRANCH  43  46
ENDBRANCH  25  39
BRANCH  26  50
ATOM     50  C   UNL A   1      43.230  26.238  28.709  1.00  0.00     0.023 A 
ATOM     51  C   UNL A   1      42.723  24.929  28.604  1.00  0.00     0.012 A 
ATOM     52  C   UNL A   1      44.212  26.670  27.795  1.00  0.00     0.148 A 
ATOM     53  C   UNL A   1      43.198  24.059  27.622  1.00  0.00     0.002 A 
ATOM     54  C   UNL A   1      44.638  25.817  26.784  1.00  0.00     0.091 A 
ATOM     55  F   UNL A   1      44.699  27.912  27.922  1.00  0.00    -0.205 F 
ATOM     56  C   UNL A   1      44.143  24.507  26.704  1.00  0.00     0.022 A 
BRANCH  54  57
ATOM     57  S   UNL A   1      45.740  26.370  25.477  1.00  0.00     0.127 S 
ATOM     58  O   UNL A   1      45.006  27.505  24.926  1.00  0.00    -0.237 OA
ATOM     59  O   UNL A   1      46.950  26.721  26.222  1.00  0.00    -0.237 OA
ATOM     60  O   UNL A   1      45.898  25.220  24.596  1.00  0.00    -0.744 OA
ENDBRANCH  54  57
ENDBRANCH  26  50
BRANCH  38  61
ATOM     61  C   UNL A   1      45.045  27.758  35.272  1.00  0.00     0.023 A 
ATOM     62  C   UNL A   1      46.232  28.514  35.320  1.00  0.00     0.012 A 
ATOM     63  C   UNL A   1      44.916  26.619  36.092  1.00  0.00     0.148 A 
ATOM     64  C   UNL A   1      47.286  28.127  36.148  1.00  0.00     0.002 A 
ATOM     65  C   UNL A   1      45.953  26.264  36.946  1.00  0.00     0.091 A 
ATOM     66  F   UNL A   1      43.788  25.897  36.014  1.00  0.00    -0.205 F 
ATOM     67  C   UNL A   1      47.142  27.010  36.968  1.00  0.00     0.022 A 
BRANCH  65  68
ATOM     68  S   UNL A   1      45.807  24.890  38.093  1.00  0.00     0.127 S 
ATOM     69  O   UNL A   1      45.545  23.770  37.190  1.00  0.00    -0.237 OA
ATOM     70  O   UNL A   1      47.125  24.864  38.730  1.00  0.00    -0.237 OA
ATOM     71  O   UNL A   1      44.716  25.247  38.992  1.00  0.00    -0.744 OA
ENDBRANCH  65  68
ENDBRANCH  38  61
ENDBRANCH  12  13
ENDBRANCH   5   7
ENDBRANCH   2   3
ENDBRANCH   1   2
BRANCH   1  72
ATOM     72  C   UNL A   1      31.699  27.781  26.146  1.00  0.00     0.023 C 
BRANCH  72  73
ATOM     73  C   UNL A   1      30.983  26.491  25.756  1.00  0.00     0.116 C 
BRANCH  73  74
ATOM     74  N   UNL A   1      31.101  25.444  26.758  1.00  0.00    -0.352 N 
ATOM     75  C   UNL A   1      31.634  24.185  26.662  1.00  0.00     0.251 C 
ATOM     76  H   UNL A   1      30.742  25.677  27.645  1.00  0.00     0.163 HD
ATOM     77  O   UNL A   1      31.544  23.397  27.600  1.00  0.00    -0.269 OA
BRANCH  75  78
ATOM     78  C   UNL A   1      32.287  23.742  25.418  1.00  0.00     0.046 A 
ATOM     79  C   UNL A   1      31.600  23.013  24.454  1.00  0.00     0.034 A 
ATOM     80  C   UNL A   1      33.617  24.108  25.213  1.00  0.00     0.082 A 
ATOM     81  C   UNL A   1      32.313  22.600  23.349  1.00  0.00     0.116 A 
ATOM     82  C   UNL A   1      34.259  23.632  24.082  1.00  0.00     0.219 A 
ATOM     83  N   UNL A   1      33.620  22.877  23.155  1.00  0.00    -0.222 NA
BRANCH  82  84
ATOM     84  O   UNL A   1      35.578  23.868  23.762  1.00  0.00    -0.439 OA
BRANCH  84  85
ATOM     85  C   UNL A   1      36.569  23.222  24.458  1.00  0.00     0.130 A 
ATOM     86  C   UNL A   1      36.708  21.850  24.252  1.00  0.00     0.047 A 
ATOM     87  C   UNL A   1      37.356  23.881  25.406  1.00  0.00     0.060 A 
ATOM     88  C   UNL A   1      37.679  21.139  24.955  1.00  0.00     0.004 A 
ATOM     89  C   UNL A   1      38.356  23.180  26.097  1.00  0.00     0.059 A 
ATOM     90  C   UNL A   1      38.505  21.802  25.865  1.00  0.00     0.013 A 
BRANCH  89  91
ATOM     91  C   UNL A   1      39.264  23.879  27.078  1.00  0.00     0.416 C 
ATOM     92  F   UNL A   1      40.065  23.010  27.753  1.00  0.00    -0.166 F 
ATOM     93  F   UNL A   1      40.100  24.766  26.473  1.00  0.00    -0.166 F 
ATOM     94  F   UNL A   1      38.593  24.587  28.029  1.00  0.00    -0.166 F 
ENDBRANCH  89  91
ENDBRANCH  84  85
ENDBRANCH  82  84
ENDBRANCH  75  78
ENDBRANCH  73  74
ENDBRANCH  72  73
ENDBRANCH   1  72
TORSDOF 17
ENDMDL
MODEL 3
REMARK VINA RESULT:     -12.3      1.591      1.962
REMARK SMILES O=C(NCCCCNC(=O)c1ccnc(Oc2cccc(C(F)(F)F)c2)c1)c1ccc(-c2c3nc(c(-c4cccc(S(=O)(=O)[O-])c4F)c4ccc([nH]4)c(-c4cccc(S(=O)(=O)[O-])c4F)c4nc(c(-c5cccc(S(=O)(=O)[O-])c5F)c5ccc2[nH]5)C=C4)C=C3)cc1
REMARK SMILES IDX 5 1 4 2 3 3 1 4 2 5 28 7 29 8 90 9 30 10 89 11 31 12 32 13
REMARK SMILES IDX 33 14 83 15 34 16 88 17 82 18 84 19 35 20 87 21 81 22 80 23
REMARK SMILES IDX 36 25 68 26 48 27 67 28 49 29 52 30 66 31 85 32 50 33 51 34
REMARK SMILES IDX 65 36 86 37 53 38 37 39 38 40 46 41 39 42 41 43 47 44 40 45
REMARK SMILES IDX 42 46 43 47 44 48 45 49 69 50 70 51 78 52 71 53 73 54 79 55
REMARK SMILES IDX 72 56 74 57 75 58 76 59 77 60 54 61 55 62 63 63 56 64 58 65
REMARK SMILES IDX 64 66 57 67 59 68 60 69 61 70 62 71 6 72 7 73 8 74 9 75
REMARK SMILES IDX 10 77 11 78 12 79 27 80 13 81 15 82 14 83 16 84 17 85 18 86
REMARK SMILES IDX 26 87 19 88 21 89 20 90 22 91 23 92 24 93 25 94
REMARK H PARENT 3 6 84 24 52 35 8 76
REMARK Flexibility Score: inf
ROOT
ATOM      1  C   UNL A   1      31.743  29.374  26.612  1.00  0.00     0.023 C 
ENDROOT
BRANCH   1   2
ATOM      2  C   UNL A   1      32.981  30.235  26.391  1.00  0.00     0.116 C 
BRANCH   2   3
ATOM      3  N   UNL A   1      32.832  31.602  26.866  1.00  0.00    -0.352 N 
ATOM      4  O   UNL A   1      33.318  33.470  28.027  1.00  0.00    -0.269 OA
ATOM      5  C   UNL A   1      33.676  32.354  27.652  1.00  0.00     0.251 C 
ATOM      6  H   UNL A   1      32.005  32.057  26.583  1.00  0.00     0.163 HD
BRANCH   5   7
ATOM      7  C   UNL A   1      34.982  31.804  28.082  1.00  0.00     0.039 A 
ATOM      8  C   UNL A   1      35.113  30.460  28.434  1.00  0.00     0.014 A 
ATOM      9  C   UNL A   1      36.087  32.657  28.162  1.00  0.00     0.014 A 
ATOM     10  C   UNL A   1      36.283  30.018  29.045  1.00  0.00     0.010 A 
ATOM     11  C   UNL A   1      37.293  32.186  28.691  1.00  0.00     0.010 A 
ATOM     12  C   UNL A   1      37.385  30.878  29.193  1.00  0.00    -0.014 A 
BRANCH  12  13
ATOM     13  C   UNL A   1      38.615  30.377  29.866  1.00  0.00     0.031 A 
ATOM     14  C   UNL A   1      38.957  30.784  31.276  1.00  0.00     0.074 A 
ATOM     15  C   UNL A   1      39.414  29.515  29.206  1.00  0.00     0.049 A 
ATOM     16  N   UNL A   1      39.943  30.372  32.033  1.00  0.00    -0.248 NA
ATOM     17  C   UNL A   1      38.095  31.789  31.920  1.00  0.00     0.031 C 
ATOM     18  C   UNL A   1      39.221  29.082  27.820  1.00  0.00     0.029 A 
ATOM     19  N   UNL A   1      40.538  28.840  29.612  1.00  0.00    -0.354 N 
ATOM     20  C   UNL A   1      39.848  31.095  33.217  1.00  0.00     0.074 A 
ATOM     21  C   UNL A   1      38.712  31.979  33.078  1.00  0.00     0.031 C 
ATOM     22  C   UNL A   1      40.164  28.183  27.505  1.00  0.00     0.029 A 
ATOM     23  C   UNL A   1      41.053  28.004  28.649  1.00  0.00     0.049 A 
ATOM     24  H   UNL A   1      40.936  28.944  30.505  1.00  0.00     0.167 HD
ATOM     25  C   UNL A   1      40.623  31.016  34.327  1.00  0.00     0.034 A 
ATOM     26  C   UNL A   1      42.116  27.177  28.681  1.00  0.00     0.034 A 
ATOM     27  C   UNL A   1      41.715  30.093  34.490  1.00  0.00     0.049 A 
ATOM     28  C   UNL A   1      42.915  27.063  29.948  1.00  0.00     0.074 A 
ATOM     29  C   UNL A   1      42.508  29.888  35.605  1.00  0.00     0.029 A 
ATOM     30  N   UNL A   1      42.167  29.221  33.512  1.00  0.00    -0.354 N 
ATOM     31  N   UNL A   1      42.719  27.652  31.102  1.00  0.00    -0.248 NA
ATOM     32  C   UNL A   1      44.062  26.145  29.927  1.00  0.00     0.031 C 
ATOM     33  C   UNL A   1      43.446  28.895  35.299  1.00  0.00     0.029 A 
ATOM     34  C   UNL A   1      43.230  28.476  33.997  1.00  0.00     0.049 A 
ATOM     35  H   UNL A   1      41.789  29.142  32.607  1.00  0.00     0.167 HD
ATOM     36  C   UNL A   1      43.700  27.157  31.953  1.00  0.00     0.074 A 
ATOM     37  C   UNL A   1      44.471  26.198  31.189  1.00  0.00     0.031 C 
ATOM     38  C   UNL A   1      43.951  27.481  33.245  1.00  0.00     0.034 A 
BRANCH  25  39
ATOM     39  C   UNL A   1      40.287  31.920  35.485  1.00  0.00     0.023 A 
ATOM     40  C   UNL A   1      41.051  33.085  35.700  1.00  0.00     0.012 A 
ATOM     41  C   UNL A   1      39.175  31.661  36.311  1.00  0.00     0.148 A 
ATOM     42  C   UNL A   1      40.729  33.964  36.735  1.00  0.00     0.002 A 
ATOM     43  C   UNL A   1      38.839  32.561  37.317  1.00  0.00     0.091 A 
ATOM     44  F   UNL A   1      38.474  30.537  36.108  1.00  0.00    -0.205 F 
ATOM     45  C   UNL A   1      39.620  33.708  37.535  1.00  0.00     0.022 A 
BRANCH  43  46
ATOM     46  S   UNL A   1      37.383  32.350  38.349  1.00  0.00     0.127 S 
ATOM     47  O   UNL A   1      36.363  33.046  37.567  1.00  0.00    -0.237 OA
ATOM     48  O   UNL A   1      37.234  30.895  38.386  1.00  0.00    -0.237 OA
ATOM     49  O   UNL A   1      37.716  32.953  39.631  1.00  0.00    -0.744 OA
ENDBRANCH  43  46
ENDBRANCH  25  39
BRANCH  26  50
ATOM     50  C   UNL A   1      42.428  26.333  27.494  1.00  0.00     0.023 A 
ATOM     51  C   UNL A   1      43.232  26.860  26.466  1.00  0.00     0.012 A 
ATOM     52  C   UNL A   1      41.983  25.000  27.404  1.00  0.00     0.148 A 
ATOM     53  C   UNL A   1      43.570  26.082  25.359  1.00  0.00     0.002 A 
ATOM     54  C   UNL A   1      42.372  24.212  26.327  1.00  0.00     0.091 A 
ATOM     55  F   UNL A   1      41.201  24.521  28.382  1.00  0.00    -0.205 F 
ATOM     56  C   UNL A   1      43.153  24.755  25.296  1.00  0.00     0.022 A 
BRANCH  54  57
ATOM     57  S   UNL A   1      41.999  22.457  26.251  1.00  0.00     0.127 S 
ATOM     58  O   UNL A   1      42.586  22.081  24.968  1.00  0.00    -0.237 OA
ATOM     59  O   UNL A   1      42.702  21.940  27.425  1.00  0.00    -0.237 OA
ATOM     60  O   UNL A   1      40.547  22.369  26.341  1.00  0.00    -0.744 OA
ENDBRANCH  54  57
ENDBRANCH  26  50
BRANCH  38  61
ATOM     61  C   UNL A   1      45.093  26.779  33.928  1.00  0.00     0.023 A 
ATOM     62  C   UNL A   1      46.390  27.319  33.843  1.00  0.00     0.012 A 
ATOM     63  C   UNL A   1      44.874  25.621  34.700  1.00  0.00     0.148 A 
ATOM     64  C   UNL A   1      47.459  26.701  34.492  1.00  0.00     0.002 A 
ATOM     65  C   UNL A   1      45.936  25.035  35.379  1.00  0.00     0.091 A 
ATOM     66  F   UNL A   1      43.636  25.106  34.748  1.00  0.00    -0.205 F 
ATOM     67  C   UNL A   1      47.230  25.567  35.268  1.00  0.00     0.022 A 
BRANCH  65  68
ATOM     68  S   UNL A   1      45.701  23.625  36.466  1.00  0.00     0.127 S 
ATOM     69  O   UNL A   1      45.021  22.676  35.587  1.00  0.00    -0.237 OA
ATOM     70  O   UNL A   1      47.075  23.258  36.813  1.00  0.00    -0.237 OA
ATOM     71  O   UNL A   1      44.916  24.124  37.588  1.00  0.00    -0.744 OA
ENDBRANCH  65  68
ENDBRANCH  38  61
ENDBRANCH  12  13
ENDBRANCH   5   7
ENDBRANCH   2   3
ENDBRANCH   1   2
BRANCH   1  72
ATOM     72  C   UNL A   1      31.958  28.087  27.404  1.00  0.00     0.023 C 
BRANCH  72  73
ATOM     73  C   UNL A   1      31.822  26.788  26.614  1.00  0.00     0.116 C 
BRANCH  73  74
ATOM     74  N   UNL A   1      30.612  26.732  25.808  1.00  0.00    -0.352 N 
ATOM     75  C   UNL A   1      30.458  26.647  24.449  1.00  0.00     0.251 C 
ATOM     76  H   UNL A   1      29.772  26.761  26.321  1.00  0.00     0.163 HD
ATOM     77  O   UNL A   1      29.342  26.722  23.942  1.00  0.00    -0.269 OA
BRANCH  75  78
ATOM     78  C   UNL A   1      31.633  26.505  23.572  1.00  0.00     0.046 A 
ATOM     79  C   UNL A   1      32.289  27.613  23.049  1.00  0.00     0.034 A 
ATOM     80  C   UNL A   1      32.097  25.217  23.305  1.00  0.00     0.082 A 
ATOM     81  C   UNL A   1      33.346  27.376  22.195  1.00  0.00     0.116 A 
ATOM     82  C   UNL A   1      33.153  25.073  22.420  1.00  0.00     0.219 A 
ATOM     83  N   UNL A   1      33.774  26.140  21.861  1.00  0.00    -0.222 NA
BRANCH  82  84
ATOM     84  O   UNL A   1      33.695  23.870  22.023  1.00  0.00    -0.439 OA
BRANCH  84  85
ATOM     85  C   UNL A   1      34.187  23.006  22.968  1.00  0.00     0.130 A 
ATOM     86  C   UNL A   1      35.528  23.142  23.326  1.00  0.00     0.047 A 
ATOM     87  C   UNL A   1      33.414  21.968  23.495  1.00  0.00     0.060 A 
ATOM     88  C   UNL A   1      36.088  22.272  24.259  1.00  0.00     0.004 A 
ATOM     89  C   UNL A   1      33.961  21.106  24.459  1.00  0.00     0.059 A 
ATOM     90  C   UNL A   1      35.306  21.266  24.830  1.00  0.00     0.013 A 
BRANCH  89  91
ATOM     91  C   UNL A   1      33.130  20.018  25.093  1.00  0.00     0.416 C 
ATOM     92  F   UNL A   1      33.359  18.798  24.533  1.00  0.00    -0.166 F 
ATOM     93  F   UNL A   1      33.386  19.875  26.422  1.00  0.00    -0.166 F 
ATOM     94  F   UNL A   1      31.788  20.231  24.991  1.00  0.00    -0.166 F 
ENDBRANCH  89  91
ENDBRANCH  84  85
ENDBRANCH  82  84
ENDBRANCH  75  78
ENDBRANCH  73  74
ENDBRANCH  72  73
ENDBRANCH   1  72
TORSDOF 17
ENDMDL
