MODEL 1
REMARK VINA RESULT:     -11.2      0.000      0.000
REMARK SMILES CC1=C(C)C(=O)N(C[C@H](CC(C)C)C(=O)NCCCCNC(=O)c2ccc(-c3c4nc(c(-c5cccc(S(=O)(=O)[O-])c5F)c5ccc([nH]5)c(-c5cccc(S(=O)(=O)[O-])c5F)c5nc(c(-c6cccc(S(=O)(=O)[O-])c6F)c6ccc3[nH]6)C=C5)C=C4)cc2)C1=O
REMARK SMILES IDX 19 1 18 2 17 3 16 4 14 5 15 6 9 8 8 9 7 10 1 11 2 12 3 13
REMARK SMILES IDX 87 14 4 15 5 16 88 17 6 18 10 19 11 20 12 21 13 22 20 23
REMARK SMILES IDX 21 24 22 25 23 27 24 28 25 29 86 30 26 31 85 32 27 33 28 34
REMARK SMILES IDX 29 35 79 36 30 37 84 38 78 39 80 40 31 41 83 42 77 43 76 44
REMARK SMILES IDX 32 46 64 47 44 48 63 49 45 50 48 51 62 52 81 53 46 54 47 55
REMARK SMILES IDX 61 57 82 58 49 59 33 60 34 61 42 62 35 63 37 64 43 65 36 66
REMARK SMILES IDX 38 67 39 68 40 69 41 70 65 71 66 72 74 73 67 74 69 75 75 76
REMARK SMILES IDX 68 77 70 78 71 79 72 80 73 81 50 82 51 83 59 84 52 85 54 86
REMARK SMILES IDX 60 87 53 88 55 89 56 90 57 91 58 92
REMARK H PARENT 16 7 21 26 80 45 48 56
REMARK Flexibility Score: inf
ROOT
ATOM      1  C   UNL A   1      31.905  28.830  24.753  1.00  0.00     0.023 C 
ENDROOT
BRANCH   1   2
ATOM      2  C   UNL A   1      32.252  28.959  23.272  1.00  0.00     0.023 C 
BRANCH   2   3
ATOM      3  C   UNL A   1      33.523  28.223  22.852  1.00  0.00     0.116 C 
BRANCH   3   4
ATOM      4  N   UNL A   1      33.339  27.375  21.685  1.00  0.00    -0.356 N 
ATOM      5  C   UNL A   1      33.168  26.032  21.564  1.00  0.00     0.224 C 
ATOM      6  O   UNL A   1      32.889  25.587  20.448  1.00  0.00    -0.275 OA
ATOM      7  H   UNL A   1      33.337  27.861  20.829  1.00  0.00     0.163 HD
BRANCH   5   8
ATOM      8  C   UNL A   1      33.255  25.093  22.754  1.00  0.00     0.099 C 
BRANCH   8   9
ATOM      9  C   UNL A   1      33.466  23.673  22.178  1.00  0.00     0.142 C 
BRANCH   9  10
ATOM     10  N   UNL A   1      33.977  22.726  23.146  1.00  0.00    -0.274 N 
ATOM     11  C   UNL A   1      36.593  21.396  25.356  1.00  0.00     0.051 C 
ATOM     12  C   UNL A   1      35.338  21.665  24.621  1.00  0.00     0.023 C 
ATOM     13  C   UNL A   1      34.111  21.154  24.785  1.00  0.00     0.023 C 
ATOM     14  C   UNL A   1      35.272  22.651  23.532  1.00  0.00     0.256 C 
ATOM     15  C   UNL A   1      33.631  20.166  25.778  1.00  0.00     0.051 C 
ATOM     16  C   UNL A   1      33.218  21.833  23.831  1.00  0.00     0.256 C 
ATOM     17  O   UNL A   1      36.227  23.281  23.112  1.00  0.00    -0.269 OA
ATOM     18  O   UNL A   1      32.021  21.630  23.737  1.00  0.00    -0.269 OA
ENDBRANCH   9  10
ENDBRANCH   8   9
BRANCH   8  19
ATOM     19  C   UNL A   1      32.119  25.240  23.787  1.00  0.00     0.018 C 
BRANCH  19  20
ATOM     20  C   UNL A   1      32.515  25.396  25.279  1.00  0.00    -0.017 C 
ATOM     21  C   UNL A   1      32.093  24.269  26.220  1.00  0.00     0.007 C 
ATOM     22  C   UNL A   1      34.039  25.571  25.365  1.00  0.00     0.007 C 
ENDBRANCH  19  20
ENDBRANCH   8  19
ENDBRANCH   5   8
ENDBRANCH   3   4
ENDBRANCH   2   3
ENDBRANCH   1   2
BRANCH   1  23
ATOM     23  C   UNL A   1      32.914  29.480  25.688  1.00  0.00     0.116 C 
BRANCH  23  24
ATOM     24  N   UNL A   1      32.500  30.812  26.107  1.00  0.00    -0.352 N 
ATOM     25  C   UNL A   1      33.079  31.634  27.041  1.00  0.00     0.251 C 
ATOM     26  H   UNL A   1      31.699  31.170  25.661  1.00  0.00     0.163 HD
ATOM     27  O   UNL A   1      32.508  32.655  27.412  1.00  0.00    -0.269 OA
BRANCH  25  28
ATOM     28  C   UNL A   1      34.388  31.258  27.607  1.00  0.00     0.039 A 
ATOM     29  C   UNL A   1      35.374  32.235  27.753  1.00  0.00     0.014 A 
ATOM     30  C   UNL A   1      34.615  29.947  28.035  1.00  0.00     0.014 A 
ATOM     31  C   UNL A   1      36.571  31.910  28.390  1.00  0.00     0.010 A 
ATOM     32  C   UNL A   1      35.771  29.649  28.743  1.00  0.00     0.010 A 
ATOM     33  C   UNL A   1      36.764  30.624  28.921  1.00  0.00    -0.014 A 
BRANCH  33  34
ATOM     34  C   UNL A   1      37.993  30.270  29.671  1.00  0.00     0.031 A 
ATOM     35  C   UNL A   1      38.962  29.277  29.092  1.00  0.00     0.074 A 
ATOM     36  C   UNL A   1      38.185  30.765  30.910  1.00  0.00     0.049 A 
ATOM     37  N   UNL A   1      40.038  28.764  29.630  1.00  0.00    -0.248 NA
ATOM     38  C   UNL A   1      38.667  28.768  27.740  1.00  0.00     0.031 C 
ATOM     39  C   UNL A   1      37.277  31.681  31.607  1.00  0.00     0.029 A 
ATOM     40  N   UNL A   1      39.189  30.541  31.818  1.00  0.00    -0.354 N 
ATOM     41  C   UNL A   1      40.526  27.851  28.702  1.00  0.00     0.074 A 
ATOM     42  C   UNL A   1      39.608  27.850  27.585  1.00  0.00     0.031 C 
ATOM     43  C   UNL A   1      37.766  31.940  32.829  1.00  0.00     0.029 A 
ATOM     44  C   UNL A   1      38.997  31.181  33.021  1.00  0.00     0.049 A 
ATOM     45  H   UNL A   1      39.972  29.977  31.627  1.00  0.00     0.167 HD
ATOM     46  C   UNL A   1      41.652  27.103  28.763  1.00  0.00     0.034 A 
ATOM     47  C   UNL A   1      39.722  31.143  34.157  1.00  0.00     0.034 A 
ATOM     48  C   UNL A   1      42.577  27.134  29.862  1.00  0.00     0.049 A 
ATOM     49  C   UNL A   1      40.978  30.314  34.191  1.00  0.00     0.074 A 
ATOM     50  C   UNL A   1      43.786  26.475  29.988  1.00  0.00     0.029 A 
ATOM     51  N   UNL A   1      42.390  27.856  31.031  1.00  0.00    -0.354 N 
ATOM     52  N   UNL A   1      41.502  29.571  33.247  1.00  0.00    -0.248 NA
ATOM     53  C   UNL A   1      41.760  30.344  35.435  1.00  0.00     0.031 C 
ATOM     54  C   UNL A   1      44.316  26.773  31.247  1.00  0.00     0.029 A 
ATOM     55  C   UNL A   1      43.456  27.650  31.890  1.00  0.00     0.049 A 
ATOM     56  H   UNL A   1      41.613  28.432  31.222  1.00  0.00     0.167 HD
ATOM     57  C   UNL A   1      42.694  29.080  33.767  1.00  0.00     0.074 A 
ATOM     58  C   UNL A   1      42.822  29.622  35.103  1.00  0.00     0.031 C 
ATOM     59  C   UNL A   1      43.596  28.244  33.194  1.00  0.00     0.034 A 
BRANCH  46  60
ATOM     60  C   UNL A   1      41.970  26.220  27.584  1.00  0.00     0.023 A 
ATOM     61  C   UNL A   1      42.664  26.756  26.478  1.00  0.00     0.012 A 
ATOM     62  C   UNL A   1      41.634  24.852  27.591  1.00  0.00     0.148 A 
ATOM     63  C   UNL A   1      42.983  25.955  25.383  1.00  0.00     0.002 A 
ATOM     64  C   UNL A   1      42.001  24.050  26.517  1.00  0.00     0.091 A 
ATOM     65  F   UNL A   1      40.959  24.364  28.640  1.00  0.00    -0.205 F 
ATOM     66  C   UNL A   1      42.661  24.601  25.406  1.00  0.00     0.022 A 
BRANCH  64  67
ATOM     67  S   UNL A   1      41.707  22.278  26.484  1.00  0.00     0.127 S 
ATOM     68  O   UNL A   1      42.562  21.857  25.375  1.00  0.00    -0.237 OA
ATOM     69  O   UNL A   1      42.179  21.865  27.806  1.00  0.00    -0.237 OA
ATOM     70  O   UNL A   1      40.278  22.110  26.267  1.00  0.00    -0.744 OA
ENDBRANCH  64  67
ENDBRANCH  46  60
BRANCH  47  71
ATOM     71  C   UNL A   1      39.306  31.952  35.338  1.00  0.00     0.023 A 
ATOM     72  C   UNL A   1      38.461  31.378  36.309  1.00  0.00     0.012 A 
ATOM     73  C   UNL A   1      39.751  33.277  35.513  1.00  0.00     0.148 A 
ATOM     74  C   UNL A   1      38.036  32.121  37.410  1.00  0.00     0.002 A 
ATOM     75  C   UNL A   1      39.369  33.992  36.641  1.00  0.00     0.091 A 
ATOM     76  F   UNL A   1      40.547  33.808  34.574  1.00  0.00    -0.205 F 
ATOM     77  C   UNL A   1      38.496  33.424  37.581  1.00  0.00     0.022 A 
BRANCH  75  78
ATOM     78  S   UNL A   1      40.015  35.627  37.011  1.00  0.00     0.127 S 
ATOM     79  O   UNL A   1      39.339  35.938  38.268  1.00  0.00    -0.237 OA
ATOM     80  O   UNL A   1      41.450  35.364  37.131  1.00  0.00    -0.237 OA
ATOM     81  O   UNL A   1      39.652  36.461  35.873  1.00  0.00    -0.744 OA
ENDBRANCH  75  78
ENDBRANCH  47  71
BRANCH  59  82
ATOM     82  C   UNL A   1      44.834  27.901  33.980  1.00  0.00     0.023 A 
ATOM     83  C   UNL A   1      45.967  28.736  33.910  1.00  0.00     0.012 A 
ATOM     84  C   UNL A   1      44.837  26.798  34.856  1.00  0.00     0.148 A 
ATOM     85  C   UNL A   1      47.096  28.459  34.682  1.00  0.00     0.002 A 
ATOM     86  C   UNL A   1      45.944  26.561  35.661  1.00  0.00     0.091 A 
ATOM     87  F   UNL A   1      43.754  26.009  34.895  1.00  0.00    -0.205 F 
ATOM     88  C   UNL A   1      47.079  27.383  35.566  1.00  0.00     0.022 A 
BRANCH  86  89
ATOM     89  S   UNL A   1      45.976  25.261  36.901  1.00  0.00     0.127 S 
ATOM     90  O   UNL A   1      46.319  24.090  36.094  1.00  0.00    -0.237 OA
ATOM     91  O   UNL A   1      47.039  25.717  37.797  1.00  0.00    -0.237 OA
ATOM     92  O   UNL A   1      44.648  25.238  37.497  1.00  0.00    -0.744 OA
ENDBRANCH  86  89
ENDBRANCH  59  82
ENDBRANCH  33  34
ENDBRANCH  25  28
ENDBRANCH  23  24
ENDBRANCH   1  23
TORSDOF 18
ENDMDL
MODEL 2
REMARK VINA RESULT:     -11.2      1.582      2.131
REMARK SMILES CC1=C(C)C(=O)N(C[C@H](CC(C)C)C(=O)NCCCCNC(=O)c2ccc(-c3c4nc(c(-c5cccc(S(=O)(=O)[O-])c5F)c5ccc([nH]5)c(-c5cccc(S(=O)(=O)[O-])c5F)c5nc(c(-c6cccc(S(=O)(=O)[O-])c6F)c6ccc3[nH]6)C=C5)C=C4)cc2)C1=O
REMARK SMILES IDX 19 1 18 2 17 3 16 4 14 5 15 6 9 8 8 9 7 10 1 11 2 12 3 13
REMARK SMILES IDX 87 14 4 15 5 16 88 17 6 18 10 19 11 20 12 21 13 22 20 23
REMARK SMILES IDX 21 24 22 25 23 27 24 28 25 29 86 30 26 31 85 32 27 33 28 34
REMARK SMILES IDX 29 35 79 36 30 37 84 38 78 39 80 40 31 41 83 42 77 43 76 44
REMARK SMILES IDX 32 46 64 47 44 48 63 49 45 50 48 51 62 52 81 53 46 54 47 55
REMARK SMILES IDX 61 57 82 58 49 59 33 60 34 61 42 62 35 63 37 64 43 65 36 66
REMARK SMILES IDX 38 67 39 68 40 69 41 70 65 71 66 72 74 73 67 74 69 75 75 76
REMARK SMILES IDX 68 77 70 78 71 79 72 80 73 81 50 82 51 83 59 84 52 85 54 86
REMARK SMILES IDX 60 87 53 88 55 89 56 90 57 91 58 92
REMARK H PARENT 16 7 21 26 80 45 48 56
REMARK Flexibility Score: inf
ROOT
ATOM      1  C   UNL A   1      32.948  28.976  23.765  1.00  0.00     0.023 C 
ENDROOT
BRANCH   1   2
ATOM      2  C   UNL A   1      31.519  28.766  23.271  1.00  0.00     0.023 C 
BRANCH   2   3
ATOM      3  C   UNL A   1      31.201  27.336  22.837  1.00  0.00     0.116 C 
BRANCH   3   4
ATOM      4  N   UNL A   1      31.962  26.904  21.675  1.00  0.00    -0.356 N 
ATOM      5  C   UNL A   1      32.713  25.794  21.450  1.00  0.00     0.224 C 
ATOM      6  O   UNL A   1      33.139  25.611  20.307  1.00  0.00    -0.275 OA
ATOM      7  H   UNL A   1      31.925  27.528  20.914  1.00  0.00     0.163 HD
BRANCH   5   8
ATOM      8  C   UNL A   1      32.989  24.769  22.536  1.00  0.00     0.099 C 
BRANCH   8   9
ATOM      9  C   UNL A   1      34.219  25.283  23.322  1.00  0.00     0.142 C 
BRANCH   9  10
ATOM     10  N   UNL A   1      34.689  24.356  24.330  1.00  0.00    -0.274 N 
ATOM     11  C   UNL A   1      34.395  22.577  27.530  1.00  0.00     0.051 C 
ATOM     12  C   UNL A   1      34.814  23.083  26.206  1.00  0.00     0.023 C 
ATOM     13  C   UNL A   1      35.774  22.652  25.377  1.00  0.00     0.023 C 
ATOM     14  C   UNL A   1      34.134  24.215  25.556  1.00  0.00     0.256 C 
ATOM     15  C   UNL A   1      36.707  21.513  25.532  1.00  0.00     0.051 C 
ATOM     16  C   UNL A   1      35.705  23.474  24.156  1.00  0.00     0.256 C 
ATOM     17  O   UNL A   1      33.225  24.853  26.057  1.00  0.00    -0.269 OA
ATOM     18  O   UNL A   1      36.419  23.325  23.181  1.00  0.00    -0.269 OA
ENDBRANCH   9  10
ENDBRANCH   8   9
BRANCH   8  19
ATOM     19  C   UNL A   1      33.062  23.307  22.050  1.00  0.00     0.018 C 
BRANCH  19  20
ATOM     20  C   UNL A   1      32.394  22.219  22.931  1.00  0.00    -0.017 C 
ATOM     21  C   UNL A   1      31.328  22.696  23.916  1.00  0.00     0.007 C 
ATOM     22  C   UNL A   1      31.779  21.154  22.011  1.00  0.00     0.007 C 
ENDBRANCH  19  20
ENDBRANCH   8  19
ENDBRANCH   5   8
ENDBRANCH   3   4
ENDBRANCH   2   3
ENDBRANCH   1   2
BRANCH   1  23
ATOM     23  C   UNL A   1      33.073  29.095  25.276  1.00  0.00     0.116 C 
BRANCH  23  24
ATOM     24  N   UNL A   1      32.492  30.332  25.782  1.00  0.00    -0.352 N 
ATOM     25  C   UNL A   1      32.932  31.125  26.812  1.00  0.00     0.251 C 
ATOM     26  H   UNL A   1      31.677  30.639  25.325  1.00  0.00     0.163 HD
ATOM     27  O   UNL A   1      32.232  32.041  27.235  1.00  0.00    -0.269 OA
BRANCH  25  28
ATOM     28  C   UNL A   1      34.248  30.846  27.415  1.00  0.00     0.039 A 
ATOM     29  C   UNL A   1      35.139  31.899  27.627  1.00  0.00     0.014 A 
ATOM     30  C   UNL A   1      34.573  29.546  27.813  1.00  0.00     0.014 A 
ATOM     31  C   UNL A   1      36.337  31.657  28.298  1.00  0.00     0.010 A 
ATOM     32  C   UNL A   1      35.725  29.325  28.555  1.00  0.00     0.010 A 
ATOM     33  C   UNL A   1      36.622  30.376  28.799  1.00  0.00    -0.014 A 
BRANCH  33  34
ATOM     34  C   UNL A   1      37.851  30.105  29.584  1.00  0.00     0.031 A 
ATOM     35  C   UNL A   1      38.880  29.145  29.054  1.00  0.00     0.074 A 
ATOM     36  C   UNL A   1      37.991  30.645  30.811  1.00  0.00     0.049 A 
ATOM     37  N   UNL A   1      39.967  28.702  29.629  1.00  0.00    -0.248 NA
ATOM     38  C   UNL A   1      38.640  28.584  27.712  1.00  0.00     0.031 C 
ATOM     39  C   UNL A   1      37.025  31.534  31.462  1.00  0.00     0.029 A 
ATOM     40  N   UNL A   1      38.985  30.497  31.745  1.00  0.00    -0.354 N 
ATOM     41  C   UNL A   1      40.519  27.788  28.739  1.00  0.00     0.074 A 
ATOM     42  C   UNL A   1      39.628  27.709  27.604  1.00  0.00     0.031 C 
ATOM     43  C   UNL A   1      37.474  31.852  32.686  1.00  0.00     0.029 A 
ATOM     44  C   UNL A   1      38.736  31.161  32.925  1.00  0.00     0.049 A 
ATOM     45  H   UNL A   1      39.799  29.967  31.587  1.00  0.00     0.167 HD
ATOM     46  C   UNL A   1      41.679  27.098  28.844  1.00  0.00     0.034 A 
ATOM     47  C   UNL A   1      39.437  31.192  34.075  1.00  0.00     0.034 A 
ATOM     48  C   UNL A   1      42.577  27.207  29.962  1.00  0.00     0.049 A 
ATOM     49  C   UNL A   1      40.731  30.427  34.160  1.00  0.00     0.074 A 
ATOM     50  C   UNL A   1      43.814  26.612  30.131  1.00  0.00     0.029 A 
ATOM     51  N   UNL A   1      42.330  27.952  31.104  1.00  0.00    -0.354 N 
ATOM     52  N   UNL A   1      41.311  29.684  33.250  1.00  0.00    -0.248 NA
ATOM     53  C   UNL A   1      41.484  30.531  35.419  1.00  0.00     0.031 C 
ATOM     54  C   UNL A   1      44.301  26.973  31.392  1.00  0.00     0.029 A 
ATOM     55  C   UNL A   1      43.386  27.824  31.990  1.00  0.00     0.049 A 
ATOM     56  H   UNL A   1      41.522  28.494  31.262  1.00  0.00     0.167 HD
ATOM     57  C   UNL A   1      42.514  29.267  33.808  1.00  0.00     0.074 A 
ATOM     58  C   UNL A   1      42.586  29.854  35.130  1.00  0.00     0.031 C 
ATOM     59  C   UNL A   1      43.468  28.461  33.279  1.00  0.00     0.034 A 
BRANCH  46  60
ATOM     60  C   UNL A   1      42.066  26.199  27.699  1.00  0.00     0.023 A 
ATOM     61  C   UNL A   1      42.889  26.697  26.668  1.00  0.00     0.012 A 
ATOM     62  C   UNL A   1      41.663  24.850  27.669  1.00  0.00     0.148 A 
ATOM     63  C   UNL A   1      43.273  25.880  25.606  1.00  0.00     0.002 A 
ATOM     64  C   UNL A   1      42.092  24.028  26.633  1.00  0.00     0.091 A 
ATOM     65  F   UNL A   1      40.866  24.397  28.647  1.00  0.00    -0.205 F 
ATOM     66  C   UNL A   1      42.883  24.545  25.593  1.00  0.00     0.022 A 
BRANCH  64  67
ATOM     67  S   UNL A   1      41.715  22.273  26.566  1.00  0.00     0.127 S 
ATOM     68  O   UNL A   1      42.461  21.856  25.380  1.00  0.00    -0.237 OA
ATOM     69  O   UNL A   1      42.267  21.793  27.833  1.00  0.00    -0.237 OA
ATOM     70  O   UNL A   1      40.266  22.176  26.457  1.00  0.00    -0.744 OA
ENDBRANCH  64  67
ENDBRANCH  46  60
BRANCH  47  71
ATOM     71  C   UNL A   1      38.956  32.012  35.224  1.00  0.00     0.023 A 
ATOM     72  C   UNL A   1      39.085  33.414  35.177  1.00  0.00     0.012 A 
ATOM     73  C   UNL A   1      38.364  31.415  36.354  1.00  0.00     0.148 A 
ATOM     74  C   UNL A   1      38.668  34.203  36.249  1.00  0.00     0.002 A 
ATOM     75  C   UNL A   1      37.899  32.211  37.394  1.00  0.00     0.091 A 
ATOM     76  F   UNL A   1      38.258  30.079  36.384  1.00  0.00    -0.205 F 
ATOM     77  C   UNL A   1      38.068  33.604  37.353  1.00  0.00     0.022 A 
BRANCH  75  78
ATOM     78  S   UNL A   1      36.997  31.538  38.794  1.00  0.00     0.127 S 
ATOM     79  O   UNL A   1      36.827  30.143  38.396  1.00  0.00    -0.237 OA
ATOM     80  O   UNL A   1      37.940  31.757  39.892  1.00  0.00    -0.237 OA
ATOM     81  O   UNL A   1      35.774  32.324  38.889  1.00  0.00    -0.744 OA
ENDBRANCH  75  78
ENDBRANCH  47  71
BRANCH  59  82
ATOM     82  C   UNL A   1      44.704  28.203  34.099  1.00  0.00     0.023 A 
ATOM     83  C   UNL A   1      45.846  29.010  33.928  1.00  0.00     0.012 A 
ATOM     84  C   UNL A   1      44.697  27.215  35.103  1.00  0.00     0.148 A 
ATOM     85  C   UNL A   1      46.973  28.817  34.726  1.00  0.00     0.002 A 
ATOM     86  C   UNL A   1      45.803  27.065  35.930  1.00  0.00     0.091 A 
ATOM     87  F   UNL A   1      43.606  26.448  35.238  1.00  0.00    -0.205 F 
ATOM     88  C   UNL A   1      46.947  27.857  35.734  1.00  0.00     0.022 A 
BRANCH  86  89
ATOM     89  S   UNL A   1      45.824  25.925  37.318  1.00  0.00     0.127 S 
ATOM     90  O   UNL A   1      44.677  26.389  38.100  1.00  0.00    -0.237 OA
ATOM     91  O   UNL A   1      45.631  24.633  36.659  1.00  0.00    -0.237 OA
ATOM     92  O   UNL A   1      47.121  26.092  37.959  1.00  0.00    -0.744 OA
ENDBRANCH  86  89
ENDBRANCH  59  82
ENDBRANCH  33  34
ENDBRANCH  25  28
ENDBRANCH  23  24
ENDBRANCH   1  23
TORSDOF 18
ENDMDL
MODEL 3
REMARK VINA RESULT:     -11.1      0.869      7.898
REMARK SMILES CC1=C(C)C(=O)N(C[C@H](CC(C)C)C(=O)NCCCCNC(=O)c2ccc(-c3c4nc(c(-c5cccc(S(=O)(=O)[O-])c5F)c5ccc([nH]5)c(-c5cccc(S(=O)(=O)[O-])c5F)c5nc(c(-c6cccc(S(=O)(=O)[O-])c6F)c6ccc3[nH]6)C=C5)C=C4)cc2)C1=O
REMARK SMILES IDX 19 1 18 2 17 3 16 4 14 5 15 6 9 8 8 9 7 10 1 11 2 12 3 13
REMARK SMILES IDX 87 14 4 15 5 16 88 17 6 18 10 19 11 20 12 21 13 22 20 23
REMARK SMILES IDX 21 24 22 25 23 27 24 28 25 29 86 30 26 31 85 32 27 33 28 34
REMARK SMILES IDX 29 35 79 36 30 37 84 38 78 39 80 40 31 41 83 42 77 43 76 44
REMARK SMILES IDX 32 46 64 47 44 48 63 49 45 50 48 51 62 52 81 53 46 54 47 55
REMARK SMILES IDX 61 57 82 58 49 59 33 60 34 61 42 62 35 63 37 64 43 65 36 66
REMARK SMILES IDX 38 67 39 68 40 69 41 70 65 71 66 72 74 73 67 74 69 75 75 76
REMARK SMILES IDX 68 77 70 78 71 79 72 80 73 81 50 82 51 83 59 84 52 85 54 86
REMARK SMILES IDX 60 87 53 88 55 89 56 90 57 91 58 92
REMARK H PARENT 16 7 21 26 80 45 48 56
REMARK Flexibility Score: inf
ROOT
ATOM      1  C   UNL A   1      31.529  29.414  25.084  1.00  0.00     0.023 C 
ENDROOT
BRANCH   1   2
ATOM      2  C   UNL A   1      31.790  29.061  23.621  1.00  0.00     0.023 C 
BRANCH   2   3
ATOM      3  C   UNL A   1      33.242  28.709  23.302  1.00  0.00     0.116 C 
BRANCH   3   4
ATOM      4  N   UNL A   1      33.381  27.816  22.163  1.00  0.00    -0.356 N 
ATOM      5  C   UNL A   1      33.241  26.469  22.050  1.00  0.00     0.224 C 
ATOM      6  O   UNL A   1      33.278  25.981  20.918  1.00  0.00    -0.275 OA
ATOM      7  H   UNL A   1      33.620  28.270  21.322  1.00  0.00     0.163 HD
BRANCH   5   8
ATOM      8  C   UNL A   1      32.990  25.577  23.253  1.00  0.00     0.099 C 
BRANCH   8   9
ATOM      9  C   UNL A   1      33.989  24.401  23.142  1.00  0.00     0.142 C 
BRANCH   9  10
ATOM     10  N   UNL A   1      33.698  23.308  24.045  1.00  0.00    -0.274 N 
ATOM     11  C   UNL A   1      32.550  19.899  24.792  1.00  0.00     0.051 C 
ATOM     12  C   UNL A   1      33.085  21.276  24.852  1.00  0.00     0.023 C 
ATOM     13  C   UNL A   1      33.689  21.928  25.854  1.00  0.00     0.023 C 
ATOM     14  C   UNL A   1      33.046  22.176  23.689  1.00  0.00     0.256 C 
ATOM     15  C   UNL A   1      34.023  21.454  27.216  1.00  0.00     0.051 C 
ATOM     16  C   UNL A   1      34.089  23.250  25.343  1.00  0.00     0.256 C 
ATOM     17  O   UNL A   1      32.537  21.898  22.618  1.00  0.00    -0.269 OA
ATOM     18  O   UNL A   1      34.694  24.088  25.988  1.00  0.00    -0.269 OA
ENDBRANCH   9  10
ENDBRANCH   8   9
BRANCH   8  19
ATOM     19  C   UNL A   1      31.515  25.189  23.482  1.00  0.00     0.018 C 
BRANCH  19  20
ATOM     20  C   UNL A   1      30.948  25.323  24.920  1.00  0.00    -0.017 C 
ATOM     21  C   UNL A   1      31.856  25.988  25.954  1.00  0.00     0.007 C 
ATOM     22  C   UNL A   1      29.622  26.095  24.853  1.00  0.00     0.007 C 
ENDBRANCH  19  20
ENDBRANCH   8  19
ENDBRANCH   5   8
ENDBRANCH   3   4
ENDBRANCH   2   3
ENDBRANCH   1   2
BRANCH   1  23
ATOM     23  C   UNL A   1      32.727  30.016  25.802  1.00  0.00     0.116 C 
BRANCH  23  24
ATOM     24  N   UNL A   1      32.470  31.376  26.258  1.00  0.00    -0.352 N 
ATOM     25  C   UNL A   1      33.129  32.093  27.225  1.00  0.00     0.251 C 
ATOM     26  H   UNL A   1      31.726  31.842  25.814  1.00  0.00     0.163 HD
ATOM     27  O   UNL A   1      32.679  33.164  27.621  1.00  0.00    -0.269 OA
BRANCH  25  28
ATOM     28  C   UNL A   1      34.373  31.544  27.795  1.00  0.00     0.039 A 
ATOM     29  C   UNL A   1      35.461  32.394  28.001  1.00  0.00     0.014 A 
ATOM     30  C   UNL A   1      34.438  30.199  28.169  1.00  0.00     0.014 A 
ATOM     31  C   UNL A   1      36.600  31.905  28.642  1.00  0.00     0.010 A 
ATOM     32  C   UNL A   1      35.537  29.739  28.882  1.00  0.00     0.010 A 
ATOM     33  C   UNL A   1      36.631  30.584  29.119  1.00  0.00    -0.014 A 
BRANCH  33  34
ATOM     34  C   UNL A   1      37.795  30.059  29.873  1.00  0.00     0.031 A 
ATOM     35  C   UNL A   1      38.075  30.563  31.262  1.00  0.00     0.074 A 
ATOM     36  C   UNL A   1      38.651  29.209  29.271  1.00  0.00     0.049 A 
ATOM     37  N   UNL A   1      39.090  30.304  32.044  1.00  0.00    -0.248 NA
ATOM     38  C   UNL A   1      37.101  31.507  31.838  1.00  0.00     0.031 C 
ATOM     39  C   UNL A   1      38.524  28.706  27.901  1.00  0.00     0.029 A 
ATOM     40  N   UNL A   1      39.816  28.643  29.724  1.00  0.00    -0.354 N 
ATOM     41  C   UNL A   1      38.897  31.076  33.183  1.00  0.00     0.074 A 
ATOM     42  C   UNL A   1      37.689  31.843  32.975  1.00  0.00     0.031 C 
ATOM     43  C   UNL A   1      39.567  27.908  27.626  1.00  0.00     0.029 A 
ATOM     44  C   UNL A   1      40.457  27.872  28.781  1.00  0.00     0.049 A 
ATOM     45  H   UNL A   1      40.161  28.775  30.636  1.00  0.00     0.167 HD
ATOM     46  C   UNL A   1      39.641  31.121  34.313  1.00  0.00     0.034 A 
ATOM     47  C   UNL A   1      41.639  27.227  28.836  1.00  0.00     0.034 A 
ATOM     48  C   UNL A   1      40.822  30.330  34.526  1.00  0.00     0.049 A 
ATOM     49  C   UNL A   1      42.439  27.281  30.110  1.00  0.00     0.074 A 
ATOM     50  C   UNL A   1      41.604  30.242  35.662  1.00  0.00     0.029 A 
ATOM     51  N   UNL A   1      41.397  29.498  33.577  1.00  0.00    -0.354 N 
ATOM     52  N   UNL A   1      42.164  27.901  31.232  1.00  0.00    -0.248 NA
ATOM     53  C   UNL A   1      43.697  26.521  30.137  1.00  0.00     0.031 C 
ATOM     54  C   UNL A   1      42.672  29.381  35.390  1.00  0.00     0.029 A 
ATOM     55  C   UNL A   1      42.532  28.901  34.098  1.00  0.00     0.049 A 
ATOM     56  H   UNL A   1      41.050  29.353  32.666  1.00  0.00     0.167 HD
ATOM     57  C   UNL A   1      43.189  27.572  32.110  1.00  0.00     0.074 A 
ATOM     58  C   UNL A   1      44.084  26.686  31.395  1.00  0.00     0.031 C 
ATOM     59  C   UNL A   1      43.381  27.977  33.391  1.00  0.00     0.034 A 
BRANCH  46  60
ATOM     60  C   UNL A   1      39.172  32.022  35.425  1.00  0.00     0.023 A 
ATOM     61  C   UNL A   1      38.231  31.544  36.361  1.00  0.00     0.012 A 
ATOM     62  C   UNL A   1      39.700  33.319  35.579  1.00  0.00     0.148 A 
ATOM     63  C   UNL A   1      37.794  32.354  37.408  1.00  0.00     0.002 A 
ATOM     64  C   UNL A   1      39.297  34.102  36.654  1.00  0.00     0.091 A 
ATOM     65  F   UNL A   1      40.579  33.764  34.670  1.00  0.00    -0.205 F 
ATOM     66  C   UNL A   1      38.334  33.628  37.560  1.00  0.00     0.022 A 
BRANCH  64  67
ATOM     67  S   UNL A   1      39.992  35.724  36.988  1.00  0.00     0.127 S 
ATOM     68  O   UNL A   1      41.413  35.412  37.134  1.00  0.00    -0.237 OA
ATOM     69  O   UNL A   1      39.652  36.460  35.771  1.00  0.00    -0.237 OA
ATOM     70  O   UNL A   1      39.334  36.204  38.195  1.00  0.00    -0.744 OA
ENDBRANCH  64  67
ENDBRANCH  46  60
BRANCH  47  71
ATOM     71  C   UNL A   1      42.115  26.433  27.667  1.00  0.00     0.023 A 
ATOM     72  C   UNL A   1      42.911  27.055  26.685  1.00  0.00     0.012 A 
ATOM     73  C   UNL A   1      41.795  25.069  27.528  1.00  0.00     0.148 A 
ATOM     74  C   UNL A   1      43.347  26.342  25.567  1.00  0.00     0.002 A 
ATOM     75  C   UNL A   1      42.280  24.351  26.442  1.00  0.00     0.091 A 
ATOM     76  F   UNL A   1      41.029  24.497  28.469  1.00  0.00    -0.205 F 
ATOM     77  C   UNL A   1      43.039  24.990  25.450  1.00  0.00     0.022 A 
BRANCH  75  78
ATOM     78  S   UNL A   1      42.045  22.578  26.275  1.00  0.00     0.127 S 
ATOM     79  O   UNL A   1      42.708  22.075  27.475  1.00  0.00    -0.237 OA
ATOM     80  O   UNL A   1      40.586  22.466  26.284  1.00  0.00    -0.237 OA
ATOM     81  O   UNL A   1      42.666  22.216  25.008  1.00  0.00    -0.744 OA
ENDBRANCH  75  78
ENDBRANCH  47  71
BRANCH  59  82
ATOM     82  C   UNL A   1      44.572  27.428  34.131  1.00  0.00     0.023 A 
ATOM     83  C   UNL A   1      45.796  28.124  34.113  1.00  0.00     0.012 A 
ATOM     84  C   UNL A   1      44.446  26.265  34.916  1.00  0.00     0.148 A 
ATOM     85  C   UNL A   1      46.886  27.655  34.845  1.00  0.00     0.002 A 
ATOM     86  C   UNL A   1      45.520  25.834  35.685  1.00  0.00     0.091 A 
ATOM     87  F   UNL A   1      43.277  25.609  34.905  1.00  0.00    -0.205 F 
ATOM     88  C   UNL A   1      46.744  26.520  35.641  1.00  0.00     0.022 A 
BRANCH  86  89
ATOM     89  S   UNL A   1      45.400  24.444  36.817  1.00  0.00     0.127 S 
ATOM     90  O   UNL A   1      46.735  24.434  37.417  1.00  0.00    -0.237 OA
ATOM     91  O   UNL A   1      44.329  24.871  37.717  1.00  0.00    -0.237 OA
ATOM     92  O   UNL A   1      45.078  23.283  35.999  1.00  0.00    -0.744 OA
ENDBRANCH  86  89
ENDBRANCH  59  82
ENDBRANCH  33  34
ENDBRANCH  25  28
ENDBRANCH  23  24
ENDBRANCH   1  23
TORSDOF 18
ENDMDL
