MODEL 1
REMARK VINA RESULT:     -10.3      0.000      0.000
REMARK SMILES COCCNS(=O)(=O)c1c[nH]c(C(=O)NCCCCNC(=O)c2ccc(-c3c4nc(c(-c5cccc(S(=O)(=O)[O-])c5F)c5ccc([nH]5)c(-c5cccc(S(=O)(=O)[O-])c5F)c5nc(c(-c6cccc(S(=O)(=O)[O-])c6F)c6ccc3[nH]6)C=C5)C=C4)cc2)c1
REMARK SMILES IDX 16 1 15 2 13 3 14 4 12 6 9 7 10 8 86 9 11 10 6 12 7 13 8 14
REMARK SMILES IDX 5 15 4 17 3 18 2 19 1 20 17 21 18 22 19 23 20 24 21 25 22 27
REMARK SMILES IDX 23 28 24 29 85 30 25 31 84 32 26 33 27 34 28 35 78 36 29 37
REMARK SMILES IDX 83 38 77 39 79 40 30 41 82 42 76 43 75 44 31 46 63 47 43 48
REMARK SMILES IDX 62 49 44 50 47 51 61 52 80 53 45 54 46 55 60 57 81 58 48 59
REMARK SMILES IDX 32 60 33 61 41 62 34 63 36 64 42 65 35 66 37 67 38 68 39 69
REMARK SMILES IDX 40 70 64 71 65 72 73 73 66 74 68 75 74 76 67 77 69 78 70 79
REMARK SMILES IDX 71 80 72 81 49 82 50 83 58 84 51 85 53 86 59 87 52 88 54 89
REMARK SMILES IDX 55 90 56 91 57 92
REMARK H PARENT 15 5 11 11 5 16 20 26 79 45 47 56
REMARK Flexibility Score: inf
ROOT
ATOM      1  C   UNL A   1      42.368  19.695  27.239  1.00  0.00     0.116 C 
ENDROOT
BRANCH   1   2
ATOM      2  N   UNL A   1      43.006  19.442  25.963  1.00  0.00    -0.351 N 
ATOM      3  C   UNL A   1      43.780  20.221  25.151  1.00  0.00     0.267 C 
ATOM      4  O   UNL A   1      44.196  19.714  24.109  1.00  0.00    -0.268 OA
ATOM      5  H   UNL A   1      42.852  18.535  25.613  1.00  0.00     0.163 HD
BRANCH   3   6
ATOM      6  C   UNL A   1      44.147  21.583  25.487  1.00  0.00     0.105 A 
ATOM      7  C   UNL A   1      44.397  23.787  25.990  1.00  0.00     0.100 A 
ATOM      8  C   UNL A   1      45.561  23.139  26.341  1.00  0.00     0.104 A 
ATOM      9  C   UNL A   1      43.535  22.824  25.400  1.00  0.00     0.055 A 
ATOM     10  N   UNL A   1      45.403  21.819  26.023  1.00  0.00    -0.356 N 
ATOM     11  H   UNL A   1      46.089  21.127  26.159  1.00  0.00     0.166 HD
BRANCH   7  12
ATOM     12  S   UNL A   1      44.042  25.458  26.206  1.00  0.00     0.242 S 
ATOM     13  O   UNL A   1      43.297  25.555  27.433  1.00  0.00    -0.207 OA
ATOM     14  O   UNL A   1      43.502  25.903  24.934  1.00  0.00    -0.207 OA
BRANCH  12  15
ATOM     15  N   UNL A   1      45.497  26.293  26.410  1.00  0.00    -0.209 NA
ATOM     16  H   UNL A   1      45.598  26.510  27.402  1.00  0.00     0.141 HD
BRANCH  15  17
ATOM     17  C   UNL A   1      45.618  27.559  25.652  1.00  0.00     0.127 C 
BRANCH  17  18
ATOM     18  C   UNL A   1      46.787  27.492  24.660  1.00  0.00     0.176 C 
BRANCH  18  19
ATOM     19  O   UNL A   1      47.087  26.163  24.221  1.00  0.00    -0.383 OA
ATOM     20  C   UNL A   1      48.471  25.901  24.044  1.00  0.00     0.194 C 
ENDBRANCH  18  19
ENDBRANCH  17  18
ENDBRANCH  15  17
ENDBRANCH  12  15
ENDBRANCH   7  12
ENDBRANCH   3   6
ENDBRANCH   1   2
BRANCH   1  21
ATOM     21  C   UNL A   1      41.150  20.603  27.068  1.00  0.00     0.023 C 
BRANCH  21  22
ATOM     22  C   UNL A   1      41.033  21.694  28.146  1.00  0.00     0.023 C 
BRANCH  22  23
ATOM     23  C   UNL A   1      41.066  23.123  27.600  1.00  0.00     0.116 C 
BRANCH  23  24
ATOM     24  N   UNL A   1      39.902  23.398  26.770  1.00  0.00    -0.352 N 
ATOM     25  C   UNL A   1      39.018  24.444  26.831  1.00  0.00     0.251 C 
ATOM     26  H   UNL A   1      39.725  22.738  26.062  1.00  0.00     0.163 HD
ATOM     27  O   UNL A   1      37.942  24.357  26.242  1.00  0.00    -0.269 OA
BRANCH  25  28
ATOM     28  C   UNL A   1      39.323  25.650  27.627  1.00  0.00     0.039 A 
ATOM     29  C   UNL A   1      39.986  26.706  26.991  1.00  0.00     0.014 A 
ATOM     30  C   UNL A   1      39.005  25.731  28.988  1.00  0.00     0.014 A 
ATOM     31  C   UNL A   1      40.267  27.869  27.701  1.00  0.00     0.010 A 
ATOM     32  C   UNL A   1      39.266  26.906  29.693  1.00  0.00     0.010 A 
ATOM     33  C   UNL A   1      39.885  27.981  29.045  1.00  0.00    -0.014 A 
BRANCH  33  34
ATOM     34  C   UNL A   1      40.032  29.297  29.717  1.00  0.00     0.031 A 
ATOM     35  C   UNL A   1      38.778  30.165  29.544  1.00  0.00     0.074 A 
ATOM     36  C   UNL A   1      41.231  29.586  30.310  1.00  0.00     0.049 A 
ATOM     37  N   UNL A   1      38.692  31.427  29.246  1.00  0.00    -0.248 NA
ATOM     38  C   UNL A   1      37.438  29.524  29.545  1.00  0.00     0.031 C 
ATOM     39  C   UNL A   1      42.366  28.643  30.390  1.00  0.00     0.029 A 
ATOM     40  N   UNL A   1      41.752  30.694  30.956  1.00  0.00    -0.354 N 
ATOM     41  C   UNL A   1      37.316  31.766  29.249  1.00  0.00     0.074 A 
ATOM     42  C   UNL A   1      36.595  30.530  29.279  1.00  0.00     0.031 C 
ATOM     43  C   UNL A   1      43.436  29.224  30.973  1.00  0.00     0.029 A 
ATOM     44  C   UNL A   1      43.111  30.589  31.352  1.00  0.00     0.049 A 
ATOM     45  H   UNL A   1      41.216  31.502  31.130  1.00  0.00     0.167 HD
ATOM     46  C   UNL A   1      36.871  33.049  29.416  1.00  0.00     0.034 A 
ATOM     47  C   UNL A   1      43.940  31.530  31.908  1.00  0.00     0.034 A 
ATOM     48  C   UNL A   1      37.981  33.872  29.771  1.00  0.00     0.049 A 
ATOM     49  C   UNL A   1      43.114  32.712  32.192  1.00  0.00     0.074 A 
ATOM     50  C   UNL A   1      39.050  34.377  29.081  1.00  0.00     0.029 A 
ATOM     51  N   UNL A   1      38.213  33.962  31.125  1.00  0.00    -0.354 N 
ATOM     52  N   UNL A   1      42.227  32.788  33.138  1.00  0.00    -0.248 NA
ATOM     53  C   UNL A   1      43.238  33.891  31.321  1.00  0.00     0.031 C 
ATOM     54  C   UNL A   1      40.081  34.378  30.040  1.00  0.00     0.029 A 
ATOM     55  C   UNL A   1      39.564  34.052  31.301  1.00  0.00     0.049 A 
ATOM     56  H   UNL A   1      37.531  33.964  31.834  1.00  0.00     0.167 HD
ATOM     57  C   UNL A   1      41.452  33.841  32.713  1.00  0.00     0.074 A 
ATOM     58  C   UNL A   1      42.283  34.650  31.851  1.00  0.00     0.031 C 
ATOM     59  C   UNL A   1      40.117  33.633  32.567  1.00  0.00     0.034 A 
BRANCH  46  60
ATOM     60  C   UNL A   1      35.526  33.712  29.620  1.00  0.00     0.023 A 
ATOM     61  C   UNL A   1      34.946  34.257  28.434  1.00  0.00     0.012 A 
ATOM     62  C   UNL A   1      34.971  34.108  30.845  1.00  0.00     0.148 A 
ATOM     63  C   UNL A   1      33.966  35.246  28.459  1.00  0.00     0.002 A 
ATOM     64  C   UNL A   1      33.945  35.063  30.863  1.00  0.00     0.091 A 
ATOM     65  F   UNL A   1      35.490  33.641  31.984  1.00  0.00    -0.205 F 
ATOM     66  C   UNL A   1      33.475  35.660  29.682  1.00  0.00     0.022 A 
BRANCH  64  67
ATOM     67  S   UNL A   1      33.157  35.615  32.381  1.00  0.00     0.127 S 
ATOM     68  O   UNL A   1      32.179  36.578  31.883  1.00  0.00    -0.237 OA
ATOM     69  O   UNL A   1      32.574  34.371  32.891  1.00  0.00    -0.237 OA
ATOM     70  O   UNL A   1      34.232  36.143  33.207  1.00  0.00    -0.744 OA
ENDBRANCH  64  67
ENDBRANCH  46  60
BRANCH  47  71
ATOM     71  C   UNL A   1      45.430  31.679  32.159  1.00  0.00     0.023 A 
ATOM     72  C   UNL A   1      46.016  31.751  33.428  1.00  0.00     0.012 A 
ATOM     73  C   UNL A   1      46.345  31.623  31.061  1.00  0.00     0.148 A 
ATOM     74  C   UNL A   1      47.412  31.647  33.600  1.00  0.00     0.002 A 
ATOM     75  C   UNL A   1      47.700  31.369  31.237  1.00  0.00     0.091 A 
ATOM     76  F   UNL A   1      45.910  31.853  29.818  1.00  0.00    -0.205 F 
ATOM     77  C   UNL A   1      48.247  31.397  32.514  1.00  0.00     0.022 A 
BRANCH  75  78
ATOM     78  S   UNL A   1      48.744  30.813  29.874  1.00  0.00     0.127 S 
ATOM     79  O   UNL A   1      47.907  29.801  29.232  1.00  0.00    -0.237 OA
ATOM     80  O   UNL A   1      48.906  32.051  29.110  1.00  0.00    -0.237 OA
ATOM     81  O   UNL A   1      49.973  30.313  30.475  1.00  0.00    -0.744 OA
ENDBRANCH  75  78
ENDBRANCH  47  71
BRANCH  59  82
ATOM     82  C   UNL A   1      39.520  32.642  33.567  1.00  0.00     0.023 A 
ATOM     83  C   UNL A   1      39.084  31.398  33.061  1.00  0.00     0.012 A 
ATOM     84  C   UNL A   1      39.255  32.906  34.931  1.00  0.00     0.148 A 
ATOM     85  C   UNL A   1      38.400  30.474  33.858  1.00  0.00     0.002 A 
ATOM     86  C   UNL A   1      38.560  31.990  35.728  1.00  0.00     0.091 A 
ATOM     87  F   UNL A   1      39.677  34.056  35.447  1.00  0.00    -0.205 F 
ATOM     88  C   UNL A   1      38.134  30.771  35.189  1.00  0.00     0.022 A 
BRANCH  86  89
ATOM     89  S   UNL A   1      38.083  32.309  37.443  1.00  0.00     0.127 S 
ATOM     90  O   UNL A   1      37.365  31.086  37.809  1.00  0.00    -0.237 OA
ATOM     91  O   UNL A   1      39.376  32.462  38.102  1.00  0.00    -0.237 OA
ATOM     92  O   UNL A   1      37.240  33.498  37.431  1.00  0.00    -0.744 OA
ENDBRANCH  86  89
ENDBRANCH  59  82
ENDBRANCH  33  34
ENDBRANCH  25  28
ENDBRANCH  23  24
ENDBRANCH  22  23
ENDBRANCH  21  22
ENDBRANCH   1  21
TORSDOF 19
ENDMDL
MODEL 2
REMARK VINA RESULT:     -10.1      3.860      6.397
REMARK SMILES COCCNS(=O)(=O)c1c[nH]c(C(=O)NCCCCNC(=O)c2ccc(-c3c4nc(c(-c5cccc(S(=O)(=O)[O-])c5F)c5ccc([nH]5)c(-c5cccc(S(=O)(=O)[O-])c5F)c5nc(c(-c6cccc(S(=O)(=O)[O-])c6F)c6ccc3[nH]6)C=C5)C=C4)cc2)c1
REMARK SMILES IDX 16 1 15 2 13 3 14 4 12 6 9 7 10 8 86 9 11 10 6 12 7 13 8 14
REMARK SMILES IDX 5 15 4 17 3 18 2 19 1 20 17 21 18 22 19 23 20 24 21 25 22 27
REMARK SMILES IDX 23 28 24 29 85 30 25 31 84 32 26 33 27 34 28 35 78 36 29 37
REMARK SMILES IDX 83 38 77 39 79 40 30 41 82 42 76 43 75 44 31 46 63 47 43 48
REMARK SMILES IDX 62 49 44 50 47 51 61 52 80 53 45 54 46 55 60 57 81 58 48 59
REMARK SMILES IDX 32 60 33 61 41 62 34 63 36 64 42 65 35 66 37 67 38 68 39 69
REMARK SMILES IDX 40 70 64 71 65 72 73 73 66 74 68 75 74 76 67 77 69 78 70 79
REMARK SMILES IDX 71 80 72 81 49 82 50 83 58 84 51 85 53 86 59 87 52 88 54 89
REMARK SMILES IDX 55 90 56 91 57 92
REMARK H PARENT 15 5 11 11 5 16 20 26 79 45 47 56
REMARK Flexibility Score: inf
ROOT
ATOM      1  C   UNL A   1      34.262  24.947  25.775  1.00  0.00     0.116 C 
ENDROOT
BRANCH   1   2
ATOM      2  N   UNL A   1      32.910  25.140  25.289  1.00  0.00    -0.351 N 
ATOM      3  C   UNL A   1      32.029  24.301  24.667  1.00  0.00     0.267 C 
ATOM      4  O   UNL A   1      30.923  24.759  24.377  1.00  0.00    -0.268 OA
ATOM      5  H   UNL A   1      32.560  26.047  25.436  1.00  0.00     0.163 HD
BRANCH   3   6
ATOM      6  C   UNL A   1      32.336  22.915  24.375  1.00  0.00     0.105 A 
ATOM      7  C   UNL A   1      32.816  20.695  24.248  1.00  0.00     0.100 A 
ATOM      8  C   UNL A   1      32.423  21.115  22.996  1.00  0.00     0.104 A 
ATOM      9  C   UNL A   1      32.820  21.835  25.097  1.00  0.00     0.055 A 
ATOM     10  N   UNL A   1      32.149  22.451  23.083  1.00  0.00    -0.356 N 
ATOM     11  H   UNL A   1      31.855  23.010  22.328  1.00  0.00     0.166 HD
BRANCH   7  12
ATOM     12  S   UNL A   1      33.242  19.093  24.712  1.00  0.00     0.242 S 
ATOM     13  O   UNL A   1      32.495  18.810  25.909  1.00  0.00    -0.207 OA
ATOM     14  O   UNL A   1      34.692  19.055  24.676  1.00  0.00    -0.207 OA
BRANCH  12  15
ATOM     15  N   UNL A   1      32.720  18.030  23.507  1.00  0.00    -0.209 NA
ATOM     16  H   UNL A   1      31.842  17.611  23.816  1.00  0.00     0.141 HD
BRANCH  15  17
ATOM     17  C   UNL A   1      33.656  16.932  23.174  1.00  0.00     0.127 C 
BRANCH  17  18
ATOM     18  C   UNL A   1      33.943  16.065  24.407  1.00  0.00     0.176 C 
BRANCH  18  19
ATOM     19  O   UNL A   1      32.909  15.116  24.690  1.00  0.00    -0.383 OA
ATOM     20  C   UNL A   1      32.363  15.214  25.997  1.00  0.00     0.194 C 
ENDBRANCH  18  19
ENDBRANCH  17  18
ENDBRANCH  15  17
ENDBRANCH  12  15
ENDBRANCH   7  12
ENDBRANCH   3   6
ENDBRANCH   1   2
BRANCH   1  21
ATOM     21  C   UNL A   1      35.172  24.432  24.659  1.00  0.00     0.023 C 
BRANCH  21  22
ATOM     22  C   UNL A   1      36.397  23.653  25.168  1.00  0.00     0.023 C 
BRANCH  22  23
ATOM     23  C   UNL A   1      37.073  24.277  26.390  1.00  0.00     0.116 C 
BRANCH  23  24
ATOM     24  N   UNL A   1      38.364  23.656  26.653  1.00  0.00    -0.352 N 
ATOM     25  C   UNL A   1      39.529  24.227  27.098  1.00  0.00     0.251 C 
ATOM     26  H   UNL A   1      38.405  22.686  26.490  1.00  0.00     0.163 HD
ATOM     27  O   UNL A   1      40.583  23.604  26.985  1.00  0.00    -0.269 OA
BRANCH  25  28
ATOM     28  C   UNL A   1      39.538  25.589  27.668  1.00  0.00     0.039 A 
ATOM     29  C   UNL A   1      39.094  25.752  28.985  1.00  0.00     0.014 A 
ATOM     30  C   UNL A   1      39.932  26.698  26.911  1.00  0.00     0.014 A 
ATOM     31  C   UNL A   1      39.113  27.016  29.566  1.00  0.00     0.010 A 
ATOM     32  C   UNL A   1      39.973  27.961  27.501  1.00  0.00     0.010 A 
ATOM     33  C   UNL A   1      39.576  28.118  28.833  1.00  0.00    -0.014 A 
BRANCH  33  34
ATOM     34  C   UNL A   1      39.758  29.412  29.539  1.00  0.00     0.031 A 
ATOM     35  C   UNL A   1      38.518  30.308  29.408  1.00  0.00     0.074 A 
ATOM     36  C   UNL A   1      40.969  29.661  30.124  1.00  0.00     0.049 A 
ATOM     37  N   UNL A   1      38.452  31.579  29.147  1.00  0.00    -0.248 NA
ATOM     38  C   UNL A   1      37.166  29.692  29.410  1.00  0.00     0.031 C 
ATOM     39  C   UNL A   1      42.087  28.695  30.162  1.00  0.00     0.029 A 
ATOM     40  N   UNL A   1      41.521  30.741  30.794  1.00  0.00    -0.354 N 
ATOM     41  C   UNL A   1      37.084  31.944  29.178  1.00  0.00     0.074 A 
ATOM     42  C   UNL A   1      36.340  30.721  29.184  1.00  0.00     0.031 C 
ATOM     43  C   UNL A   1      43.176  29.239  30.746  1.00  0.00     0.029 A 
ATOM     44  C   UNL A   1      42.882  30.599  31.167  1.00  0.00     0.049 A 
ATOM     45  H   UNL A   1      41.002  31.553  30.997  1.00  0.00     0.167 HD
ATOM     46  C   UNL A   1      36.666  33.230  29.387  1.00  0.00     0.034 A 
ATOM     47  C   UNL A   1      43.736  31.508  31.738  1.00  0.00     0.034 A 
ATOM     48  C   UNL A   1      37.797  34.022  29.750  1.00  0.00     0.049 A 
ATOM     49  C   UNL A   1      42.938  32.697  32.066  1.00  0.00     0.074 A 
ATOM     50  C   UNL A   1      38.865  34.525  29.060  1.00  0.00     0.029 A 
ATOM     51  N   UNL A   1      38.048  34.069  31.102  1.00  0.00    -0.354 N 
ATOM     52  N   UNL A   1      42.064  32.763  33.026  1.00  0.00    -0.248 NA
ATOM     53  C   UNL A   1      43.073  33.897  31.228  1.00  0.00     0.031 C 
ATOM     54  C   UNL A   1      39.909  34.480  30.004  1.00  0.00     0.029 A 
ATOM     55  C   UNL A   1      39.403  34.128  31.262  1.00  0.00     0.049 A 
ATOM     56  H   UNL A   1      37.375  34.064  31.820  1.00  0.00     0.167 HD
ATOM     57  C   UNL A   1      41.305  33.842  32.642  1.00  0.00     0.074 A 
ATOM     58  C   UNL A   1      42.140  34.659  31.791  1.00  0.00     0.031 C 
ATOM     59  C   UNL A   1      39.964  33.663  32.508  1.00  0.00     0.034 A 
BRANCH  46  60
ATOM     60  C   UNL A   1      35.337  33.912  29.628  1.00  0.00     0.023 A 
ATOM     61  C   UNL A   1      34.742  34.483  28.462  1.00  0.00     0.012 A 
ATOM     62  C   UNL A   1      34.814  34.301  30.869  1.00  0.00     0.148 A 
ATOM     63  C   UNL A   1      33.780  35.488  28.521  1.00  0.00     0.002 A 
ATOM     64  C   UNL A   1      33.805  35.272  30.922  1.00  0.00     0.091 A 
ATOM     65  F   UNL A   1      35.348  33.809  31.992  1.00  0.00    -0.205 F 
ATOM     66  C   UNL A   1      33.320  35.893  29.759  1.00  0.00     0.022 A 
BRANCH  64  67
ATOM     67  S   UNL A   1      33.058  35.816  32.464  1.00  0.00     0.127 S 
ATOM     68  O   UNL A   1      34.123  35.551  33.427  1.00  0.00    -0.237 OA
ATOM     69  O   UNL A   1      32.819  37.238  32.201  1.00  0.00    -0.237 OA
ATOM     70  O   UNL A   1      31.841  35.030  32.603  1.00  0.00    -0.744 OA
ENDBRANCH  64  67
ENDBRANCH  46  60
BRANCH  47  71
ATOM     71  C   UNL A   1      45.232  31.622  31.972  1.00  0.00     0.023 A 
ATOM     72  C   UNL A   1      45.819  31.940  33.203  1.00  0.00     0.012 A 
ATOM     73  C   UNL A   1      46.145  31.270  30.929  1.00  0.00     0.148 A 
ATOM     74  C   UNL A   1      47.206  31.795  33.416  1.00  0.00     0.002 A 
ATOM     75  C   UNL A   1      47.482  30.982  31.178  1.00  0.00     0.091 A 
ATOM     76  F   UNL A   1      45.727  31.243  29.659  1.00  0.00    -0.205 F 
ATOM     77  C   UNL A   1      48.027  31.261  32.425  1.00  0.00     0.022 A 
BRANCH  75  78
ATOM     78  S   UNL A   1      48.493  30.077  29.988  1.00  0.00     0.127 S 
ATOM     79  O   UNL A   1      48.845  31.117  29.023  1.00  0.00    -0.237 OA
ATOM     80  O   UNL A   1      49.596  29.623  30.834  1.00  0.00    -0.237 OA
ATOM     81  O   UNL A   1      47.654  29.006  29.467  1.00  0.00    -0.744 OA
ENDBRANCH  75  78
ENDBRANCH  47  71
BRANCH  59  82
ATOM     82  C   UNL A   1      39.361  32.656  33.488  1.00  0.00     0.023 A 
ATOM     83  C   UNL A   1      38.950  31.411  32.963  1.00  0.00     0.012 A 
ATOM     84  C   UNL A   1      39.069  32.904  34.849  1.00  0.00     0.148 A 
ATOM     85  C   UNL A   1      38.263  30.472  33.739  1.00  0.00     0.002 A 
ATOM     86  C   UNL A   1      38.370  31.972  35.626  1.00  0.00     0.091 A 
ATOM     87  F   UNL A   1      39.467  34.054  35.384  1.00  0.00    -0.205 F 
ATOM     88  C   UNL A   1      37.970  30.753  35.067  1.00  0.00     0.022 A 
BRANCH  86  89
ATOM     89  S   UNL A   1      37.859  32.269  37.335  1.00  0.00     0.127 S 
ATOM     90  O   UNL A   1      36.732  33.191  37.176  1.00  0.00    -0.237 OA
ATOM     91  O   UNL A   1      37.479  30.933  37.783  1.00  0.00    -0.237 OA
ATOM     92  O   UNL A   1      39.003  32.859  38.020  1.00  0.00    -0.744 OA
ENDBRANCH  86  89
ENDBRANCH  59  82
ENDBRANCH  33  34
ENDBRANCH  25  28
ENDBRANCH  23  24
ENDBRANCH  22  23
ENDBRANCH  21  22
ENDBRANCH   1  21
TORSDOF 19
ENDMDL
MODEL 3
REMARK VINA RESULT:     -10.0      4.046      6.350
REMARK SMILES COCCNS(=O)(=O)c1c[nH]c(C(=O)NCCCCNC(=O)c2ccc(-c3c4nc(c(-c5cccc(S(=O)(=O)[O-])c5F)c5ccc([nH]5)c(-c5cccc(S(=O)(=O)[O-])c5F)c5nc(c(-c6cccc(S(=O)(=O)[O-])c6F)c6ccc3[nH]6)C=C5)C=C4)cc2)c1
REMARK SMILES IDX 16 1 15 2 13 3 14 4 12 6 9 7 10 8 86 9 11 10 6 12 7 13 8 14
REMARK SMILES IDX 5 15 4 17 3 18 2 19 1 20 17 21 18 22 19 23 20 24 21 25 22 27
REMARK SMILES IDX 23 28 24 29 85 30 25 31 84 32 26 33 27 34 28 35 78 36 29 37
REMARK SMILES IDX 83 38 77 39 79 40 30 41 82 42 76 43 75 44 31 46 63 47 43 48
REMARK SMILES IDX 62 49 44 50 47 51 61 52 80 53 45 54 46 55 60 57 81 58 48 59
REMARK SMILES IDX 32 60 33 61 41 62 34 63 36 64 42 65 35 66 37 67 38 68 39 69
REMARK SMILES IDX 40 70 64 71 65 72 73 73 66 74 68 75 74 76 67 77 69 78 70 79
REMARK SMILES IDX 71 80 72 81 49 82 50 83 58 84 51 85 53 86 59 87 52 88 54 89
REMARK SMILES IDX 55 90 56 91 57 92
REMARK H PARENT 15 5 11 11 5 16 20 26 79 45 47 56
REMARK Flexibility Score: inf
ROOT
ATOM      1  C   UNL A   1      35.260  22.672  26.141  1.00  0.00     0.116 C 
ENDROOT
BRANCH   1   2
ATOM      2  N   UNL A   1      34.485  21.711  25.382  1.00  0.00    -0.351 N 
ATOM      3  C   UNL A   1      33.531  21.859  24.415  1.00  0.00     0.267 C 
ATOM      4  O   UNL A   1      33.049  20.831  23.937  1.00  0.00    -0.268 OA
ATOM      5  H   UNL A   1      34.683  20.774  25.605  1.00  0.00     0.163 HD
BRANCH   3   6
ATOM      6  C   UNL A   1      33.107  23.154  23.922  1.00  0.00     0.105 A 
ATOM      7  C   UNL A   1      32.649  25.131  22.895  1.00  0.00     0.100 A 
ATOM      8  C   UNL A   1      31.668  24.907  23.836  1.00  0.00     0.104 A 
ATOM      9  C   UNL A   1      33.583  24.064  22.991  1.00  0.00     0.055 A 
ATOM     10  N   UNL A   1      31.960  23.723  24.453  1.00  0.00    -0.356 N 
ATOM     11  H   UNL A   1      31.426  23.326  25.178  1.00  0.00     0.166 HD
BRANCH   7  12
ATOM     12  S   UNL A   1      32.749  26.461  21.806  1.00  0.00     0.242 S 
ATOM     13  O   UNL A   1      33.072  25.904  20.519  1.00  0.00    -0.207 OA
ATOM     14  O   UNL A   1      33.600  27.434  22.466  1.00  0.00    -0.207 OA
BRANCH  12  15
ATOM     15  N   UNL A   1      31.223  27.179  21.695  1.00  0.00    -0.209 NA
ATOM     16  H   UNL A   1      31.112  27.537  20.746  1.00  0.00     0.141 HD
BRANCH  15  17
ATOM     17  C   UNL A   1      30.972  28.294  22.636  1.00  0.00     0.127 C 
BRANCH  17  18
ATOM     18  C   UNL A   1      29.796  29.157  22.160  1.00  0.00     0.176 C 
BRANCH  18  19
ATOM     19  O   UNL A   1      28.864  29.473  23.200  1.00  0.00    -0.383 OA
ATOM     20  C   UNL A   1      27.613  28.810  23.090  1.00  0.00     0.194 C 
ENDBRANCH  18  19
ENDBRANCH  17  18
ENDBRANCH  15  17
ENDBRANCH  12  15
ENDBRANCH   7  12
ENDBRANCH   3   6
ENDBRANCH   1   2
BRANCH   1  21
ATOM     21  C   UNL A   1      36.504  23.103  25.363  1.00  0.00     0.023 C 
BRANCH  21  22
ATOM     22  C   UNL A   1      37.823  22.848  26.113  1.00  0.00     0.023 C 
BRANCH  22  23
ATOM     23  C   UNL A   1      38.632  24.114  26.407  1.00  0.00     0.116 C 
BRANCH  23  24
ATOM     24  N   UNL A   1      40.061  23.870  26.269  1.00  0.00    -0.352 N 
ATOM     25  C   UNL A   1      41.113  24.726  26.477  1.00  0.00     0.251 C 
ATOM     26  H   UNL A   1      40.307  22.960  25.987  1.00  0.00     0.163 HD
ATOM     27  O   UNL A   1      42.222  24.431  26.034  1.00  0.00    -0.269 OA
BRANCH  25  28
ATOM     28  C   UNL A   1      40.921  26.008  27.183  1.00  0.00     0.039 A 
ATOM     29  C   UNL A   1      40.793  25.976  28.577  1.00  0.00     0.014 A 
ATOM     30  C   UNL A   1      40.821  27.220  26.490  1.00  0.00     0.014 A 
ATOM     31  C   UNL A   1      40.637  27.167  29.281  1.00  0.00     0.010 A 
ATOM     32  C   UNL A   1      40.688  28.414  27.198  1.00  0.00     0.010 A 
ATOM     33  C   UNL A   1      40.610  28.389  28.595  1.00  0.00    -0.014 A 
BRANCH  33  34
ATOM     34  C   UNL A   1      40.630  29.646  29.386  1.00  0.00     0.031 A 
ATOM     35  C   UNL A   1      39.312  30.421  29.251  1.00  0.00     0.074 A 
ATOM     36  C   UNL A   1      41.785  29.974  30.041  1.00  0.00     0.049 A 
ATOM     37  N   UNL A   1      39.129  31.694  29.065  1.00  0.00    -0.248 NA
ATOM     38  C   UNL A   1      38.031  29.677  29.151  1.00  0.00     0.031 C 
ATOM     39  C   UNL A   1      42.993  29.123  30.073  1.00  0.00     0.029 A 
ATOM     40  N   UNL A   1      42.196  31.057  30.801  1.00  0.00    -0.354 N 
ATOM     41  C   UNL A   1      37.730  31.920  29.053  1.00  0.00     0.074 A 
ATOM     42  C   UNL A   1      37.114  30.632  28.949  1.00  0.00     0.031 C 
ATOM     43  C   UNL A   1      43.995  29.733  30.741  1.00  0.00     0.029 A 
ATOM     44  C   UNL A   1      43.549  31.026  31.229  1.00  0.00     0.049 A 
ATOM     45  H   UNL A   1      41.590  31.799  31.029  1.00  0.00     0.167 HD
ATOM     46  C   UNL A   1      37.176  33.141  29.321  1.00  0.00     0.034 A 
ATOM     47  C   UNL A   1      44.282  31.976  31.894  1.00  0.00     0.034 A 
ATOM     48  C   UNL A   1      38.204  34.015  29.784  1.00  0.00     0.049 A 
ATOM     49  C   UNL A   1      43.354  33.056  32.256  1.00  0.00     0.074 A 
ATOM     50  C   UNL A   1      39.243  34.666  29.177  1.00  0.00     0.029 A 
ATOM     51  N   UNL A   1      38.394  33.999  31.147  1.00  0.00    -0.354 N 
ATOM     52  N   UNL A   1      42.439  32.973  33.176  1.00  0.00    -0.248 NA
ATOM     53  C   UNL A   1      43.401  34.316  31.500  1.00  0.00     0.031 C 
ATOM     54  C   UNL A   1      40.247  34.663  30.165  1.00  0.00     0.029 A 
ATOM     55  C   UNL A   1      39.728  34.181  31.374  1.00  0.00     0.049 A 
ATOM     56  H   UNL A   1      37.696  33.880  31.831  1.00  0.00     0.167 HD
ATOM     57  C   UNL A   1      41.591  33.994  32.823  1.00  0.00     0.074 A 
ATOM     58  C   UNL A   1      42.373  34.943  32.064  1.00  0.00     0.031 C 
ATOM     59  C   UNL A   1      40.282  33.693  32.615  1.00  0.00     0.034 A 
BRANCH  46  60
ATOM     60  C   UNL A   1      35.775  33.672  29.539  1.00  0.00     0.023 A 
ATOM     61  C   UNL A   1      35.153  34.206  28.370  1.00  0.00     0.012 A 
ATOM     62  C   UNL A   1      35.182  33.970  30.774  1.00  0.00     0.148 A 
ATOM     63  C   UNL A   1      34.087  35.101  28.425  1.00  0.00     0.002 A 
ATOM     64  C   UNL A   1      34.074  34.827  30.820  1.00  0.00     0.091 A 
ATOM     65  F   UNL A   1      35.737  33.509  31.899  1.00  0.00    -0.205 F 
ATOM     66  C   UNL A   1      33.555  35.422  29.659  1.00  0.00     0.022 A 
BRANCH  64  67
ATOM     67  S   UNL A   1      33.233  35.247  32.352  1.00  0.00     0.127 S 
ATOM     68  O   UNL A   1      34.232  36.068  33.032  1.00  0.00    -0.237 OA
ATOM     69  O   UNL A   1      32.069  35.993  31.866  1.00  0.00    -0.237 OA
ATOM     70  O   UNL A   1      32.900  33.975  32.974  1.00  0.00    -0.744 OA
ENDBRANCH  64  67
ENDBRANCH  46  60
BRANCH  47  71
ATOM     71  C   UNL A   1      45.747  32.221  32.206  1.00  0.00     0.023 A 
ATOM     72  C   UNL A   1      46.606  32.996  31.417  1.00  0.00     0.012 A 
ATOM     73  C   UNL A   1      46.301  31.754  33.439  1.00  0.00     0.148 A 
ATOM     74  C   UNL A   1      47.881  33.384  31.880  1.00  0.00     0.002 A 
ATOM     75  C   UNL A   1      47.487  32.257  33.958  1.00  0.00     0.091 A 
ATOM     76  F   UNL A   1      45.689  30.776  34.116  1.00  0.00    -0.205 F 
ATOM     77  C   UNL A   1      48.297  33.066  33.171  1.00  0.00     0.022 A 
BRANCH  75  78
ATOM     78  S   UNL A   1      47.923  32.049  35.697  1.00  0.00     0.127 S 
ATOM     79  O   UNL A   1      48.244  30.625  35.771  1.00  0.00    -0.237 OA
ATOM     80  O   UNL A   1      49.073  32.945  35.816  1.00  0.00    -0.237 OA
ATOM     81  O   UNL A   1      46.757  32.463  36.466  1.00  0.00    -0.744 OA
ENDBRANCH  75  78
ENDBRANCH  47  71
BRANCH  59  82
ATOM     82  C   UNL A   1      39.745  32.569  33.502  1.00  0.00     0.023 A 
ATOM     83  C   UNL A   1      39.540  31.310  32.896  1.00  0.00     0.012 A 
ATOM     84  C   UNL A   1      39.322  32.710  34.844  1.00  0.00     0.148 A 
ATOM     85  C   UNL A   1      38.926  30.254  33.576  1.00  0.00     0.002 A 
ATOM     86  C   UNL A   1      38.695  31.658  35.524  1.00  0.00     0.091 A 
ATOM     87  F   UNL A   1      39.525  33.872  35.454  1.00  0.00    -0.205 F 
ATOM     88  C   UNL A   1      38.500  30.428  34.886  1.00  0.00     0.022 A 
BRANCH  86  89
ATOM     89  S   UNL A   1      38.024  31.801  37.197  1.00  0.00     0.127 S 
ATOM     90  O   UNL A   1      36.979  32.815  37.037  1.00  0.00    -0.237 OA
ATOM     91  O   UNL A   1      37.517  30.455  37.445  1.00  0.00    -0.237 OA
ATOM     92  O   UNL A   1      39.122  32.227  38.056  1.00  0.00    -0.744 OA
ENDBRANCH  86  89
ENDBRANCH  59  82
ENDBRANCH  33  34
ENDBRANCH  25  28
ENDBRANCH  23  24
ENDBRANCH  22  23
ENDBRANCH  21  22
ENDBRANCH   1  21
TORSDOF 19
ENDMDL
