MODEL 1
REMARK VINA RESULT:      -8.7      0.000      0.000
REMARK SMILES CC1CC[NH+]([C@H](c2ccc(F)cc2)c2ccc([C@@H](C)C(=O)NCCCCNC(=O)c3ccc(-c4c5nc(c(-c6cccc(S(=O)(=O)[O-])c6F)c6ccc([nH]6)c(-c6cccc(S(=O)(=O)[O-])c6F)c6nc(c(-c7cccc(S(=O)(=O)[O-])c7F)c7ccc4[nH]7)C=C6)C=C5)cc3)cc2-c2ccc(C(F)(F)F)cc2)CC1
REMARK SMILES IDX 24 1 23 2 22 3 20 4 21 5 18 7 19 8 17 9 14 10 15 11 94 12
REMARK SMILES IDX 16 13 93 14 6 15 5 16 1 17 2 18 3 19 106 20 4 21 105 22 7 24
REMARK SMILES IDX 8 25 13 26 9 27 12 28 10 29 11 30 95 31 96 32 104 33 97 34
REMARK SMILES IDX 103 35 98 36 99 37 100 38 101 39 102 40 25 41 26 42 27 43
REMARK SMILES IDX 28 44 29 46 30 47 31 48 92 49 32 50 91 51 33 52 34 53 35 54
REMARK SMILES IDX 85 55 36 56 90 57 84 58 86 59 37 60 89 61 83 62 82 63 38 65
REMARK SMILES IDX 70 66 50 67 69 68 51 69 54 70 68 71 87 72 52 73 53 74 67 76
REMARK SMILES IDX 88 77 55 78 39 79 40 80 48 81 41 82 43 83 49 84 42 85 44 86
REMARK SMILES IDX 45 87 46 88 47 89 71 90 72 91 80 92 73 93 75 94 81 95 74 96
REMARK SMILES IDX 76 97 77 98 78 99 79 100 56 101 57 102 65 103 58 104 60 105
REMARK SMILES IDX 66 106 59 107 61 108 62 109 63 110 64 111
REMARK H PARENT 22 6 5 23 27 45 86 64 54 75
REMARK Flexibility Score: inf
ROOT
ATOM      1  C   UNL A   1      42.599  27.555  35.213  1.00  0.00     0.023 C 
ENDROOT
BRANCH   1   2
ATOM      2  C   UNL A   1      43.708  26.551  35.547  1.00  0.00     0.116 C 
BRANCH   2   3
ATOM      3  N   UNL A   1      43.369  25.200  35.138  1.00  0.00    -0.356 N 
ATOM      4  C   UNL A   1      43.850  24.378  34.164  1.00  0.00     0.227 C 
ATOM      5  O   UNL A   1      43.295  23.276  34.059  1.00  0.00    -0.274 OA
ATOM      6  H   UNL A   1      42.647  24.797  35.672  1.00  0.00     0.163 HD
BRANCH   4   7
ATOM      7  C   UNL A   1      45.020  24.722  33.220  1.00  0.00     0.105 C 
ATOM      8  C   UNL A   1      46.146  25.511  33.884  1.00  0.00     0.023 C 
BRANCH   7   9
ATOM      9  C   UNL A   1      44.568  25.243  31.868  1.00  0.00    -0.035 A 
ATOM     10  C   UNL A   1      43.295  26.033  29.422  1.00  0.00     0.022 A 
ATOM     11  C   UNL A   1      43.344  26.858  30.558  1.00  0.00     0.011 A 
ATOM     12  C   UNL A   1      44.080  24.847  29.477  1.00  0.00    -0.009 A 
ATOM     13  C   UNL A   1      44.040  26.512  31.713  1.00  0.00     0.005 A 
ATOM     14  C   UNL A   1      44.623  24.437  30.723  1.00  0.00     0.013 A 
BRANCH  10  15
ATOM     15  C   UNL A   1      42.476  26.450  28.163  1.00  0.00     0.247 C 
BRANCH  15  16
ATOM     16  N   UNL A   1      43.190  27.174  27.057  1.00  0.00    -0.325 N 
ATOM     17  C   UNL A   1      46.468  27.989  24.232  1.00  0.00     0.008 C 
ATOM     18  C   UNL A   1      45.532  27.446  25.308  1.00  0.00    -0.003 C 
ATOM     19  C   UNL A   1      44.208  26.960  24.719  1.00  0.00     0.065 C 
ATOM     20  C   UNL A   1      45.201  28.519  26.336  1.00  0.00     0.065 C 
ATOM     21  C   UNL A   1      43.236  26.441  25.789  1.00  0.00     0.263 C 
ATOM     22  C   UNL A   1      44.381  27.919  27.473  1.00  0.00     0.263 C 
ATOM     23  H   UNL A   1      42.583  27.952  26.803  1.00  0.00     0.348 HD
ENDBRANCH  15  16
BRANCH  15  24
ATOM     24  C   UNL A   1      41.155  27.179  28.491  1.00  0.00     0.014 A 
ATOM     25  C   UNL A   1      40.753  28.344  27.805  1.00  0.00     0.013 A 
ATOM     26  C   UNL A   1      40.314  26.677  29.502  1.00  0.00     0.013 A 
ATOM     27  C   UNL A   1      39.550  28.981  28.118  1.00  0.00     0.040 A 
ATOM     28  C   UNL A   1      39.127  27.332  29.834  1.00  0.00     0.040 A 
ATOM     29  C   UNL A   1      38.754  28.474  29.136  1.00  0.00     0.123 A 
ATOM     30  F   UNL A   1      37.610  29.095  29.453  1.00  0.00    -0.207 F 
ENDBRANCH  15  24
ENDBRANCH  10  15
BRANCH  12  31
ATOM     31  C   UNL A   1      44.435  24.045  28.289  1.00  0.00    -0.018 A 
ATOM     32  C   UNL A   1      45.667  24.195  27.636  1.00  0.00     0.009 A 
ATOM     33  C   UNL A   1      43.503  23.146  27.744  1.00  0.00     0.009 A 
ATOM     34  C   UNL A   1      45.969  23.447  26.491  1.00  0.00     0.014 A 
ATOM     35  C   UNL A   1      43.803  22.392  26.607  1.00  0.00     0.014 A 
ATOM     36  C   UNL A   1      45.044  22.529  25.971  1.00  0.00     0.056 A 
BRANCH  36  37
ATOM     37  C   UNL A   1      45.372  21.733  24.734  1.00  0.00     0.416 C 
ATOM     38  F   UNL A   1      46.687  21.822  24.390  1.00  0.00    -0.166 F 
ATOM     39  F   UNL A   1      45.111  20.403  24.872  1.00  0.00    -0.166 F 
ATOM     40  F   UNL A   1      44.675  22.132  23.632  1.00  0.00    -0.166 F 
ENDBRANCH  36  37
ENDBRANCH  12  31
ENDBRANCH   7   9
ENDBRANCH   4   7
ENDBRANCH   2   3
ENDBRANCH   1   2
BRANCH   1  41
ATOM     41  C   UNL A   1      41.255  26.958  34.813  1.00  0.00     0.023 C 
BRANCH  41  42
ATOM     42  C   UNL A   1      40.651  27.516  33.531  1.00  0.00     0.116 C 
BRANCH  42  43
ATOM     43  N   UNL A   1      39.756  28.647  33.732  1.00  0.00    -0.352 N 
ATOM     44  C   UNL A   1      39.927  29.952  33.318  1.00  0.00     0.251 C 
ATOM     45  H   UNL A   1      38.924  28.457  34.223  1.00  0.00     0.163 HD
ATOM     46  O   UNL A   1      39.111  30.809  33.623  1.00  0.00    -0.269 OA
BRANCH  44  47
ATOM     47  C   UNL A   1      41.139  30.305  32.543  1.00  0.00     0.039 A 
ATOM     48  C   UNL A   1      41.127  30.129  31.158  1.00  0.00     0.014 A 
ATOM     49  C   UNL A   1      42.248  30.876  33.172  1.00  0.00     0.014 A 
ATOM     50  C   UNL A   1      42.194  30.607  30.395  1.00  0.00     0.010 A 
ATOM     51  C   UNL A   1      43.266  31.430  32.404  1.00  0.00     0.010 A 
ATOM     52  C   UNL A   1      43.249  31.304  31.008  1.00  0.00    -0.014 A 
BRANCH  52  53
ATOM     53  C   UNL A   1      44.321  31.942  30.204  1.00  0.00     0.031 A 
ATOM     54  C   UNL A   1      44.150  33.337  29.674  1.00  0.00     0.074 A 
ATOM     55  C   UNL A   1      45.416  31.227  29.876  1.00  0.00     0.049 A 
ATOM     56  N   UNL A   1      44.971  34.045  28.942  1.00  0.00    -0.248 NA
ATOM     57  C   UNL A   1      42.880  34.017  29.977  1.00  0.00     0.031 C 
ATOM     58  C   UNL A   1      45.653  29.831  30.246  1.00  0.00     0.029 A 
ATOM     59  N   UNL A   1      46.526  31.569  29.145  1.00  0.00    -0.354 N 
ATOM     60  C   UNL A   1      44.309  35.237  28.675  1.00  0.00     0.074 A 
ATOM     61  C   UNL A   1      43.001  35.140  29.281  1.00  0.00     0.031 C 
ATOM     62  C   UNL A   1      46.843  29.443  29.766  1.00  0.00     0.029 A 
ATOM     63  C   UNL A   1      47.446  30.552  29.032  1.00  0.00     0.049 A 
ATOM     64  H   UNL A   1      46.652  32.456  28.740  1.00  0.00     0.167 HD
ATOM     65  C   UNL A   1      44.765  36.330  28.020  1.00  0.00     0.034 A 
ATOM     66  C   UNL A   1      48.647  30.519  28.419  1.00  0.00     0.034 A 
ATOM     67  C   UNL A   1      46.086  36.438  27.464  1.00  0.00     0.049 A 
ATOM     68  C   UNL A   1      49.161  31.763  27.749  1.00  0.00     0.074 A 
ATOM     69  C   UNL A   1      46.675  37.535  26.862  1.00  0.00     0.029 A 
ATOM     70  N   UNL A   1      47.022  35.416  27.442  1.00  0.00    -0.354 N 
ATOM     71  N   UNL A   1      48.584  32.935  27.643  1.00  0.00    -0.248 NA
ATOM     72  C   UNL A   1      50.500  31.696  27.147  1.00  0.00     0.031 C 
ATOM     73  C   UNL A   1      47.965  37.171  26.462  1.00  0.00     0.029 A 
ATOM     74  C   UNL A   1      48.185  35.854  26.833  1.00  0.00     0.049 A 
ATOM     75  H   UNL A   1      46.880  34.513  27.805  1.00  0.00     0.167 HD
ATOM     76  C   UNL A   1      49.499  33.755  26.994  1.00  0.00     0.074 A 
ATOM     77  C   UNL A   1      50.675  32.947  26.739  1.00  0.00     0.031 C 
ATOM     78  C   UNL A   1      49.369  35.056  26.633  1.00  0.00     0.034 A 
BRANCH  65  79
ATOM     79  C   UNL A   1      43.853  37.527  27.939  1.00  0.00     0.023 A 
ATOM     80  C   UNL A   1      42.945  37.628  26.865  1.00  0.00     0.012 A 
ATOM     81  C   UNL A   1      43.848  38.513  28.943  1.00  0.00     0.148 A 
ATOM     82  C   UNL A   1      42.072  38.710  26.772  1.00  0.00     0.002 A 
ATOM     83  C   UNL A   1      42.943  39.566  28.868  1.00  0.00     0.091 A 
ATOM     84  F   UNL A   1      44.735  38.415  29.944  1.00  0.00    -0.205 F 
ATOM     85  C   UNL A   1      42.062  39.672  27.778  1.00  0.00     0.022 A 
BRANCH  83  86
ATOM     86  S   UNL A   1      42.800  40.807  30.158  1.00  0.00     0.127 S 
ATOM     87  O   UNL A   1      43.091  40.022  31.356  1.00  0.00    -0.237 OA
ATOM     88  O   UNL A   1      43.844  41.764  29.789  1.00  0.00    -0.237 OA
ATOM     89  O   UNL A   1      41.443  41.327  30.060  1.00  0.00    -0.744 OA
ENDBRANCH  83  86
ENDBRANCH  65  79
BRANCH  66  90
ATOM     90  C   UNL A   1      49.481  29.289  28.530  1.00  0.00     0.023 A 
ATOM     91  C   UNL A   1      50.269  29.099  29.681  1.00  0.00     0.012 A 
ATOM     92  C   UNL A   1      49.410  28.263  27.566  1.00  0.00     0.148 A 
ATOM     93  C   UNL A   1      50.978  27.912  29.870  1.00  0.00     0.002 A 
ATOM     94  C   UNL A   1      50.076  27.062  27.787  1.00  0.00     0.091 A 
ATOM     95  F   UNL A   1      48.655  28.467  26.478  1.00  0.00    -0.205 F 
ATOM     96  C   UNL A   1      50.870  26.890  28.931  1.00  0.00     0.022 A 
BRANCH  94  97
ATOM     97  S   UNL A   1      49.883  25.635  26.712  1.00  0.00     0.127 S 
ATOM     98  O   UNL A   1      49.991  24.530  27.660  1.00  0.00    -0.237 OA
ATOM     99  O   UNL A   1      48.543  25.854  26.167  1.00  0.00    -0.237 OA
ATOM    100  O   UNL A   1      50.957  25.728  25.732  1.00  0.00    -0.744 OA
ENDBRANCH  94  97
ENDBRANCH  66  90
BRANCH  78 101
ATOM    101  C   UNL A   1      50.526  35.722  25.937  1.00  0.00     0.023 A 
ATOM    102  C   UNL A   1      50.668  35.586  24.543  1.00  0.00     0.012 A 
ATOM    103  C   UNL A   1      51.378  36.596  26.640  1.00  0.00     0.148 A 
ATOM    104  C   UNL A   1      51.649  36.304  23.859  1.00  0.00     0.002 A 
ATOM    105  C   UNL A   1      52.323  37.342  25.947  1.00  0.00     0.091 A 
ATOM    106  F   UNL A   1      51.233  36.697  27.969  1.00  0.00    -0.205 F 
ATOM    107  C   UNL A   1      52.464  37.192  24.558  1.00  0.00     0.022 A 
BRANCH 105 108
ATOM    108  S   UNL A   1      53.346  38.587  26.744  1.00  0.00     0.127 S 
ATOM    109  O   UNL A   1      53.953  39.253  25.593  1.00  0.00    -0.237 OA
ATOM    110  O   UNL A   1      52.354  39.389  27.461  1.00  0.00    -0.237 OA
ATOM    111  O   UNL A   1      54.271  37.859  27.601  1.00  0.00    -0.744 OA
ENDBRANCH 105 108
ENDBRANCH  78 101
ENDBRANCH  52  53
ENDBRANCH  44  47
ENDBRANCH  42  43
ENDBRANCH  41  42
ENDBRANCH   1  41
TORSDOF 20
ENDMDL
MODEL 2
REMARK VINA RESULT:      -8.7      4.981     10.938
REMARK SMILES CC1CC[NH+]([C@H](c2ccc(F)cc2)c2ccc([C@@H](C)C(=O)NCCCCNC(=O)c3ccc(-c4c5nc(c(-c6cccc(S(=O)(=O)[O-])c6F)c6ccc([nH]6)c(-c6cccc(S(=O)(=O)[O-])c6F)c6nc(c(-c7cccc(S(=O)(=O)[O-])c7F)c7ccc4[nH]7)C=C6)C=C5)cc3)cc2-c2ccc(C(F)(F)F)cc2)CC1
REMARK SMILES IDX 24 1 23 2 22 3 20 4 21 5 18 7 19 8 17 9 14 10 15 11 94 12
REMARK SMILES IDX 16 13 93 14 6 15 5 16 1 17 2 18 3 19 106 20 4 21 105 22 7 24
REMARK SMILES IDX 8 25 13 26 9 27 12 28 10 29 11 30 95 31 96 32 104 33 97 34
REMARK SMILES IDX 103 35 98 36 99 37 100 38 101 39 102 40 25 41 26 42 27 43
REMARK SMILES IDX 28 44 29 46 30 47 31 48 92 49 32 50 91 51 33 52 34 53 35 54
REMARK SMILES IDX 85 55 36 56 90 57 84 58 86 59 37 60 89 61 83 62 82 63 38 65
REMARK SMILES IDX 70 66 50 67 69 68 51 69 54 70 68 71 87 72 52 73 53 74 67 76
REMARK SMILES IDX 88 77 55 78 39 79 40 80 48 81 41 82 43 83 49 84 42 85 44 86
REMARK SMILES IDX 45 87 46 88 47 89 71 90 72 91 80 92 73 93 75 94 81 95 74 96
REMARK SMILES IDX 76 97 77 98 78 99 79 100 56 101 57 102 65 103 58 104 60 105
REMARK SMILES IDX 66 106 59 107 61 108 62 109 63 110 64 111
REMARK H PARENT 22 6 5 23 27 45 86 64 54 75
REMARK Flexibility Score: inf
ROOT
ATOM      1  C   UNL A   1      48.055  26.425  31.022  1.00  0.00     0.023 C 
ENDROOT
BRANCH   1   2
ATOM      2  C   UNL A   1      48.412  26.138  29.559  1.00  0.00     0.116 C 
BRANCH   2   3
ATOM      3  N   UNL A   1      48.603  27.354  28.790  1.00  0.00    -0.356 N 
ATOM      4  C   UNL A   1      47.738  28.201  28.165  1.00  0.00     0.227 C 
ATOM      5  O   UNL A   1      48.250  29.146  27.550  1.00  0.00    -0.274 OA
ATOM      6  H   UNL A   1      49.546  27.620  28.702  1.00  0.00     0.163 HD
BRANCH   4   7
ATOM      7  C   UNL A   1      46.202  28.066  28.189  1.00  0.00     0.105 C 
ATOM      8  C   UNL A   1      45.627  27.275  27.017  1.00  0.00     0.023 C 
BRANCH   7   9
ATOM      9  C   UNL A   1      45.490  29.369  28.509  1.00  0.00    -0.035 A 
ATOM     10  C   UNL A   1      44.506  32.037  28.885  1.00  0.00     0.022 A 
ATOM     11  C   UNL A   1      44.128  31.230  27.800  1.00  0.00     0.011 A 
ATOM     12  C   UNL A   1      45.262  31.395  29.906  1.00  0.00    -0.009 A 
ATOM     13  C   UNL A   1      44.534  29.905  27.665  1.00  0.00     0.005 A 
ATOM     14  C   UNL A   1      45.810  30.109  29.654  1.00  0.00     0.013 A 
BRANCH  10  15
ATOM     15  C   UNL A   1      44.052  33.526  28.975  1.00  0.00     0.247 C 
BRANCH  15  16
ATOM     16  N   UNL A   1      44.941  34.497  29.699  1.00  0.00    -0.325 N 
ATOM     17  C   UNL A   1      46.528  38.452  30.807  1.00  0.00     0.008 C 
ATOM     18  C   UNL A   1      45.767  37.265  30.224  1.00  0.00    -0.003 C 
ATOM     19  C   UNL A   1      45.009  36.490  31.302  1.00  0.00     0.065 C 
ATOM     20  C   UNL A   1      46.717  36.285  29.550  1.00  0.00     0.065 C 
ATOM     21  C   UNL A   1      44.263  35.269  30.744  1.00  0.00     0.263 C 
ATOM     22  C   UNL A   1      45.925  35.182  28.857  1.00  0.00     0.263 C 
ATOM     23  H   UNL A   1      45.568  33.926  30.263  1.00  0.00     0.348 HD
ENDBRANCH  15  16
BRANCH  15  24
ATOM     24  C   UNL A   1      42.593  33.706  29.448  1.00  0.00     0.014 A 
ATOM     25  C   UNL A   1      41.814  34.817  29.064  1.00  0.00     0.013 A 
ATOM     26  C   UNL A   1      42.009  32.740  30.288  1.00  0.00     0.013 A 
ATOM     27  C   UNL A   1      40.495  34.953  29.501  1.00  0.00     0.040 A 
ATOM     28  C   UNL A   1      40.700  32.893  30.749  1.00  0.00     0.040 A 
ATOM     29  C   UNL A   1      39.955  33.994  30.347  1.00  0.00     0.123 A 
ATOM     30  F   UNL A   1      38.696  34.133  30.786  1.00  0.00    -0.207 F 
ENDBRANCH  15  24
ENDBRANCH  10  15
BRANCH  12  31
ATOM     31  C   UNL A   1      45.452  31.956  31.259  1.00  0.00    -0.018 A 
ATOM     32  C   UNL A   1      44.415  31.983  32.202  1.00  0.00     0.009 A 
ATOM     33  C   UNL A   1      46.681  32.542  31.610  1.00  0.00     0.009 A 
ATOM     34  C   UNL A   1      44.609  32.550  33.468  1.00  0.00     0.014 A 
ATOM     35  C   UNL A   1      46.881  33.102  32.875  1.00  0.00     0.014 A 
ATOM     36  C   UNL A   1      45.847  33.105  33.821  1.00  0.00     0.056 A 
BRANCH  36  37
ATOM     37  C   UNL A   1      46.047  33.722  35.182  1.00  0.00     0.416 C 
ATOM     38  F   UNL A   1      44.984  33.516  36.009  1.00  0.00    -0.166 F 
ATOM     39  F   UNL A   1      47.133  33.224  35.838  1.00  0.00    -0.166 F 
ATOM     40  F   UNL A   1      46.228  35.072  35.144  1.00  0.00    -0.166 F 
ENDBRANCH  36  37
ENDBRANCH  12  31
ENDBRANCH   7   9
ENDBRANCH   4   7
ENDBRANCH   2   3
ENDBRANCH   1   2
BRANCH   1  41
ATOM     41  C   UNL A   1      48.926  25.741  32.069  1.00  0.00     0.023 C 
BRANCH  41  42
ATOM     42  C   UNL A   1      48.199  25.303  33.334  1.00  0.00     0.116 C 
BRANCH  42  43
ATOM     43  N   UNL A   1      48.688  25.928  34.554  1.00  0.00    -0.352 N 
ATOM     44  C   UNL A   1      48.104  26.943  35.284  1.00  0.00     0.251 C 
ATOM     45  H   UNL A   1      49.542  25.584  34.903  1.00  0.00     0.163 HD
ATOM     46  O   UNL A   1      48.674  27.411  36.258  1.00  0.00    -0.269 OA
BRANCH  44  47
ATOM     47  C   UNL A   1      46.800  27.487  34.838  1.00  0.00     0.039 A 
ATOM     48  C   UNL A   1      46.790  28.589  33.979  1.00  0.00     0.014 A 
ATOM     49  C   UNL A   1      45.604  26.866  35.204  1.00  0.00     0.014 A 
ATOM     50  C   UNL A   1      45.583  29.011  33.419  1.00  0.00     0.010 A 
ATOM     51  C   UNL A   1      44.418  27.232  34.576  1.00  0.00     0.010 A 
ATOM     52  C   UNL A   1      44.395  28.306  33.676  1.00  0.00    -0.014 A 
BRANCH  52  53
ATOM     53  C   UNL A   1      43.129  28.651  32.983  1.00  0.00     0.031 A 
ATOM     54  C   UNL A   1      42.093  29.500  33.663  1.00  0.00     0.074 A 
ATOM     55  C   UNL A   1      42.874  28.122  31.768  1.00  0.00     0.049 A 
ATOM     56  N   UNL A   1      40.925  29.886  33.218  1.00  0.00    -0.248 NA
ATOM     57  C   UNL A   1      42.390  29.949  35.033  1.00  0.00     0.031 C 
ATOM     58  C   UNL A   1      43.757  27.204  31.047  1.00  0.00     0.029 A 
ATOM     59  N   UNL A   1      41.794  28.268  30.934  1.00  0.00    -0.354 N 
ATOM     60  C   UNL A   1      40.340  30.598  34.257  1.00  0.00     0.074 A 
ATOM     61  C   UNL A   1      41.258  30.549  35.373  1.00  0.00     0.031 C 
ATOM     62  C   UNL A   1      43.198  26.889  29.869  1.00  0.00     0.029 A 
ATOM     63  C   UNL A   1      41.907  27.561  29.759  1.00  0.00     0.049 A 
ATOM     64  H   UNL A   1      41.013  28.823  31.156  1.00  0.00     0.167 HD
ATOM     65  C   UNL A   1      39.163  31.266  34.269  1.00  0.00     0.034 A 
ATOM     66  C   UNL A   1      41.073  27.476  28.702  1.00  0.00     0.034 A 
ATOM     67  C   UNL A   1      38.280  31.352  33.139  1.00  0.00     0.049 A 
ATOM     68  C   UNL A   1      39.798  28.274  28.711  1.00  0.00     0.074 A 
ATOM     69  C   UNL A   1      37.109  32.080  33.020  1.00  0.00     0.029 A 
ATOM     70  N   UNL A   1      38.467  30.692  31.935  1.00  0.00    -0.354 N 
ATOM     71  N   UNL A   1      39.335  29.070  29.643  1.00  0.00    -0.248 NA
ATOM     72  C   UNL A   1      38.950  28.195  27.513  1.00  0.00     0.031 C 
ATOM     73  C   UNL A   1      36.580  31.847  31.746  1.00  0.00     0.029 A 
ATOM     74  C   UNL A   1      37.433  30.991  31.066  1.00  0.00     0.049 A 
ATOM     75  H   UNL A   1      39.224  30.098  31.729  1.00  0.00     0.167 HD
ATOM     76  C   UNL A   1      38.161  29.613  29.135  1.00  0.00     0.074 A 
ATOM     77  C   UNL A   1      37.988  29.061  27.806  1.00  0.00     0.031 C 
ATOM     78  C   UNL A   1      37.300  30.479  29.725  1.00  0.00     0.034 A 
BRANCH  65  79
ATOM     79  C   UNL A   1      38.802  32.024  35.520  1.00  0.00     0.023 A 
ATOM     80  C   UNL A   1      39.062  33.409  35.585  1.00  0.00     0.012 A 
ATOM     81  C   UNL A   1      38.158  31.392  36.599  1.00  0.00     0.148 A 
ATOM     82  C   UNL A   1      38.721  34.144  36.718  1.00  0.00     0.002 A 
ATOM     83  C   UNL A   1      37.778  32.141  37.708  1.00  0.00     0.091 A 
ATOM     84  F   UNL A   1      37.940  30.070  36.532  1.00  0.00    -0.205 F 
ATOM     85  C   UNL A   1      38.068  33.514  37.773  1.00  0.00     0.022 A 
BRANCH  83  86
ATOM     86  S   UNL A   1      36.859  31.434  39.080  1.00  0.00     0.127 S 
ATOM     87  O   UNL A   1      37.806  31.595  40.183  1.00  0.00    -0.237 OA
ATOM     88  O   UNL A   1      35.686  32.305  39.153  1.00  0.00    -0.237 OA
ATOM     89  O   UNL A   1      36.567  30.060  38.696  1.00  0.00    -0.744 OA
ENDBRANCH  83  86
ENDBRANCH  65  79
BRANCH  66  90
ATOM     90  C   UNL A   1      41.496  26.689  27.510  1.00  0.00     0.023 A 
ATOM     91  C   UNL A   1      42.108  27.358  26.434  1.00  0.00     0.012 A 
ATOM     92  C   UNL A   1      41.401  25.283  27.484  1.00  0.00     0.148 A 
ATOM     93  C   UNL A   1      42.615  26.642  25.347  1.00  0.00     0.002 A 
ATOM     94  C   UNL A   1      41.955  24.574  26.424  1.00  0.00     0.091 A 
ATOM     95  F   UNL A   1      40.812  24.669  28.519  1.00  0.00    -0.205 F 
ATOM     96  C   UNL A   1      42.551  25.252  25.350  1.00  0.00     0.022 A 
BRANCH  94  97
ATOM     97  S   UNL A   1      42.053  22.780  26.405  1.00  0.00     0.127 S 
ATOM     98  O   UNL A   1      42.648  22.527  25.095  1.00  0.00    -0.237 OA
ATOM     99  O   UNL A   1      42.933  22.518  27.544  1.00  0.00    -0.237 OA
ATOM    100  O   UNL A   1      40.687  22.306  26.575  1.00  0.00    -0.744 OA
ENDBRANCH  94  97
ENDBRANCH  66  90
BRANCH  78 101
ATOM    101  C   UNL A   1      36.090  30.921  28.946  1.00  0.00     0.023 A 
ATOM    102  C   UNL A   1      35.216  29.954  28.414  1.00  0.00     0.012 A 
ATOM    103  C   UNL A   1      35.745  32.285  28.872  1.00  0.00     0.148 A 
ATOM    104  C   UNL A   1      34.019  30.339  27.810  1.00  0.00     0.002 A 
ATOM    105  C   UNL A   1      34.531  32.658  28.310  1.00  0.00     0.091 A 
ATOM    106  F   UNL A   1      36.601  33.188  29.372  1.00  0.00    -0.205 F 
ATOM    107  C   UNL A   1      33.670  31.688  27.773  1.00  0.00     0.022 A 
BRANCH 105 108
ATOM    108  S   UNL A   1      33.948  34.359  28.310  1.00  0.00     0.127 S 
ATOM    109  O   UNL A   1      34.767  34.954  27.256  1.00  0.00    -0.237 OA
ATOM    110  O   UNL A   1      32.533  34.201  27.969  1.00  0.00    -0.237 OA
ATOM    111  O   UNL A   1      34.194  34.869  29.652  1.00  0.00    -0.744 OA
ENDBRANCH 105 108
ENDBRANCH  78 101
ENDBRANCH  52  53
ENDBRANCH  44  47
ENDBRANCH  42  43
ENDBRANCH  41  42
ENDBRANCH   1  41
TORSDOF 20
ENDMDL
MODEL 3
REMARK VINA RESULT:      -8.6      5.121     11.155
REMARK SMILES CC1CC[NH+]([C@H](c2ccc(F)cc2)c2ccc([C@@H](C)C(=O)NCCCCNC(=O)c3ccc(-c4c5nc(c(-c6cccc(S(=O)(=O)[O-])c6F)c6ccc([nH]6)c(-c6cccc(S(=O)(=O)[O-])c6F)c6nc(c(-c7cccc(S(=O)(=O)[O-])c7F)c7ccc4[nH]7)C=C6)C=C5)cc3)cc2-c2ccc(C(F)(F)F)cc2)CC1
REMARK SMILES IDX 24 1 23 2 22 3 20 4 21 5 18 7 19 8 17 9 14 10 15 11 94 12
REMARK SMILES IDX 16 13 93 14 6 15 5 16 1 17 2 18 3 19 106 20 4 21 105 22 7 24
REMARK SMILES IDX 8 25 13 26 9 27 12 28 10 29 11 30 95 31 96 32 104 33 97 34
REMARK SMILES IDX 103 35 98 36 99 37 100 38 101 39 102 40 25 41 26 42 27 43
REMARK SMILES IDX 28 44 29 46 30 47 31 48 92 49 32 50 91 51 33 52 34 53 35 54
REMARK SMILES IDX 85 55 36 56 90 57 84 58 86 59 37 60 89 61 83 62 82 63 38 65
REMARK SMILES IDX 70 66 50 67 69 68 51 69 54 70 68 71 87 72 52 73 53 74 67 76
REMARK SMILES IDX 88 77 55 78 39 79 40 80 48 81 41 82 43 83 49 84 42 85 44 86
REMARK SMILES IDX 45 87 46 88 47 89 71 90 72 91 80 92 73 93 75 94 81 95 74 96
REMARK SMILES IDX 76 97 77 98 78 99 79 100 56 101 57 102 65 103 58 104 60 105
REMARK SMILES IDX 66 106 59 107 61 108 62 109 63 110 64 111
REMARK H PARENT 22 6 5 23 27 45 86 64 54 75
REMARK Flexibility Score: inf
ROOT
ATOM      1  C   UNL A   1      48.110  26.651  31.428  1.00  0.00     0.023 C 
ENDROOT
BRANCH   1   2
ATOM      2  C   UNL A   1      48.210  26.442  29.912  1.00  0.00     0.116 C 
BRANCH   2   3
ATOM      3  N   UNL A   1      48.517  27.672  29.206  1.00  0.00    -0.356 N 
ATOM      4  C   UNL A   1      47.761  28.746  28.842  1.00  0.00     0.227 C 
ATOM      5  O   UNL A   1      48.344  29.629  28.198  1.00  0.00    -0.274 OA
ATOM      6  H   UNL A   1      49.461  27.746  28.936  1.00  0.00     0.163 HD
BRANCH   4   7
ATOM      7  C   UNL A   1      46.270  28.930  29.188  1.00  0.00     0.105 C 
ATOM      8  C   UNL A   1      45.327  28.740  28.002  1.00  0.00     0.023 C 
BRANCH   7   9
ATOM      9  C   UNL A   1      45.998  30.152  30.046  1.00  0.00    -0.035 A 
ATOM     10  C   UNL A   1      45.338  32.151  31.994  1.00  0.00     0.022 A 
ATOM     11  C   UNL A   1      46.622  31.595  31.877  1.00  0.00     0.011 A 
ATOM     12  C   UNL A   1      44.414  31.812  30.966  1.00  0.00    -0.009 A 
ATOM     13  C   UNL A   1      46.966  30.693  30.874  1.00  0.00     0.005 A 
ATOM     14  C   UNL A   1      44.735  30.757  30.071  1.00  0.00     0.013 A 
BRANCH  10  15
ATOM     15  C   UNL A   1      44.992  33.134  33.154  1.00  0.00     0.247 C 
BRANCH  15  16
ATOM     16  N   UNL A   1      45.016  34.608  32.869  1.00  0.00    -0.325 N 
ATOM     17  C   UNL A   1      44.070  38.304  30.670  1.00  0.00     0.008 C 
ATOM     18  C   UNL A   1      44.205  36.876  31.190  1.00  0.00    -0.003 C 
ATOM     19  C   UNL A   1      43.596  36.718  32.583  1.00  0.00     0.065 C 
ATOM     20  C   UNL A   1      45.668  36.467  31.289  1.00  0.00     0.065 C 
ATOM     21  C   UNL A   1      43.751  35.295  33.143  1.00  0.00     0.263 C 
ATOM     22  C   UNL A   1      45.774  34.996  31.677  1.00  0.00     0.263 C 
ATOM     23  H   UNL A   1      45.612  35.016  33.588  1.00  0.00     0.348 HD
ENDBRANCH  15  16
BRANCH  15  24
ATOM     24  C   UNL A   1      45.757  32.847  34.465  1.00  0.00     0.014 A 
ATOM     25  C   UNL A   1      45.389  31.797  35.331  1.00  0.00     0.013 A 
ATOM     26  C   UNL A   1      46.859  33.649  34.818  1.00  0.00     0.013 A 
ATOM     27  C   UNL A   1      46.103  31.556  36.508  1.00  0.00     0.040 A 
ATOM     28  C   UNL A   1      47.551  33.425  36.009  1.00  0.00     0.040 A 
ATOM     29  C   UNL A   1      47.171  32.379  36.839  1.00  0.00     0.123 A 
ATOM     30  F   UNL A   1      47.843  32.163  37.977  1.00  0.00    -0.207 F 
ENDBRANCH  15  24
ENDBRANCH  10  15
BRANCH  12  31
ATOM     31  C   UNL A   1      43.159  32.549  30.718  1.00  0.00    -0.018 A 
ATOM     32  C   UNL A   1      42.004  32.322  31.481  1.00  0.00     0.009 A 
ATOM     33  C   UNL A   1      43.078  33.462  29.652  1.00  0.00     0.009 A 
ATOM     34  C   UNL A   1      40.815  33.009  31.206  1.00  0.00     0.014 A 
ATOM     35  C   UNL A   1      41.896  34.154  29.379  1.00  0.00     0.014 A 
ATOM     36  C   UNL A   1      40.752  33.940  30.159  1.00  0.00     0.056 A 
BRANCH  36  37
ATOM     37  C   UNL A   1      39.467  34.670  29.863  1.00  0.00     0.416 C 
ATOM     38  F   UNL A   1      38.523  34.475  30.826  1.00  0.00    -0.166 F 
ATOM     39  F   UNL A   1      39.630  36.019  29.767  1.00  0.00    -0.166 F 
ATOM     40  F   UNL A   1      38.883  34.287  28.692  1.00  0.00    -0.166 F 
ENDBRANCH  36  37
ENDBRANCH  12  31
ENDBRANCH   7   9
ENDBRANCH   4   7
ENDBRANCH   2   3
ENDBRANCH   1   2
BRANCH   1  41
ATOM     41  C   UNL A   1      48.874  25.655  32.292  1.00  0.00     0.023 C 
BRANCH  41  42
ATOM     42  C   UNL A   1      48.112  25.121  33.498  1.00  0.00     0.116 C 
BRANCH  42  43
ATOM     43  N   UNL A   1      48.567  25.649  34.777  1.00  0.00    -0.352 N 
ATOM     44  C   UNL A   1      47.978  26.625  35.553  1.00  0.00     0.251 C 
ATOM     45  H   UNL A   1      49.400  25.261  35.132  1.00  0.00     0.163 HD
ATOM     46  O   UNL A   1      48.520  27.011  36.578  1.00  0.00    -0.269 OA
BRANCH  44  47
ATOM     47  C   UNL A   1      46.704  27.230  35.098  1.00  0.00     0.039 A 
ATOM     48  C   UNL A   1      46.753  28.359  34.277  1.00  0.00     0.014 A 
ATOM     49  C   UNL A   1      45.479  26.641  35.416  1.00  0.00     0.014 A 
ATOM     50  C   UNL A   1      45.574  28.844  33.706  1.00  0.00     0.010 A 
ATOM     51  C   UNL A   1      44.321  27.070  34.777  1.00  0.00     0.010 A 
ATOM     52  C   UNL A   1      44.356  28.173  33.913  1.00  0.00    -0.014 A 
BRANCH  52  53
ATOM     53  C   UNL A   1      43.119  28.586  33.205  1.00  0.00     0.031 A 
ATOM     54  C   UNL A   1      42.104  29.457  33.888  1.00  0.00     0.074 A 
ATOM     55  C   UNL A   1      42.870  28.100  31.972  1.00  0.00     0.049 A 
ATOM     56  N   UNL A   1      40.962  29.902  33.431  1.00  0.00    -0.248 NA
ATOM     57  C   UNL A   1      42.390  29.858  35.276  1.00  0.00     0.031 C 
ATOM     58  C   UNL A   1      43.730  27.167  31.244  1.00  0.00     0.029 A 
ATOM     59  N   UNL A   1      41.813  28.311  31.121  1.00  0.00    -0.354 N 
ATOM     60  C   UNL A   1      40.384  30.608  34.478  1.00  0.00     0.074 A 
ATOM     61  C   UNL A   1      41.275  30.493  35.610  1.00  0.00     0.031 C 
ATOM     62  C   UNL A   1      43.184  26.907  30.047  1.00  0.00     0.029 A 
ATOM     63  C   UNL A   1      41.923  27.632  29.930  1.00  0.00     0.049 A 
ATOM     64  H   UNL A   1      41.050  28.891  31.343  1.00  0.00     0.167 HD
ATOM     65  C   UNL A   1      39.234  31.322  34.486  1.00  0.00     0.034 A 
ATOM     66  C   UNL A   1      41.107  27.608  28.855  1.00  0.00     0.034 A 
ATOM     67  C   UNL A   1      38.378  31.473  33.341  1.00  0.00     0.049 A 
ATOM     68  C   UNL A   1      39.865  28.455  28.860  1.00  0.00     0.074 A 
ATOM     69  C   UNL A   1      37.239  32.249  33.219  1.00  0.00     0.029 A 
ATOM     70  N   UNL A   1      38.564  30.838  32.123  1.00  0.00    -0.354 N 
ATOM     71  N   UNL A   1      39.414  29.244  29.805  1.00  0.00    -0.248 NA
ATOM     72  C   UNL A   1      39.040  28.442  27.644  1.00  0.00     0.031 C 
ATOM     73  C   UNL A   1      36.728  32.072  31.929  1.00  0.00     0.029 A 
ATOM     74  C   UNL A   1      37.560  31.201  31.243  1.00  0.00     0.049 A 
ATOM     75  H   UNL A   1      39.301  30.221  31.915  1.00  0.00     0.167 HD
ATOM     76  C   UNL A   1      38.273  29.846  29.290  1.00  0.00     0.074 A 
ATOM     77  C   UNL A   1      38.107  29.338  27.943  1.00  0.00     0.031 C 
ATOM     78  C   UNL A   1      37.435  30.730  29.886  1.00  0.00     0.034 A 
BRANCH  65  79
ATOM     79  C   UNL A   1      38.877  32.060  35.749  1.00  0.00     0.023 A 
ATOM     80  C   UNL A   1      38.036  31.437  36.696  1.00  0.00     0.012 A 
ATOM     81  C   UNL A   1      39.412  33.330  36.032  1.00  0.00     0.148 A 
ATOM     82  C   UNL A   1      37.704  32.081  37.885  1.00  0.00     0.002 A 
ATOM     83  C   UNL A   1      39.113  33.948  37.242  1.00  0.00     0.091 A 
ATOM     84  F   UNL A   1      40.189  33.919  35.112  1.00  0.00    -0.205 F 
ATOM     85  C   UNL A   1      38.252  33.330  38.164  1.00  0.00     0.022 A 
BRANCH  83  86
ATOM     86  S   UNL A   1      39.837  35.519  37.726  1.00  0.00     0.127 S 
ATOM     87  O   UNL A   1      39.434  36.383  36.617  1.00  0.00    -0.237 OA
ATOM     88  O   UNL A   1      39.160  35.798  38.992  1.00  0.00    -0.237 OA
ATOM     89  O   UNL A   1      41.268  35.276  37.847  1.00  0.00    -0.744 OA
ENDBRANCH  83  86
ENDBRANCH  65  79
BRANCH  66  90
ATOM     90  C   UNL A   1      41.524  26.837  27.650  1.00  0.00     0.023 A 
ATOM     91  C   UNL A   1      42.209  27.503  26.617  1.00  0.00     0.012 A 
ATOM     92  C   UNL A   1      41.349  25.441  27.572  1.00  0.00     0.148 A 
ATOM     93  C   UNL A   1      42.710  26.795  25.523  1.00  0.00     0.002 A 
ATOM     94  C   UNL A   1      41.896  24.735  26.507  1.00  0.00     0.091 A 
ATOM     95  F   UNL A   1      40.691  24.829  28.567  1.00  0.00    -0.205 F 
ATOM     96  C   UNL A   1      42.565  25.412  25.476  1.00  0.00     0.022 A 
BRANCH  94  97
ATOM     97  S   UNL A   1      41.892  22.940  26.429  1.00  0.00     0.127 S 
ATOM     98  O   UNL A   1      42.643  22.692  25.201  1.00  0.00    -0.237 OA
ATOM     99  O   UNL A   1      42.593  22.587  27.663  1.00  0.00    -0.237 OA
ATOM    100  O   UNL A   1      40.490  22.548  26.397  1.00  0.00    -0.744 OA
ENDBRANCH  94  97
ENDBRANCH  66  90
BRANCH  78 101
ATOM    101  C   UNL A   1      36.259  31.241  29.096  1.00  0.00     0.023 A 
ATOM    102  C   UNL A   1      36.166  32.615  28.801  1.00  0.00     0.012 A 
ATOM    103  C   UNL A   1      35.333  30.344  28.528  1.00  0.00     0.148 A 
ATOM    104  C   UNL A   1      35.162  33.089  27.957  1.00  0.00     0.002 A 
ATOM    105  C   UNL A   1      34.364  30.818  27.653  1.00  0.00     0.091 A 
ATOM    106  F   UNL A   1      35.433  29.043  28.837  1.00  0.00    -0.205 F 
ATOM    107  C   UNL A   1      34.273  32.191  27.371  1.00  0.00     0.022 A 
BRANCH 105 108
ATOM    108  S   UNL A   1      33.242  29.725  26.770  1.00  0.00     0.127 S 
ATOM    109  O   UNL A   1      32.562  30.659  25.875  1.00  0.00    -0.237 OA
ATOM    110  O   UNL A   1      34.165  28.804  26.107  1.00  0.00    -0.237 OA
ATOM    111  O   UNL A   1      32.397  29.110  27.785  1.00  0.00    -0.744 OA
ENDBRANCH 105 108
ENDBRANCH  78 101
ENDBRANCH  52  53
ENDBRANCH  44  47
ENDBRANCH  42  43
ENDBRANCH  41  42
ENDBRANCH   1  41
TORSDOF 20
ENDMDL
