MODEL 1
REMARK VINA RESULT:     -13.2      0.000      0.000
REMARK SMILES Cc1cccc(N2CCN(c3ncc(NC(=O)c4ccccc4F)cc3C(=O)NCCCCNC(=O)c3ccc(-c4c5nc(c(-c6cccc(S(=O)(=O)[O-])c6F)c6ccc([nH]6)c(-c6cccc(S(=O)(=O)[O-])c6F)c6nc(c(-c7cccc(S(=O)(=O)[O-])c7F)c7ccc4[nH]7)C=C6)C=C5)cc3)C[C@@H]2C)c1
REMARK SMILES IDX 32 1 31 2 30 3 29 4 27 5 28 6 26 8 11 9 12 10 13 11 25 12
REMARK SMILES IDX 14 13 10 14 7 15 8 16 101 17 9 18 100 19 102 20 6 21 1 22
REMARK SMILES IDX 2 23 3 24 103 25 4 26 5 27 15 28 16 29 17 31 18 32 19 33
REMARK SMILES IDX 23 34 20 35 22 36 24 37 21 38 33 39 34 40 35 41 36 43 37 44
REMARK SMILES IDX 38 45 99 46 39 47 98 48 40 49 41 50 42 51 92 52 43 53 97 54
REMARK SMILES IDX 91 55 93 56 44 57 96 58 90 59 89 60 45 62 77 63 57 64 76 65
REMARK SMILES IDX 58 66 61 67 75 68 94 69 59 70 60 71 74 73 95 74 62 75 46 76
REMARK SMILES IDX 47 77 55 78 48 79 50 80 56 81 49 82 51 83 52 84 53 85 54 86
REMARK SMILES IDX 78 87 79 88 87 89 80 90 82 91 88 92 81 93 83 94 84 95 85 96
REMARK SMILES IDX 86 97 63 98 64 99 72 100 65 101 67 102 73 103 66 104 68 105
REMARK SMILES IDX 69 106 70 107 71 108
REMARK H PARENT 29 7 15 30 34 42 93 61 61 72
REMARK Flexibility Score: inf
ROOT
ATOM      1  C   UNL A   1      34.517  29.590  27.588  1.00  0.00     0.023 C 
ENDROOT
BRANCH   1   2
ATOM      2  C   UNL A   1      33.957  29.063  26.255  1.00  0.00     0.023 C 
BRANCH   2   3
ATOM      3  C   UNL A   1      33.922  27.529  26.097  1.00  0.00     0.116 C 
BRANCH   3   4
ATOM      4  N   UNL A   1      32.889  26.921  26.916  1.00  0.00    -0.352 N 
ATOM      5  C   UNL A   1      31.677  26.495  26.413  1.00  0.00     0.255 C 
ATOM      6  O   UNL A   1      30.673  27.146  26.689  1.00  0.00    -0.269 OA
ATOM      7  H   UNL A   1      33.061  26.807  27.879  1.00  0.00     0.163 HD
BRANCH   5   8
ATOM      8  C   UNL A   1      31.619  25.309  25.526  1.00  0.00     0.084 A 
ATOM      9  C   UNL A   1      31.226  25.379  24.178  1.00  0.00     0.141 A 
ATOM     10  N   UNL A   1      31.178  24.241  23.424  1.00  0.00    -0.236 NA
ATOM     11  C   UNL A   1      31.501  23.048  23.991  1.00  0.00     0.139 A 
ATOM     12  C   UNL A   1      31.935  24.061  26.073  1.00  0.00     0.045 A 
ATOM     13  C   UNL A   1      31.871  22.909  25.313  1.00  0.00     0.060 A 
BRANCH   9  14
ATOM     14  N   UNL A   1      30.738  26.520  23.581  1.00  0.00    -0.352 N 
ATOM     15  N   UNL A   1      29.605  28.980  22.716  1.00  0.00    -0.365 N 
ATOM     16  C   UNL A   1      28.776  27.988  23.426  1.00  0.00     0.138 C 
ATOM     17  C   UNL A   1      31.074  28.913  22.948  1.00  0.00     0.098 C 
ATOM     18  C   UNL A   1      29.319  26.560  23.206  1.00  0.00     0.139 C 
ATOM     19  C   UNL A   1      31.565  27.440  22.779  1.00  0.00     0.142 C 
ATOM     20  C   UNL A   1      31.418  29.493  24.326  1.00  0.00     0.033 C 
BRANCH  15  21
ATOM     21  C   UNL A   1      29.032  30.171  22.306  1.00  0.00     0.037 A 
ATOM     22  C   UNL A   1      29.106  33.841  23.357  1.00  0.00     0.044 C 
ATOM     23  C   UNL A   1      28.781  32.589  22.601  1.00  0.00    -0.049 A 
ATOM     24  C   UNL A   1      28.036  32.655  21.421  1.00  0.00     0.003 A 
ATOM     25  C   UNL A   1      29.255  31.345  23.040  1.00  0.00     0.029 A 
ATOM     26  C   UNL A   1      27.767  31.496  20.698  1.00  0.00     0.002 A 
ATOM     27  C   UNL A   1      28.268  30.268  21.136  1.00  0.00     0.026 A 
ENDBRANCH  15  21
ENDBRANCH   9  14
BRANCH  13  28
ATOM     28  N   UNL A   1      32.171  21.703  25.966  1.00  0.00    -0.320 N 
ATOM     29  C   UNL A   1      33.341  20.990  26.017  1.00  0.00     0.258 C 
ATOM     30  H   UNL A   1      31.423  21.306  26.466  1.00  0.00     0.170 HD
ATOM     31  O   UNL A   1      33.333  19.823  26.406  1.00  0.00    -0.269 OA
BRANCH  29  32
ATOM     32  C   UNL A   1      34.639  21.626  25.715  1.00  0.00     0.075 A 
ATOM     33  C   UNL A   1      35.386  21.128  24.643  1.00  0.00     0.017 A 
ATOM     34  C   UNL A   1      35.182  22.631  26.519  1.00  0.00     0.135 A 
ATOM     35  C   UNL A   1      36.629  21.688  24.340  1.00  0.00     0.001 A 
ATOM     36  C   UNL A   1      36.404  23.213  26.199  1.00  0.00     0.040 A 
ATOM     37  F   UNL A   1      34.569  23.042  27.638  1.00  0.00    -0.206 F 
ATOM     38  C   UNL A   1      37.126  22.745  25.104  1.00  0.00     0.003 A 
ENDBRANCH  29  32
ENDBRANCH  13  28
ENDBRANCH   5   8
ENDBRANCH   3   4
ENDBRANCH   2   3
ENDBRANCH   1   2
BRANCH   1  39
ATOM     39  C   UNL A   1      35.370  30.829  27.417  1.00  0.00     0.116 C 
BRANCH  39  40
ATOM     40  N   UNL A   1      34.701  31.997  27.956  1.00  0.00    -0.352 N 
ATOM     41  C   UNL A   1      34.748  32.538  29.212  1.00  0.00     0.251 C 
ATOM     42  H   UNL A   1      34.125  32.478  27.318  1.00  0.00     0.163 HD
ATOM     43  O   UNL A   1      33.698  33.048  29.629  1.00  0.00    -0.269 OA
BRANCH  41  44
ATOM     44  C   UNL A   1      36.016  32.696  29.956  1.00  0.00     0.039 A 
ATOM     45  C   UNL A   1      37.176  32.983  29.216  1.00  0.00     0.014 A 
ATOM     46  C   UNL A   1      36.140  32.253  31.266  1.00  0.00     0.014 A 
ATOM     47  C   UNL A   1      38.406  32.517  29.664  1.00  0.00     0.010 A 
ATOM     48  C   UNL A   1      37.354  31.884  31.751  1.00  0.00     0.010 A 
ATOM     49  C   UNL A   1      38.424  31.842  30.867  1.00  0.00    -0.014 A 
BRANCH  49  50
ATOM     50  C   UNL A   1      39.438  30.929  31.337  1.00  0.00     0.031 A 
ATOM     51  C   UNL A   1      39.513  29.634  30.668  1.00  0.00     0.074 A 
ATOM     52  C   UNL A   1      40.507  31.575  31.861  1.00  0.00     0.049 A 
ATOM     53  N   UNL A   1      40.474  28.805  30.833  1.00  0.00    -0.248 NA
ATOM     54  C   UNL A   1      38.497  29.179  29.722  1.00  0.00     0.031 C 
ATOM     55  C   UNL A   1      41.928  31.315  31.673  1.00  0.00     0.029 A 
ATOM     56  N   UNL A   1      40.500  32.693  32.688  1.00  0.00    -0.354 N 
ATOM     57  C   UNL A   1      40.402  27.918  29.784  1.00  0.00     0.074 A 
ATOM     58  C   UNL A   1      39.077  28.075  29.246  1.00  0.00     0.031 C 
ATOM     59  C   UNL A   1      42.633  32.066  32.543  1.00  0.00     0.029 A 
ATOM     60  C   UNL A   1      41.674  32.686  33.447  1.00  0.00     0.049 A 
ATOM     61  H   UNL A   1      39.790  33.373  32.731  1.00  0.00     0.167 HD
ATOM     62  C   UNL A   1      41.556  27.305  29.404  1.00  0.00     0.034 A 
ATOM     63  C   UNL A   1      41.559  32.372  34.777  1.00  0.00     0.034 A 
ATOM     64  C   UNL A   1      42.613  27.569  30.406  1.00  0.00     0.049 A 
ATOM     65  C   UNL A   1      42.062  30.965  35.095  1.00  0.00     0.074 A 
ATOM     66  C   UNL A   1      43.731  28.386  30.429  1.00  0.00     0.029 A 
ATOM     67  N   UNL A   1      42.374  27.212  31.735  1.00  0.00    -0.354 N 
ATOM     68  N   UNL A   1      42.466  30.098  34.202  1.00  0.00    -0.248 NA
ATOM     69  C   UNL A   1      42.198  30.444  36.450  1.00  0.00     0.031 C 
ATOM     70  C   UNL A   1      44.066  28.629  31.801  1.00  0.00     0.029 A 
ATOM     71  C   UNL A   1      43.186  27.924  32.610  1.00  0.00     0.049 A 
ATOM     72  H   UNL A   1      41.712  26.540  32.017  1.00  0.00     0.167 HD
ATOM     73  C   UNL A   1      42.769  28.900  34.790  1.00  0.00     0.074 A 
ATOM     74  C   UNL A   1      42.675  29.208  36.213  1.00  0.00     0.031 C 
ATOM     75  C   UNL A   1      43.021  27.760  34.063  1.00  0.00     0.034 A 
BRANCH  62  76
ATOM     76  C   UNL A   1      41.808  26.636  28.060  1.00  0.00     0.023 A 
ATOM     77  C   UNL A   1      41.851  27.484  26.931  1.00  0.00     0.012 A 
ATOM     78  C   UNL A   1      41.930  25.246  27.787  1.00  0.00     0.148 A 
ATOM     79  C   UNL A   1      42.001  26.996  25.626  1.00  0.00     0.002 A 
ATOM     80  C   UNL A   1      42.138  24.762  26.490  1.00  0.00     0.091 A 
ATOM     81  F   UNL A   1      41.768  24.349  28.759  1.00  0.00    -0.205 F 
ATOM     82  C   UNL A   1      42.160  25.636  25.404  1.00  0.00     0.022 A 
BRANCH  80  83
ATOM     83  S   UNL A   1      42.390  23.010  26.129  1.00  0.00     0.127 S 
ATOM     84  O   UNL A   1      43.321  22.610  27.184  1.00  0.00    -0.237 OA
ATOM     85  O   UNL A   1      41.040  22.464  26.273  1.00  0.00    -0.237 OA
ATOM     86  O   UNL A   1      42.929  22.938  24.776  1.00  0.00    -0.744 OA
ENDBRANCH  80  83
ENDBRANCH  62  76
BRANCH  63  87
ATOM     87  C   UNL A   1      40.355  33.059  35.376  1.00  0.00     0.023 A 
ATOM     88  C   UNL A   1      39.209  32.241  35.563  1.00  0.00     0.012 A 
ATOM     89  C   UNL A   1      40.502  34.201  36.190  1.00  0.00     0.148 A 
ATOM     90  C   UNL A   1      38.363  32.428  36.661  1.00  0.00     0.002 A 
ATOM     91  C   UNL A   1      39.644  34.386  37.279  1.00  0.00     0.091 A 
ATOM     92  F   UNL A   1      41.513  35.042  35.938  1.00  0.00    -0.205 F 
ATOM     93  C   UNL A   1      38.615  33.469  37.549  1.00  0.00     0.022 A 
BRANCH  91  94
ATOM     94  S   UNL A   1      39.901  35.725  38.454  1.00  0.00     0.127 S 
ATOM     95  O   UNL A   1      38.824  35.484  39.414  1.00  0.00    -0.237 OA
ATOM     96  O   UNL A   1      41.243  35.457  38.975  1.00  0.00    -0.237 OA
ATOM     97  O   UNL A   1      39.799  36.945  37.672  1.00  0.00    -0.744 OA
ENDBRANCH  91  94
ENDBRANCH  63  87
BRANCH  75  98
ATOM     98  C   UNL A   1      43.121  26.353  34.651  1.00  0.00     0.023 A 
ATOM     99  C   UNL A   1      41.990  25.596  35.010  1.00  0.00     0.012 A 
ATOM    100  C   UNL A   1      44.372  25.683  34.747  1.00  0.00     0.148 A 
ATOM    101  C   UNL A   1      42.088  24.293  35.516  1.00  0.00     0.002 A 
ATOM    102  C   UNL A   1      44.449  24.340  35.107  1.00  0.00     0.091 A 
ATOM    103  F   UNL A   1      45.513  26.346  34.518  1.00  0.00    -0.205 F 
ATOM    104  C   UNL A   1      43.316  23.654  35.538  1.00  0.00     0.022 A 
BRANCH 102 105
ATOM    105  S   UNL A   1      45.963  23.395  34.870  1.00  0.00     0.127 S 
ATOM    106  O   UNL A   1      46.728  23.747  36.063  1.00  0.00    -0.237 OA
ATOM    107  O   UNL A   1      45.467  22.017  34.849  1.00  0.00    -0.237 OA
ATOM    108  O   UNL A   1      46.507  23.851  33.598  1.00  0.00    -0.744 OA
ENDBRANCH 102 105
ENDBRANCH  75  98
ENDBRANCH  49  50
ENDBRANCH  41  44
ENDBRANCH  39  40
ENDBRANCH   1  39
TORSDOF 18
ENDMDL
MODEL 2
REMARK VINA RESULT:     -13.0      4.610      9.072
REMARK SMILES Cc1cccc(N2CCN(c3ncc(NC(=O)c4ccccc4F)cc3C(=O)NCCCCNC(=O)c3ccc(-c4c5nc(c(-c6cccc(S(=O)(=O)[O-])c6F)c6ccc([nH]6)c(-c6cccc(S(=O)(=O)[O-])c6F)c6nc(c(-c7cccc(S(=O)(=O)[O-])c7F)c7ccc4[nH]7)C=C6)C=C5)cc3)C[C@@H]2C)c1
REMARK SMILES IDX 32 1 31 2 30 3 29 4 27 5 28 6 26 8 11 9 12 10 13 11 25 12
REMARK SMILES IDX 14 13 10 14 7 15 8 16 101 17 9 18 100 19 102 20 6 21 1 22
REMARK SMILES IDX 2 23 3 24 103 25 4 26 5 27 15 28 16 29 17 31 18 32 19 33
REMARK SMILES IDX 23 34 20 35 22 36 24 37 21 38 33 39 34 40 35 41 36 43 37 44
REMARK SMILES IDX 38 45 99 46 39 47 98 48 40 49 41 50 42 51 92 52 43 53 97 54
REMARK SMILES IDX 91 55 93 56 44 57 96 58 90 59 89 60 45 62 77 63 57 64 76 65
REMARK SMILES IDX 58 66 61 67 75 68 94 69 59 70 60 71 74 73 95 74 62 75 46 76
REMARK SMILES IDX 47 77 55 78 48 79 50 80 56 81 49 82 51 83 52 84 53 85 54 86
REMARK SMILES IDX 78 87 79 88 87 89 80 90 82 91 88 92 81 93 83 94 84 95 85 96
REMARK SMILES IDX 86 97 63 98 64 99 72 100 65 101 67 102 73 103 66 104 68 105
REMARK SMILES IDX 69 106 70 107 71 108
REMARK H PARENT 29 7 15 30 34 42 93 61 61 72
REMARK Flexibility Score: inf
ROOT
ATOM      1  C   UNL A   1      34.448  29.083  27.262  1.00  0.00     0.023 C 
ENDROOT
BRANCH   1   2
ATOM      2  C   UNL A   1      34.306  28.830  25.750  1.00  0.00     0.023 C 
BRANCH   2   3
ATOM      3  C   UNL A   1      33.819  27.424  25.344  1.00  0.00     0.116 C 
BRANCH   3   4
ATOM      4  N   UNL A   1      32.973  26.826  26.362  1.00  0.00    -0.352 N 
ATOM      5  C   UNL A   1      31.690  26.385  26.116  1.00  0.00     0.255 C 
ATOM      6  O   UNL A   1      30.755  27.035  26.573  1.00  0.00    -0.269 OA
ATOM      7  H   UNL A   1      33.334  26.731  27.274  1.00  0.00     0.163 HD
BRANCH   5   8
ATOM      8  C   UNL A   1      31.469  25.182  25.279  1.00  0.00     0.084 A 
ATOM      9  C   UNL A   1      30.921  25.239  23.984  1.00  0.00     0.141 A 
ATOM     10  N   UNL A   1      30.728  24.086  23.277  1.00  0.00    -0.236 NA
ATOM     11  C   UNL A   1      31.058  22.893  23.838  1.00  0.00     0.139 A 
ATOM     12  C   UNL A   1      31.787  23.932  25.822  1.00  0.00     0.045 A 
ATOM     13  C   UNL A   1      31.576  22.767  25.111  1.00  0.00     0.060 A 
BRANCH   9  14
ATOM     14  N   UNL A   1      30.422  26.388  23.415  1.00  0.00    -0.352 N 
ATOM     15  N   UNL A   1      29.417  28.923  22.607  1.00  0.00    -0.365 N 
ATOM     16  C   UNL A   1      28.755  28.170  23.690  1.00  0.00     0.138 C 
ATOM     17  C   UNL A   1      30.849  28.609  22.353  1.00  0.00     0.098 C 
ATOM     18  C   UNL A   1      28.981  26.652  23.523  1.00  0.00     0.139 C 
ATOM     19  C   UNL A   1      31.039  27.062  22.257  1.00  0.00     0.142 C 
ATOM     20  C   UNL A   1      31.728  29.243  23.439  1.00  0.00     0.033 C 
BRANCH  15  21
ATOM     21  C   UNL A   1      28.909  30.154  22.231  1.00  0.00     0.037 A 
ATOM     22  C   UNL A   1      29.156  33.778  23.410  1.00  0.00     0.044 C 
ATOM     23  C   UNL A   1      28.778  32.570  22.608  1.00  0.00    -0.049 A 
ATOM     24  C   UNL A   1      28.052  32.715  21.422  1.00  0.00     0.003 A 
ATOM     25  C   UNL A   1      29.182  31.289  23.008  1.00  0.00     0.029 A 
ATOM     26  C   UNL A   1      27.734  31.596  20.657  1.00  0.00     0.002 A 
ATOM     27  C   UNL A   1      28.166  30.330  21.058  1.00  0.00     0.026 A 
ENDBRANCH  15  21
ENDBRANCH   9  14
BRANCH  13  28
ATOM     28  N   UNL A   1      31.892  21.563  25.760  1.00  0.00    -0.320 N 
ATOM     29  C   UNL A   1      33.089  20.903  25.869  1.00  0.00     0.258 C 
ATOM     30  H   UNL A   1      31.135  21.123  26.207  1.00  0.00     0.170 HD
ATOM     31  O   UNL A   1      33.112  19.730  26.237  1.00  0.00    -0.269 OA
BRANCH  29  32
ATOM     32  C   UNL A   1      34.372  21.604  25.656  1.00  0.00     0.075 A 
ATOM     33  C   UNL A   1      35.055  21.382  24.456  1.00  0.00     0.017 A 
ATOM     34  C   UNL A   1      34.965  22.392  26.646  1.00  0.00     0.135 A 
ATOM     35  C   UNL A   1      36.281  22.009  24.227  1.00  0.00     0.001 A 
ATOM     36  C   UNL A   1      36.170  23.043  26.407  1.00  0.00     0.040 A 
ATOM     37  F   UNL A   1      34.418  22.518  27.863  1.00  0.00    -0.206 F 
ATOM     38  C   UNL A   1      36.827  22.856  25.193  1.00  0.00     0.003 A 
ENDBRANCH  29  32
ENDBRANCH  13  28
ENDBRANCH   5   8
ENDBRANCH   3   4
ENDBRANCH   2   3
ENDBRANCH   1   2
BRANCH   1  39
ATOM     39  C   UNL A   1      35.480  30.141  27.586  1.00  0.00     0.116 C 
BRANCH  39  40
ATOM     40  N   UNL A   1      36.741  29.536  27.966  1.00  0.00    -0.352 N 
ATOM     41  C   UNL A   1      37.853  30.098  28.534  1.00  0.00     0.251 C 
ATOM     42  H   UNL A   1      36.809  28.569  27.789  1.00  0.00     0.163 HD
ATOM     43  O   UNL A   1      38.945  29.636  28.176  1.00  0.00    -0.269 OA
BRANCH  41  44
ATOM     44  C   UNL A   1      37.765  31.056  29.658  1.00  0.00     0.039 A 
ATOM     45  C   UNL A   1      37.661  32.422  29.345  1.00  0.00     0.014 A 
ATOM     46  C   UNL A   1      38.108  30.681  30.949  1.00  0.00     0.014 A 
ATOM     47  C   UNL A   1      38.212  33.364  30.204  1.00  0.00     0.010 A 
ATOM     48  C   UNL A   1      38.559  31.608  31.834  1.00  0.00     0.010 A 
ATOM     49  C   UNL A   1      38.784  32.897  31.369  1.00  0.00    -0.014 A 
BRANCH  49  50
ATOM     50  C   UNL A   1      39.754  33.574  32.195  1.00  0.00     0.031 A 
ATOM     51  C   UNL A   1      39.257  34.181  33.425  1.00  0.00     0.074 A 
ATOM     52  C   UNL A   1      40.998  33.057  32.052  1.00  0.00     0.049 A 
ATOM     53  N   UNL A   1      40.017  34.637  34.348  1.00  0.00    -0.248 NA
ATOM     54  C   UNL A   1      37.832  34.299  33.721  1.00  0.00     0.031 C 
ATOM     55  C   UNL A   1      41.990  32.740  33.072  1.00  0.00     0.029 A 
ATOM     56  N   UNL A   1      41.620  32.656  30.876  1.00  0.00    -0.354 N 
ATOM     57  C   UNL A   1      39.230  34.758  35.470  1.00  0.00     0.074 A 
ATOM     58  C   UNL A   1      37.876  34.719  34.988  1.00  0.00     0.031 C 
ATOM     59  C   UNL A   1      43.159  32.442  32.472  1.00  0.00     0.029 A 
ATOM     60  C   UNL A   1      43.004  32.746  31.057  1.00  0.00     0.049 A 
ATOM     61  H   UNL A   1      41.165  32.359  30.055  1.00  0.00     0.167 HD
ATOM     62  C   UNL A   1      39.851  34.685  36.679  1.00  0.00     0.034 A 
ATOM     63  C   UNL A   1      43.655  33.769  30.415  1.00  0.00     0.034 A 
ATOM     64  C   UNL A   1      41.318  34.735  36.489  1.00  0.00     0.049 A 
ATOM     65  C   UNL A   1      44.066  34.891  31.366  1.00  0.00     0.074 A 
ATOM     66  C   UNL A   1      42.328  33.791  36.559  1.00  0.00     0.029 A 
ATOM     67  N   UNL A   1      41.864  35.826  35.810  1.00  0.00    -0.354 N 
ATOM     68  N   UNL A   1      43.754  34.946  32.635  1.00  0.00    -0.248 NA
ATOM     69  C   UNL A   1      44.906  36.016  30.971  1.00  0.00     0.031 C 
ATOM     70  C   UNL A   1      43.432  34.274  35.786  1.00  0.00     0.029 A 
ATOM     71  C   UNL A   1      43.117  35.530  35.288  1.00  0.00     0.049 A 
ATOM     72  H   UNL A   1      41.416  36.698  35.713  1.00  0.00     0.167 HD
ATOM     73  C   UNL A   1      44.190  36.116  33.193  1.00  0.00     0.074 A 
ATOM     74  C   UNL A   1      44.990  36.703  32.125  1.00  0.00     0.031 C 
ATOM     75  C   UNL A   1      43.819  36.519  34.456  1.00  0.00     0.034 A 
BRANCH  62  76
ATOM     76  C   UNL A   1      39.177  34.377  38.009  1.00  0.00     0.023 A 
ATOM     77  C   UNL A   1      39.545  35.185  39.106  1.00  0.00     0.012 A 
ATOM     78  C   UNL A   1      38.273  33.319  38.302  1.00  0.00     0.148 A 
ATOM     79  C   UNL A   1      39.060  34.965  40.402  1.00  0.00     0.002 A 
ATOM     80  C   UNL A   1      37.742  33.134  39.585  1.00  0.00     0.091 A 
ATOM     81  F   UNL A   1      37.964  32.415  37.374  1.00  0.00    -0.205 F 
ATOM     82  C   UNL A   1      38.146  33.949  40.642  1.00  0.00     0.022 A 
BRANCH  80  83
ATOM     83  S   UNL A   1      36.522  31.857  39.963  1.00  0.00     0.127 S 
ATOM     84  O   UNL A   1      37.269  30.629  39.694  1.00  0.00    -0.237 OA
ATOM     85  O   UNL A   1      36.245  32.100  41.380  1.00  0.00    -0.237 OA
ATOM     86  O   UNL A   1      35.387  32.092  39.079  1.00  0.00    -0.744 OA
ENDBRANCH  80  83
ENDBRANCH  62  76
BRANCH  63  87
ATOM     87  C   UNL A   1      43.133  33.921  29.006  1.00  0.00     0.023 A 
ATOM     88  C   UNL A   1      42.267  35.026  28.787  1.00  0.00     0.012 A 
ATOM     89  C   UNL A   1      43.848  33.403  27.908  1.00  0.00     0.148 A 
ATOM     90  C   UNL A   1      42.284  35.724  27.575  1.00  0.00     0.002 A 
ATOM     91  C   UNL A   1      43.851  34.102  26.696  1.00  0.00     0.091 A 
ATOM     92  F   UNL A   1      44.570  32.289  28.080  1.00  0.00    -0.205 F 
ATOM     93  C   UNL A   1      43.118  35.292  26.549  1.00  0.00     0.022 A 
BRANCH  91  94
ATOM     94  S   UNL A   1      44.891  33.585  25.321  1.00  0.00     0.127 S 
ATOM     95  O   UNL A   1      44.157  34.126  24.178  1.00  0.00    -0.237 OA
ATOM     96  O   UNL A   1      46.162  34.259  25.594  1.00  0.00    -0.237 OA
ATOM     97  O   UNL A   1      44.954  32.137  25.414  1.00  0.00    -0.744 OA
ENDBRANCH  91  94
ENDBRANCH  63  87
BRANCH  75  98
ATOM     98  C   UNL A   1      44.068  37.911  35.036  1.00  0.00     0.023 A 
ATOM     99  C   UNL A   1      44.858  38.129  36.180  1.00  0.00     0.012 A 
ATOM    100  C   UNL A   1      43.613  39.080  34.366  1.00  0.00     0.148 A 
ATOM    101  C   UNL A   1      45.111  39.411  36.686  1.00  0.00     0.002 A 
ATOM    102  C   UNL A   1      43.991  40.352  34.787  1.00  0.00     0.091 A 
ATOM    103  F   UNL A   1      42.777  38.978  33.323  1.00  0.00    -0.205 F 
ATOM    104  C   UNL A   1      44.700  40.525  35.972  1.00  0.00     0.022 A 
BRANCH 102 105
ATOM    105  S   UNL A   1      43.736  41.796  33.743  1.00  0.00     0.127 S 
ATOM    106  O   UNL A   1      44.411  42.843  34.506  1.00  0.00    -0.237 OA
ATOM    107  O   UNL A   1      44.417  41.408  32.506  1.00  0.00    -0.237 OA
ATOM    108  O   UNL A   1      42.291  41.925  33.611  1.00  0.00    -0.744 OA
ENDBRANCH 102 105
ENDBRANCH  75  98
ENDBRANCH  49  50
ENDBRANCH  41  44
ENDBRANCH  39  40
ENDBRANCH   1  39
TORSDOF 18
ENDMDL
MODEL 3
REMARK VINA RESULT:     -12.1      3.408      8.450
REMARK SMILES Cc1cccc(N2CCN(c3ncc(NC(=O)c4ccccc4F)cc3C(=O)NCCCCNC(=O)c3ccc(-c4c5nc(c(-c6cccc(S(=O)(=O)[O-])c6F)c6ccc([nH]6)c(-c6cccc(S(=O)(=O)[O-])c6F)c6nc(c(-c7cccc(S(=O)(=O)[O-])c7F)c7ccc4[nH]7)C=C6)C=C5)cc3)C[C@@H]2C)c1
REMARK SMILES IDX 32 1 31 2 30 3 29 4 27 5 28 6 26 8 11 9 12 10 13 11 25 12
REMARK SMILES IDX 14 13 10 14 7 15 8 16 101 17 9 18 100 19 102 20 6 21 1 22
REMARK SMILES IDX 2 23 3 24 103 25 4 26 5 27 15 28 16 29 17 31 18 32 19 33
REMARK SMILES IDX 23 34 20 35 22 36 24 37 21 38 33 39 34 40 35 41 36 43 37 44
REMARK SMILES IDX 38 45 99 46 39 47 98 48 40 49 41 50 42 51 92 52 43 53 97 54
REMARK SMILES IDX 91 55 93 56 44 57 96 58 90 59 89 60 45 62 77 63 57 64 76 65
REMARK SMILES IDX 58 66 61 67 75 68 94 69 59 70 60 71 74 73 95 74 62 75 46 76
REMARK SMILES IDX 47 77 55 78 48 79 50 80 56 81 49 82 51 83 52 84 53 85 54 86
REMARK SMILES IDX 78 87 79 88 87 89 80 90 82 91 88 92 81 93 83 94 84 95 85 96
REMARK SMILES IDX 86 97 63 98 64 99 72 100 65 101 67 102 73 103 66 104 68 105
REMARK SMILES IDX 69 106 70 107 71 108
REMARK H PARENT 29 7 15 30 34 42 93 61 61 72
REMARK Flexibility Score: inf
ROOT
ATOM      1  C   UNL A   1      33.525  28.535  27.607  1.00  0.00     0.023 C 
ENDROOT
BRANCH   1   2
ATOM      2  C   UNL A   1      32.007  28.571  27.352  1.00  0.00     0.023 C 
BRANCH   2   3
ATOM      3  C   UNL A   1      31.470  27.551  26.327  1.00  0.00     0.116 C 
BRANCH   3   4
ATOM      4  N   UNL A   1      30.873  26.395  26.971  1.00  0.00    -0.352 N 
ATOM      5  C   UNL A   1      30.078  25.484  26.306  1.00  0.00     0.255 C 
ATOM      6  O   UNL A   1      28.873  25.486  26.538  1.00  0.00    -0.269 OA
ATOM      7  H   UNL A   1      31.043  26.253  27.931  1.00  0.00     0.163 HD
BRANCH   5   8
ATOM      8  C   UNL A   1      30.679  24.570  25.306  1.00  0.00     0.084 A 
ATOM      9  C   UNL A   1      30.861  24.923  23.956  1.00  0.00     0.141 A 
ATOM     10  N   UNL A   1      31.404  24.021  23.085  1.00  0.00    -0.236 NA
ATOM     11  C   UNL A   1      31.754  22.786  23.532  1.00  0.00     0.139 A 
ATOM     12  C   UNL A   1      31.045  23.285  25.722  1.00  0.00     0.045 A 
ATOM     13  C   UNL A   1      31.580  22.370  24.837  1.00  0.00     0.060 A 
BRANCH   9  14
ATOM     14  N   UNL A   1      30.390  26.091  23.401  1.00  0.00    -0.352 N 
ATOM     15  N   UNL A   1      29.443  28.657  22.625  1.00  0.00    -0.365 N 
ATOM     16  C   UNL A   1      28.752  27.898  23.685  1.00  0.00     0.138 C 
ATOM     17  C   UNL A   1      30.872  28.322  22.385  1.00  0.00     0.098 C 
ATOM     18  C   UNL A   1      28.953  26.380  23.494  1.00  0.00     0.139 C 
ATOM     19  C   UNL A   1      31.035  26.773  22.264  1.00  0.00     0.142 C 
ATOM     20  C   UNL A   1      31.747  28.920  23.494  1.00  0.00     0.033 C 
BRANCH  15  21
ATOM     21  C   UNL A   1      28.963  29.905  22.265  1.00  0.00     0.037 A 
ATOM     22  C   UNL A   1      29.258  33.501  23.513  1.00  0.00     0.044 C 
ATOM     23  C   UNL A   1      28.869  32.315  22.683  1.00  0.00    -0.049 A 
ATOM     24  C   UNL A   1      28.164  32.495  21.490  1.00  0.00     0.003 A 
ATOM     25  C   UNL A   1      29.245  31.020  23.066  1.00  0.00     0.029 A 
ATOM     26  C   UNL A   1      27.838  31.396  20.700  1.00  0.00     0.002 A 
ATOM     27  C   UNL A   1      28.241  30.115  21.084  1.00  0.00     0.026 A 
ENDBRANCH  15  21
ENDBRANCH   9  14
BRANCH  13  28
ATOM     28  N   UNL A   1      31.879  21.097  25.346  1.00  0.00    -0.320 N 
ATOM     29  C   UNL A   1      33.087  20.470  25.513  1.00  0.00     0.258 C 
ATOM     30  H   UNL A   1      31.098  20.570  25.626  1.00  0.00     0.170 HD
ATOM     31  O   UNL A   1      33.128  19.257  25.713  1.00  0.00    -0.269 OA
BRANCH  29  32
ATOM     32  C   UNL A   1      34.347  21.239  25.566  1.00  0.00     0.075 A 
ATOM     33  C   UNL A   1      35.360  20.912  24.658  1.00  0.00     0.017 A 
ATOM     34  C   UNL A   1      34.593  22.201  26.548  1.00  0.00     0.135 A 
ATOM     35  C   UNL A   1      36.574  21.601  24.691  1.00  0.00     0.001 A 
ATOM     36  C   UNL A   1      35.789  22.911  26.562  1.00  0.00     0.040 A 
ATOM     37  F   UNL A   1      33.710  22.447  27.526  1.00  0.00    -0.206 F 
ATOM     38  C   UNL A   1      36.779  22.615  25.628  1.00  0.00     0.003 A 
ENDBRANCH  29  32
ENDBRANCH  13  28
ENDBRANCH   5   8
ENDBRANCH   3   4
ENDBRANCH   2   3
ENDBRANCH   1   2
BRANCH   1  39
ATOM     39  C   UNL A   1      34.319  29.218  26.514  1.00  0.00     0.116 C 
BRANCH  39  40
ATOM     40  N   UNL A   1      34.817  30.503  26.961  1.00  0.00    -0.352 N 
ATOM     41  C   UNL A   1      35.584  30.822  28.049  1.00  0.00     0.251 C 
ATOM     42  H   UNL A   1      34.566  31.267  26.392  1.00  0.00     0.163 HD
ATOM     43  O   UNL A   1      35.343  31.910  28.591  1.00  0.00    -0.269 OA
BRANCH  41  44
ATOM     44  C   UNL A   1      36.765  30.023  28.442  1.00  0.00     0.039 A 
ATOM     45  C   UNL A   1      36.883  29.651  29.793  1.00  0.00     0.014 A 
ATOM     46  C   UNL A   1      37.875  29.928  27.615  1.00  0.00     0.014 A 
ATOM     47  C   UNL A   1      38.144  29.518  30.358  1.00  0.00     0.010 A 
ATOM     48  C   UNL A   1      39.106  29.702  28.144  1.00  0.00     0.010 A 
ATOM     49  C   UNL A   1      39.230  29.699  29.527  1.00  0.00    -0.014 A 
BRANCH  49  50
ATOM     50  C   UNL A   1      40.581  30.022  29.918  1.00  0.00     0.031 A 
ATOM     51  C   UNL A   1      40.817  31.380  30.395  1.00  0.00     0.074 A 
ATOM     52  C   UNL A   1      41.262  28.935  30.355  1.00  0.00     0.049 A 
ATOM     53  N   UNL A   1      41.903  31.756  30.958  1.00  0.00    -0.248 NA
ATOM     54  C   UNL A   1      39.812  32.434  30.289  1.00  0.00     0.031 C 
ATOM     55  C   UNL A   1      42.137  28.797  31.512  1.00  0.00     0.029 A 
ATOM     56  N   UNL A   1      41.252  27.654  29.815  1.00  0.00    -0.354 N 
ATOM     57  C   UNL A   1      41.616  32.939  31.599  1.00  0.00     0.074 A 
ATOM     58  C   UNL A   1      40.388  33.401  31.007  1.00  0.00     0.031 C 
ATOM     59  C   UNL A   1      42.764  27.605  31.449  1.00  0.00     0.029 A 
ATOM     60  C   UNL A   1      42.455  27.026  30.151  1.00  0.00     0.049 A 
ATOM     61  H   UNL A   1      40.522  27.257  29.287  1.00  0.00     0.167 HD
ATOM     62  C   UNL A   1      42.373  33.263  32.682  1.00  0.00     0.034 A 
ATOM     63  C   UNL A   1      43.374  26.856  29.146  1.00  0.00     0.034 A 
ATOM     64  C   UNL A   1      43.529  32.343  32.774  1.00  0.00     0.049 A 
ATOM     65  C   UNL A   1      44.550  27.825  29.256  1.00  0.00     0.074 A 
ATOM     66  C   UNL A   1      43.843  31.273  33.594  1.00  0.00     0.029 A 
ATOM     67  N   UNL A   1      44.392  32.250  31.679  1.00  0.00    -0.354 N 
ATOM     68  N   UNL A   1      44.644  28.788  30.137  1.00  0.00    -0.248 NA
ATOM     69  C   UNL A   1      45.737  27.752  28.412  1.00  0.00     0.031 C 
ATOM     70  C   UNL A   1      44.800  30.460  32.905  1.00  0.00     0.029 A 
ATOM     71  C   UNL A   1      45.106  31.058  31.691  1.00  0.00     0.049 A 
ATOM     72  H   UNL A   1      44.483  32.943  30.985  1.00  0.00     0.167 HD
ATOM     73  C   UNL A   1      45.768  29.537  29.922  1.00  0.00     0.074 A 
ATOM     74  C   UNL A   1      46.464  28.780  28.887  1.00  0.00     0.031 C 
ATOM     75  C   UNL A   1      46.002  30.727  30.572  1.00  0.00     0.034 A 
BRANCH  62  76
ATOM     76  C   UNL A   1      41.993  34.260  33.768  1.00  0.00     0.023 A 
ATOM     77  C   UNL A   1      40.614  34.433  34.012  1.00  0.00     0.012 A 
ATOM     78  C   UNL A   1      42.859  35.102  34.518  1.00  0.00     0.148 A 
ATOM     79  C   UNL A   1      40.121  35.372  34.929  1.00  0.00     0.002 A 
ATOM     80  C   UNL A   1      42.372  35.998  35.477  1.00  0.00     0.091 A 
ATOM     81  F   UNL A   1      44.168  35.120  34.271  1.00  0.00    -0.205 F 
ATOM     82  C   UNL A   1      40.999  36.145  35.675  1.00  0.00     0.022 A 
BRANCH  80  83
ATOM     83  S   UNL A   1      43.454  37.011  36.510  1.00  0.00     0.127 S 
ATOM     84  O   UNL A   1      43.806  38.105  35.604  1.00  0.00    -0.237 OA
ATOM     85  O   UNL A   1      42.568  37.395  37.609  1.00  0.00    -0.237 OA
ATOM     86  O   UNL A   1      44.569  36.158  36.904  1.00  0.00    -0.744 OA
ENDBRANCH  80  83
ENDBRANCH  62  76
BRANCH  63  87
ATOM     87  C   UNL A   1      42.690  26.403  27.879  1.00  0.00     0.023 A 
ATOM     88  C   UNL A   1      42.693  27.338  26.810  1.00  0.00     0.012 A 
ATOM     89  C   UNL A   1      42.569  25.033  27.569  1.00  0.00     0.148 A 
ATOM     90  C   UNL A   1      42.798  26.912  25.482  1.00  0.00     0.002 A 
ATOM     91  C   UNL A   1      42.664  24.617  26.237  1.00  0.00     0.091 A 
ATOM     92  F   UNL A   1      42.442  24.158  28.574  1.00  0.00    -0.205 F 
ATOM     93  C   UNL A   1      42.839  25.550  25.202  1.00  0.00     0.022 A 
BRANCH  91  94
ATOM     94  S   UNL A   1      42.700  22.870  25.804  1.00  0.00     0.127 S 
ATOM     95  O   UNL A   1      41.311  22.480  26.039  1.00  0.00    -0.237 OA
ATOM     96  O   UNL A   1      43.091  22.887  24.393  1.00  0.00    -0.237 OA
ATOM     97  O   UNL A   1      43.690  22.278  26.688  1.00  0.00    -0.744 OA
ENDBRANCH  91  94
ENDBRANCH  63  87
BRANCH  75  98
ATOM     98  C   UNL A   1      47.101  31.721  30.202  1.00  0.00     0.023 A 
ATOM     99  C   UNL A   1      48.312  31.819  30.915  1.00  0.00     0.012 A 
ATOM    100  C   UNL A   1      47.009  32.518  29.028  1.00  0.00     0.148 A 
ATOM    101  C   UNL A   1      49.330  32.709  30.549  1.00  0.00     0.002 A 
ATOM    102  C   UNL A   1      48.083  33.287  28.586  1.00  0.00     0.091 A 
ATOM    103  F   UNL A   1      45.864  32.566  28.333  1.00  0.00    -0.205 F 
ATOM    104  C   UNL A   1      49.227  33.424  29.367  1.00  0.00     0.022 A 
BRANCH 102 105
ATOM    105  S   UNL A   1      48.109  33.991  26.929  1.00  0.00     0.127 S 
ATOM    106  O   UNL A   1      47.857  32.816  26.099  1.00  0.00    -0.237 OA
ATOM    107  O   UNL A   1      47.002  34.948  26.982  1.00  0.00    -0.237 OA
ATOM    108  O   UNL A   1      49.422  34.607  26.793  1.00  0.00    -0.744 OA
ENDBRANCH 102 105
ENDBRANCH  75  98
ENDBRANCH  49  50
ENDBRANCH  41  44
ENDBRANCH  39  40
ENDBRANCH   1  39
TORSDOF 18
ENDMDL
