MODEL 1
REMARK VINA RESULT:     -12.9      0.000      0.000
REMARK SMILES O=C(CCC(=O)Nc1ccc2nc(-c3ccccc3)oc2c1)NCCCCNC(=O)c1ccc(-c2c3nc(c(-c4cccc(S(=O)(=O)[O-])c4F)c4ccc([nH]4)c(-c4cccc(S(=O)(=O)[O-])c4F)c4nc(c(-c5cccc(S(=O)(=O)[O-])c5F)c5ccc2[nH]5)C=C4)C=C3)cc1
REMARK SMILES IDX 25 1 24 2 23 3 1 4 2 5 3 7 4 8 5 9 6 10 7 11 8 13 9 14 22 15
REMARK SMILES IDX 10 16 21 17 11 18 20 19 12 20 13 21 14 22 15 23 19 24 16 25
REMARK SMILES IDX 18 26 17 27 26 28 27 29 28 30 29 31 30 33 31 34 32 35 93 36
REMARK SMILES IDX 33 37 92 38 34 39 35 40 36 41 86 42 37 43 91 44 85 45 87 46
REMARK SMILES IDX 38 47 90 48 84 49 83 50 39 52 71 53 51 54 70 55 52 56 55 57
REMARK SMILES IDX 69 58 88 59 53 60 54 61 68 63 89 64 56 65 40 66 41 67 49 68
REMARK SMILES IDX 42 69 44 70 50 71 43 72 45 73 46 74 47 75 48 76 72 77 73 78
REMARK SMILES IDX 81 79 74 80 76 81 82 82 75 83 77 84 78 85 79 86 80 87 57 88
REMARK SMILES IDX 58 89 66 90 59 91 61 92 67 93 60 94 62 95 63 96 64 97 65 98
REMARK H PARENT 23 6 7 12 28 32 87 51 55 62
REMARK Flexibility Score: inf
ROOT
ATOM      1  C   UNL A   1      35.544  23.415  25.595  1.00  0.00     0.023 C 
ENDROOT
BRANCH   1   2
ATOM      2  C   UNL A   1      34.899  24.275  24.515  1.00  0.00     0.116 C 
BRANCH   2   3
ATOM      3  N   UNL A   1      34.424  25.568  24.978  1.00  0.00    -0.356 N 
ATOM      4  O   UNL A   1      33.702  26.322  22.927  1.00  0.00    -0.275 OA
ATOM      5  C   UNL A   1      33.757  26.442  24.148  1.00  0.00     0.220 C 
ATOM      6  H   UNL A   1      34.583  25.827  25.914  1.00  0.00     0.163 HD
BRANCH   5   7
ATOM      7  C   UNL A   1      33.000  27.541  24.867  1.00  0.00     0.110 C 
BRANCH   7   8
ATOM      8  C   UNL A   1      32.916  27.368  26.384  1.00  0.00     0.110 C 
BRANCH   8   9
ATOM      9  C   UNL A   1      31.515  27.157  26.908  1.00  0.00     0.224 C 
ATOM     10  O   UNL A   1      31.148  27.797  27.900  1.00  0.00    -0.275 OA
ATOM     11  N   UNL A   1      30.612  26.283  26.381  1.00  0.00    -0.326 N 
ATOM     12  H   UNL A   1      29.689  26.470  26.667  1.00  0.00     0.169 HD
BRANCH  11  13
ATOM     13  C   UNL A   1      30.700  25.170  25.519  1.00  0.00     0.045 A 
ATOM     14  C   UNL A   1      30.342  25.196  24.167  1.00  0.00     0.028 A 
ATOM     15  C   UNL A   1      31.319  24.017  26.049  1.00  0.00     0.075 A 
ATOM     16  C   UNL A   1      30.737  24.198  23.268  1.00  0.00     0.034 A 
ATOM     17  C   UNL A   1      31.649  23.015  25.136  1.00  0.00     0.157 A 
ATOM     18  C   UNL A   1      31.425  23.106  23.772  1.00  0.00     0.110 A 
ATOM     19  O   UNL A   1      32.227  21.794  25.372  1.00  0.00    -0.436 OA
ATOM     20  N   UNL A   1      31.931  22.022  23.129  1.00  0.00    -0.209 NA
ATOM     21  C   UNL A   1      32.335  21.249  24.115  1.00  0.00     0.227 A 
BRANCH  21  22
ATOM     22  C   UNL A   1      32.668  19.844  23.996  1.00  0.00     0.037 A 
ATOM     23  C   UNL A   1      33.667  19.293  24.808  1.00  0.00     0.014 A 
ATOM     24  C   UNL A   1      32.182  19.112  22.905  1.00  0.00     0.014 A 
ATOM     25  C   UNL A   1      34.200  18.038  24.512  1.00  0.00     0.001 A 
ATOM     26  C   UNL A   1      32.729  17.865  22.601  1.00  0.00     0.001 A 
ATOM     27  C   UNL A   1      33.743  17.335  23.397  1.00  0.00     0.000 A 
ENDBRANCH  21  22
ENDBRANCH  11  13
ENDBRANCH   8   9
ENDBRANCH   7   8
ENDBRANCH   5   7
ENDBRANCH   2   3
ENDBRANCH   1   2
BRANCH   1  28
ATOM     28  C   UNL A   1      35.917  21.994  25.168  1.00  0.00     0.023 C 
BRANCH  28  29
ATOM     29  C   UNL A   1      37.307  21.831  24.556  1.00  0.00     0.116 C 
BRANCH  29  30
ATOM     30  N   UNL A   1      38.058  20.722  25.132  1.00  0.00    -0.352 N 
ATOM     31  C   UNL A   1      39.175  20.739  25.936  1.00  0.00     0.251 C 
ATOM     32  H   UNL A   1      37.714  19.827  24.912  1.00  0.00     0.163 HD
ATOM     33  O   UNL A   1      39.759  19.684  26.189  1.00  0.00    -0.269 OA
BRANCH  31  34
ATOM     34  C   UNL A   1      39.698  22.015  26.476  1.00  0.00     0.039 A 
ATOM     35  C   UNL A   1      40.775  21.985  27.368  1.00  0.00     0.014 A 
ATOM     36  C   UNL A   1      39.135  23.240  26.113  1.00  0.00     0.014 A 
ATOM     37  C   UNL A   1      41.340  23.182  27.820  1.00  0.00     0.010 A 
ATOM     38  C   UNL A   1      39.752  24.431  26.495  1.00  0.00     0.010 A 
ATOM     39  C   UNL A   1      40.864  24.418  27.350  1.00  0.00    -0.014 A 
BRANCH  39  40
ATOM     40  C   UNL A   1      41.533  25.697  27.715  1.00  0.00     0.031 A 
ATOM     41  C   UNL A   1      40.787  26.769  28.465  1.00  0.00     0.074 A 
ATOM     42  C   UNL A   1      42.792  25.936  27.290  1.00  0.00     0.049 A 
ATOM     43  N   UNL A   1      41.186  27.967  28.809  1.00  0.00    -0.248 NA
ATOM     44  C   UNL A   1      39.400  26.467  28.857  1.00  0.00     0.031 C 
ATOM     45  C   UNL A   1      43.602  25.018  26.486  1.00  0.00     0.029 A 
ATOM     46  N   UNL A   1      43.601  27.035  27.450  1.00  0.00    -0.354 N 
ATOM     47  C   UNL A   1      40.097  28.571  29.426  1.00  0.00     0.074 A 
ATOM     48  C   UNL A   1      39.008  27.621  29.376  1.00  0.00     0.031 C 
ATOM     49  C   UNL A   1      44.788  25.589  26.225  1.00  0.00     0.029 A 
ATOM     50  C   UNL A   1      44.814  26.926  26.809  1.00  0.00     0.049 A 
ATOM     51  H   UNL A   1      43.337  27.826  27.973  1.00  0.00     0.167 HD
ATOM     52  C   UNL A   1      40.015  29.792  30.008  1.00  0.00     0.034 A 
ATOM     53  C   UNL A   1      45.828  27.805  26.689  1.00  0.00     0.034 A 
ATOM     54  C   UNL A   1      41.108  30.726  30.085  1.00  0.00     0.049 A 
ATOM     55  C   UNL A   1      45.724  29.146  27.366  1.00  0.00     0.074 A 
ATOM     56  C   UNL A   1      41.147  31.952  30.724  1.00  0.00     0.029 A 
ATOM     57  N   UNL A   1      42.349  30.545  29.495  1.00  0.00    -0.354 N 
ATOM     58  N   UNL A   1      44.740  29.636  28.078  1.00  0.00    -0.248 NA
ATOM     59  C   UNL A   1      46.885  30.041  27.254  1.00  0.00     0.031 C 
ATOM     60  C   UNL A   1      42.400  32.528  30.492  1.00  0.00     0.029 A 
ATOM     61  C   UNL A   1      43.157  31.642  29.743  1.00  0.00     0.049 A 
ATOM     62  H   UNL A   1      42.617  29.753  28.975  1.00  0.00     0.167 HD
ATOM     63  C   UNL A   1      45.174  30.878  28.528  1.00  0.00     0.074 A 
ATOM     64  C   UNL A   1      46.520  31.055  28.026  1.00  0.00     0.031 C 
ATOM     65  C   UNL A   1      44.513  31.791  29.280  1.00  0.00     0.034 A 
BRANCH  52  66
ATOM     66  C   UNL A   1      38.707  30.174  30.653  1.00  0.00     0.023 A 
ATOM     67  C   UNL A   1      38.463  29.820  31.997  1.00  0.00     0.012 A 
ATOM     68  C   UNL A   1      37.745  30.930  29.955  1.00  0.00     0.148 A 
ATOM     69  C   UNL A   1      37.269  30.174  32.621  1.00  0.00     0.002 A 
ATOM     70  C   UNL A   1      36.577  31.322  30.600  1.00  0.00     0.091 A 
ATOM     71  F   UNL A   1      37.985  31.245  28.675  1.00  0.00    -0.205 F 
ATOM     72  C   UNL A   1      36.331  30.933  31.927  1.00  0.00     0.022 A 
BRANCH  70  73
ATOM     73  S   UNL A   1      35.342  32.369  29.821  1.00  0.00     0.127 S 
ATOM     74  O   UNL A   1      34.852  31.500  28.752  1.00  0.00    -0.237 OA
ATOM     75  O   UNL A   1      34.393  32.587  30.913  1.00  0.00    -0.237 OA
ATOM     76  O   UNL A   1      36.048  33.564  29.380  1.00  0.00    -0.744 OA
ENDBRANCH  70  73
ENDBRANCH  52  66
BRANCH  53  77
ATOM     77  C   UNL A   1      47.058  27.426  25.934  1.00  0.00     0.023 A 
ATOM     78  C   UNL A   1      48.087  26.722  26.589  1.00  0.00     0.012 A 
ATOM     79  C   UNL A   1      47.201  27.741  24.569  1.00  0.00     0.148 A 
ATOM     80  C   UNL A   1      49.252  26.368  25.906  1.00  0.00     0.002 A 
ATOM     81  C   UNL A   1      48.337  27.334  23.881  1.00  0.00     0.091 A 
ATOM     82  F   UNL A   1      46.214  28.420  23.968  1.00  0.00    -0.205 F 
ATOM     83  C   UNL A   1      49.373  26.665  24.552  1.00  0.00     0.022 A 
BRANCH  81  84
ATOM     84  S   UNL A   1      48.523  27.555  22.108  1.00  0.00     0.127 S 
ATOM     85  O   UNL A   1      47.235  28.139  21.743  1.00  0.00    -0.237 OA
ATOM     86  O   UNL A   1      49.659  28.473  22.037  1.00  0.00    -0.237 OA
ATOM     87  O   UNL A   1      48.789  26.227  21.571  1.00  0.00    -0.744 OA
ENDBRANCH  81  84
ENDBRANCH  53  77
BRANCH  65  88
ATOM     88  C   UNL A   1      45.245  33.057  29.652  1.00  0.00     0.023 A 
ATOM     89  C   UNL A   1      46.084  33.081  30.782  1.00  0.00     0.012 A 
ATOM     90  C   UNL A   1      45.151  34.202  28.835  1.00  0.00     0.148 A 
ATOM     91  C   UNL A   1      46.794  34.237  31.113  1.00  0.00     0.002 A 
ATOM     92  C   UNL A   1      45.901  35.331  29.141  1.00  0.00     0.091 A 
ATOM     93  F   UNL A   1      44.333  34.165  27.773  1.00  0.00    -0.205 F 
ATOM     94  C   UNL A   1      46.711  35.355  30.288  1.00  0.00     0.022 A 
BRANCH  92  95
ATOM     95  S   UNL A   1      45.935  36.783  28.084  1.00  0.00     0.127 S 
ATOM     96  O   UNL A   1      46.647  36.280  26.910  1.00  0.00    -0.237 OA
ATOM     97  O   UNL A   1      44.512  37.043  27.870  1.00  0.00    -0.237 OA
ATOM     98  O   UNL A   1      46.633  37.815  28.840  1.00  0.00    -0.744 OA
ENDBRANCH  92  95
ENDBRANCH  65  88
ENDBRANCH  39  40
ENDBRANCH  31  34
ENDBRANCH  29  30
ENDBRANCH  28  29
ENDBRANCH   1  28
TORSDOF 18
ENDMDL
MODEL 2
REMARK VINA RESULT:     -12.9      1.017      7.429
REMARK SMILES O=C(CCC(=O)Nc1ccc2nc(-c3ccccc3)oc2c1)NCCCCNC(=O)c1ccc(-c2c3nc(c(-c4cccc(S(=O)(=O)[O-])c4F)c4ccc([nH]4)c(-c4cccc(S(=O)(=O)[O-])c4F)c4nc(c(-c5cccc(S(=O)(=O)[O-])c5F)c5ccc2[nH]5)C=C4)C=C3)cc1
REMARK SMILES IDX 25 1 24 2 23 3 1 4 2 5 3 7 4 8 5 9 6 10 7 11 8 13 9 14 22 15
REMARK SMILES IDX 10 16 21 17 11 18 20 19 12 20 13 21 14 22 15 23 19 24 16 25
REMARK SMILES IDX 18 26 17 27 26 28 27 29 28 30 29 31 30 33 31 34 32 35 93 36
REMARK SMILES IDX 33 37 92 38 34 39 35 40 36 41 86 42 37 43 91 44 85 45 87 46
REMARK SMILES IDX 38 47 90 48 84 49 83 50 39 52 71 53 51 54 70 55 52 56 55 57
REMARK SMILES IDX 69 58 88 59 53 60 54 61 68 63 89 64 56 65 40 66 41 67 49 68
REMARK SMILES IDX 42 69 44 70 50 71 43 72 45 73 46 74 47 75 48 76 72 77 73 78
REMARK SMILES IDX 81 79 74 80 76 81 82 82 75 83 77 84 78 85 79 86 80 87 57 88
REMARK SMILES IDX 58 89 66 90 59 91 61 92 67 93 60 94 62 95 63 96 64 97 65 98
REMARK H PARENT 23 6 7 12 28 32 87 51 55 62
REMARK Flexibility Score: inf
ROOT
ATOM      1  C   UNL A   1      34.924  23.885  25.155  1.00  0.00     0.023 C 
ENDROOT
BRANCH   1   2
ATOM      2  C   UNL A   1      34.553  24.477  23.800  1.00  0.00     0.116 C 
BRANCH   2   3
ATOM      3  N   UNL A   1      34.033  25.832  23.856  1.00  0.00    -0.356 N 
ATOM      4  O   UNL A   1      33.650  26.050  21.597  1.00  0.00    -0.275 OA
ATOM      5  C   UNL A   1      33.517  26.464  22.746  1.00  0.00     0.220 C 
ATOM      6  H   UNL A   1      34.049  26.314  24.714  1.00  0.00     0.163 HD
BRANCH   5   7
ATOM      7  C   UNL A   1      32.676  27.687  23.050  1.00  0.00     0.110 C 
BRANCH   7   8
ATOM      8  C   UNL A   1      31.719  27.524  24.232  1.00  0.00     0.110 C 
BRANCH   8   9
ATOM      9  C   UNL A   1      30.395  26.891  23.875  1.00  0.00     0.224 C 
ATOM     10  O   UNL A   1      29.435  27.626  23.613  1.00  0.00    -0.275 OA
ATOM     11  N   UNL A   1      30.159  25.549  23.843  1.00  0.00    -0.326 N 
ATOM     12  H   UNL A   1      29.345  25.318  23.340  1.00  0.00     0.169 HD
BRANCH  11  13
ATOM     13  C   UNL A   1      30.816  24.417  24.367  1.00  0.00     0.045 A 
ATOM     14  C   UNL A   1      30.882  24.111  25.730  1.00  0.00     0.028 A 
ATOM     15  C   UNL A   1      31.303  23.485  23.424  1.00  0.00     0.075 A 
ATOM     16  C   UNL A   1      31.244  22.842  26.197  1.00  0.00     0.034 A 
ATOM     17  C   UNL A   1      31.709  22.249  23.926  1.00  0.00     0.157 A 
ATOM     18  C   UNL A   1      31.637  21.895  25.264  1.00  0.00     0.110 A 
ATOM     19  O   UNL A   1      32.240  21.180  23.252  1.00  0.00    -0.436 OA
ATOM     20  N   UNL A   1      32.016  20.604  25.439  1.00  0.00    -0.209 NA
ATOM     21  C   UNL A   1      32.422  20.244  24.240  1.00  0.00     0.227 A 
BRANCH  21  22
ATOM     22  C   UNL A   1      33.212  19.066  23.941  1.00  0.00     0.037 A 
ATOM     23  C   UNL A   1      32.659  18.031  23.177  1.00  0.00     0.014 A 
ATOM     24  C   UNL A   1      34.415  18.852  24.626  1.00  0.00     0.014 A 
ATOM     25  C   UNL A   1      33.284  16.785  23.126  1.00  0.00     0.001 A 
ATOM     26  C   UNL A   1      35.028  17.600  24.588  1.00  0.00     0.001 A 
ATOM     27  C   UNL A   1      34.457  16.565  23.847  1.00  0.00     0.000 A 
ENDBRANCH  21  22
ENDBRANCH  11  13
ENDBRANCH   8   9
ENDBRANCH   7   8
ENDBRANCH   5   7
ENDBRANCH   2   3
ENDBRANCH   1   2
BRANCH   1  28
ATOM     28  C   UNL A   1      35.420  22.438  25.128  1.00  0.00     0.023 C 
BRANCH  28  29
ATOM     29  C   UNL A   1      36.750  22.209  24.415  1.00  0.00     0.116 C 
BRANCH  29  30
ATOM     30  N   UNL A   1      37.519  21.108  24.982  1.00  0.00    -0.352 N 
ATOM     31  C   UNL A   1      38.659  21.135  25.752  1.00  0.00     0.251 C 
ATOM     32  H   UNL A   1      37.170  20.209  24.782  1.00  0.00     0.163 HD
ATOM     33  O   UNL A   1      39.252  20.084  26.000  1.00  0.00    -0.269 OA
BRANCH  31  34
ATOM     34  C   UNL A   1      39.196  22.417  26.263  1.00  0.00     0.039 A 
ATOM     35  C   UNL A   1      40.387  22.412  26.995  1.00  0.00     0.014 A 
ATOM     36  C   UNL A   1      38.534  23.624  26.028  1.00  0.00     0.014 A 
ATOM     37  C   UNL A   1      40.956  23.621  27.409  1.00  0.00     0.010 A 
ATOM     38  C   UNL A   1      39.145  24.831  26.365  1.00  0.00     0.010 A 
ATOM     39  C   UNL A   1      40.365  24.846  27.057  1.00  0.00    -0.014 A 
BRANCH  39  40
ATOM     40  C   UNL A   1      41.022  26.144  27.373  1.00  0.00     0.031 A 
ATOM     41  C   UNL A   1      42.448  26.405  26.963  1.00  0.00     0.074 A 
ATOM     42  C   UNL A   1      40.366  27.061  28.115  1.00  0.00     0.049 A 
ATOM     43  N   UNL A   1      43.201  27.447  27.208  1.00  0.00    -0.248 NA
ATOM     44  C   UNL A   1      43.127  25.345  26.199  1.00  0.00     0.031 C 
ATOM     45  C   UNL A   1      39.011  26.904  28.648  1.00  0.00     0.029 A 
ATOM     46  N   UNL A   1      40.759  28.295  28.574  1.00  0.00    -0.354 N 
ATOM     47  C   UNL A   1      44.445  27.158  26.661  1.00  0.00     0.074 A 
ATOM     48  C   UNL A   1      44.358  25.827  26.102  1.00  0.00     0.031 C 
ATOM     49  C   UNL A   1      38.686  27.996  29.357  1.00  0.00     0.029 A 
ATOM     50  C   UNL A   1      39.818  28.917  29.363  1.00  0.00     0.049 A 
ATOM     51  H   UNL A   1      41.633  28.696  28.360  1.00  0.00     0.167 HD
ATOM     52  C   UNL A   1      45.552  27.937  26.600  1.00  0.00     0.034 A 
ATOM     53  C   UNL A   1      39.864  30.087  30.030  1.00  0.00     0.034 A 
ATOM     54  C   UNL A   1      45.631  29.273  27.129  1.00  0.00     0.049 A 
ATOM     55  C   UNL A   1      41.096  30.946  29.927  1.00  0.00     0.074 A 
ATOM     56  C   UNL A   1      46.681  30.170  27.045  1.00  0.00     0.029 A 
ATOM     57  N   UNL A   1      44.628  29.900  27.851  1.00  0.00    -0.354 N 
ATOM     58  N   UNL A   1      42.207  30.718  29.272  1.00  0.00    -0.248 NA
ATOM     59  C   UNL A   1      41.066  32.240  30.625  1.00  0.00     0.031 C 
ATOM     60  C   UNL A   1      46.326  31.327  27.745  1.00  0.00     0.029 A 
ATOM     61  C   UNL A   1      45.038  31.168  28.230  1.00  0.00     0.049 A 
ATOM     62  H   UNL A   1      43.752  29.504  28.064  1.00  0.00     0.167 HD
ATOM     63  C   UNL A   1      42.994  31.852  29.447  1.00  0.00     0.074 A 
ATOM     64  C   UNL A   1      42.221  32.774  30.252  1.00  0.00     0.031 C 
ATOM     65  C   UNL A   1      44.246  32.100  28.991  1.00  0.00     0.034 A 
BRANCH  52  66
ATOM     66  C   UNL A   1      46.763  27.379  25.894  1.00  0.00     0.023 A 
ATOM     67  C   UNL A   1      47.590  26.450  26.558  1.00  0.00     0.012 A 
ATOM     68  C   UNL A   1      47.051  27.727  24.560  1.00  0.00     0.148 A 
ATOM     69  C   UNL A   1      48.706  25.908  25.923  1.00  0.00     0.002 A 
ATOM     70  C   UNL A   1      48.138  27.146  23.916  1.00  0.00     0.091 A 
ATOM     71  F   UNL A   1      46.264  28.623  23.948  1.00  0.00    -0.205 F 
ATOM     72  C   UNL A   1      48.974  26.248  24.600  1.00  0.00     0.022 A 
BRANCH  70  73
ATOM     73  S   UNL A   1      48.521  27.453  22.188  1.00  0.00     0.127 S 
ATOM     74  O   UNL A   1      49.780  28.190  22.293  1.00  0.00    -0.237 OA
ATOM     75  O   UNL A   1      48.653  26.096  21.657  1.00  0.00    -0.237 OA
ATOM     76  O   UNL A   1      47.397  28.209  21.654  1.00  0.00    -0.744 OA
ENDBRANCH  70  73
ENDBRANCH  52  66
BRANCH  53  77
ATOM     77  C   UNL A   1      38.682  30.541  30.820  1.00  0.00     0.023 A 
ATOM     78  C   UNL A   1      38.632  30.289  32.204  1.00  0.00     0.012 A 
ATOM     79  C   UNL A   1      37.621  31.237  30.209  1.00  0.00     0.148 A 
ATOM     80  C   UNL A   1      37.531  30.692  32.961  1.00  0.00     0.002 A 
ATOM     81  C   UNL A   1      36.556  31.687  30.978  1.00  0.00     0.091 A 
ATOM     82  F   UNL A   1      37.684  31.458  28.889  1.00  0.00    -0.205 F 
ATOM     83  C   UNL A   1      36.499  31.400  32.351  1.00  0.00     0.022 A 
BRANCH  81  84
ATOM     84  S   UNL A   1      35.247  32.719  30.306  1.00  0.00     0.127 S 
ATOM     85  O   UNL A   1      34.388  32.909  31.471  1.00  0.00    -0.237 OA
ATOM     86  O   UNL A   1      35.989  33.907  29.884  1.00  0.00    -0.237 OA
ATOM     87  O   UNL A   1      34.667  31.954  29.211  1.00  0.00    -0.744 OA
ENDBRANCH  81  84
ENDBRANCH  53  77
BRANCH  65  88
ATOM     88  C   UNL A   1      44.856  33.442  29.310  1.00  0.00     0.023 A 
ATOM     89  C   UNL A   1      45.605  33.615  30.490  1.00  0.00     0.012 A 
ATOM     90  C   UNL A   1      44.742  34.512  28.400  1.00  0.00     0.148 A 
ATOM     91  C   UNL A   1      46.204  34.843  30.776  1.00  0.00     0.002 A 
ATOM     92  C   UNL A   1      45.384  35.715  28.666  1.00  0.00     0.091 A 
ATOM     93  F   UNL A   1      44.010  34.334  27.291  1.00  0.00    -0.205 F 
ATOM     94  C   UNL A   1      46.103  35.887  29.860  1.00  0.00     0.022 A 
BRANCH  92  95
ATOM     95  S   UNL A   1      45.393  37.083  27.501  1.00  0.00     0.127 S 
ATOM     96  O   UNL A   1      46.042  36.480  26.338  1.00  0.00    -0.237 OA
ATOM     97  O   UNL A   1      43.966  37.354  27.333  1.00  0.00    -0.237 OA
ATOM     98  O   UNL A   1      46.141  38.155  28.145  1.00  0.00    -0.744 OA
ENDBRANCH  92  95
ENDBRANCH  65  88
ENDBRANCH  39  40
ENDBRANCH  31  34
ENDBRANCH  29  30
ENDBRANCH  28  29
ENDBRANCH   1  28
TORSDOF 18
ENDMDL
MODEL 3
REMARK VINA RESULT:     -12.3      5.154     10.082
REMARK SMILES O=C(CCC(=O)Nc1ccc2nc(-c3ccccc3)oc2c1)NCCCCNC(=O)c1ccc(-c2c3nc(c(-c4cccc(S(=O)(=O)[O-])c4F)c4ccc([nH]4)c(-c4cccc(S(=O)(=O)[O-])c4F)c4nc(c(-c5cccc(S(=O)(=O)[O-])c5F)c5ccc2[nH]5)C=C4)C=C3)cc1
REMARK SMILES IDX 25 1 24 2 23 3 1 4 2 5 3 7 4 8 5 9 6 10 7 11 8 13 9 14 22 15
REMARK SMILES IDX 10 16 21 17 11 18 20 19 12 20 13 21 14 22 15 23 19 24 16 25
REMARK SMILES IDX 18 26 17 27 26 28 27 29 28 30 29 31 30 33 31 34 32 35 93 36
REMARK SMILES IDX 33 37 92 38 34 39 35 40 36 41 86 42 37 43 91 44 85 45 87 46
REMARK SMILES IDX 38 47 90 48 84 49 83 50 39 52 71 53 51 54 70 55 52 56 55 57
REMARK SMILES IDX 69 58 88 59 53 60 54 61 68 63 89 64 56 65 40 66 41 67 49 68
REMARK SMILES IDX 42 69 44 70 50 71 43 72 45 73 46 74 47 75 48 76 72 77 73 78
REMARK SMILES IDX 81 79 74 80 76 81 82 82 75 83 77 84 78 85 79 86 80 87 57 88
REMARK SMILES IDX 58 89 66 90 59 91 61 92 67 93 60 94 62 95 63 96 64 97 65 98
REMARK H PARENT 23 6 7 12 28 32 87 51 55 62
REMARK Flexibility Score: inf
ROOT
ATOM      1  C   UNL A   1      33.218  27.032  26.032  1.00  0.00     0.023 C 
ENDROOT
BRANCH   1   2
ATOM      2  C   UNL A   1      32.488  25.739  26.377  1.00  0.00     0.116 C 
BRANCH   2   3
ATOM      3  N   UNL A   1      33.276  24.533  26.186  1.00  0.00    -0.356 N 
ATOM      4  O   UNL A   1      31.539  23.050  26.467  1.00  0.00    -0.275 OA
ATOM      5  C   UNL A   1      32.699  23.283  26.137  1.00  0.00     0.220 C 
ATOM      6  H   UNL A   1      34.252  24.612  26.088  1.00  0.00     0.163 HD
BRANCH   5   7
ATOM      7  C   UNL A   1      33.584  22.202  25.551  1.00  0.00     0.110 C 
BRANCH   7   8
ATOM      8  C   UNL A   1      33.503  22.069  24.029  1.00  0.00     0.110 C 
BRANCH   8   9
ATOM      9  C   UNL A   1      34.291  23.112  23.272  1.00  0.00     0.224 C 
ATOM     10  O   UNL A   1      35.523  23.018  23.238  1.00  0.00    -0.275 OA
ATOM     11  N   UNL A   1      33.746  24.185  22.633  1.00  0.00    -0.326 N 
ATOM     12  H   UNL A   1      34.361  24.594  21.982  1.00  0.00     0.169 HD
BRANCH  11  13
ATOM     13  C   UNL A   1      32.500  24.843  22.691  1.00  0.00     0.045 A 
ATOM     14  C   UNL A   1      31.303  24.223  23.064  1.00  0.00     0.028 A 
ATOM     15  C   UNL A   1      32.522  26.241  22.489  1.00  0.00     0.075 A 
ATOM     16  C   UNL A   1      30.163  24.950  23.426  1.00  0.00     0.034 A 
ATOM     17  C   UNL A   1      31.352  26.931  22.806  1.00  0.00     0.157 A 
ATOM     18  C   UNL A   1      30.212  26.331  23.315  1.00  0.00     0.110 A 
ATOM     19  O   UNL A   1      31.086  28.271  22.685  1.00  0.00    -0.436 OA
ATOM     20  N   UNL A   1      29.270  27.263  23.610  1.00  0.00    -0.209 NA
ATOM     21  C   UNL A   1      29.803  28.381  23.164  1.00  0.00     0.227 A 
BRANCH  21  22
ATOM     22  C   UNL A   1      29.088  29.623  22.950  1.00  0.00     0.037 A 
ATOM     23  C   UNL A   1      28.298  29.785  21.805  1.00  0.00     0.014 A 
ATOM     24  C   UNL A   1      29.392  30.737  23.743  1.00  0.00     0.014 A 
ATOM     25  C   UNL A   1      27.847  31.053  21.438  1.00  0.00     0.001 A 
ATOM     26  C   UNL A   1      28.954  32.006  23.364  1.00  0.00     0.001 A 
ATOM     27  C   UNL A   1      28.191  32.163  22.207  1.00  0.00     0.000 A 
ENDBRANCH  21  22
ENDBRANCH  11  13
ENDBRANCH   8   9
ENDBRANCH   7   8
ENDBRANCH   5   7
ENDBRANCH   2   3
ENDBRANCH   1   2
BRANCH   1  28
ATOM     28  C   UNL A   1      32.348  28.290  25.996  1.00  0.00     0.023 C 
BRANCH  28  29
ATOM     29  C   UNL A   1      33.004  29.531  25.397  1.00  0.00     0.116 C 
BRANCH  29  30
ATOM     30  N   UNL A   1      32.548  30.771  26.012  1.00  0.00    -0.352 N 
ATOM     31  C   UNL A   1      33.105  31.504  27.035  1.00  0.00     0.251 C 
ATOM     32  H   UNL A   1      31.715  31.140  25.639  1.00  0.00     0.163 HD
ATOM     33  O   UNL A   1      32.477  32.445  27.523  1.00  0.00    -0.269 OA
BRANCH  31  34
ATOM     34  C   UNL A   1      34.439  31.155  27.575  1.00  0.00     0.039 A 
ATOM     35  C   UNL A   1      35.376  32.172  27.782  1.00  0.00     0.014 A 
ATOM     36  C   UNL A   1      34.775  29.833  27.877  1.00  0.00     0.014 A 
ATOM     37  C   UNL A   1      36.609  31.875  28.374  1.00  0.00     0.010 A 
ATOM     38  C   UNL A   1      35.966  29.552  28.544  1.00  0.00     0.010 A 
ATOM     39  C   UNL A   1      36.897  30.569  28.805  1.00  0.00    -0.014 A 
BRANCH  39  40
ATOM     40  C   UNL A   1      38.146  30.257  29.553  1.00  0.00     0.031 A 
ATOM     41  C   UNL A   1      39.169  29.310  28.983  1.00  0.00     0.074 A 
ATOM     42  C   UNL A   1      38.321  30.755  30.795  1.00  0.00     0.049 A 
ATOM     43  N   UNL A   1      40.280  28.872  29.519  1.00  0.00    -0.248 NA
ATOM     44  C   UNL A   1      38.896  28.760  27.644  1.00  0.00     0.031 C 
ATOM     45  C   UNL A   1      37.373  31.619  31.502  1.00  0.00     0.029 A 
ATOM     46  N   UNL A   1      39.345  30.583  31.696  1.00  0.00    -0.354 N 
ATOM     47  C   UNL A   1      40.819  27.977  28.604  1.00  0.00     0.074 A 
ATOM     48  C   UNL A   1      39.895  27.904  27.493  1.00  0.00     0.031 C 
ATOM     49  C   UNL A   1      37.857  31.902  32.721  1.00  0.00     0.029 A 
ATOM     50  C   UNL A   1      39.131  31.214  32.901  1.00  0.00     0.049 A 
ATOM     51  H   UNL A   1      40.153  30.058  31.499  1.00  0.00     0.167 HD
ATOM     52  C   UNL A   1      41.990  27.297  28.664  1.00  0.00     0.034 A 
ATOM     53  C   UNL A   1      39.866  31.225  34.031  1.00  0.00     0.034 A 
ATOM     54  C   UNL A   1      42.925  27.391  29.755  1.00  0.00     0.049 A 
ATOM     55  C   UNL A   1      41.176  30.483  34.064  1.00  0.00     0.074 A 
ATOM     56  C   UNL A   1      44.173  26.805  29.870  1.00  0.00     0.029 A 
ATOM     57  N   UNL A   1      42.710  28.105  30.923  1.00  0.00    -0.354 N 
ATOM     58  N   UNL A   1      41.741  29.766  33.126  1.00  0.00    -0.248 NA
ATOM     59  C   UNL A   1      41.966  30.582  35.301  1.00  0.00     0.031 C 
ATOM     60  C   UNL A   1      44.699  27.138  31.122  1.00  0.00     0.029 A 
ATOM     61  C   UNL A   1      43.797  27.965  31.771  1.00  0.00     0.049 A 
ATOM     62  H   UNL A   1      41.904  28.635  31.122  1.00  0.00     0.167 HD
ATOM     63  C   UNL A   1      42.966  29.358  33.642  1.00  0.00     0.074 A 
ATOM     64  C   UNL A   1      43.070  29.928  34.969  1.00  0.00     0.031 C 
ATOM     65  C   UNL A   1      43.914  28.574  33.071  1.00  0.00     0.034 A 
BRANCH  52  66
ATOM     66  C   UNL A   1      42.353  26.421  27.491  1.00  0.00     0.023 A 
ATOM     67  C   UNL A   1      43.095  26.963  26.420  1.00  0.00     0.012 A 
ATOM     68  C   UNL A   1      42.013  25.054  27.471  1.00  0.00     0.148 A 
ATOM     69  C   UNL A   1      43.456  26.171  25.331  1.00  0.00     0.002 A 
ATOM     70  C   UNL A   1      42.420  24.259  26.405  1.00  0.00     0.091 A 
ATOM     71  F   UNL A   1      41.295  24.559  28.488  1.00  0.00    -0.205 F 
ATOM     72  C   UNL A   1      43.128  24.819  25.328  1.00  0.00     0.022 A 
BRANCH  70  73
ATOM     73  S   UNL A   1      42.119  22.489  26.344  1.00  0.00     0.127 S 
ATOM     74  O   UNL A   1      40.657  22.439  26.335  1.00  0.00    -0.237 OA
ATOM     75  O   UNL A   1      42.749  22.115  25.077  1.00  0.00    -0.237 OA
ATOM     76  O   UNL A   1      42.756  21.931  27.528  1.00  0.00    -0.744 OA
ENDBRANCH  70  73
ENDBRANCH  52  66
BRANCH  53  77
ATOM     77  C   UNL A   1      39.404  32.010  35.212  1.00  0.00     0.023 A 
ATOM     78  C   UNL A   1      38.572  31.399  36.170  1.00  0.00     0.012 A 
ATOM     79  C   UNL A   1      39.802  33.348  35.401  1.00  0.00     0.148 A 
ATOM     80  C   UNL A   1      38.116  32.117  37.277  1.00  0.00     0.002 A 
ATOM     81  C   UNL A   1      39.393  34.038  36.535  1.00  0.00     0.091 A 
ATOM     82  F   UNL A   1      40.586  33.913  34.473  1.00  0.00    -0.205 F 
ATOM     83  C   UNL A   1      38.534  33.431  37.465  1.00  0.00     0.022 A 
BRANCH  81  84
ATOM     84  S   UNL A   1      39.986  35.688  36.927  1.00  0.00     0.127 S 
ATOM     85  O   UNL A   1      41.422  35.462  37.073  1.00  0.00    -0.237 OA
ATOM     86  O   UNL A   1      39.597  36.438  35.734  1.00  0.00    -0.237 OA
ATOM     87  O   UNL A   1      39.282  36.081  38.140  1.00  0.00    -0.744 OA
ENDBRANCH  81  84
ENDBRANCH  53  77
BRANCH  65  88
ATOM     88  C   UNL A   1      45.175  28.314  33.856  1.00  0.00     0.023 A 
ATOM     89  C   UNL A   1      46.262  29.205  33.761  1.00  0.00     0.012 A 
ATOM     90  C   UNL A   1      45.253  27.220  34.741  1.00  0.00     0.148 A 
ATOM     91  C   UNL A   1      47.420  28.992  34.511  1.00  0.00     0.002 A 
ATOM     92  C   UNL A   1      46.388  27.044  35.522  1.00  0.00     0.091 A 
ATOM     93  F   UNL A   1      44.215  26.373  34.804  1.00  0.00    -0.205 F 
ATOM     94  C   UNL A   1      47.478  27.920  35.398  1.00  0.00     0.022 A 
BRANCH  92  95
ATOM     95  S   UNL A   1      46.515  25.751  36.764  1.00  0.00     0.127 S 
ATOM     96  O   UNL A   1      46.463  24.543  35.942  1.00  0.00    -0.237 OA
ATOM     97  O   UNL A   1      47.821  26.026  37.362  1.00  0.00    -0.237 OA
ATOM     98  O   UNL A   1      45.384  25.942  37.662  1.00  0.00    -0.744 OA
ENDBRANCH  92  95
ENDBRANCH  65  88
ENDBRANCH  39  40
ENDBRANCH  31  34
ENDBRANCH  29  30
ENDBRANCH  28  29
ENDBRANCH   1  28
TORSDOF 18
ENDMDL
