MODEL 1
REMARK VINA RESULT:     -12.4      0.000      0.000
REMARK SMILES C[C@@H](C(=O)NCCCCNC(=O)c1ccc(-c2c3nc(c(-c4cccc(S(=O)(=O)[O-])c4F)c4ccc([nH]4)c(-c4cccc(S(=O)(=O)[O-])c4F)c4nc(c(-c5cccc(S(=O)(=O)[O-])c5F)c5ccc2[nH]5)C=C4)C=C3)cc1)c1ccc(C[C@H]2CCCC2=O)cc1[N+](=O)[O-]
REMARK SMILES IDX 7 1 6 2 5 3 3 4 4 5 2 7 1 8 76 9 77 10 88 11 78 12 87 13
REMARK SMILES IDX 79 14 89 15 90 16 91 17 80 18 81 19 82 20 85 21 83 22 84 23
REMARK SMILES IDX 86 24 8 25 9 26 10 27 11 28 12 30 13 31 14 32 75 33 15 34
REMARK SMILES IDX 74 35 16 36 17 37 18 38 68 39 19 40 73 41 67 42 69 43 20 44
REMARK SMILES IDX 72 45 66 46 65 47 21 49 53 50 33 51 52 52 34 53 37 54 51 55
REMARK SMILES IDX 70 56 35 57 36 58 50 60 71 61 38 62 22 63 23 64 31 65 24 66
REMARK SMILES IDX 26 67 32 68 25 69 27 70 28 71 29 72 30 73 54 74 55 75 63 76
REMARK SMILES IDX 56 77 58 78 64 79 57 80 59 81 60 82 61 83 62 84 39 85 40 86
REMARK SMILES IDX 48 87 41 88 43 89 49 90 42 91 44 92 45 93 46 94 47 95
REMARK H PARENT 5 6 10 29 69 48 37 59
REMARK Flexibility Score: inf
ROOT
ATOM      1  C   UNL A   1      32.041  27.870  27.274  1.00  0.00     0.023 C 
ENDROOT
BRANCH   1   2
ATOM      2  C   UNL A   1      31.229  27.023  26.288  1.00  0.00     0.116 C 
BRANCH   2   3
ATOM      3  N   UNL A   1      31.068  25.684  26.818  1.00  0.00    -0.356 N 
ATOM      4  C   UNL A   1      31.006  24.518  26.113  1.00  0.00     0.227 C 
ATOM      5  O   UNL A   1      30.345  23.585  26.568  1.00  0.00    -0.274 OA
ATOM      6  H   UNL A   1      30.995  25.607  27.798  1.00  0.00     0.163 HD
BRANCH   4   7
ATOM      7  C   UNL A   1      31.754  24.417  24.784  1.00  0.00     0.112 C 
ATOM      8  C   UNL A   1      30.651  24.447  23.702  1.00  0.00     0.023 C 
BRANCH   7   9
ATOM      9  C   UNL A   1      32.660  23.185  24.619  1.00  0.00     0.042 A 
ATOM     10  C   UNL A   1      32.157  22.106  23.865  1.00  0.00     0.012 A 
ATOM     11  C   UNL A   1      33.959  23.013  25.144  1.00  0.00     0.273 A 
ATOM     12  C   UNL A   1      32.810  20.875  23.810  1.00  0.00     0.004 A 
ATOM     13  C   UNL A   1      34.586  21.750  25.158  1.00  0.00     0.089 A 
ATOM     14  C   UNL A   1      33.979  20.654  24.539  1.00  0.00    -0.040 A 
BRANCH  11  15
ATOM     15  N   UNL A   1      34.806  24.143  25.542  1.00  0.00     0.063 N 
ATOM     16  O   UNL A   1      35.912  23.886  26.042  1.00  0.00    -0.258 OA
ATOM     17  O   UNL A   1      34.402  25.276  25.240  1.00  0.00    -0.258 OA
ENDBRANCH  11  15
BRANCH  14  18
ATOM     18  C   UNL A   1      34.589  19.277  24.627  1.00  0.00     0.047 C 
BRANCH  18  19
ATOM     19  C   UNL A   1      33.688  18.106  24.204  1.00  0.00     0.060 C 
ATOM     20  C   UNL A   1      34.384  16.907  23.552  1.00  0.00     0.012 C 
ATOM     21  C   UNL A   1      32.968  17.461  25.366  1.00  0.00     0.136 C 
ATOM     22  C   UNL A   1      34.553  15.856  24.644  1.00  0.00     0.009 C 
ATOM     23  C   UNL A   1      33.353  16.019  25.565  1.00  0.00     0.076 C 
ATOM     24  O   UNL A   1      32.152  18.045  26.071  1.00  0.00    -0.299 OA
ENDBRANCH  18  19
ENDBRANCH  14  18
ENDBRANCH   7   9
ENDBRANCH   4   7
ENDBRANCH   2   3
ENDBRANCH   1   2
BRANCH   1  25
ATOM     25  C   UNL A   1      31.802  29.376  27.143  1.00  0.00     0.023 C 
BRANCH  25  26
ATOM     26  C   UNL A   1      32.957  30.144  26.514  1.00  0.00     0.116 C 
BRANCH  26  27
ATOM     27  N   UNL A   1      32.908  31.566  26.826  1.00  0.00    -0.352 N 
ATOM     28  C   UNL A   1      33.755  32.295  27.621  1.00  0.00     0.251 C 
ATOM     29  H   UNL A   1      32.169  32.069  26.413  1.00  0.00     0.163 HD
ATOM     30  O   UNL A   1      33.475  33.452  27.922  1.00  0.00    -0.269 OA
BRANCH  28  31
ATOM     31  C   UNL A   1      34.988  31.663  28.130  1.00  0.00     0.039 A 
ATOM     32  C   UNL A   1      36.148  32.433  28.235  1.00  0.00     0.014 A 
ATOM     33  C   UNL A   1      34.985  30.325  28.534  1.00  0.00     0.014 A 
ATOM     34  C   UNL A   1      37.293  31.873  28.804  1.00  0.00     0.010 A 
ATOM     35  C   UNL A   1      36.102  29.795  29.171  1.00  0.00     0.010 A 
ATOM     36  C   UNL A   1      37.269  30.561  29.307  1.00  0.00    -0.014 A 
BRANCH  36  37
ATOM     37  C   UNL A   1      38.449  29.981  29.997  1.00  0.00     0.031 A 
ATOM     38  C   UNL A   1      38.829  30.449  31.375  1.00  0.00     0.074 A 
ATOM     39  C   UNL A   1      39.225  29.092  29.347  1.00  0.00     0.049 A 
ATOM     40  N   UNL A   1      39.844  30.089  32.116  1.00  0.00    -0.248 NA
ATOM     41  C   UNL A   1      37.972  31.476  31.994  1.00  0.00     0.031 C 
ATOM     42  C   UNL A   1      39.010  28.623  27.976  1.00  0.00     0.029 A 
ATOM     43  N   UNL A   1      40.368  28.443  29.743  1.00  0.00    -0.354 N 
ATOM     44  C   UNL A   1      39.770  30.864  33.267  1.00  0.00     0.074 A 
ATOM     45  C   UNL A   1      38.629  31.740  33.113  1.00  0.00     0.031 C 
ATOM     46  C   UNL A   1      39.983  27.758  27.649  1.00  0.00     0.029 A 
ATOM     47  C   UNL A   1      40.908  27.633  28.770  1.00  0.00     0.049 A 
ATOM     48  H   UNL A   1      40.765  28.547  30.638  1.00  0.00     0.167 HD
ATOM     49  C   UNL A   1      40.559  30.829  34.367  1.00  0.00     0.034 A 
ATOM     50  C   UNL A   1      42.028  26.883  28.777  1.00  0.00     0.034 A 
ATOM     51  C   UNL A   1      41.670  29.930  34.530  1.00  0.00     0.049 A 
ATOM     52  C   UNL A   1      42.868  26.837  30.024  1.00  0.00     0.074 A 
ATOM     53  C   UNL A   1      42.477  29.755  35.640  1.00  0.00     0.029 A 
ATOM     54  N   UNL A   1      42.139  29.065  33.555  1.00  0.00    -0.354 N 
ATOM     55  N   UNL A   1      42.684  27.454  31.167  1.00  0.00    -0.248 NA
ATOM     56  C   UNL A   1      44.049  25.963  29.999  1.00  0.00     0.031 C 
ATOM     57  C   UNL A   1      43.453  28.805  35.325  1.00  0.00     0.029 A 
ATOM     58  C   UNL A   1      43.232  28.362  34.032  1.00  0.00     0.049 A 
ATOM     59  H   UNL A   1      41.752  28.965  32.655  1.00  0.00     0.167 HD
ATOM     60  C   UNL A   1      43.703  27.016  32.005  1.00  0.00     0.074 A 
ATOM     61  C   UNL A   1      44.486  26.062  31.246  1.00  0.00     0.031 C 
ATOM     62  C   UNL A   1      43.972  27.378  33.283  1.00  0.00     0.034 A 
BRANCH  49  63
ATOM     63  C   UNL A   1      40.221  31.758  35.504  1.00  0.00     0.023 A 
ATOM     64  C   UNL A   1      40.984  32.929  35.696  1.00  0.00     0.012 A 
ATOM     65  C   UNL A   1      39.116  31.509  36.340  1.00  0.00     0.148 A 
ATOM     66  C   UNL A   1      40.674  33.819  36.724  1.00  0.00     0.002 A 
ATOM     67  C   UNL A   1      38.784  32.426  37.332  1.00  0.00     0.091 A 
ATOM     68  F   UNL A   1      38.414  30.383  36.156  1.00  0.00    -0.205 F 
ATOM     69  C   UNL A   1      39.569  33.573  37.533  1.00  0.00     0.022 A 
BRANCH  67  70
ATOM     70  S   UNL A   1      37.332  32.245  38.375  1.00  0.00     0.127 S 
ATOM     71  O   UNL A   1      37.810  32.797  39.642  1.00  0.00    -0.237 OA
ATOM     72  O   UNL A   1      36.350  33.077  37.679  1.00  0.00    -0.237 OA
ATOM     73  O   UNL A   1      37.023  30.823  38.391  1.00  0.00    -0.744 OA
ENDBRANCH  67  70
ENDBRANCH  49  63
BRANCH  50  74
ATOM     74  C   UNL A   1      42.387  26.066  27.584  1.00  0.00     0.023 A 
ATOM     75  C   UNL A   1      43.156  26.643  26.554  1.00  0.00     0.012 A 
ATOM     76  C   UNL A   1      41.989  24.720  27.470  1.00  0.00     0.148 A 
ATOM     77  C   UNL A   1      43.491  25.907  25.417  1.00  0.00     0.002 A 
ATOM     78  C   UNL A   1      42.374  23.975  26.361  1.00  0.00     0.091 A 
ATOM     79  F   UNL A   1      41.249  24.191  28.456  1.00  0.00    -0.205 F 
ATOM     80  C   UNL A   1      43.107  24.572  25.324  1.00  0.00     0.022 A 
BRANCH  78  81
ATOM     81  S   UNL A   1      42.039  22.216  26.219  1.00  0.00     0.127 S 
ATOM     82  O   UNL A   1      42.592  21.705  27.470  1.00  0.00    -0.237 OA
ATOM     83  O   UNL A   1      40.578  22.194  26.135  1.00  0.00    -0.237 OA
ATOM     84  O   UNL A   1      42.716  21.785  25.004  1.00  0.00    -0.744 OA
ENDBRANCH  78  81
ENDBRANCH  50  74
BRANCH  62  85
ATOM     85  C   UNL A   1      45.141  26.716  33.966  1.00  0.00     0.023 A 
ATOM     86  C   UNL A   1      46.404  27.341  33.965  1.00  0.00     0.012 A 
ATOM     87  C   UNL A   1      44.968  25.507  34.669  1.00  0.00     0.148 A 
ATOM     88  C   UNL A   1      47.484  26.754  34.623  1.00  0.00     0.002 A 
ATOM     89  C   UNL A   1      46.036  24.956  35.367  1.00  0.00     0.091 A 
ATOM     90  F   UNL A   1      43.762  24.919  34.643  1.00  0.00    -0.205 F 
ATOM     91  C   UNL A   1      47.297  25.570  35.333  1.00  0.00     0.022 A 
BRANCH  89  92
ATOM     92  S   UNL A   1      45.864  23.488  36.387  1.00  0.00     0.127 S 
ATOM     93  O   UNL A   1      47.260  23.113  36.606  1.00  0.00    -0.237 OA
ATOM     94  O   UNL A   1      45.181  24.013  37.571  1.00  0.00    -0.237 OA
ATOM     95  O   UNL A   1      45.078  22.544  35.606  1.00  0.00    -0.744 OA
ENDBRANCH  89  92
ENDBRANCH  62  85
ENDBRANCH  36  37
ENDBRANCH  28  31
ENDBRANCH  26  27
ENDBRANCH  25  26
ENDBRANCH   1  25
TORSDOF 18
ENDMDL
MODEL 2
REMARK VINA RESULT:     -12.2      5.899      9.197
REMARK SMILES C[C@@H](C(=O)NCCCCNC(=O)c1ccc(-c2c3nc(c(-c4cccc(S(=O)(=O)[O-])c4F)c4ccc([nH]4)c(-c4cccc(S(=O)(=O)[O-])c4F)c4nc(c(-c5cccc(S(=O)(=O)[O-])c5F)c5ccc2[nH]5)C=C4)C=C3)cc1)c1ccc(C[C@H]2CCCC2=O)cc1[N+](=O)[O-]
REMARK SMILES IDX 7 1 6 2 5 3 3 4 4 5 2 7 1 8 76 9 77 10 88 11 78 12 87 13
REMARK SMILES IDX 79 14 89 15 90 16 91 17 80 18 81 19 82 20 85 21 83 22 84 23
REMARK SMILES IDX 86 24 8 25 9 26 10 27 11 28 12 30 13 31 14 32 75 33 15 34
REMARK SMILES IDX 74 35 16 36 17 37 18 38 68 39 19 40 73 41 67 42 69 43 20 44
REMARK SMILES IDX 72 45 66 46 65 47 21 49 53 50 33 51 52 52 34 53 37 54 51 55
REMARK SMILES IDX 70 56 35 57 36 58 50 60 71 61 38 62 22 63 23 64 31 65 24 66
REMARK SMILES IDX 26 67 32 68 25 69 27 70 28 71 29 72 30 73 54 74 55 75 63 76
REMARK SMILES IDX 56 77 58 78 64 79 57 80 59 81 60 82 61 83 62 84 39 85 40 86
REMARK SMILES IDX 48 87 41 88 43 89 49 90 42 91 44 92 45 93 46 94 47 95
REMARK H PARENT 5 6 10 29 69 48 37 59
REMARK Flexibility Score: inf
ROOT
ATOM      1  C   UNL A   1      36.538  21.115  25.352  1.00  0.00     0.023 C 
ENDROOT
BRANCH   1   2
ATOM      2  C   UNL A   1      35.898  22.013  24.289  1.00  0.00     0.116 C 
BRANCH   2   3
ATOM      3  N   UNL A   1      34.484  21.712  24.188  1.00  0.00    -0.356 N 
ATOM      4  C   UNL A   1      33.461  22.305  24.869  1.00  0.00     0.227 C 
ATOM      5  O   UNL A   1      32.454  21.644  25.121  1.00  0.00    -0.274 OA
ATOM      6  H   UNL A   1      34.232  21.000  23.556  1.00  0.00     0.163 HD
BRANCH   4   7
ATOM      7  C   UNL A   1      33.607  23.765  25.299  1.00  0.00     0.112 C 
ATOM      8  C   UNL A   1      33.537  23.736  26.842  1.00  0.00     0.023 C 
BRANCH   7   9
ATOM      9  C   UNL A   1      32.572  24.741  24.715  1.00  0.00     0.042 A 
ATOM     10  C   UNL A   1      31.766  25.454  25.626  1.00  0.00     0.012 A 
ATOM     11  C   UNL A   1      32.336  25.008  23.349  1.00  0.00     0.273 A 
ATOM     12  C   UNL A   1      30.676  26.216  25.208  1.00  0.00     0.004 A 
ATOM     13  C   UNL A   1      31.191  25.712  22.924  1.00  0.00     0.089 A 
ATOM     14  C   UNL A   1      30.317  26.269  23.861  1.00  0.00    -0.040 A 
BRANCH  11  15
ATOM     15  N   UNL A   1      33.333  24.735  22.307  1.00  0.00     0.063 N 
ATOM     16  O   UNL A   1      33.336  23.605  21.794  1.00  0.00    -0.258 OA
ATOM     17  O   UNL A   1      34.023  25.694  21.932  1.00  0.00    -0.258 OA
ENDBRANCH  11  15
BRANCH  14  18
ATOM     18  C   UNL A   1      29.039  26.943  23.426  1.00  0.00     0.047 C 
BRANCH  18  19
ATOM     19  C   UNL A   1      28.975  28.467  23.615  1.00  0.00     0.060 C 
ATOM     20  C   UNL A   1      30.129  29.280  23.017  1.00  0.00     0.012 C 
ATOM     21  C   UNL A   1      27.769  29.097  22.956  1.00  0.00     0.136 C 
ATOM     22  C   UNL A   1      29.629  29.829  21.685  1.00  0.00     0.009 C 
ATOM     23  C   UNL A   1      28.138  30.072  21.870  1.00  0.00     0.076 C 
ATOM     24  O   UNL A   1      26.612  28.847  23.273  1.00  0.00    -0.299 OA
ENDBRANCH  18  19
ENDBRANCH  14  18
ENDBRANCH   7   9
ENDBRANCH   4   7
ENDBRANCH   2   3
ENDBRANCH   1   2
BRANCH   1  25
ATOM     25  C   UNL A   1      37.846  20.457  24.903  1.00  0.00     0.023 C 
BRANCH  25  26
ATOM     26  C   UNL A   1      39.026  20.706  25.833  1.00  0.00     0.116 C 
BRANCH  26  27
ATOM     27  N   UNL A   1      39.924  19.562  25.901  1.00  0.00    -0.352 N 
ATOM     28  C   UNL A   1      41.287  19.554  26.055  1.00  0.00     0.251 C 
ATOM     29  H   UNL A   1      39.497  18.677  25.826  1.00  0.00     0.163 HD
ATOM     30  O   UNL A   1      41.917  18.509  25.919  1.00  0.00    -0.269 OA
BRANCH  28  31
ATOM     31  C   UNL A   1      41.986  20.819  26.357  1.00  0.00     0.039 A 
ATOM     32  C   UNL A   1      42.338  21.665  25.305  1.00  0.00     0.014 A 
ATOM     33  C   UNL A   1      42.257  21.181  27.680  1.00  0.00     0.014 A 
ATOM     34  C   UNL A   1      42.911  22.906  25.585  1.00  0.00     0.010 A 
ATOM     35  C   UNL A   1      42.756  22.448  27.959  1.00  0.00     0.010 A 
ATOM     36  C   UNL A   1      43.093  23.322  26.915  1.00  0.00    -0.014 A 
BRANCH  36  37
ATOM     37  C   UNL A   1      43.618  24.674  27.232  1.00  0.00     0.031 A 
ATOM     38  C   UNL A   1      42.695  25.744  27.750  1.00  0.00     0.074 A 
ATOM     39  C   UNL A   1      44.909  24.961  26.976  1.00  0.00     0.049 A 
ATOM     40  N   UNL A   1      42.962  26.990  28.044  1.00  0.00    -0.248 NA
ATOM     41  C   UNL A   1      41.282  25.375  27.939  1.00  0.00     0.031 C 
ATOM     42  C   UNL A   1      45.883  24.035  26.393  1.00  0.00     0.029 A 
ATOM     43  N   UNL A   1      45.620  26.123  27.145  1.00  0.00    -0.354 N 
ATOM     44  C   UNL A   1      41.752  27.561  28.418  1.00  0.00     0.074 A 
ATOM     45  C   UNL A   1      40.741  26.536  28.280  1.00  0.00     0.031 C 
ATOM     46  C   UNL A   1      47.063  24.661  26.262  1.00  0.00     0.029 A 
ATOM     47  C   UNL A   1      46.925  26.040  26.718  1.00  0.00     0.049 A 
ATOM     48  H   UNL A   1      45.232  26.940  27.536  1.00  0.00     0.167 HD
ATOM     49  C   UNL A   1      41.508  28.816  28.864  1.00  0.00     0.034 A 
ATOM     50  C   UNL A   1      47.898  26.971  26.689  1.00  0.00     0.034 A 
ATOM     51  C   UNL A   1      42.523  29.820  29.033  1.00  0.00     0.049 A 
ATOM     52  C   UNL A   1      47.608  28.348  27.223  1.00  0.00     0.074 A 
ATOM     53  C   UNL A   1      42.393  31.092  29.562  1.00  0.00     0.029 A 
ATOM     54  N   UNL A   1      43.851  29.674  28.667  1.00  0.00    -0.354 N 
ATOM     55  N   UNL A   1      46.494  28.818  27.729  1.00  0.00    -0.248 NA
ATOM     56  C   UNL A   1      48.718  29.311  27.217  1.00  0.00     0.031 C 
ATOM     57  C   UNL A   1      43.637  31.726  29.488  1.00  0.00     0.029 A 
ATOM     58  C   UNL A   1      44.550  30.836  28.946  1.00  0.00     0.049 A 
ATOM     59  H   UNL A   1      44.241  28.863  28.268  1.00  0.00     0.167 HD
ATOM     60  C   UNL A   1      46.778  30.117  28.135  1.00  0.00     0.074 A 
ATOM     61  C   UNL A   1      48.176  30.350  27.837  1.00  0.00     0.031 C 
ATOM     62  C   UNL A   1      45.954  31.038  28.692  1.00  0.00     0.034 A 
BRANCH  49  63
ATOM     63  C   UNL A   1      40.093  29.161  29.249  1.00  0.00     0.023 A 
ATOM     64  C   UNL A   1      39.151  29.462  28.243  1.00  0.00     0.012 A 
ATOM     65  C   UNL A   1      39.677  29.125  30.595  1.00  0.00     0.148 A 
ATOM     66  C   UNL A   1      37.828  29.757  28.571  1.00  0.00     0.002 A 
ATOM     67  C   UNL A   1      38.346  29.373  30.910  1.00  0.00     0.091 A 
ATOM     68  F   UNL A   1      40.589  28.856  31.539  1.00  0.00    -0.205 F 
ATOM     69  C   UNL A   1      37.425  29.701  29.902  1.00  0.00     0.022 A 
BRANCH  67  70
ATOM     70  S   UNL A   1      37.705  29.246  32.583  1.00  0.00     0.127 S 
ATOM     71  O   UNL A   1      36.340  29.742  32.413  1.00  0.00    -0.237 OA
ATOM     72  O   UNL A   1      37.803  27.809  32.841  1.00  0.00    -0.237 OA
ATOM     73  O   UNL A   1      38.570  30.074  33.410  1.00  0.00    -0.744 OA
ENDBRANCH  67  70
ENDBRANCH  49  63
BRANCH  50  74
ATOM     74  C   UNL A   1      49.257  26.616  26.191  1.00  0.00     0.023 A 
ATOM     75  C   UNL A   1      50.079  25.770  26.961  1.00  0.00     0.012 A 
ATOM     76  C   UNL A   1      49.733  27.094  24.954  1.00  0.00     0.148 A 
ATOM     77  C   UNL A   1      51.363  25.436  26.528  1.00  0.00     0.002 A 
ATOM     78  C   UNL A   1      50.990  26.712  24.501  1.00  0.00     0.091 A 
ATOM     79  F   UNL A   1      48.939  27.905  24.240  1.00  0.00    -0.205 F 
ATOM     80  C   UNL A   1      51.815  25.900  25.295  1.00  0.00     0.022 A 
BRANCH  78  81
ATOM     81  S   UNL A   1      51.601  27.152  22.870  1.00  0.00     0.127 S 
ATOM     82  O   UNL A   1      51.824  28.588  23.012  1.00  0.00    -0.237 OA
ATOM     83  O   UNL A   1      52.819  26.345  22.778  1.00  0.00    -0.237 OA
ATOM     84  O   UNL A   1      50.551  26.762  21.940  1.00  0.00    -0.744 OA
ENDBRANCH  78  81
ENDBRANCH  50  74
BRANCH  62  85
ATOM     85  C   UNL A   1      46.544  32.375  29.058  1.00  0.00     0.023 A 
ATOM     86  C   UNL A   1      47.126  32.565  30.327  1.00  0.00     0.012 A 
ATOM     87  C   UNL A   1      46.582  33.422  28.116  1.00  0.00     0.148 A 
ATOM     88  C   UNL A   1      47.706  33.787  30.664  1.00  0.00     0.002 A 
ATOM     89  C   UNL A   1      47.209  34.619  28.440  1.00  0.00     0.091 A 
ATOM     90  F   UNL A   1      46.007  33.227  26.920  1.00  0.00    -0.205 F 
ATOM     91  C   UNL A   1      47.759  34.808  29.718  1.00  0.00     0.022 A 
BRANCH  89  92
ATOM     92  S   UNL A   1      47.411  35.952  27.254  1.00  0.00     0.127 S 
ATOM     93  O   UNL A   1      48.606  36.624  27.762  1.00  0.00    -0.237 OA
ATOM     94  O   UNL A   1      47.607  35.224  26.000  1.00  0.00    -0.237 OA
ATOM     95  O   UNL A   1      46.183  36.733  27.313  1.00  0.00    -0.744 OA
ENDBRANCH  89  92
ENDBRANCH  62  85
ENDBRANCH  36  37
ENDBRANCH  28  31
ENDBRANCH  26  27
ENDBRANCH  25  26
ENDBRANCH   1  25
TORSDOF 18
ENDMDL
MODEL 3
REMARK VINA RESULT:     -12.1      1.509      1.881
REMARK SMILES C[C@@H](C(=O)NCCCCNC(=O)c1ccc(-c2c3nc(c(-c4cccc(S(=O)(=O)[O-])c4F)c4ccc([nH]4)c(-c4cccc(S(=O)(=O)[O-])c4F)c4nc(c(-c5cccc(S(=O)(=O)[O-])c5F)c5ccc2[nH]5)C=C4)C=C3)cc1)c1ccc(C[C@H]2CCCC2=O)cc1[N+](=O)[O-]
REMARK SMILES IDX 7 1 6 2 5 3 3 4 4 5 2 7 1 8 76 9 77 10 88 11 78 12 87 13
REMARK SMILES IDX 79 14 89 15 90 16 91 17 80 18 81 19 82 20 85 21 83 22 84 23
REMARK SMILES IDX 86 24 8 25 9 26 10 27 11 28 12 30 13 31 14 32 75 33 15 34
REMARK SMILES IDX 74 35 16 36 17 37 18 38 68 39 19 40 73 41 67 42 69 43 20 44
REMARK SMILES IDX 72 45 66 46 65 47 21 49 53 50 33 51 52 52 34 53 37 54 51 55
REMARK SMILES IDX 70 56 35 57 36 58 50 60 71 61 38 62 22 63 23 64 31 65 24 66
REMARK SMILES IDX 26 67 32 68 25 69 27 70 28 71 29 72 30 73 54 74 55 75 63 76
REMARK SMILES IDX 56 77 58 78 64 79 57 80 59 81 60 82 61 83 62 84 39 85 40 86
REMARK SMILES IDX 48 87 41 88 43 89 49 90 42 91 44 92 45 93 46 94 47 95
REMARK H PARENT 5 6 10 29 69 48 37 59
REMARK Flexibility Score: inf
ROOT
ATOM      1  C   UNL A   1      32.375  26.994  26.407  1.00  0.00     0.023 C 
ENDROOT
BRANCH   1   2
ATOM      2  C   UNL A   1      32.594  26.387  25.018  1.00  0.00     0.116 C 
BRANCH   2   3
ATOM      3  N   UNL A   1      31.516  25.466  24.716  1.00  0.00    -0.356 N 
ATOM      4  C   UNL A   1      31.527  24.450  23.805  1.00  0.00     0.227 C 
ATOM      5  O   UNL A   1      30.471  24.131  23.260  1.00  0.00    -0.274 OA
ATOM      6  H   UNL A   1      30.681  25.587  25.225  1.00  0.00     0.163 HD
BRANCH   4   7
ATOM      7  C   UNL A   1      32.850  23.753  23.491  1.00  0.00     0.112 C 
ATOM      8  C   UNL A   1      33.074  23.982  21.979  1.00  0.00     0.023 C 
BRANCH   7   9
ATOM      9  C   UNL A   1      32.918  22.258  23.843  1.00  0.00     0.042 A 
ATOM     10  C   UNL A   1      32.382  21.347  22.910  1.00  0.00     0.012 A 
ATOM     11  C   UNL A   1      33.467  21.686  25.011  1.00  0.00     0.273 A 
ATOM     12  C   UNL A   1      32.220  19.994  23.208  1.00  0.00     0.004 A 
ATOM     13  C   UNL A   1      33.235  20.337  25.349  1.00  0.00     0.089 A 
ATOM     14  C   UNL A   1      32.551  19.496  24.469  1.00  0.00    -0.040 A 
BRANCH  11  15
ATOM     15  N   UNL A   1      34.445  22.389  25.850  1.00  0.00     0.063 N 
ATOM     16  O   UNL A   1      34.052  23.379  26.486  1.00  0.00    -0.258 OA
ATOM     17  O   UNL A   1      35.566  21.869  25.953  1.00  0.00    -0.258 OA
ENDBRANCH  11  15
BRANCH  14  18
ATOM     18  C   UNL A   1      32.212  18.078  24.855  1.00  0.00     0.047 C 
BRANCH  18  19
ATOM     19  C   UNL A   1      33.019  16.972  24.156  1.00  0.00     0.060 C 
ATOM     20  C   UNL A   1      34.456  17.322  23.756  1.00  0.00     0.012 C 
ATOM     21  C   UNL A   1      33.220  15.748  25.021  1.00  0.00     0.136 C 
ATOM     22  C   UNL A   1      35.362  16.742  24.837  1.00  0.00     0.009 C 
ATOM     23  C   UNL A   1      34.670  15.478  25.324  1.00  0.00     0.076 C 
ATOM     24  O   UNL A   1      32.303  15.045  25.430  1.00  0.00    -0.299 OA
ENDBRANCH  18  19
ENDBRANCH  14  18
ENDBRANCH   7   9
ENDBRANCH   4   7
ENDBRANCH   2   3
ENDBRANCH   1   2
BRANCH   1  25
ATOM     25  C   UNL A   1      31.888  28.445  26.382  1.00  0.00     0.023 C 
BRANCH  25  26
ATOM     26  C   UNL A   1      32.905  29.439  25.837  1.00  0.00     0.116 C 
BRANCH  26  27
ATOM     27  N   UNL A   1      32.605  30.807  26.235  1.00  0.00    -0.352 N 
ATOM     28  C   UNL A   1      33.257  31.591  27.154  1.00  0.00     0.251 C 
ATOM     29  H   UNL A   1      31.834  31.225  25.788  1.00  0.00     0.163 HD
ATOM     30  O   UNL A   1      32.773  32.665  27.502  1.00  0.00    -0.269 OA
BRANCH  28  31
ATOM     31  C   UNL A   1      34.527  31.115  27.736  1.00  0.00     0.039 A 
ATOM     32  C   UNL A   1      35.577  32.020  27.899  1.00  0.00     0.014 A 
ATOM     33  C   UNL A   1      34.664  29.787  28.150  1.00  0.00     0.014 A 
ATOM     34  C   UNL A   1      36.747  31.604  28.536  1.00  0.00     0.010 A 
ATOM     35  C   UNL A   1      35.798  29.397  28.853  1.00  0.00     0.010 A 
ATOM     36  C   UNL A   1      36.854  30.300  29.048  1.00  0.00    -0.014 A 
BRANCH  36  37
ATOM     37  C   UNL A   1      38.056  29.869  29.807  1.00  0.00     0.031 A 
ATOM     38  C   UNL A   1      38.303  30.391  31.196  1.00  0.00     0.074 A 
ATOM     39  C   UNL A   1      38.964  29.071  29.212  1.00  0.00     0.049 A 
ATOM     40  N   UNL A   1      39.313  30.159  31.994  1.00  0.00    -0.248 NA
ATOM     41  C   UNL A   1      37.300  31.315  31.753  1.00  0.00     0.031 C 
ATOM     42  C   UNL A   1      38.879  28.568  27.839  1.00  0.00     0.029 A 
ATOM     43  N   UNL A   1      40.152  28.565  29.676  1.00  0.00    -0.354 N 
ATOM     44  C   UNL A   1      39.087  30.929  33.128  1.00  0.00     0.074 A 
ATOM     45  C   UNL A   1      37.861  31.664  32.901  1.00  0.00     0.031 C 
ATOM     46  C   UNL A   1      39.963  27.821  27.576  1.00  0.00     0.029 A 
ATOM     47  C   UNL A   1      40.835  27.816  28.745  1.00  0.00     0.049 A 
ATOM     48  H   UNL A   1      40.485  28.722  30.590  1.00  0.00     0.167 HD
ATOM     49  C   UNL A   1      39.815  30.997  34.268  1.00  0.00     0.034 A 
ATOM     50  C   UNL A   1      42.032  27.203  28.822  1.00  0.00     0.034 A 
ATOM     51  C   UNL A   1      41.013  30.237  34.502  1.00  0.00     0.049 A 
ATOM     52  C   UNL A   1      42.804  27.267  30.112  1.00  0.00     0.074 A 
ATOM     53  C   UNL A   1      41.773  30.168  35.655  1.00  0.00     0.029 A 
ATOM     54  N   UNL A   1      41.631  29.425  33.566  1.00  0.00    -0.354 N 
ATOM     55  N   UNL A   1      42.488  27.867  31.234  1.00  0.00    -0.248 NA
ATOM     56  C   UNL A   1      44.079  26.537  30.161  1.00  0.00     0.031 C 
ATOM     57  C   UNL A   1      42.870  29.336  35.406  1.00  0.00     0.029 A 
ATOM     58  C   UNL A   1      42.772  28.859  34.110  1.00  0.00     0.049 A 
ATOM     59  H   UNL A   1      41.307  29.272  32.649  1.00  0.00     0.167 HD
ATOM     60  C   UNL A   1      43.504  27.560  32.131  1.00  0.00     0.074 A 
ATOM     61  C   UNL A   1      44.433  26.698  31.428  1.00  0.00     0.031 C 
ATOM     62  C   UNL A   1      43.661  27.962  33.416  1.00  0.00     0.034 A 
BRANCH  49  63
ATOM     63  C   UNL A   1      39.310  31.890  35.371  1.00  0.00     0.023 A 
ATOM     64  C   UNL A   1      38.423  31.370  36.338  1.00  0.00     0.012 A 
ATOM     65  C   UNL A   1      39.759  33.220  35.492  1.00  0.00     0.148 A 
ATOM     66  C   UNL A   1      37.964  32.167  37.385  1.00  0.00     0.002 A 
ATOM     67  C   UNL A   1      39.334  33.994  36.566  1.00  0.00     0.091 A 
ATOM     68  F   UNL A   1      40.586  33.704  34.555  1.00  0.00    -0.205 F 
ATOM     69  C   UNL A   1      38.428  33.474  37.505  1.00  0.00     0.022 A 
BRANCH  67  70
ATOM     70  S   UNL A   1      39.936  35.661  36.859  1.00  0.00     0.127 S 
ATOM     71  O   UNL A   1      39.585  36.325  35.604  1.00  0.00    -0.237 OA
ATOM     72  O   UNL A   1      39.137  36.077  38.012  1.00  0.00    -0.237 OA
ATOM     73  O   UNL A   1      41.362  35.535  37.120  1.00  0.00    -0.744 OA
ENDBRANCH  67  70
ENDBRANCH  49  63
BRANCH  50  74
ATOM     74  C   UNL A   1      42.548  26.423  27.662  1.00  0.00     0.023 A 
ATOM     75  C   UNL A   1      43.478  27.016  26.786  1.00  0.00     0.012 A 
ATOM     76  C   UNL A   1      42.139  25.095  27.430  1.00  0.00     0.148 A 
ATOM     77  C   UNL A   1      43.964  26.317  25.680  1.00  0.00     0.002 A 
ATOM     78  C   UNL A   1      42.670  24.384  26.360  1.00  0.00     0.091 A 
ATOM     79  F   UNL A   1      41.247  24.551  28.270  1.00  0.00    -0.205 F 
ATOM     80  C   UNL A   1      43.566  24.999  25.473  1.00  0.00     0.022 A 
BRANCH  78  81
ATOM     81  S   UNL A   1      42.318  22.642  26.093  1.00  0.00     0.127 S 
ATOM     82  O   UNL A   1      40.860  22.616  26.176  1.00  0.00    -0.237 OA
ATOM     83  O   UNL A   1      42.863  22.429  24.751  1.00  0.00    -0.237 OA
ATOM     84  O   UNL A   1      43.027  21.932  27.148  1.00  0.00    -0.744 OA
ENDBRANCH  78  81
ENDBRANCH  50  74
BRANCH  62  85
ATOM     85  C   UNL A   1      44.861  27.448  34.169  1.00  0.00     0.023 A 
ATOM     86  C   UNL A   1      46.052  28.201  34.195  1.00  0.00     0.012 A 
ATOM     87  C   UNL A   1      44.783  26.251  34.908  1.00  0.00     0.148 A 
ATOM     88  C   UNL A   1      47.157  27.752  34.916  1.00  0.00     0.002 A 
ATOM     89  C   UNL A   1      45.870  25.838  35.668  1.00  0.00     0.091 A 
ATOM     90  F   UNL A   1      43.646  25.541  34.856  1.00  0.00    -0.205 F 
ATOM     91  C   UNL A   1      47.062  26.579  35.662  1.00  0.00     0.022 A 
BRANCH  89  92
ATOM     92  S   UNL A   1      45.806  24.394  36.734  1.00  0.00     0.127 S 
ATOM     93  O   UNL A   1      45.183  23.404  35.858  1.00  0.00    -0.237 OA
ATOM     94  O   UNL A   1      47.222  24.155  37.015  1.00  0.00    -0.237 OA
ATOM     95  O   UNL A   1      45.018  24.785  37.895  1.00  0.00    -0.744 OA
ENDBRANCH  89  92
ENDBRANCH  62  85
ENDBRANCH  36  37
ENDBRANCH  28  31
ENDBRANCH  26  27
ENDBRANCH  25  26
ENDBRANCH   1  25
TORSDOF 18
ENDMDL
