MODEL 1
REMARK VINA RESULT:     -10.4      0.000      0.000
REMARK SMILES C[C@@H](C(=O)NCCCCNC(=O)c1ccc(-c2c3nc(c(-c4cccc(S(=O)(=O)[O-])c4F)c4ccc([nH]4)c(-c4cccc(S(=O)(=O)[O-])c4F)c4nc(c(-c5cccc(S(=O)(=O)[O-])c5F)c5ccc2[nH]5)C=C4)C=C3)cc1)c1ccc(-c2ccccc2)cc1
REMARK SMILES IDX 8 1 7 2 6 3 5 4 3 5 4 6 2 8 1 9 76 10 77 11 87 12 78 13
REMARK SMILES IDX 86 14 79 15 80 16 81 17 85 18 82 19 84 20 83 21 9 22 10 23
REMARK SMILES IDX 11 24 12 26 13 27 14 28 75 29 15 30 74 31 16 32 17 33 18 34
REMARK SMILES IDX 68 35 19 36 73 37 67 38 69 39 20 40 72 41 66 42 65 43 21 45
REMARK SMILES IDX 53 46 33 47 52 48 34 49 37 50 51 51 70 52 35 53 36 54 50 56
REMARK SMILES IDX 71 57 38 58 22 59 23 60 31 61 24 62 26 63 32 64 25 65 27 66
REMARK SMILES IDX 28 67 29 68 30 69 54 70 55 71 63 72 56 73 58 74 64 75 57 76
REMARK SMILES IDX 59 77 60 78 61 79 62 80 39 81 40 82 48 83 41 84 43 85 49 86
REMARK SMILES IDX 42 87 44 88 45 89 46 90 47 91
REMARK H PARENT 5 7 10 25 69 44 37 55
REMARK Flexibility Score: inf
ROOT
ATOM      1  C   UNL A   1      33.299  33.792  28.008  1.00  0.00     0.023 C 
ENDROOT
BRANCH   1   2
ATOM      2  C   UNL A   1      33.044  34.742  29.182  1.00  0.00     0.023 C 
BRANCH   2   3
ATOM      3  C   UNL A   1      34.256  35.016  30.074  1.00  0.00     0.116 C 
BRANCH   3   4
ATOM      4  N   UNL A   1      34.020  34.619  31.445  1.00  0.00    -0.356 N 
ATOM      5  C   UNL A   1      34.514  33.571  32.168  1.00  0.00     0.227 C 
ATOM      6  O   UNL A   1      34.151  33.502  33.345  1.00  0.00    -0.274 OA
ATOM      7  H   UNL A   1      33.399  35.201  31.940  1.00  0.00     0.163 HD
BRANCH   5   8
ATOM      8  C   UNL A   1      35.504  32.579  31.528  1.00  0.00     0.105 C 
ATOM      9  C   UNL A   1      35.851  31.410  32.453  1.00  0.00     0.023 C 
BRANCH   8  10
ATOM     10  C   UNL A   1      36.817  33.221  31.081  1.00  0.00    -0.036 A 
ATOM     11  C   UNL A   1      37.269  33.065  29.763  1.00  0.00     0.005 A 
ATOM     12  C   UNL A   1      37.641  33.900  31.991  1.00  0.00     0.005 A 
ATOM     13  C   UNL A   1      38.515  33.571  29.372  1.00  0.00     0.009 A 
ATOM     14  C   UNL A   1      38.880  34.409  31.595  1.00  0.00     0.009 A 
ATOM     15  C   UNL A   1      39.345  34.244  30.283  1.00  0.00    -0.018 A 
BRANCH  15  16
ATOM     16  C   UNL A   1      40.669  34.748  29.886  1.00  0.00    -0.018 A 
ATOM     17  C   UNL A   1      41.791  34.576  30.711  1.00  0.00     0.009 A 
ATOM     18  C   UNL A   1      40.847  35.412  28.660  1.00  0.00     0.009 A 
ATOM     19  C   UNL A   1      43.048  35.050  30.325  1.00  0.00     0.001 A 
ATOM     20  C   UNL A   1      42.102  35.888  28.273  1.00  0.00     0.001 A 
ATOM     21  C   UNL A   1      43.203  35.706  29.107  1.00  0.00     0.000 A 
ENDBRANCH  15  16
ENDBRANCH   8  10
ENDBRANCH   5   8
ENDBRANCH   3   4
ENDBRANCH   2   3
ENDBRANCH   1   2
BRANCH   1  22
ATOM     22  C   UNL A   1      34.122  32.548  28.328  1.00  0.00     0.116 C 
BRANCH  22  23
ATOM     23  N   UNL A   1      33.746  31.393  27.525  1.00  0.00    -0.352 N 
ATOM     24  C   UNL A   1      34.455  30.242  27.277  1.00  0.00     0.251 C 
ATOM     25  H   UNL A   1      32.860  31.445  27.099  1.00  0.00     0.163 HD
ATOM     26  O   UNL A   1      34.025  29.415  26.476  1.00  0.00    -0.269 OA
BRANCH  24  27
ATOM     27  C   UNL A   1      35.754  30.021  27.949  1.00  0.00     0.039 A 
ATOM     28  C   UNL A   1      35.760  29.567  29.271  1.00  0.00     0.014 A 
ATOM     29  C   UNL A   1      36.956  30.217  27.264  1.00  0.00     0.014 A 
ATOM     30  C   UNL A   1      36.969  29.218  29.876  1.00  0.00     0.010 A 
ATOM     31  C   UNL A   1      38.155  29.815  27.849  1.00  0.00     0.010 A 
ATOM     32  C   UNL A   1      38.170  29.291  29.151  1.00  0.00    -0.014 A 
BRANCH  32  33
ATOM     33  C   UNL A   1      39.439  28.744  29.697  1.00  0.00     0.031 A 
ATOM     34  C   UNL A   1      40.178  29.463  30.791  1.00  0.00     0.074 A 
ATOM     35  C   UNL A   1      39.993  27.664  29.106  1.00  0.00     0.049 A 
ATOM     36  N   UNL A   1      41.345  29.187  31.313  1.00  0.00    -0.248 NA
ATOM     37  C   UNL A   1      39.535  30.661  31.356  1.00  0.00     0.031 C 
ATOM     38  C   UNL A   1      39.417  26.932  27.975  1.00  0.00     0.029 A 
ATOM     39  N   UNL A   1      41.184  27.023  29.342  1.00  0.00    -0.354 N 
ATOM     40  C   UNL A   1      41.597  30.193  32.236  1.00  0.00     0.074 A 
ATOM     41  C   UNL A   1      40.465  31.095  32.197  1.00  0.00     0.031 C 
ATOM     42  C   UNL A   1      40.263  25.958  27.604  1.00  0.00     0.029 A 
ATOM     43  C   UNL A   1      41.453  26.013  28.447  1.00  0.00     0.049 A 
ATOM     44  H   UNL A   1      41.789  27.263  30.081  1.00  0.00     0.167 HD
ATOM     45  C   UNL A   1      42.664  30.339  33.057  1.00  0.00     0.034 A 
ATOM     46  C   UNL A   1      42.542  25.232  28.303  1.00  0.00     0.034 A 
ATOM     47  C   UNL A   1      43.759  29.409  33.134  1.00  0.00     0.049 A 
ATOM     48  C   UNL A   1      43.695  25.398  29.255  1.00  0.00     0.074 A 
ATOM     49  C   UNL A   1      44.812  29.398  34.032  1.00  0.00     0.029 A 
ATOM     50  N   UNL A   1      43.953  28.340  32.276  1.00  0.00    -0.354 N 
ATOM     51  N   UNL A   1      43.817  26.228  30.262  1.00  0.00    -0.248 NA
ATOM     52  C   UNL A   1      44.846  24.502  29.071  1.00  0.00     0.031 C 
ATOM     53  C   UNL A   1      45.658  28.334  33.700  1.00  0.00     0.029 A 
ATOM     54  C   UNL A   1      45.124  27.678  32.605  1.00  0.00     0.049 A 
ATOM     55  H   UNL A   1      43.349  28.090  31.540  1.00  0.00     0.167 HD
ATOM     56  C   UNL A   1      45.046  25.940  30.844  1.00  0.00     0.074 A 
ATOM     57  C   UNL A   1      45.616  24.838  30.098  1.00  0.00     0.031 C 
ATOM     58  C   UNL A   1      45.659  26.551  31.888  1.00  0.00     0.034 A 
BRANCH  45  59
ATOM     59  C   UNL A   1      42.682  31.514  33.996  1.00  0.00     0.023 A 
ATOM     60  C   UNL A   1      43.174  32.753  33.540  1.00  0.00     0.012 A 
ATOM     61  C   UNL A   1      42.114  31.423  35.281  1.00  0.00     0.148 A 
ATOM     62  C   UNL A   1      43.114  33.882  34.356  1.00  0.00     0.002 A 
ATOM     63  C   UNL A   1      42.026  32.560  36.075  1.00  0.00     0.091 A 
ATOM     64  F   UNL A   1      41.668  30.229  35.700  1.00  0.00    -0.205 F 
ATOM     65  C   UNL A   1      42.531  33.788  35.616  1.00  0.00     0.022 A 
BRANCH  63  66
ATOM     66  S   UNL A   1      41.229  32.564  37.686  1.00  0.00     0.127 S 
ATOM     67  O   UNL A   1      41.319  33.978  38.054  1.00  0.00    -0.237 OA
ATOM     68  O   UNL A   1      39.880  32.103  37.363  1.00  0.00    -0.237 OA
ATOM     69  O   UNL A   1      42.002  31.655  38.520  1.00  0.00    -0.744 OA
ENDBRANCH  63  66
ENDBRANCH  45  59
BRANCH  46  70
ATOM     70  C   UNL A   1      42.581  24.192  27.235  1.00  0.00     0.023 A 
ATOM     71  C   UNL A   1      43.239  24.472  26.022  1.00  0.00     0.012 A 
ATOM     72  C   UNL A   1      41.988  22.929  27.418  1.00  0.00     0.148 A 
ATOM     73  C   UNL A   1      43.277  23.526  24.999  1.00  0.00     0.002 A 
ATOM     74  C   UNL A   1      42.077  21.970  26.415  1.00  0.00     0.091 A 
ATOM     75  F   UNL A   1      41.346  22.685  28.570  1.00  0.00    -0.205 F 
ATOM     76  C   UNL A   1      42.706  22.271  25.198  1.00  0.00     0.022 A 
BRANCH  74  77
ATOM     77  S   UNL A   1      41.488  20.290  26.660  1.00  0.00     0.127 S 
ATOM     78  O   UNL A   1      40.047  20.490  26.774  1.00  0.00    -0.237 OA
ATOM     79  O   UNL A   1      41.923  19.625  25.430  1.00  0.00    -0.237 OA
ATOM     80  O   UNL A   1      42.172  19.821  27.859  1.00  0.00    -0.744 OA
ENDBRANCH  74  77
ENDBRANCH  46  70
BRANCH  58  81
ATOM     81  C   UNL A   1      47.016  26.043  32.296  1.00  0.00     0.023 A 
ATOM     82  C   UNL A   1      48.168  26.596  31.701  1.00  0.00     0.012 A 
ATOM     83  C   UNL A   1      47.156  25.084  33.317  1.00  0.00     0.148 A 
ATOM     84  C   UNL A   1      49.438  26.184  32.100  1.00  0.00     0.002 A 
ATOM     85  C   UNL A   1      48.427  24.711  33.741  1.00  0.00     0.091 A 
ATOM     86  F   UNL A   1      46.048  24.557  33.858  1.00  0.00    -0.205 F 
ATOM     87  C   UNL A   1      49.568  25.252  33.126  1.00  0.00     0.022 A 
BRANCH  85  88
ATOM     88  S   UNL A   1      48.693  23.584  35.115  1.00  0.00     0.127 S 
ATOM     89  O   UNL A   1      50.152  23.530  35.178  1.00  0.00    -0.237 OA
ATOM     90  O   UNL A   1      48.059  24.294  36.227  1.00  0.00    -0.237 OA
ATOM     91  O   UNL A   1      48.036  22.338  34.745  1.00  0.00    -0.744 OA
ENDBRANCH  85  88
ENDBRANCH  58  81
ENDBRANCH  32  33
ENDBRANCH  24  27
ENDBRANCH  22  23
ENDBRANCH   1  22
TORSDOF 16
ENDMDL
MODEL 2
REMARK VINA RESULT:     -10.2      5.883      9.925
REMARK SMILES C[C@@H](C(=O)NCCCCNC(=O)c1ccc(-c2c3nc(c(-c4cccc(S(=O)(=O)[O-])c4F)c4ccc([nH]4)c(-c4cccc(S(=O)(=O)[O-])c4F)c4nc(c(-c5cccc(S(=O)(=O)[O-])c5F)c5ccc2[nH]5)C=C4)C=C3)cc1)c1ccc(-c2ccccc2)cc1
REMARK SMILES IDX 8 1 7 2 6 3 5 4 3 5 4 6 2 8 1 9 76 10 77 11 87 12 78 13
REMARK SMILES IDX 86 14 79 15 80 16 81 17 85 18 82 19 84 20 83 21 9 22 10 23
REMARK SMILES IDX 11 24 12 26 13 27 14 28 75 29 15 30 74 31 16 32 17 33 18 34
REMARK SMILES IDX 68 35 19 36 73 37 67 38 69 39 20 40 72 41 66 42 65 43 21 45
REMARK SMILES IDX 53 46 33 47 52 48 34 49 37 50 51 51 70 52 35 53 36 54 50 56
REMARK SMILES IDX 71 57 38 58 22 59 23 60 31 61 24 62 26 63 32 64 25 65 27 66
REMARK SMILES IDX 28 67 29 68 30 69 54 70 55 71 63 72 56 73 58 74 64 75 57 76
REMARK SMILES IDX 59 77 60 78 61 79 62 80 39 81 40 82 48 83 41 84 43 85 49 86
REMARK SMILES IDX 42 87 44 88 45 89 46 90 47 91
REMARK H PARENT 5 7 10 25 69 44 37 55
REMARK Flexibility Score: inf
ROOT
ATOM      1  C   UNL A   1      35.800  21.258  25.676  1.00  0.00     0.023 C 
ENDROOT
BRANCH   1   2
ATOM      2  C   UNL A   1      34.754  20.386  24.976  1.00  0.00     0.023 C 
BRANCH   2   3
ATOM      3  C   UNL A   1      33.476  21.113  24.553  1.00  0.00     0.116 C 
BRANCH   3   4
ATOM      4  N   UNL A   1      32.890  21.856  25.648  1.00  0.00    -0.356 N 
ATOM      5  C   UNL A   1      32.814  23.200  25.875  1.00  0.00     0.227 C 
ATOM      6  O   UNL A   1      32.218  23.547  26.897  1.00  0.00    -0.274 OA
ATOM      7  H   UNL A   1      32.475  21.299  26.346  1.00  0.00     0.163 HD
BRANCH   5   8
ATOM      8  C   UNL A   1      33.413  24.197  24.864  1.00  0.00     0.105 C 
ATOM      9  C   UNL A   1      34.688  24.869  25.380  1.00  0.00     0.023 C 
BRANCH   8  10
ATOM     10  C   UNL A   1      32.446  25.304  24.444  1.00  0.00    -0.036 A 
ATOM     11  C   UNL A   1      32.783  26.650  24.638  1.00  0.00     0.005 A 
ATOM     12  C   UNL A   1      31.173  25.003  23.938  1.00  0.00     0.005 A 
ATOM     13  C   UNL A   1      31.864  27.665  24.341  1.00  0.00     0.009 A 
ATOM     14  C   UNL A   1      30.262  26.018  23.637  1.00  0.00     0.009 A 
ATOM     15  C   UNL A   1      30.586  27.366  23.843  1.00  0.00    -0.018 A 
BRANCH  15  16
ATOM     16  C   UNL A   1      29.605  28.426  23.561  1.00  0.00    -0.018 A 
ATOM     17  C   UNL A   1      28.287  28.119  23.190  1.00  0.00     0.009 A 
ATOM     18  C   UNL A   1      29.963  29.782  23.664  1.00  0.00     0.009 A 
ATOM     19  C   UNL A   1      27.359  29.131  22.930  1.00  0.00     0.001 A 
ATOM     20  C   UNL A   1      29.037  30.795  23.403  1.00  0.00     0.001 A 
ATOM     21  C   UNL A   1      27.734  30.468  23.037  1.00  0.00     0.000 A 
ENDBRANCH  15  16
ENDBRANCH   8  10
ENDBRANCH   5   8
ENDBRANCH   3   4
ENDBRANCH   2   3
ENDBRANCH   1   2
BRANCH   1  22
ATOM     22  C   UNL A   1      37.116  21.446  24.925  1.00  0.00     0.116 C 
BRANCH  22  23
ATOM     23  N   UNL A   1      38.071  20.375  25.174  1.00  0.00    -0.352 N 
ATOM     24  C   UNL A   1      39.286  20.430  25.814  1.00  0.00     0.251 C 
ATOM     25  H   UNL A   1      37.810  19.488  24.835  1.00  0.00     0.163 HD
ATOM     26  O   UNL A   1      40.018  19.442  25.832  1.00  0.00    -0.269 OA
BRANCH  24  27
ATOM     27  C   UNL A   1      39.726  21.692  26.448  1.00  0.00     0.039 A 
ATOM     28  C   UNL A   1      40.747  21.646  27.402  1.00  0.00     0.014 A 
ATOM     29  C   UNL A   1      39.166  22.915  26.071  1.00  0.00     0.014 A 
ATOM     30  C   UNL A   1      41.272  22.838  27.908  1.00  0.00     0.010 A 
ATOM     31  C   UNL A   1      39.729  24.102  26.534  1.00  0.00     0.010 A 
ATOM     32  C   UNL A   1      40.802  24.075  27.439  1.00  0.00    -0.014 A 
BRANCH  32  33
ATOM     33  C   UNL A   1      41.470  25.349  27.808  1.00  0.00     0.031 A 
ATOM     34  C   UNL A   1      40.711  26.438  28.512  1.00  0.00     0.074 A 
ATOM     35  C   UNL A   1      42.732  25.572  27.382  1.00  0.00     0.049 A 
ATOM     36  N   UNL A   1      41.104  27.648  28.818  1.00  0.00    -0.248 NA
ATOM     37  C   UNL A   1      39.324  26.141  28.905  1.00  0.00     0.031 C 
ATOM     38  C   UNL A   1      43.542  24.628  26.610  1.00  0.00     0.029 A 
ATOM     39  N   UNL A   1      43.536  26.680  27.497  1.00  0.00    -0.354 N 
ATOM     40  C   UNL A   1      40.007  28.270  29.399  1.00  0.00     0.074 A 
ATOM     41  C   UNL A   1      38.925  27.307  29.396  1.00  0.00     0.031 C 
ATOM     42  C   UNL A   1      44.717  25.202  26.304  1.00  0.00     0.029 A 
ATOM     43  C   UNL A   1      44.733  26.562  26.830  1.00  0.00     0.049 A 
ATOM     44  H   UNL A   1      43.280  27.482  28.008  1.00  0.00     0.167 HD
ATOM     45  C   UNL A   1      39.916  29.521  29.910  1.00  0.00     0.034 A 
ATOM     46  C   UNL A   1      45.725  27.455  26.640  1.00  0.00     0.034 A 
ATOM     47  C   UNL A   1      41.010  30.454  29.963  1.00  0.00     0.049 A 
ATOM     48  C   UNL A   1      45.607  28.824  27.252  1.00  0.00     0.074 A 
ATOM     49  C   UNL A   1      41.053  31.689  30.586  1.00  0.00     0.029 A 
ATOM     50  N   UNL A   1      42.242  30.267  29.361  1.00  0.00    -0.354 N 
ATOM     51  N   UNL A   1      44.637  29.319  27.982  1.00  0.00    -0.248 NA
ATOM     52  C   UNL A   1      46.729  29.750  27.038  1.00  0.00     0.031 C 
ATOM     53  C   UNL A   1      42.305  32.260  30.339  1.00  0.00     0.029 A 
ATOM     54  C   UNL A   1      43.045  31.375  29.573  1.00  0.00     0.049 A 
ATOM     55  H   UNL A   1      42.508  29.465  28.855  1.00  0.00     0.167 HD
ATOM     56  C   UNL A   1      45.042  30.601  28.333  1.00  0.00     0.074 A 
ATOM     57  C   UNL A   1      46.359  30.797  27.763  1.00  0.00     0.031 C 
ATOM     58  C   UNL A   1      44.373  31.542  29.044  1.00  0.00     0.034 A 
BRANCH  45  59
ATOM     59  C   UNL A   1      38.608  29.947  30.517  1.00  0.00     0.023 A 
ATOM     60  C   UNL A   1      38.358  29.676  31.877  1.00  0.00     0.012 A 
ATOM     61  C   UNL A   1      37.682  30.708  29.779  1.00  0.00     0.148 A 
ATOM     62  C   UNL A   1      37.198  30.143  32.491  1.00  0.00     0.002 A 
ATOM     63  C   UNL A   1      36.543  31.201  30.407  1.00  0.00     0.091 A 
ATOM     64  F   UNL A   1      37.932  30.939  28.482  1.00  0.00    -0.205 F 
ATOM     65  C   UNL A   1      36.298  30.914  31.761  1.00  0.00     0.022 A 
BRANCH  63  66
ATOM     66  S   UNL A   1      35.356  32.263  29.577  1.00  0.00     0.127 S 
ATOM     67  O   UNL A   1      34.847  31.374  28.532  1.00  0.00    -0.237 OA
ATOM     68  O   UNL A   1      34.403  32.554  30.647  1.00  0.00    -0.237 OA
ATOM     69  O   UNL A   1      36.109  33.414  29.099  1.00  0.00    -0.744 OA
ENDBRANCH  63  66
ENDBRANCH  45  59
BRANCH  46  70
ATOM     70  C   UNL A   1      46.940  27.070  25.867  1.00  0.00     0.023 A 
ATOM     71  C   UNL A   1      47.907  26.242  26.467  1.00  0.00     0.012 A 
ATOM     72  C   UNL A   1      47.136  27.505  24.543  1.00  0.00     0.148 A 
ATOM     73  C   UNL A   1      49.063  25.880  25.774  1.00  0.00     0.002 A 
ATOM     74  C   UNL A   1      48.263  27.095  23.839  1.00  0.00     0.091 A 
ATOM     75  F   UNL A   1      46.217  28.312  23.992  1.00  0.00    -0.205 F 
ATOM     76  C   UNL A   1      49.236  26.297  24.457  1.00  0.00     0.022 A 
BRANCH  74  77
ATOM     77  S   UNL A   1      48.479  27.479  22.096  1.00  0.00     0.127 S 
ATOM     78  O   UNL A   1      48.696  26.156  21.521  1.00  0.00    -0.237 OA
ATOM     79  O   UNL A   1      47.197  28.098  21.753  1.00  0.00    -0.237 OA
ATOM     80  O   UNL A   1      49.610  28.398  22.049  1.00  0.00    -0.744 OA
ENDBRANCH  74  77
ENDBRANCH  46  70
BRANCH  58  81
ATOM     81  C   UNL A   1      45.047  32.871  29.254  1.00  0.00     0.023 A 
ATOM     82  C   UNL A   1      45.890  33.048  30.369  1.00  0.00     0.012 A 
ATOM     83  C   UNL A   1      44.914  33.911  28.314  1.00  0.00     0.148 A 
ATOM     84  C   UNL A   1      46.571  34.249  30.558  1.00  0.00     0.002 A 
ATOM     85  C   UNL A   1      45.630  35.090  28.486  1.00  0.00     0.091 A 
ATOM     86  F   UNL A   1      44.092  33.729  27.270  1.00  0.00    -0.205 F 
ATOM     87  C   UNL A   1      46.451  35.264  29.612  1.00  0.00     0.022 A 
BRANCH  85  88
ATOM     88  S   UNL A   1      45.607  36.417  27.275  1.00  0.00     0.127 S 
ATOM     89  O   UNL A   1      44.180  36.723  27.196  1.00  0.00    -0.237 OA
ATOM     90  O   UNL A   1      46.417  37.447  27.926  1.00  0.00    -0.237 OA
ATOM     91  O   UNL A   1      46.197  35.864  26.063  1.00  0.00    -0.744 OA
ENDBRANCH  85  88
ENDBRANCH  58  81
ENDBRANCH  32  33
ENDBRANCH  24  27
ENDBRANCH  22  23
ENDBRANCH   1  22
TORSDOF 16
ENDMDL
MODEL 3
REMARK VINA RESULT:     -10.0      4.371     10.954
REMARK SMILES C[C@@H](C(=O)NCCCCNC(=O)c1ccc(-c2c3nc(c(-c4cccc(S(=O)(=O)[O-])c4F)c4ccc([nH]4)c(-c4cccc(S(=O)(=O)[O-])c4F)c4nc(c(-c5cccc(S(=O)(=O)[O-])c5F)c5ccc2[nH]5)C=C4)C=C3)cc1)c1ccc(-c2ccccc2)cc1
REMARK SMILES IDX 8 1 7 2 6 3 5 4 3 5 4 6 2 8 1 9 76 10 77 11 87 12 78 13
REMARK SMILES IDX 86 14 79 15 80 16 81 17 85 18 82 19 84 20 83 21 9 22 10 23
REMARK SMILES IDX 11 24 12 26 13 27 14 28 75 29 15 30 74 31 16 32 17 33 18 34
REMARK SMILES IDX 68 35 19 36 73 37 67 38 69 39 20 40 72 41 66 42 65 43 21 45
REMARK SMILES IDX 53 46 33 47 52 48 34 49 37 50 51 51 70 52 35 53 36 54 50 56
REMARK SMILES IDX 71 57 38 58 22 59 23 60 31 61 24 62 26 63 32 64 25 65 27 66
REMARK SMILES IDX 28 67 29 68 30 69 54 70 55 71 63 72 56 73 58 74 64 75 57 76
REMARK SMILES IDX 59 77 60 78 61 79 62 80 39 81 40 82 48 83 41 84 43 85 49 86
REMARK SMILES IDX 42 87 44 88 45 89 46 90 47 91
REMARK H PARENT 5 7 10 25 69 44 37 55
REMARK Flexibility Score: inf
ROOT
ATOM      1  C   UNL A   1      31.836  29.423  25.261  1.00  0.00     0.023 C 
ENDROOT
BRANCH   1   2
ATOM      2  C   UNL A   1      32.686  28.338  24.595  1.00  0.00     0.023 C 
BRANCH   2   3
ATOM      3  C   UNL A   1      31.898  27.228  23.897  1.00  0.00     0.116 C 
BRANCH   3   4
ATOM      4  N   UNL A   1      32.742  26.425  23.037  1.00  0.00    -0.356 N 
ATOM      5  C   UNL A   1      33.379  25.240  23.267  1.00  0.00     0.227 C 
ATOM      6  O   UNL A   1      34.014  24.770  22.320  1.00  0.00    -0.274 OA
ATOM      7  H   UNL A   1      32.879  26.795  22.135  1.00  0.00     0.163 HD
BRANCH   5   8
ATOM      8  C   UNL A   1      33.249  24.536  24.632  1.00  0.00     0.105 C 
ATOM      9  C   UNL A   1      34.337  24.961  25.622  1.00  0.00     0.023 C 
BRANCH   8  10
ATOM     10  C   UNL A   1      33.275  23.010  24.544  1.00  0.00    -0.036 A 
ATOM     11  C   UNL A   1      32.084  22.290  24.381  1.00  0.00     0.005 A 
ATOM     12  C   UNL A   1      34.468  22.293  24.711  1.00  0.00     0.005 A 
ATOM     13  C   UNL A   1      32.090  20.889  24.393  1.00  0.00     0.009 A 
ATOM     14  C   UNL A   1      34.471  20.896  24.715  1.00  0.00     0.009 A 
ATOM     15  C   UNL A   1      33.282  20.169  24.568  1.00  0.00    -0.018 A 
BRANCH  15  16
ATOM     16  C   UNL A   1      33.289  18.699  24.615  1.00  0.00    -0.018 A 
ATOM     17  C   UNL A   1      33.848  17.940  23.575  1.00  0.00     0.009 A 
ATOM     18  C   UNL A   1      32.740  18.012  25.712  1.00  0.00     0.009 A 
ATOM     19  C   UNL A   1      33.859  16.543  23.629  1.00  0.00     0.001 A 
ATOM     20  C   UNL A   1      32.748  16.616  25.767  1.00  0.00     0.001 A 
ATOM     21  C   UNL A   1      33.308  15.882  24.724  1.00  0.00     0.000 A 
ENDBRANCH  15  16
ENDBRANCH   8  10
ENDBRANCH   5   8
ENDBRANCH   3   4
ENDBRANCH   2   3
ENDBRANCH   1   2
BRANCH   1  22
ATOM     22  C   UNL A   1      32.322  29.902  26.626  1.00  0.00     0.116 C 
BRANCH  22  23
ATOM     23  N   UNL A   1      32.154  31.336  26.820  1.00  0.00    -0.352 N 
ATOM     24  C   UNL A   1      33.024  32.242  27.378  1.00  0.00     0.251 C 
ATOM     25  H   UNL A   1      31.297  31.707  26.509  1.00  0.00     0.163 HD
ATOM     26  O   UNL A   1      32.666  33.403  27.566  1.00  0.00    -0.269 OA
BRANCH  24  27
ATOM     27  C   UNL A   1      34.377  31.806  27.785  1.00  0.00     0.039 A 
ATOM     28  C   UNL A   1      35.372  32.772  27.960  1.00  0.00     0.014 A 
ATOM     29  C   UNL A   1      34.650  30.459  28.035  1.00  0.00     0.014 A 
ATOM     30  C   UNL A   1      36.614  32.398  28.479  1.00  0.00     0.010 A 
ATOM     31  C   UNL A   1      35.869  30.097  28.604  1.00  0.00     0.010 A 
ATOM     32  C   UNL A   1      36.853  31.066  28.853  1.00  0.00    -0.014 A 
BRANCH  32  33
ATOM     33  C   UNL A   1      38.085  30.676  29.585  1.00  0.00     0.031 A 
ATOM     34  C   UNL A   1      39.031  29.659  29.009  1.00  0.00     0.074 A 
ATOM     35  C   UNL A   1      38.277  31.143  30.837  1.00  0.00     0.049 A 
ATOM     36  N   UNL A   1      40.095  29.127  29.553  1.00  0.00    -0.248 NA
ATOM     37  C   UNL A   1      38.733  29.159  27.657  1.00  0.00     0.031 C 
ATOM     38  C   UNL A   1      37.382  32.064  31.541  1.00  0.00     0.029 A 
ATOM     39  N   UNL A   1      39.261  30.872  31.756  1.00  0.00    -0.354 N 
ATOM     40  C   UNL A   1      40.570  28.201  28.633  1.00  0.00     0.074 A 
ATOM     41  C   UNL A   1      39.673  28.236  27.497  1.00  0.00     0.031 C 
ATOM     42  C   UNL A   1      37.845  32.264  32.785  1.00  0.00     0.029 A 
ATOM     43  C   UNL A   1      39.050  31.466  32.979  1.00  0.00     0.049 A 
ATOM     44  H   UNL A   1      40.042  30.306  31.559  1.00  0.00     0.167 HD
ATOM     45  C   UNL A   1      41.667  27.412  28.718  1.00  0.00     0.034 A 
ATOM     46  C   UNL A   1      39.736  31.364  34.135  1.00  0.00     0.034 A 
ATOM     47  C   UNL A   1      42.588  27.423  29.823  1.00  0.00     0.049 A 
ATOM     48  C   UNL A   1      40.970  30.505  34.184  1.00  0.00     0.074 A 
ATOM     49  C   UNL A   1      43.800  26.763  29.935  1.00  0.00     0.029 A 
ATOM     50  N   UNL A   1      42.396  28.110  31.009  1.00  0.00    -0.354 N 
ATOM     51  N   UNL A   1      41.519  29.799  33.226  1.00  0.00    -0.248 NA
ATOM     52  C   UNL A   1      41.695  30.451  35.461  1.00  0.00     0.031 C 
ATOM     53  C   UNL A   1      44.329  27.033  31.202  1.00  0.00     0.029 A 
ATOM     54  C   UNL A   1      43.452  27.869  31.871  1.00  0.00     0.049 A 
ATOM     55  H   UNL A   1      41.621  28.683  31.211  1.00  0.00     0.167 HD
ATOM     56  C   UNL A   1      42.664  29.236  33.778  1.00  0.00     0.074 A 
ATOM     57  C   UNL A   1      42.747  29.709  35.144  1.00  0.00     0.031 C 
ATOM     58  C   UNL A   1      43.553  28.383  33.212  1.00  0.00     0.034 A 
BRANCH  45  59
ATOM     59  C   UNL A   1      41.983  26.508  27.558  1.00  0.00     0.023 A 
ATOM     60  C   UNL A   1      42.758  27.001  26.490  1.00  0.00     0.012 A 
ATOM     61  C   UNL A   1      41.613  25.149  27.578  1.00  0.00     0.148 A 
ATOM     62  C   UNL A   1      43.147  26.159  25.450  1.00  0.00     0.002 A 
ATOM     63  C   UNL A   1      42.033  24.308  26.555  1.00  0.00     0.091 A 
ATOM     64  F   UNL A   1      40.860  24.706  28.596  1.00  0.00    -0.205 F 
ATOM     65  C   UNL A   1      42.796  24.813  25.487  1.00  0.00     0.022 A 
BRANCH  63  66
ATOM     66  S   UNL A   1      41.696  22.543  26.544  1.00  0.00     0.127 S 
ATOM     67  O   UNL A   1      42.310  22.135  25.280  1.00  0.00    -0.237 OA
ATOM     68  O   UNL A   1      42.402  22.088  27.740  1.00  0.00    -0.237 OA
ATOM     69  O   UNL A   1      40.247  22.410  26.601  1.00  0.00    -0.744 OA
ENDBRANCH  63  66
ENDBRANCH  45  59
BRANCH  46  70
ATOM     70  C   UNL A   1      39.292  32.127  35.337  1.00  0.00     0.023 A 
ATOM     71  C   UNL A   1      38.413  31.520  36.254  1.00  0.00     0.012 A 
ATOM     72  C   UNL A   1      39.745  33.436  35.585  1.00  0.00     0.148 A 
ATOM     73  C   UNL A   1      37.967  32.215  37.378  1.00  0.00     0.002 A 
ATOM     74  C   UNL A   1      39.340  34.103  36.736  1.00  0.00     0.091 A 
ATOM     75  F   UNL A   1      40.565  34.009  34.691  1.00  0.00    -0.205 F 
ATOM     76  C   UNL A   1      38.438  33.502  37.625  1.00  0.00     0.022 A 
BRANCH  74  77
ATOM     77  S   UNL A   1      40.020  35.705  37.186  1.00  0.00     0.127 S 
ATOM     78  O   UNL A   1      39.640  36.526  36.041  1.00  0.00    -0.237 OA
ATOM     79  O   UNL A   1      39.304  36.009  38.427  1.00  0.00    -0.237 OA
ATOM     80  O   UNL A   1      41.447  35.473  37.369  1.00  0.00    -0.744 OA
ENDBRANCH  74  77
ENDBRANCH  46  70
BRANCH  58  81
ATOM     81  C   UNL A   1      44.700  27.905  34.060  1.00  0.00     0.023 A 
ATOM     82  C   UNL A   1      45.882  28.671  34.118  1.00  0.00     0.012 A 
ATOM     83  C   UNL A   1      44.584  26.750  34.856  1.00  0.00     0.148 A 
ATOM     84  C   UNL A   1      46.939  28.281  34.938  1.00  0.00     0.002 A 
ATOM     85  C   UNL A   1      45.625  26.391  35.705  1.00  0.00     0.091 A 
ATOM     86  F   UNL A   1      43.458  26.025  34.772  1.00  0.00    -0.205 F 
ATOM     87  C   UNL A   1      46.807  27.149  35.740  1.00  0.00     0.022 A 
BRANCH  85  88
ATOM     88  S   UNL A   1      45.510  25.002  36.838  1.00  0.00     0.127 S 
ATOM     89  O   UNL A   1      44.302  25.331  37.592  1.00  0.00    -0.237 OA
ATOM     90  O   UNL A   1      45.370  23.866  35.926  1.00  0.00    -0.237 OA
ATOM     91  O   UNL A   1      46.747  25.008  37.607  1.00  0.00    -0.744 OA
ENDBRANCH  85  88
ENDBRANCH  58  81
ENDBRANCH  32  33
ENDBRANCH  24  27
ENDBRANCH  22  23
ENDBRANCH   1  22
TORSDOF 16
ENDMDL
