MODEL 1
REMARK VINA RESULT:     -13.0      0.000      0.000
REMARK SMILES Cc1cc(Cl)cc2c1O[C@H](C(F)(F)F)C(C(=O)NCCCCNC(=O)c1ccc(-c3c4nc(c(-c5cccc(S(=O)(=O)[O-])c5F)c5ccc([nH]5)c(-c5cccc(S(=O)(=O)[O-])c5F)c5nc(c(-c6cccc(S(=O)(=O)[O-])c6F)c6ccc3[nH]6)C=C5)C=C4)cc1)=C2
REMARK SMILES IDX 21 1 20 2 19 3 18 4 16 5 17 6 15 8 1 9 2 10 3 11 8 12 4 13
REMARK SMILES IDX 7 14 9 15 5 16 6 17 89 18 10 19 11 20 12 21 13 22 14 23
REMARK SMILES IDX 22 24 23 25 24 26 25 28 26 29 27 30 88 31 28 32 87 33 29 34
REMARK SMILES IDX 30 35 31 36 81 37 32 38 86 39 80 40 82 41 33 42 85 43 79 44
REMARK SMILES IDX 78 45 34 47 66 48 46 49 65 50 47 51 50 52 64 53 83 54 48 55
REMARK SMILES IDX 49 56 63 58 84 59 51 60 35 61 36 62 44 63 37 64 39 65 45 66
REMARK SMILES IDX 38 67 40 68 41 69 42 70 43 71 67 72 68 73 76 74 69 75 71 76
REMARK SMILES IDX 77 77 70 78 72 79 73 80 74 81 75 82 52 83 53 84 61 85 54 86
REMARK SMILES IDX 56 87 62 88 55 89 57 90 58 91 59 92 60 93
REMARK H PARENT 18 7 23 27 82 46 50 57
REMARK Flexibility Score: inf
ROOT
ATOM      1  C   UNL A   1      31.664  29.427  25.007  1.00  0.00     0.023 C 
ENDROOT
BRANCH   1   2
ATOM      2  C   UNL A   1      32.315  28.713  23.819  1.00  0.00     0.023 C 
BRANCH   2   3
ATOM      3  C   UNL A   1      31.359  27.840  23.011  1.00  0.00     0.116 C 
BRANCH   3   4
ATOM      4  N   UNL A   1      32.048  27.089  21.976  1.00  0.00    -0.352 N 
ATOM      5  C   UNL A   1      32.774  25.950  21.899  1.00  0.00     0.251 C 
ATOM      6  O   UNL A   1      33.188  25.661  20.772  1.00  0.00    -0.270 OA
ATOM      7  H   UNL A   1      31.964  27.525  21.097  1.00  0.00     0.163 HD
BRANCH   5   8
ATOM      8  C   UNL A   1      33.091  25.048  23.046  1.00  0.00     0.067 C 
ATOM      9  C   UNL A   1      33.412  22.509  27.503  1.00  0.00     0.048 C 
ATOM     10  C   UNL A   1      34.242  22.573  26.252  1.00  0.00    -0.007 A 
ATOM     11  C   UNL A   1      35.364  21.748  26.104  1.00  0.00     0.027 A 
ATOM     12  C   UNL A   1      33.894  23.437  25.204  1.00  0.00     0.131 A 
ATOM     13  C   UNL A   1      36.126  21.804  24.936  1.00  0.00     0.042 A 
ATOM     14  C   UNL A   1      34.659  23.495  24.034  1.00  0.00     0.019 A 
ATOM     15  O   UNL A   1      32.811  24.250  25.394  1.00  0.00    -0.475 OA
ATOM     16  Cl  UNL A   1      37.507  20.790  24.772  1.00  0.00    -0.084 Cl
ATOM     17  C   UNL A   1      35.783  22.674  23.902  1.00  0.00     0.032 A 
ATOM     18  C   UNL A   1      34.287  24.432  22.982  1.00  0.00     0.025 C 
ATOM     19  C   UNL A   1      32.165  24.764  24.194  1.00  0.00     0.314 C 
BRANCH  19  20
ATOM     20  C   UNL A   1      31.006  23.828  23.808  1.00  0.00     0.429 C 
ATOM     21  F   UNL A   1      31.412  22.936  22.868  1.00  0.00    -0.167 F 
ATOM     22  F   UNL A   1      30.549  23.102  24.853  1.00  0.00    -0.167 F 
ATOM     23  F   UNL A   1      29.947  24.495  23.296  1.00  0.00    -0.167 F 
ENDBRANCH  19  20
ENDBRANCH   5   8
ENDBRANCH   3   4
ENDBRANCH   2   3
ENDBRANCH   1   2
BRANCH   1  24
ATOM     24  C   UNL A   1      32.624  29.909  26.095  1.00  0.00     0.116 C 
BRANCH  24  25
ATOM     25  N   UNL A   1      32.370  31.270  26.552  1.00  0.00    -0.352 N 
ATOM     26  C   UNL A   1      33.187  32.061  27.324  1.00  0.00     0.251 C 
ATOM     27  H   UNL A   1      31.513  31.668  26.274  1.00  0.00     0.163 HD
ATOM     28  O   UNL A   1      32.820  33.173  27.693  1.00  0.00    -0.269 OA
BRANCH  26  29
ATOM     29  C   UNL A   1      34.494  31.522  27.743  1.00  0.00     0.039 A 
ATOM     30  C   UNL A   1      35.566  32.402  27.897  1.00  0.00     0.014 A 
ATOM     31  C   UNL A   1      34.619  30.172  28.081  1.00  0.00     0.014 A 
ATOM     32  C   UNL A   1      36.749  31.942  28.477  1.00  0.00     0.010 A 
ATOM     33  C   UNL A   1      35.778  29.731  28.711  1.00  0.00     0.010 A 
ATOM     34  C   UNL A   1      36.846  30.614  28.926  1.00  0.00    -0.014 A 
BRANCH  34  35
ATOM     35  C   UNL A   1      38.042  30.146  29.668  1.00  0.00     0.031 A 
ATOM     36  C   UNL A   1      38.311  30.640  31.059  1.00  0.00     0.074 A 
ATOM     37  C   UNL A   1      38.925  29.337  29.050  1.00  0.00     0.049 A 
ATOM     38  N   UNL A   1      39.311  30.358  31.850  1.00  0.00    -0.248 NA
ATOM     39  C   UNL A   1      37.344  31.595  31.628  1.00  0.00     0.031 C 
ATOM     40  C   UNL A   1      38.811  28.859  27.670  1.00  0.00     0.029 A 
ATOM     41  N   UNL A   1      40.100  28.785  29.496  1.00  0.00    -0.354 N 
ATOM     42  C   UNL A   1      39.108  31.110  32.999  1.00  0.00     0.074 A 
ATOM     43  C   UNL A   1      37.912  31.895  32.788  1.00  0.00     0.031 C 
ATOM     44  C   UNL A   1      39.861  28.070  27.390  1.00  0.00     0.029 A 
ATOM     45  C   UNL A   1      40.732  27.998  28.560  1.00  0.00     0.049 A 
ATOM     46  H   UNL A   1      40.458  28.937  30.399  1.00  0.00     0.167 HD
ATOM     47  C   UNL A   1      39.830  31.116  34.144  1.00  0.00     0.034 A 
ATOM     48  C   UNL A   1      41.874  27.287  28.641  1.00  0.00     0.034 A 
ATOM     49  C   UNL A   1      40.987  30.294  34.368  1.00  0.00     0.049 A 
ATOM     50  C   UNL A   1      42.632  27.275  29.941  1.00  0.00     0.074 A 
ATOM     51  C   UNL A   1      41.743  30.171  35.519  1.00  0.00     0.029 A 
ATOM     52  N   UNL A   1      41.552  29.450  33.424  1.00  0.00    -0.354 N 
ATOM     53  N   UNL A   1      42.339  27.874  31.069  1.00  0.00    -0.248 NA
ATOM     54  C   UNL A   1      43.859  26.464  29.992  1.00  0.00     0.031 C 
ATOM     55  C   UNL A   1      42.766  29.252  35.271  1.00  0.00     0.029 A 
ATOM     56  C   UNL A   1      42.645  28.801  33.967  1.00  0.00     0.049 A 
ATOM     57  H   UNL A   1      41.223  29.332  32.503  1.00  0.00     0.167 HD
ATOM     58  C   UNL A   1      43.323  27.489  31.973  1.00  0.00     0.074 A 
ATOM     59  C   UNL A   1      44.213  26.591  31.265  1.00  0.00     0.031 C 
ATOM     60  C   UNL A   1      43.483  27.860  33.266  1.00  0.00     0.034 A 
BRANCH  47  61
ATOM     61  C   UNL A   1      39.335  31.970  35.278  1.00  0.00     0.023 A 
ATOM     62  C   UNL A   1      38.447  31.406  36.218  1.00  0.00     0.012 A 
ATOM     63  C   UNL A   1      39.789  33.290  35.459  1.00  0.00     0.148 A 
ATOM     64  C   UNL A   1      38.001  32.150  37.308  1.00  0.00     0.002 A 
ATOM     65  C   UNL A   1      39.369  34.013  36.570  1.00  0.00     0.091 A 
ATOM     66  F   UNL A   1      40.613  33.815  34.541  1.00  0.00    -0.205 F 
ATOM     67  C   UNL A   1      38.469  33.448  37.490  1.00  0.00     0.022 A 
BRANCH  65  68
ATOM     68  S   UNL A   1      39.970  35.667  36.930  1.00  0.00     0.127 S 
ATOM     69  O   UNL A   1      39.296  35.957  38.194  1.00  0.00    -0.237 OA
ATOM     70  O   UNL A   1      41.414  35.456  37.044  1.00  0.00    -0.237 OA
ATOM     71  O   UNL A   1      39.567  36.492  35.800  1.00  0.00    -0.744 OA
ENDBRANCH  65  68
ENDBRANCH  47  61
BRANCH  48  72
ATOM     72  C   UNL A   1      42.294  26.436  27.492  1.00  0.00     0.023 A 
ATOM     73  C   UNL A   1      43.144  26.988  26.513  1.00  0.00     0.012 A 
ATOM     74  C   UNL A   1      41.921  25.082  27.392  1.00  0.00     0.148 A 
ATOM     75  C   UNL A   1      43.604  26.212  25.448  1.00  0.00     0.002 A 
ATOM     76  C   UNL A   1      42.424  24.301  26.356  1.00  0.00     0.091 A 
ATOM     77  F   UNL A   1      41.099  24.578  28.322  1.00  0.00    -0.205 F 
ATOM     78  C   UNL A   1      43.255  24.867  25.376  1.00  0.00     0.022 A 
BRANCH  76  79
ATOM     79  S   UNL A   1      42.139  22.528  26.265  1.00  0.00     0.127 S 
ATOM     80  O   UNL A   1      42.735  22.064  27.514  1.00  0.00    -0.237 OA
ATOM     81  O   UNL A   1      40.678  22.456  26.216  1.00  0.00    -0.237 OA
ATOM     82  O   UNL A   1      42.797  22.092  25.042  1.00  0.00    -0.744 OA
ENDBRANCH  76  79
ENDBRANCH  48  72
BRANCH  60  83
ATOM     83  C   UNL A   1      44.653  27.298  34.026  1.00  0.00     0.023 A 
ATOM     84  C   UNL A   1      45.865  28.016  34.054  1.00  0.00     0.012 A 
ATOM     85  C   UNL A   1      44.510  26.144  34.822  1.00  0.00     0.148 A 
ATOM     86  C   UNL A   1      46.920  27.589  34.858  1.00  0.00     0.002 A 
ATOM     87  C   UNL A   1      45.552  25.748  35.652  1.00  0.00     0.091 A 
ATOM     88  F   UNL A   1      43.352  25.469  34.765  1.00  0.00    -0.205 F 
ATOM     89  C   UNL A   1      46.759  26.466  35.667  1.00  0.00     0.022 A 
BRANCH  87  90
ATOM     90  S   UNL A   1      45.400  24.374  36.800  1.00  0.00     0.127 S 
ATOM     91  O   UNL A   1      45.286  23.236  35.889  1.00  0.00    -0.237 OA
ATOM     92  O   UNL A   1      46.663  24.443  37.537  1.00  0.00    -0.237 OA
ATOM     93  O   UNL A   1      44.217  24.652  37.605  1.00  0.00    -0.744 OA
ENDBRANCH  87  90
ENDBRANCH  60  83
ENDBRANCH  34  35
ENDBRANCH  26  29
ENDBRANCH  24  25
ENDBRANCH   1  24
TORSDOF 15
ENDMDL
MODEL 2
REMARK VINA RESULT:     -12.9      2.303      3.445
REMARK SMILES Cc1cc(Cl)cc2c1O[C@H](C(F)(F)F)C(C(=O)NCCCCNC(=O)c1ccc(-c3c4nc(c(-c5cccc(S(=O)(=O)[O-])c5F)c5ccc([nH]5)c(-c5cccc(S(=O)(=O)[O-])c5F)c5nc(c(-c6cccc(S(=O)(=O)[O-])c6F)c6ccc3[nH]6)C=C5)C=C4)cc1)=C2
REMARK SMILES IDX 21 1 20 2 19 3 18 4 16 5 17 6 15 8 1 9 2 10 3 11 8 12 4 13
REMARK SMILES IDX 7 14 9 15 5 16 6 17 89 18 10 19 11 20 12 21 13 22 14 23
REMARK SMILES IDX 22 24 23 25 24 26 25 28 26 29 27 30 88 31 28 32 87 33 29 34
REMARK SMILES IDX 30 35 31 36 81 37 32 38 86 39 80 40 82 41 33 42 85 43 79 44
REMARK SMILES IDX 78 45 34 47 66 48 46 49 65 50 47 51 50 52 64 53 83 54 48 55
REMARK SMILES IDX 49 56 63 58 84 59 51 60 35 61 36 62 44 63 37 64 39 65 45 66
REMARK SMILES IDX 38 67 40 68 41 69 42 70 43 71 67 72 68 73 76 74 69 75 71 76
REMARK SMILES IDX 77 77 70 78 72 79 73 80 74 81 75 82 52 83 53 84 61 85 54 86
REMARK SMILES IDX 56 87 62 88 55 89 57 90 58 91 59 92 60 93
REMARK H PARENT 18 7 23 27 82 46 50 57
REMARK Flexibility Score: inf
ROOT
ATOM      1  C   UNL A   1      32.896  29.600  25.014  1.00  0.00     0.023 C 
ENDROOT
BRANCH   1   2
ATOM      2  C   UNL A   1      33.840  28.412  24.812  1.00  0.00     0.023 C 
BRANCH   2   3
ATOM      3  C   UNL A   1      34.149  28.095  23.351  1.00  0.00     0.116 C 
BRANCH   3   4
ATOM      4  N   UNL A   1      33.723  26.757  22.981  1.00  0.00    -0.352 N 
ATOM      5  C   UNL A   1      32.549  26.103  22.821  1.00  0.00     0.251 C 
ATOM      6  O   UNL A   1      32.645  24.921  22.477  1.00  0.00    -0.270 OA
ATOM      7  H   UNL A   1      34.492  26.171  22.796  1.00  0.00     0.163 HD
BRANCH   5   8
ATOM      8  C   UNL A   1      31.193  26.697  23.021  1.00  0.00     0.067 C 
ATOM      9  C   UNL A   1      26.236  27.716  23.912  1.00  0.00     0.048 C 
ATOM     10  C   UNL A   1      27.396  28.486  23.347  1.00  0.00    -0.007 A 
ATOM     11  C   UNL A   1      27.249  29.834  22.998  1.00  0.00     0.027 A 
ATOM     12  C   UNL A   1      28.649  27.878  23.184  1.00  0.00     0.131 A 
ATOM     13  C   UNL A   1      28.332  30.548  22.483  1.00  0.00     0.042 A 
ATOM     14  C   UNL A   1      29.734  28.591  22.665  1.00  0.00     0.019 A 
ATOM     15  O   UNL A   1      28.750  26.552  23.506  1.00  0.00    -0.475 OA
ATOM     16  Cl  UNL A   1      28.133  32.202  22.052  1.00  0.00    -0.084 Cl
ATOM     17  C   UNL A   1      29.572  29.934  22.312  1.00  0.00     0.032 A 
ATOM     18  C   UNL A   1      31.012  27.916  22.477  1.00  0.00     0.025 C 
ATOM     19  C   UNL A   1      30.086  26.056  23.807  1.00  0.00     0.314 C 
BRANCH  19  20
ATOM     20  C   UNL A   1      30.316  26.125  25.327  1.00  0.00     0.429 C 
ATOM     21  F   UNL A   1      31.332  25.300  25.689  1.00  0.00    -0.167 F 
ATOM     22  F   UNL A   1      30.656  27.363  25.751  1.00  0.00    -0.167 F 
ATOM     23  F   UNL A   1      29.225  25.751  26.035  1.00  0.00    -0.167 F 
ENDBRANCH  19  20
ENDBRANCH   5   8
ENDBRANCH   3   4
ENDBRANCH   2   3
ENDBRANCH   1   2
BRANCH   1  24
ATOM     24  C   UNL A   1      32.501  29.892  26.461  1.00  0.00     0.116 C 
BRANCH  24  25
ATOM     25  N   UNL A   1      32.330  31.310  26.756  1.00  0.00    -0.352 N 
ATOM     26  C   UNL A   1      33.221  32.149  27.382  1.00  0.00     0.251 C 
ATOM     27  H   UNL A   1      31.477  31.712  26.473  1.00  0.00     0.163 HD
ATOM     28  O   UNL A   1      32.923  33.315  27.626  1.00  0.00    -0.269 OA
BRANCH  26  29
ATOM     29  C   UNL A   1      34.525  31.602  27.802  1.00  0.00     0.039 A 
ATOM     30  C   UNL A   1      35.595  32.479  27.980  1.00  0.00     0.014 A 
ATOM     31  C   UNL A   1      34.647  30.246  28.116  1.00  0.00     0.014 A 
ATOM     32  C   UNL A   1      36.774  32.008  28.560  1.00  0.00     0.010 A 
ATOM     33  C   UNL A   1      35.801  29.793  28.746  1.00  0.00     0.010 A 
ATOM     34  C   UNL A   1      36.867  30.673  28.986  1.00  0.00    -0.014 A 
BRANCH  34  35
ATOM     35  C   UNL A   1      38.057  30.191  29.728  1.00  0.00     0.031 A 
ATOM     36  C   UNL A   1      38.331  30.681  31.120  1.00  0.00     0.074 A 
ATOM     37  C   UNL A   1      38.932  29.372  29.111  1.00  0.00     0.049 A 
ATOM     38  N   UNL A   1      39.327  30.387  31.912  1.00  0.00    -0.248 NA
ATOM     39  C   UNL A   1      37.375  31.646  31.688  1.00  0.00     0.031 C 
ATOM     40  C   UNL A   1      38.814  28.895  27.731  1.00  0.00     0.029 A 
ATOM     41  N   UNL A   1      40.100  28.806  29.557  1.00  0.00    -0.354 N 
ATOM     42  C   UNL A   1      39.132  31.142  33.061  1.00  0.00     0.074 A 
ATOM     43  C   UNL A   1      37.946  31.940  32.849  1.00  0.00     0.031 C 
ATOM     44  C   UNL A   1      39.854  28.094  27.451  1.00  0.00     0.029 A 
ATOM     45  C   UNL A   1      40.723  28.012  28.621  1.00  0.00     0.049 A 
ATOM     46  H   UNL A   1      40.459  28.954  30.461  1.00  0.00     0.167 HD
ATOM     47  C   UNL A   1      39.853  31.139  34.206  1.00  0.00     0.034 A 
ATOM     48  C   UNL A   1      41.857  27.288  28.703  1.00  0.00     0.034 A 
ATOM     49  C   UNL A   1      41.001  30.303  34.430  1.00  0.00     0.049 A 
ATOM     50  C   UNL A   1      42.615  27.267  30.003  1.00  0.00     0.074 A 
ATOM     51  C   UNL A   1      41.755  30.172  35.582  1.00  0.00     0.029 A 
ATOM     52  N   UNL A   1      41.557  29.454  33.486  1.00  0.00    -0.354 N 
ATOM     53  N   UNL A   1      42.328  27.869  31.132  1.00  0.00    -0.248 NA
ATOM     54  C   UNL A   1      43.832  26.442  30.054  1.00  0.00     0.031 C 
ATOM     55  C   UNL A   1      42.768  29.241  35.334  1.00  0.00     0.029 A 
ATOM     56  C   UNL A   1      42.643  28.792  34.029  1.00  0.00     0.049 A 
ATOM     57  H   UNL A   1      41.227  29.339  32.565  1.00  0.00     0.167 HD
ATOM     58  C   UNL A   1      43.306  27.473  32.036  1.00  0.00     0.074 A 
ATOM     59  C   UNL A   1      44.186  26.565  31.328  1.00  0.00     0.031 C 
ATOM     60  C   UNL A   1      43.470  27.842  33.329  1.00  0.00     0.034 A 
BRANCH  47  61
ATOM     61  C   UNL A   1      39.367  31.999  35.340  1.00  0.00     0.023 A 
ATOM     62  C   UNL A   1      38.477  31.443  36.282  1.00  0.00     0.012 A 
ATOM     63  C   UNL A   1      39.834  33.314  35.518  1.00  0.00     0.148 A 
ATOM     64  C   UNL A   1      38.038  32.192  37.372  1.00  0.00     0.002 A 
ATOM     65  C   UNL A   1      39.421  34.042  36.629  1.00  0.00     0.091 A 
ATOM     66  F   UNL A   1      40.660  33.832  34.599  1.00  0.00    -0.205 F 
ATOM     67  C   UNL A   1      38.518  33.485  37.551  1.00  0.00     0.022 A 
BRANCH  65  68
ATOM     68  S   UNL A   1      40.037  35.691  36.987  1.00  0.00     0.127 S 
ATOM     69  O   UNL A   1      39.329  36.008  38.226  1.00  0.00    -0.237 OA
ATOM     70  O   UNL A   1      41.473  35.459  37.148  1.00  0.00    -0.237 OA
ATOM     71  O   UNL A   1      39.681  36.508  35.835  1.00  0.00    -0.744 OA
ENDBRANCH  65  68
ENDBRANCH  47  61
BRANCH  48  72
ATOM     72  C   UNL A   1      42.269  26.433  27.553  1.00  0.00     0.023 A 
ATOM     73  C   UNL A   1      43.132  26.973  26.580  1.00  0.00     0.012 A 
ATOM     74  C   UNL A   1      41.874  25.085  27.449  1.00  0.00     0.148 A 
ATOM     75  C   UNL A   1      43.584  26.192  25.515  1.00  0.00     0.002 A 
ATOM     76  C   UNL A   1      42.369  24.298  26.414  1.00  0.00     0.091 A 
ATOM     77  F   UNL A   1      41.040  24.593  28.375  1.00  0.00    -0.205 F 
ATOM     78  C   UNL A   1      43.212  24.853  25.439  1.00  0.00     0.022 A 
BRANCH  76  79
ATOM     79  S   UNL A   1      42.055  22.530  26.318  1.00  0.00     0.127 S 
ATOM     80  O   UNL A   1      40.597  22.488  26.250  1.00  0.00    -0.237 OA
ATOM     81  O   UNL A   1      42.741  22.164  25.079  1.00  0.00    -0.237 OA
ATOM     82  O   UNL A   1      42.654  21.966  27.519  1.00  0.00    -0.744 OA
ENDBRANCH  76  79
ENDBRANCH  48  72
BRANCH  60  83
ATOM     83  C   UNL A   1      44.633  27.266  34.090  1.00  0.00     0.023 A 
ATOM     84  C   UNL A   1      45.861  27.956  34.095  1.00  0.00     0.012 A 
ATOM     85  C   UNL A   1      44.470  26.131  34.907  1.00  0.00     0.148 A 
ATOM     86  C   UNL A   1      46.914  27.519  34.898  1.00  0.00     0.002 A 
ATOM     87  C   UNL A   1      45.510  25.725  35.736  1.00  0.00     0.091 A 
ATOM     88  F   UNL A   1      43.297  25.482  34.873  1.00  0.00    -0.205 F 
ATOM     89  C   UNL A   1      46.733  26.415  35.729  1.00  0.00     0.022 A 
BRANCH  87  90
ATOM     90  S   UNL A   1      45.336  24.376  36.910  1.00  0.00     0.127 S 
ATOM     91  O   UNL A   1      46.677  24.309  37.487  1.00  0.00    -0.237 OA
ATOM     92  O   UNL A   1      44.306  24.884  37.817  1.00  0.00    -0.237 OA
ATOM     93  O   UNL A   1      44.932  23.214  36.130  1.00  0.00    -0.744 OA
ENDBRANCH  87  90
ENDBRANCH  60  83
ENDBRANCH  34  35
ENDBRANCH  26  29
ENDBRANCH  24  25
ENDBRANCH   1  24
TORSDOF 15
ENDMDL
MODEL 3
REMARK VINA RESULT:     -12.8      1.432      1.823
REMARK SMILES Cc1cc(Cl)cc2c1O[C@H](C(F)(F)F)C(C(=O)NCCCCNC(=O)c1ccc(-c3c4nc(c(-c5cccc(S(=O)(=O)[O-])c5F)c5ccc([nH]5)c(-c5cccc(S(=O)(=O)[O-])c5F)c5nc(c(-c6cccc(S(=O)(=O)[O-])c6F)c6ccc3[nH]6)C=C5)C=C4)cc1)=C2
REMARK SMILES IDX 21 1 20 2 19 3 18 4 16 5 17 6 15 8 1 9 2 10 3 11 8 12 4 13
REMARK SMILES IDX 7 14 9 15 5 16 6 17 89 18 10 19 11 20 12 21 13 22 14 23
REMARK SMILES IDX 22 24 23 25 24 26 25 28 26 29 27 30 88 31 28 32 87 33 29 34
REMARK SMILES IDX 30 35 31 36 81 37 32 38 86 39 80 40 82 41 33 42 85 43 79 44
REMARK SMILES IDX 78 45 34 47 66 48 46 49 65 50 47 51 50 52 64 53 83 54 48 55
REMARK SMILES IDX 49 56 63 58 84 59 51 60 35 61 36 62 44 63 37 64 39 65 45 66
REMARK SMILES IDX 38 67 40 68 41 69 42 70 43 71 67 72 68 73 76 74 69 75 71 76
REMARK SMILES IDX 77 77 70 78 72 79 73 80 74 81 75 82 52 83 53 84 61 85 54 86
REMARK SMILES IDX 56 87 62 88 55 89 57 90 58 91 59 92 60 93
REMARK H PARENT 18 7 23 27 82 46 50 57
REMARK Flexibility Score: inf
ROOT
ATOM      1  C   UNL A   1      31.716  28.665  25.429  1.00  0.00     0.023 C 
ENDROOT
BRANCH   1   2
ATOM      2  C   UNL A   1      31.433  27.622  26.514  1.00  0.00     0.023 C 
BRANCH   2   3
ATOM      3  C   UNL A   1      30.907  26.291  25.983  1.00  0.00     0.116 C 
BRANCH   3   4
ATOM      4  N   UNL A   1      30.968  26.219  24.533  1.00  0.00    -0.352 N 
ATOM      5  C   UNL A   1      31.614  25.473  23.608  1.00  0.00     0.251 C 
ATOM      6  O   UNL A   1      31.361  25.754  22.432  1.00  0.00    -0.270 OA
ATOM      7  H   UNL A   1      30.384  26.892  24.113  1.00  0.00     0.163 HD
BRANCH   5   8
ATOM      8  C   UNL A   1      32.573  24.367  23.904  1.00  0.00     0.067 C 
ATOM      9  C   UNL A   1      36.615  21.256  24.533  1.00  0.00     0.048 C 
ATOM     10  C   UNL A   1      35.123  21.090  24.599  1.00  0.00    -0.007 A 
ATOM     11  C   UNL A   1      34.563  19.862  24.971  1.00  0.00     0.027 A 
ATOM     12  C   UNL A   1      34.268  22.164  24.313  1.00  0.00     0.131 A 
ATOM     13  C   UNL A   1      33.176  19.714  25.039  1.00  0.00     0.042 A 
ATOM     14  C   UNL A   1      32.879  22.017  24.379  1.00  0.00     0.019 A 
ATOM     15  O   UNL A   1      34.847  23.340  23.923  1.00  0.00    -0.475 OA
ATOM     16  Cl  UNL A   1      32.503  18.196  25.492  1.00  0.00    -0.084 Cl
ATOM     17  C   UNL A   1      32.332  20.783  24.742  1.00  0.00     0.032 A 
ATOM     18  C   UNL A   1      32.022  23.146  24.040  1.00  0.00     0.025 C 
ATOM     19  C   UNL A   1      34.051  24.547  24.100  1.00  0.00     0.314 C 
BRANCH  19  20
ATOM     20  C   UNL A   1      34.401  25.184  25.457  1.00  0.00     0.429 C 
ATOM     21  F   UNL A   1      33.585  24.700  26.429  1.00  0.00    -0.167 F 
ATOM     22  F   UNL A   1      35.666  24.917  25.850  1.00  0.00    -0.167 F 
ATOM     23  F   UNL A   1      34.263  26.529  25.451  1.00  0.00    -0.167 F 
ENDBRANCH  19  20
ENDBRANCH   5   8
ENDBRANCH   3   4
ENDBRANCH   2   3
ENDBRANCH   1   2
BRANCH   1  24
ATOM     24  C   UNL A   1      32.894  29.600  25.703  1.00  0.00     0.116 C 
BRANCH  24  25
ATOM     25  N   UNL A   1      32.512  30.884  26.278  1.00  0.00    -0.352 N 
ATOM     26  C   UNL A   1      33.227  31.649  27.170  1.00  0.00     0.251 C 
ATOM     27  H   UNL A   1      31.642  31.246  25.993  1.00  0.00     0.163 HD
ATOM     28  O   UNL A   1      32.757  32.687  27.626  1.00  0.00    -0.269 OA
BRANCH  26  29
ATOM     29  C   UNL A   1      34.549  31.165  27.607  1.00  0.00     0.039 A 
ATOM     30  C   UNL A   1      35.566  32.095  27.825  1.00  0.00     0.014 A 
ATOM     31  C   UNL A   1      34.739  29.812  27.900  1.00  0.00     0.014 A 
ATOM     32  C   UNL A   1      36.757  31.677  28.422  1.00  0.00     0.010 A 
ATOM     33  C   UNL A   1      35.903  29.410  28.546  1.00  0.00     0.010 A 
ATOM     34  C   UNL A   1      36.914  30.341  28.825  1.00  0.00    -0.014 A 
BRANCH  34  35
ATOM     35  C   UNL A   1      38.113  29.910  29.584  1.00  0.00     0.031 A 
ATOM     36  C   UNL A   1      38.361  30.434  30.968  1.00  0.00     0.074 A 
ATOM     37  C   UNL A   1      39.017  29.108  28.988  1.00  0.00     0.049 A 
ATOM     38  N   UNL A   1      39.361  30.186  31.771  1.00  0.00    -0.248 NA
ATOM     39  C   UNL A   1      37.372  31.379  31.512  1.00  0.00     0.031 C 
ATOM     40  C   UNL A   1      38.923  28.603  27.615  1.00  0.00     0.029 A 
ATOM     41  N   UNL A   1      40.199  28.587  29.451  1.00  0.00    -0.354 N 
ATOM     42  C   UNL A   1      39.134  30.954  32.905  1.00  0.00     0.074 A 
ATOM     43  C   UNL A   1      37.925  31.711  32.670  1.00  0.00     0.031 C 
ATOM     44  C   UNL A   1      39.990  27.829  27.357  1.00  0.00     0.029 A 
ATOM     45  C   UNL A   1      40.853  27.796  28.534  1.00  0.00     0.049 A 
ATOM     46  H   UNL A   1      40.547  28.762  30.355  1.00  0.00     0.167 HD
ATOM     47  C   UNL A   1      39.847  30.995  34.055  1.00  0.00     0.034 A 
ATOM     48  C   UNL A   1      42.008  27.109  28.637  1.00  0.00     0.034 A 
ATOM     49  C   UNL A   1      41.018  30.200  34.302  1.00  0.00     0.049 A 
ATOM     50  C   UNL A   1      42.757  27.135  29.942  1.00  0.00     0.074 A 
ATOM     51  C   UNL A   1      41.767  30.113  35.461  1.00  0.00     0.029 A 
ATOM     52  N   UNL A   1      41.607  29.351  33.378  1.00  0.00    -0.354 N 
ATOM     53  N   UNL A   1      42.444  27.748  31.058  1.00  0.00    -0.248 NA
ATOM     54  C   UNL A   1      43.999  26.350  30.017  1.00  0.00     0.031 C 
ATOM     55  C   UNL A   1      42.810  29.210  35.237  1.00  0.00     0.029 A 
ATOM     56  C   UNL A   1      42.709  28.733  33.940  1.00  0.00     0.049 A 
ATOM     57  H   UNL A   1      41.287  29.209  32.457  1.00  0.00     0.167 HD
ATOM     58  C   UNL A   1      43.427  27.400  31.975  1.00  0.00     0.074 A 
ATOM     59  C   UNL A   1      44.340  26.507  31.290  1.00  0.00     0.031 C 
ATOM     60  C   UNL A   1      43.570  27.797  33.263  1.00  0.00     0.034 A 
BRANCH  47  61
ATOM     61  C   UNL A   1      39.326  31.860  35.170  1.00  0.00     0.023 A 
ATOM     62  C   UNL A   1      38.400  31.311  36.080  1.00  0.00     0.012 A 
ATOM     63  C   UNL A   1      39.794  33.173  35.362  1.00  0.00     0.148 A 
ATOM     64  C   UNL A   1      37.928  32.065  37.153  1.00  0.00     0.002 A 
ATOM     65  C   UNL A   1      39.347  33.905  36.457  1.00  0.00     0.091 A 
ATOM     66  F   UNL A   1      40.656  33.684  34.471  1.00  0.00    -0.205 F 
ATOM     67  C   UNL A   1      38.409  33.355  37.347  1.00  0.00     0.022 A 
BRANCH  65  68
ATOM     68  S   UNL A   1      39.959  35.552  36.833  1.00  0.00     0.127 S 
ATOM     69  O   UNL A   1      39.279  35.838  38.095  1.00  0.00    -0.237 OA
ATOM     70  O   UNL A   1      41.400  35.327  36.954  1.00  0.00    -0.237 OA
ATOM     71  O   UNL A   1      39.571  36.388  35.707  1.00  0.00    -0.744 OA
ENDBRANCH  65  68
ENDBRANCH  47  61
BRANCH  48  72
ATOM     72  C   UNL A   1      42.454  26.246  27.506  1.00  0.00     0.023 A 
ATOM     73  C   UNL A   1      43.363  26.772  26.568  1.00  0.00     0.012 A 
ATOM     74  C   UNL A   1      42.045  24.904  27.388  1.00  0.00     0.148 A 
ATOM     75  C   UNL A   1      43.848  25.983  25.524  1.00  0.00     0.002 A 
ATOM     76  C   UNL A   1      42.571  24.108  26.374  1.00  0.00     0.091 A 
ATOM     77  F   UNL A   1      41.168  24.424  28.280  1.00  0.00    -0.205 F 
ATOM     78  C   UNL A   1      43.461  24.650  25.434  1.00  0.00     0.022 A 
BRANCH  76  79
ATOM     79  S   UNL A   1      42.237  22.345  26.268  1.00  0.00     0.127 S 
ATOM     80  O   UNL A   1      40.786  22.324  26.110  1.00  0.00    -0.237 OA
ATOM     81  O   UNL A   1      42.993  21.961  25.075  1.00  0.00    -0.237 OA
ATOM     82  O   UNL A   1      42.752  21.778  27.507  1.00  0.00    -0.744 OA
ENDBRANCH  76  79
ENDBRANCH  48  72
BRANCH  60  83
ATOM     83  C   UNL A   1      44.745  27.272  34.042  1.00  0.00     0.023 A 
ATOM     84  C   UNL A   1      45.945  28.009  34.058  1.00  0.00     0.012 A 
ATOM     85  C   UNL A   1      44.616  26.135  34.863  1.00  0.00     0.148 A 
ATOM     86  C   UNL A   1      47.003  27.618  34.877  1.00  0.00     0.002 A 
ATOM     87  C   UNL A   1      45.660  25.775  35.708  1.00  0.00     0.091 A 
ATOM     88  F   UNL A   1      43.470  25.440  34.818  1.00  0.00    -0.205 F 
ATOM     89  C   UNL A   1      46.856  26.513  35.712  1.00  0.00     0.022 A 
BRANCH  87  90
ATOM     90  S   UNL A   1      45.524  24.427  36.888  1.00  0.00     0.127 S 
ATOM     91  O   UNL A   1      46.851  24.433  37.501  1.00  0.00    -0.237 OA
ATOM     92  O   UNL A   1      44.445  24.886  37.763  1.00  0.00    -0.237 OA
ATOM     93  O   UNL A   1      45.202  23.240  36.106  1.00  0.00    -0.744 OA
ENDBRANCH  87  90
ENDBRANCH  60  83
ENDBRANCH  34  35
ENDBRANCH  26  29
ENDBRANCH  24  25
ENDBRANCH   1  24
TORSDOF 15
ENDMDL
