MODEL 1
REMARK VINA RESULT:      -9.8      0.000      0.000
REMARK SMILES Nc1c(N2CCC(C(=O)NCCCCNC(=O)c3ccc(-c4c5nc(c(-c6cccc(S(=O)(=O)[O-])c6F)c6ccc([nH]6)c(-c6cccc(S(=O)(=O)[O-])c6F)c6nc(c(-c7cccc(S(=O)(=O)[O-])c7F)c7ccc4[nH]7)C=C6)C=C5)cc3)CC2)ncnc1N1CCN(c2ccccc2)CC1
REMARK SMILES IDX 12 1 11 2 10 3 8 4 9 5 7 7 4 8 5 9 82 10 6 11 81 12 3 13
REMARK SMILES IDX 2 14 86 15 83 16 85 17 84 18 1 19 87 22 88 23 98 24 89 25
REMARK SMILES IDX 97 26 90 27 91 28 92 29 96 30 93 31 95 32 94 33 13 34 14 35
REMARK SMILES IDX 15 36 16 37 17 39 18 40 19 41 80 42 20 43 79 44 21 45 22 46
REMARK SMILES IDX 23 47 73 48 24 49 78 50 72 51 74 52 25 53 77 54 71 55 70 56
REMARK SMILES IDX 26 58 58 59 38 60 57 61 39 62 42 63 56 64 75 65 40 66 41 67
REMARK SMILES IDX 55 69 76 70 43 71 27 72 28 73 36 74 29 75 31 76 37 77 30 78
REMARK SMILES IDX 32 79 33 80 34 81 35 82 59 83 60 84 68 85 61 86 63 87 69 88
REMARK SMILES IDX 62 89 64 90 65 91 66 92 67 93 44 94 45 95 53 96 46 97 48 98
REMARK SMILES IDX 54 99 47 100 49 101 50 102 51 103 52 104
REMARK H PARENT 10 6 1 20 1 21 15 38 74 57 42 68
REMARK Flexibility Score: inf
ROOT
ATOM      1  C   UNL A   1      34.614  35.347  29.052  1.00  0.00     0.023 C 
ENDROOT
BRANCH   1   2
ATOM      2  C   UNL A   1      33.646  35.077  30.200  1.00  0.00     0.116 C 
BRANCH   2   3
ATOM      3  N   UNL A   1      34.145  35.584  31.467  1.00  0.00    -0.356 N 
ATOM      4  C   UNL A   1      35.011  35.038  32.363  1.00  0.00     0.223 C 
ATOM      5  O   UNL A   1      35.287  35.686  33.376  1.00  0.00    -0.275 OA
ATOM      6  H   UNL A   1      33.799  36.470  31.718  1.00  0.00     0.163 HD
BRANCH   4   7
ATOM      7  C   UNL A   1      35.663  33.686  32.126  1.00  0.00     0.082 C 
ATOM      8  N   UNL A   1      37.703  31.769  32.647  1.00  0.00    -0.355 N 
ATOM      9  C   UNL A   1      37.778  32.483  31.388  1.00  0.00     0.119 C 
ATOM     10  C   UNL A   1      36.392  31.534  33.237  1.00  0.00     0.119 C 
ATOM     11  C   UNL A   1      37.038  33.809  31.458  1.00  0.00     0.035 C 
ATOM     12  C   UNL A   1      35.631  32.839  33.402  1.00  0.00     0.035 C 
BRANCH   8  13
ATOM     13  C   UNL A   1      38.823  31.726  33.476  1.00  0.00     0.157 A 
ATOM     14  C   UNL A   1      39.592  30.553  33.505  1.00  0.00     0.118 A 
ATOM     15  C   UNL A   1      40.673  30.524  34.400  1.00  0.00     0.157 A 
ATOM     16  N   UNL A   1      39.116  32.784  34.251  1.00  0.00    -0.217 NA
ATOM     17  N   UNL A   1      40.936  31.545  35.229  1.00  0.00    -0.217 NA
ATOM     18  C   UNL A   1      40.156  32.629  35.091  1.00  0.00     0.226 A 
BRANCH  14  19
ATOM     19  N   UNL A   1      39.352  29.489  32.611  1.00  0.00    -0.393 N 
ATOM     20  H   UNL A   1      40.019  28.771  32.510  1.00  0.00     0.156 HD
ATOM     21  H   UNL A   1      38.519  29.463  32.088  1.00  0.00     0.156 HD
ENDBRANCH  14  19
BRANCH  15  22
ATOM     22  N   UNL A   1      41.447  29.379  34.457  1.00  0.00    -0.351 N 
ATOM     23  C   UNL A   1      41.568  28.634  35.706  1.00  0.00     0.139 C 
ATOM     24  C   UNL A   1      42.590  29.252  33.546  1.00  0.00     0.139 C 
ATOM     25  C   UNL A   1      41.717  27.131  35.358  1.00  0.00     0.138 C 
ATOM     26  C   UNL A   1      42.787  27.764  33.182  1.00  0.00     0.138 C 
ATOM     27  N   UNL A   1      42.823  26.922  34.398  1.00  0.00    -0.368 N 
BRANCH  27  28
ATOM     28  C   UNL A   1      43.452  25.694  34.308  1.00  0.00     0.037 A 
ATOM     29  C   UNL A   1      44.624  25.491  33.570  1.00  0.00     0.026 A 
ATOM     30  C   UNL A   1      42.887  24.584  34.953  1.00  0.00     0.026 A 
ATOM     31  C   UNL A   1      45.205  24.222  33.471  1.00  0.00     0.002 A 
ATOM     32  C   UNL A   1      43.453  23.313  34.847  1.00  0.00     0.002 A 
ATOM     33  C   UNL A   1      44.614  23.131  34.103  1.00  0.00     0.000 A 
ENDBRANCH  27  28
ENDBRANCH  15  22
ENDBRANCH   8  13
ENDBRANCH   4   7
ENDBRANCH   2   3
ENDBRANCH   1   2
BRANCH   1  34
ATOM     34  C   UNL A   1      34.740  34.206  28.045  1.00  0.00     0.023 C 
BRANCH  34  35
ATOM     35  C   UNL A   1      35.081  32.848  28.647  1.00  0.00     0.116 C 
BRANCH  35  36
ATOM     36  N   UNL A   1      34.215  31.778  28.169  1.00  0.00    -0.352 N 
ATOM     37  C   UNL A   1      34.541  30.474  27.887  1.00  0.00     0.251 C 
ATOM     38  H   UNL A   1      33.272  32.022  28.030  1.00  0.00     0.163 HD
ATOM     39  O   UNL A   1      33.714  29.721  27.379  1.00  0.00    -0.269 OA
BRANCH  37  40
ATOM     40  C   UNL A   1      35.909  29.997  28.172  1.00  0.00     0.039 A 
ATOM     41  C   UNL A   1      36.862  30.031  27.153  1.00  0.00     0.014 A 
ATOM     42  C   UNL A   1      36.255  29.569  29.457  1.00  0.00     0.014 A 
ATOM     43  C   UNL A   1      38.187  29.699  27.441  1.00  0.00     0.010 A 
ATOM     44  C   UNL A   1      37.586  29.304  29.757  1.00  0.00     0.010 A 
ATOM     45  C   UNL A   1      38.565  29.366  28.753  1.00  0.00    -0.014 A 
BRANCH  45  46
ATOM     46  C   UNL A   1      39.980  29.089  29.099  1.00  0.00     0.031 A 
ATOM     47  C   UNL A   1      40.837  30.177  29.684  1.00  0.00     0.074 A 
ATOM     48  C   UNL A   1      40.511  27.883  28.817  1.00  0.00     0.049 A 
ATOM     49  N   UNL A   1      42.102  30.141  30.009  1.00  0.00    -0.248 NA
ATOM     50  C   UNL A   1      40.195  31.483  29.911  1.00  0.00     0.031 C 
ATOM     51  C   UNL A   1      39.797  26.772  28.185  1.00  0.00     0.029 A 
ATOM     52  N   UNL A   1      41.779  27.396  29.009  1.00  0.00    -0.354 N 
ATOM     53  C   UNL A   1      42.414  31.418  30.455  1.00  0.00     0.074 A 
ATOM     54  C   UNL A   1      41.217  32.219  30.321  1.00  0.00     0.031 C 
ATOM     55  C   UNL A   1      40.632  25.729  28.057  1.00  0.00     0.029 A 
ATOM     56  C   UNL A   1      41.946  26.101  28.574  1.00  0.00     0.049 A 
ATOM     57  H   UNL A   1      42.503  27.923  29.419  1.00  0.00     0.167 HD
ATOM     58  C   UNL A   1      43.580  31.873  30.970  1.00  0.00     0.034 A 
ATOM     59  C   UNL A   1      43.031  25.303  28.598  1.00  0.00     0.034 A 
ATOM     60  C   UNL A   1      44.751  31.059  31.151  1.00  0.00     0.049 A 
ATOM     61  C   UNL A   1      44.308  25.825  29.203  1.00  0.00     0.074 A 
ATOM     62  C   UNL A   1      45.957  31.409  31.730  1.00  0.00     0.029 A 
ATOM     63  N   UNL A   1      44.861  29.734  30.760  1.00  0.00    -0.354 N 
ATOM     64  N   UNL A   1      44.542  26.992  29.752  1.00  0.00    -0.248 NA
ATOM     65  C   UNL A   1      45.460  24.911  29.221  1.00  0.00     0.031 C 
ATOM     66  C   UNL A   1      46.800  30.295  31.685  1.00  0.00     0.029 A 
ATOM     67  C   UNL A   1      46.115  29.249  31.085  1.00  0.00     0.049 A 
ATOM     68  H   UNL A   1      44.151  29.215  30.319  1.00  0.00     0.167 HD
ATOM     69  C   UNL A   1      45.855  26.946  30.204  1.00  0.00     0.074 A 
ATOM     70  C   UNL A   1      46.360  25.625  29.886  1.00  0.00     0.031 C 
ATOM     71  C   UNL A   1      46.584  27.915  30.810  1.00  0.00     0.034 A 
BRANCH  58  72
ATOM     72  C   UNL A   1      43.620  33.297  31.456  1.00  0.00     0.023 A 
ATOM     73  C   UNL A   1      43.753  34.337  30.514  1.00  0.00     0.012 A 
ATOM     74  C   UNL A   1      43.458  33.614  32.819  1.00  0.00     0.148 A 
ATOM     75  C   UNL A   1      43.750  35.670  30.921  1.00  0.00     0.002 A 
ATOM     76  C   UNL A   1      43.417  34.947  33.212  1.00  0.00     0.091 A 
ATOM     77  F   UNL A   1      43.357  32.609  33.701  1.00  0.00    -0.205 F 
ATOM     78  C   UNL A   1      43.570  35.975  32.267  1.00  0.00     0.022 A 
BRANCH  76  79
ATOM     79  S   UNL A   1      43.117  35.447  34.912  1.00  0.00     0.127 S 
ATOM     80  O   UNL A   1      41.753  35.967  34.829  1.00  0.00    -0.237 OA
ATOM     81  O   UNL A   1      43.245  34.182  35.634  1.00  0.00    -0.237 OA
ATOM     82  O   UNL A   1      44.143  36.433  35.227  1.00  0.00    -0.744 OA
ENDBRANCH  76  79
ENDBRANCH  58  72
BRANCH  59  83
ATOM     83  C   UNL A   1      42.922  23.894  28.125  1.00  0.00     0.023 A 
ATOM     84  C   UNL A   1      42.047  23.017  28.795  1.00  0.00     0.012 A 
ATOM     85  C   UNL A   1      43.621  23.433  26.992  1.00  0.00     0.148 A 
ATOM     86  C   UNL A   1      41.884  21.701  28.360  1.00  0.00     0.002 A 
ATOM     87  C   UNL A   1      43.414  22.136  26.532  1.00  0.00     0.091 A 
ATOM     88  F   UNL A   1      44.461  24.277  26.377  1.00  0.00    -0.205 F 
ATOM     89  C   UNL A   1      42.558  21.265  27.221  1.00  0.00     0.022 A 
BRANCH  87  90
ATOM     90  S   UNL A   1      44.132  21.533  24.999  1.00  0.00     0.127 S 
ATOM     91  O   UNL A   1      43.601  22.481  24.025  1.00  0.00    -0.237 OA
ATOM     92  O   UNL A   1      45.567  21.659  25.265  1.00  0.00    -0.237 OA
ATOM     93  O   UNL A   1      43.668  20.158  24.866  1.00  0.00    -0.744 OA
ENDBRANCH  87  90
ENDBRANCH  59  83
BRANCH  71  94
ATOM     94  C   UNL A   1      48.008  27.600  31.182  1.00  0.00     0.023 A 
ATOM     95  C   UNL A   1      48.269  26.887  32.369  1.00  0.00     0.012 A 
ATOM     96  C   UNL A   1      49.069  27.896  30.304  1.00  0.00     0.148 A 
ATOM     97  C   UNL A   1      49.566  26.487  32.684  1.00  0.00     0.002 A 
ATOM     98  C   UNL A   1      50.353  27.455  30.604  1.00  0.00     0.091 A 
ATOM     99  F   UNL A   1      48.802  28.592  29.189  1.00  0.00    -0.205 F 
ATOM    100  C   UNL A   1      50.605  26.757  31.796  1.00  0.00     0.022 A 
BRANCH  98 101
ATOM    101  S   UNL A   1      51.733  27.670  29.472  1.00  0.00     0.127 S 
ATOM    102  O   UNL A   1      52.845  27.129  30.251  1.00  0.00    -0.237 OA
ATOM    103  O   UNL A   1      51.330  26.847  28.331  1.00  0.00    -0.237 OA
ATOM    104  O   UNL A   1      51.800  29.098  29.190  1.00  0.00    -0.744 OA
ENDBRANCH  98 101
ENDBRANCH  71  94
ENDBRANCH  45  46
ENDBRANCH  37  40
ENDBRANCH  35  36
ENDBRANCH  34  35
ENDBRANCH   1  34
TORSDOF 18
ENDMDL
MODEL 2
REMARK VINA RESULT:      -9.6      1.721      2.067
REMARK SMILES Nc1c(N2CCC(C(=O)NCCCCNC(=O)c3ccc(-c4c5nc(c(-c6cccc(S(=O)(=O)[O-])c6F)c6ccc([nH]6)c(-c6cccc(S(=O)(=O)[O-])c6F)c6nc(c(-c7cccc(S(=O)(=O)[O-])c7F)c7ccc4[nH]7)C=C6)C=C5)cc3)CC2)ncnc1N1CCN(c2ccccc2)CC1
REMARK SMILES IDX 12 1 11 2 10 3 8 4 9 5 7 7 4 8 5 9 82 10 6 11 81 12 3 13
REMARK SMILES IDX 2 14 86 15 83 16 85 17 84 18 1 19 87 22 88 23 98 24 89 25
REMARK SMILES IDX 97 26 90 27 91 28 92 29 96 30 93 31 95 32 94 33 13 34 14 35
REMARK SMILES IDX 15 36 16 37 17 39 18 40 19 41 80 42 20 43 79 44 21 45 22 46
REMARK SMILES IDX 23 47 73 48 24 49 78 50 72 51 74 52 25 53 77 54 71 55 70 56
REMARK SMILES IDX 26 58 58 59 38 60 57 61 39 62 42 63 56 64 75 65 40 66 41 67
REMARK SMILES IDX 55 69 76 70 43 71 27 72 28 73 36 74 29 75 31 76 37 77 30 78
REMARK SMILES IDX 32 79 33 80 34 81 35 82 59 83 60 84 68 85 61 86 63 87 69 88
REMARK SMILES IDX 62 89 64 90 65 91 66 92 67 93 44 94 45 95 53 96 46 97 48 98
REMARK SMILES IDX 54 99 47 100 49 101 50 102 51 103 52 104
REMARK H PARENT 10 6 1 20 1 21 15 38 74 57 42 68
REMARK Flexibility Score: inf
ROOT
ATOM      1  C   UNL A   1      34.688  35.299  28.997  1.00  0.00     0.023 C 
ENDROOT
BRANCH   1   2
ATOM      2  C   UNL A   1      33.772  34.992  30.178  1.00  0.00     0.116 C 
BRANCH   2   3
ATOM      3  N   UNL A   1      34.288  35.531  31.424  1.00  0.00    -0.356 N 
ATOM      4  C   UNL A   1      35.118  34.984  32.353  1.00  0.00     0.223 C 
ATOM      5  O   UNL A   1      35.420  35.662  33.337  1.00  0.00    -0.275 OA
ATOM      6  H   UNL A   1      33.986  36.445  31.632  1.00  0.00     0.163 HD
BRANCH   4   7
ATOM      7  C   UNL A   1      35.701  33.590  32.184  1.00  0.00     0.082 C 
ATOM      8  N   UNL A   1      37.710  31.641  32.706  1.00  0.00    -0.355 N 
ATOM      9  C   UNL A   1      37.703  32.241  31.386  1.00  0.00     0.119 C 
ATOM     10  C   UNL A   1      36.445  31.512  33.419  1.00  0.00     0.119 C 
ATOM     11  C   UNL A   1      37.018  33.598  31.399  1.00  0.00     0.035 C 
ATOM     12  C   UNL A   1      35.747  32.857  33.529  1.00  0.00     0.035 C 
BRANCH   8  13
ATOM     13  C   UNL A   1      38.893  31.621  33.442  1.00  0.00     0.157 A 
ATOM     14  C   UNL A   1      39.623  30.426  33.509  1.00  0.00     0.118 A 
ATOM     15  C   UNL A   1      40.774  30.428  34.313  1.00  0.00     0.157 A 
ATOM     16  N   UNL A   1      39.285  32.728  34.097  1.00  0.00    -0.217 NA
ATOM     17  N   UNL A   1      41.139  31.502  35.027  1.00  0.00    -0.217 NA
ATOM     18  C   UNL A   1      40.386  32.601  34.861  1.00  0.00     0.226 A 
BRANCH  14  19
ATOM     19  N   UNL A   1      39.275  29.302  32.731  1.00  0.00    -0.393 N 
ATOM     20  H   UNL A   1      39.961  28.640  32.488  1.00  0.00     0.156 HD
ATOM     21  H   UNL A   1      38.345  29.179  32.432  1.00  0.00     0.156 HD
ENDBRANCH  14  19
BRANCH  15  22
ATOM     22  N   UNL A   1      41.513  29.261  34.404  1.00  0.00    -0.351 N 
ATOM     23  C   UNL A   1      41.473  28.460  35.623  1.00  0.00     0.139 C 
ATOM     24  C   UNL A   1      42.750  29.144  33.625  1.00  0.00     0.139 C 
ATOM     25  C   UNL A   1      41.629  26.969  35.225  1.00  0.00     0.138 C 
ATOM     26  C   UNL A   1      42.956  27.669  33.217  1.00  0.00     0.138 C 
ATOM     27  N   UNL A   1      42.834  26.774  34.388  1.00  0.00    -0.368 N 
BRANCH  27  28
ATOM     28  C   UNL A   1      43.443  25.535  34.313  1.00  0.00     0.037 A 
ATOM     29  C   UNL A   1      43.256  24.535  35.275  1.00  0.00     0.026 A 
ATOM     30  C   UNL A   1      44.314  25.262  33.249  1.00  0.00     0.026 A 
ATOM     31  C   UNL A   1      43.925  23.309  35.182  1.00  0.00     0.002 A 
ATOM     32  C   UNL A   1      44.996  24.047  33.157  1.00  0.00     0.002 A 
ATOM     33  C   UNL A   1      44.802  23.069  34.127  1.00  0.00     0.000 A 
ENDBRANCH  27  28
ENDBRANCH  15  22
ENDBRANCH   8  13
ENDBRANCH   4   7
ENDBRANCH   2   3
ENDBRANCH   1   2
BRANCH   1  34
ATOM     34  C   UNL A   1      34.773  34.188  27.953  1.00  0.00     0.023 C 
BRANCH  34  35
ATOM     35  C   UNL A   1      35.192  32.826  28.491  1.00  0.00     0.116 C 
BRANCH  35  36
ATOM     36  N   UNL A   1      34.306  31.748  28.072  1.00  0.00    -0.352 N 
ATOM     37  C   UNL A   1      34.611  30.430  27.838  1.00  0.00     0.251 C 
ATOM     38  H   UNL A   1      33.363  31.998  27.939  1.00  0.00     0.163 HD
ATOM     39  O   UNL A   1      33.765  29.668  27.376  1.00  0.00    -0.269 OA
BRANCH  37  40
ATOM     40  C   UNL A   1      35.978  29.948  28.118  1.00  0.00     0.039 A 
ATOM     41  C   UNL A   1      36.958  30.089  27.135  1.00  0.00     0.014 A 
ATOM     42  C   UNL A   1      36.295  29.407  29.368  1.00  0.00     0.014 A 
ATOM     43  C   UNL A   1      38.280  29.750  27.431  1.00  0.00     0.010 A 
ATOM     44  C   UNL A   1      37.621  29.134  29.682  1.00  0.00     0.010 A 
ATOM     45  C   UNL A   1      38.626  29.303  28.717  1.00  0.00    -0.014 A 
BRANCH  45  46
ATOM     46  C   UNL A   1      40.035  29.015  29.078  1.00  0.00     0.031 A 
ATOM     47  C   UNL A   1      40.888  30.089  29.693  1.00  0.00     0.074 A 
ATOM     48  C   UNL A   1      40.566  27.811  28.783  1.00  0.00     0.049 A 
ATOM     49  N   UNL A   1      42.148  30.043  30.035  1.00  0.00    -0.248 NA
ATOM     50  C   UNL A   1      40.248  31.394  29.933  1.00  0.00     0.031 C 
ATOM     51  C   UNL A   1      39.857  26.714  28.122  1.00  0.00     0.029 A 
ATOM     52  N   UNL A   1      41.830  27.316  28.984  1.00  0.00    -0.354 N 
ATOM     53  C   UNL A   1      42.458  31.311  30.507  1.00  0.00     0.074 A 
ATOM     54  C   UNL A   1      41.266  32.119  30.370  1.00  0.00     0.031 C 
ATOM     55  C   UNL A   1      40.690  25.670  27.988  1.00  0.00     0.029 A 
ATOM     56  C   UNL A   1      41.998  26.029  28.529  1.00  0.00     0.049 A 
ATOM     57  H   UNL A   1      42.550  27.834  29.413  1.00  0.00     0.167 HD
ATOM     58  C   UNL A   1      43.618  31.753  31.046  1.00  0.00     0.034 A 
ATOM     59  C   UNL A   1      43.080  25.226  28.555  1.00  0.00     0.034 A 
ATOM     60  C   UNL A   1      44.784  30.932  31.229  1.00  0.00     0.049 A 
ATOM     61  C   UNL A   1      44.350  25.733  29.186  1.00  0.00     0.074 A 
ATOM     62  C   UNL A   1      45.983  31.267  31.831  1.00  0.00     0.029 A 
ATOM     63  N   UNL A   1      44.895  29.613  30.818  1.00  0.00    -0.354 N 
ATOM     64  N   UNL A   1      44.580  26.889  29.758  1.00  0.00    -0.248 NA
ATOM     65  C   UNL A   1      45.498  24.815  29.204  1.00  0.00     0.031 C 
ATOM     66  C   UNL A   1      46.823  30.150  31.778  1.00  0.00     0.029 A 
ATOM     67  C   UNL A   1      46.143  29.118  31.151  1.00  0.00     0.049 A 
ATOM     68  H   UNL A   1      44.189  29.104  30.357  1.00  0.00     0.167 HD
ATOM     69  C   UNL A   1      45.887  26.831  30.228  1.00  0.00     0.074 A 
ATOM     70  C   UNL A   1      46.391  25.514  29.894  1.00  0.00     0.031 C 
ATOM     71  C   UNL A   1      46.610  27.787  30.860  1.00  0.00     0.034 A 
BRANCH  58  72
ATOM     72  C   UNL A   1      43.657  33.168  31.557  1.00  0.00     0.023 A 
ATOM     73  C   UNL A   1      43.456  33.403  32.933  1.00  0.00     0.012 A 
ATOM     74  C   UNL A   1      43.959  34.249  30.707  1.00  0.00     0.148 A 
ATOM     75  C   UNL A   1      43.529  34.694  33.452  1.00  0.00     0.002 A 
ATOM     76  C   UNL A   1      44.068  35.529  31.240  1.00  0.00     0.091 A 
ATOM     77  F   UNL A   1      44.124  34.008  29.398  1.00  0.00    -0.205 F 
ATOM     78  C   UNL A   1      43.846  35.754  32.609  1.00  0.00     0.022 A 
BRANCH  76  79
ATOM     79  S   UNL A   1      44.544  36.953  30.252  1.00  0.00     0.127 S 
ATOM     80  O   UNL A   1      43.866  38.039  30.957  1.00  0.00    -0.237 OA
ATOM     81  O   UNL A   1      46.000  36.952  30.389  1.00  0.00    -0.237 OA
ATOM     82  O   UNL A   1      44.061  36.685  28.904  1.00  0.00    -0.744 OA
ENDBRANCH  76  79
ENDBRANCH  58  72
BRANCH  59  83
ATOM     83  C   UNL A   1      42.972  23.826  28.056  1.00  0.00     0.023 A 
ATOM     84  C   UNL A   1      42.088  22.939  28.701  1.00  0.00     0.012 A 
ATOM     85  C   UNL A   1      43.683  23.382  26.924  1.00  0.00     0.148 A 
ATOM     86  C   UNL A   1      41.926  21.632  28.241  1.00  0.00     0.002 A 
ATOM     87  C   UNL A   1      43.478  22.095  26.439  1.00  0.00     0.091 A 
ATOM     88  F   UNL A   1      44.532  24.235  26.333  1.00  0.00    -0.205 F 
ATOM     89  C   UNL A   1      42.611  21.213  27.103  1.00  0.00     0.022 A 
BRANCH  87  90
ATOM     90  S   UNL A   1      44.212  21.515  24.904  1.00  0.00     0.127 S 
ATOM     91  O   UNL A   1      45.633  21.501  25.238  1.00  0.00    -0.237 OA
ATOM     92  O   UNL A   1      43.600  20.194  24.754  1.00  0.00    -0.237 OA
ATOM     93  O   UNL A   1      43.808  22.480  23.889  1.00  0.00    -0.744 OA
ENDBRANCH  87  90
ENDBRANCH  59  83
BRANCH  71  94
ATOM     94  C   UNL A   1      48.028  27.460  31.247  1.00  0.00     0.023 A 
ATOM     95  C   UNL A   1      49.079  27.813  30.376  1.00  0.00     0.012 A 
ATOM     96  C   UNL A   1      48.329  26.923  32.514  1.00  0.00     0.148 A 
ATOM     97  C   UNL A   1      50.406  27.623  30.755  1.00  0.00     0.002 A 
ATOM     98  C   UNL A   1      49.657  26.777  32.901  1.00  0.00     0.091 A 
ATOM     99  F   UNL A   1      47.315  26.576  33.320  1.00  0.00    -0.205 F 
ATOM    100  C   UNL A   1      50.695  27.119  32.021  1.00  0.00     0.022 A 
BRANCH  98 101
ATOM    101  S   UNL A   1      50.123  26.231  34.549  1.00  0.00     0.127 S 
ATOM    102  O   UNL A   1      48.844  26.284  35.254  1.00  0.00    -0.237 OA
ATOM    103  O   UNL A   1      50.626  24.880  34.299  1.00  0.00    -0.237 OA
ATOM    104  O   UNL A   1      51.133  27.173  35.011  1.00  0.00    -0.744 OA
ENDBRANCH  98 101
ENDBRANCH  71  94
ENDBRANCH  45  46
ENDBRANCH  37  40
ENDBRANCH  35  36
ENDBRANCH  34  35
ENDBRANCH   1  34
TORSDOF 18
ENDMDL
MODEL 3
REMARK VINA RESULT:      -9.6      1.679      2.102
REMARK SMILES Nc1c(N2CCC(C(=O)NCCCCNC(=O)c3ccc(-c4c5nc(c(-c6cccc(S(=O)(=O)[O-])c6F)c6ccc([nH]6)c(-c6cccc(S(=O)(=O)[O-])c6F)c6nc(c(-c7cccc(S(=O)(=O)[O-])c7F)c7ccc4[nH]7)C=C6)C=C5)cc3)CC2)ncnc1N1CCN(c2ccccc2)CC1
REMARK SMILES IDX 12 1 11 2 10 3 8 4 9 5 7 7 4 8 5 9 82 10 6 11 81 12 3 13
REMARK SMILES IDX 2 14 86 15 83 16 85 17 84 18 1 19 87 22 88 23 98 24 89 25
REMARK SMILES IDX 97 26 90 27 91 28 92 29 96 30 93 31 95 32 94 33 13 34 14 35
REMARK SMILES IDX 15 36 16 37 17 39 18 40 19 41 80 42 20 43 79 44 21 45 22 46
REMARK SMILES IDX 23 47 73 48 24 49 78 50 72 51 74 52 25 53 77 54 71 55 70 56
REMARK SMILES IDX 26 58 58 59 38 60 57 61 39 62 42 63 56 64 75 65 40 66 41 67
REMARK SMILES IDX 55 69 76 70 43 71 27 72 28 73 36 74 29 75 31 76 37 77 30 78
REMARK SMILES IDX 32 79 33 80 34 81 35 82 59 83 60 84 68 85 61 86 63 87 69 88
REMARK SMILES IDX 62 89 64 90 65 91 66 92 67 93 44 94 45 95 53 96 46 97 48 98
REMARK SMILES IDX 54 99 47 100 49 101 50 102 51 103 52 104
REMARK H PARENT 10 6 1 20 1 21 15 38 74 57 42 68
REMARK Flexibility Score: inf
ROOT
ATOM      1  C   UNL A   1      34.759  32.909  30.520  1.00  0.00     0.023 C 
ENDROOT
BRANCH   1   2
ATOM      2  C   UNL A   1      34.889  34.009  31.570  1.00  0.00     0.116 C 
BRANCH   2   3
ATOM      3  N   UNL A   1      36.238  34.544  31.637  1.00  0.00    -0.356 N 
ATOM      4  C   UNL A   1      37.302  34.179  32.402  1.00  0.00     0.223 C 
ATOM      5  O   UNL A   1      38.360  34.796  32.261  1.00  0.00    -0.275 OA
ATOM      6  H   UNL A   1      36.411  35.296  31.026  1.00  0.00     0.163 HD
BRANCH   4   7
ATOM      7  C   UNL A   1      37.223  33.021  33.384  1.00  0.00     0.082 C 
ATOM      8  N   UNL A   1      38.424  31.254  35.266  1.00  0.00    -0.355 N 
ATOM      9  C   UNL A   1      38.101  30.707  33.963  1.00  0.00     0.119 C 
ATOM     10  C   UNL A   1      37.602  32.338  35.788  1.00  0.00     0.119 C 
ATOM     11  C   UNL A   1      38.017  31.798  32.909  1.00  0.00     0.035 C 
ATOM     12  C   UNL A   1      37.542  33.494  34.805  1.00  0.00     0.035 C 
BRANCH   8  13
ATOM     13  C   UNL A   1      39.710  31.089  35.778  1.00  0.00     0.157 A 
ATOM     14  C   UNL A   1      40.422  29.928  35.443  1.00  0.00     0.118 A 
ATOM     15  C   UNL A   1      41.687  29.768  36.029  1.00  0.00     0.157 A 
ATOM     16  N   UNL A   1      40.220  32.019  36.603  1.00  0.00    -0.217 NA
ATOM     17  N   UNL A   1      42.180  30.652  36.908  1.00  0.00    -0.217 NA
ATOM     18  C   UNL A   1      41.427  31.742  37.129  1.00  0.00     0.226 A 
BRANCH  14  19
ATOM     19  N   UNL A   1      39.935  29.012  34.488  1.00  0.00    -0.393 N 
ATOM     20  H   UNL A   1      40.516  28.714  33.751  1.00  0.00     0.156 HD
ATOM     21  H   UNL A   1      39.015  28.668  34.559  1.00  0.00     0.156 HD
ENDBRANCH  14  19
BRANCH  15  22
ATOM     22  N   UNL A   1      42.413  28.629  35.723  1.00  0.00    -0.351 N 
ATOM     23  C   UNL A   1      42.682  27.630  36.752  1.00  0.00     0.139 C 
ATOM     24  C   UNL A   1      43.405  28.691  34.644  1.00  0.00     0.139 C 
ATOM     25  C   UNL A   1      42.714  26.236  36.073  1.00  0.00     0.138 C 
ATOM     26  C   UNL A   1      43.484  27.316  33.946  1.00  0.00     0.138 C 
ATOM     27  N   UNL A   1      43.659  26.230  34.936  1.00  0.00    -0.368 N 
BRANCH  27  28
ATOM     28  C   UNL A   1      44.216  25.044  34.492  1.00  0.00     0.037 A 
ATOM     29  C   UNL A   1      44.231  24.668  33.143  1.00  0.00     0.026 A 
ATOM     30  C   UNL A   1      44.767  24.153  35.424  1.00  0.00     0.026 A 
ATOM     31  C   UNL A   1      44.768  23.440  32.742  1.00  0.00     0.002 A 
ATOM     32  C   UNL A   1      45.291  22.920  35.033  1.00  0.00     0.002 A 
ATOM     33  C   UNL A   1      45.290  22.562  33.689  1.00  0.00     0.000 A 
ENDBRANCH  27  28
ENDBRANCH  15  22
ENDBRANCH   8  13
ENDBRANCH   4   7
ENDBRANCH   2   3
ENDBRANCH   1   2
BRANCH   1  34
ATOM     34  C   UNL A   1      34.172  33.370  29.187  1.00  0.00     0.023 C 
BRANCH  34  35
ATOM     35  C   UNL A   1      34.686  32.624  27.962  1.00  0.00     0.116 C 
BRANCH  35  36
ATOM     36  N   UNL A   1      34.063  31.319  27.784  1.00  0.00    -0.352 N 
ATOM     37  C   UNL A   1      34.638  30.075  27.871  1.00  0.00     0.251 C 
ATOM     38  H   UNL A   1      33.101  31.331  27.574  1.00  0.00     0.163 HD
ATOM     39  O   UNL A   1      33.995  29.070  27.578  1.00  0.00    -0.269 OA
BRANCH  37  40
ATOM     40  C   UNL A   1      36.050  29.964  28.289  1.00  0.00     0.039 A 
ATOM     41  C   UNL A   1      36.338  29.668  29.622  1.00  0.00     0.014 A 
ATOM     42  C   UNL A   1      37.078  30.101  27.352  1.00  0.00     0.014 A 
ATOM     43  C   UNL A   1      37.661  29.439  30.004  1.00  0.00     0.010 A 
ATOM     44  C   UNL A   1      38.386  29.808  27.719  1.00  0.00     0.010 A 
ATOM     45  C   UNL A   1      38.690  29.475  29.048  1.00  0.00    -0.014 A 
BRANCH  45  46
ATOM     46  C   UNL A   1      40.091  29.156  29.414  1.00  0.00     0.031 A 
ATOM     47  C   UNL A   1      40.949  30.194  30.080  1.00  0.00     0.074 A 
ATOM     48  C   UNL A   1      40.611  27.958  29.081  1.00  0.00     0.049 A 
ATOM     49  N   UNL A   1      42.204  30.120  30.435  1.00  0.00    -0.248 NA
ATOM     50  C   UNL A   1      40.322  31.497  30.362  1.00  0.00     0.031 C 
ATOM     51  C   UNL A   1      39.897  26.895  28.370  1.00  0.00     0.029 A 
ATOM     52  N   UNL A   1      41.866  27.439  29.278  1.00  0.00    -0.354 N 
ATOM     53  C   UNL A   1      42.524  31.366  30.959  1.00  0.00     0.074 A 
ATOM     54  C   UNL A   1      41.344  32.193  30.838  1.00  0.00     0.031 C 
ATOM     55  C   UNL A   1      40.719  25.846  28.207  1.00  0.00     0.029 A 
ATOM     56  C   UNL A   1      42.024  26.167  28.777  1.00  0.00     0.049 A 
ATOM     57  H   UNL A   1      42.587  27.931  29.736  1.00  0.00     0.167 HD
ATOM     58  C   UNL A   1      43.682  31.772  31.528  1.00  0.00     0.034 A 
ATOM     59  C   UNL A   1      43.096  25.351  28.785  1.00  0.00     0.034 A 
ATOM     60  C   UNL A   1      44.835  30.930  31.694  1.00  0.00     0.049 A 
ATOM     61  C   UNL A   1      44.364  25.817  29.451  1.00  0.00     0.074 A 
ATOM     62  C   UNL A   1      46.031  31.227  32.323  1.00  0.00     0.029 A 
ATOM     63  N   UNL A   1      44.935  29.626  31.235  1.00  0.00    -0.354 N 
ATOM     64  N   UNL A   1      44.601  26.949  30.069  1.00  0.00    -0.248 NA
ATOM     65  C   UNL A   1      45.501  24.885  29.448  1.00  0.00     0.031 C 
ATOM     66  C   UNL A   1      46.857  30.102  32.238  1.00  0.00     0.029 A 
ATOM     67  C   UNL A   1      46.173  29.103  31.565  1.00  0.00     0.049 A 
ATOM     68  H   UNL A   1      44.230  29.144  30.747  1.00  0.00     0.167 HD
ATOM     69  C   UNL A   1      45.901  26.856  30.552  1.00  0.00     0.074 A 
ATOM     70  C   UNL A   1      46.393  25.546  30.174  1.00  0.00     0.031 C 
ATOM     71  C   UNL A   1      46.628  27.778  31.229  1.00  0.00     0.034 A 
BRANCH  58  72
ATOM     72  C   UNL A   1      43.732  33.166  32.093  1.00  0.00     0.023 A 
ATOM     73  C   UNL A   1      44.233  34.211  31.290  1.00  0.00     0.012 A 
ATOM     74  C   UNL A   1      43.226  33.459  33.374  1.00  0.00     0.148 A 
ATOM     75  C   UNL A   1      44.254  35.523  31.762  1.00  0.00     0.002 A 
ATOM     76  C   UNL A   1      43.214  34.776  33.821  1.00  0.00     0.091 A 
ATOM     77  F   UNL A   1      42.775  32.448  34.131  1.00  0.00    -0.205 F 
ATOM     78  C   UNL A   1      43.734  35.806  33.020  1.00  0.00     0.022 A 
BRANCH  76  79
ATOM     79  S   UNL A   1      42.501  35.257  35.399  1.00  0.00     0.127 S 
ATOM     80  O   UNL A   1      41.112  34.830  35.236  1.00  0.00    -0.237 OA
ATOM     81  O   UNL A   1      43.278  34.459  36.347  1.00  0.00    -0.237 OA
ATOM     82  O   UNL A   1      42.703  36.696  35.508  1.00  0.00    -0.744 OA
ENDBRANCH  76  79
ENDBRANCH  58  72
BRANCH  59  83
ATOM     83  C   UNL A   1      42.978  23.972  28.232  1.00  0.00     0.023 A 
ATOM     84  C   UNL A   1      42.098  23.063  28.853  1.00  0.00     0.012 A 
ATOM     85  C   UNL A   1      43.673  23.572  27.075  1.00  0.00     0.148 A 
ATOM     86  C   UNL A   1      41.926  21.776  28.343  1.00  0.00     0.002 A 
ATOM     87  C   UNL A   1      43.458  22.305  26.542  1.00  0.00     0.091 A 
ATOM     88  F   UNL A   1      44.517  24.445  26.508  1.00  0.00    -0.205 F 
ATOM     89  C   UNL A   1      42.596  21.401  27.181  1.00  0.00     0.022 A 
BRANCH  87  90
ATOM     90  S   UNL A   1      44.171  21.785  24.976  1.00  0.00     0.127 S 
ATOM     91  O   UNL A   1      45.600  21.834  25.267  1.00  0.00    -0.237 OA
ATOM     92  O   UNL A   1      43.618  20.438  24.823  1.00  0.00    -0.237 OA
ATOM     93  O   UNL A   1      43.690  22.744  23.990  1.00  0.00    -0.744 OA
ENDBRANCH  87  90
ENDBRANCH  59  83
BRANCH  71  94
ATOM     94  C   UNL A   1      48.037  27.419  31.620  1.00  0.00     0.023 A 
ATOM     95  C   UNL A   1      49.105  27.823  30.795  1.00  0.00     0.012 A 
ATOM     96  C   UNL A   1      48.311  26.798  32.854  1.00  0.00     0.148 A 
ATOM     97  C   UNL A   1      50.424  27.601  31.185  1.00  0.00     0.002 A 
ATOM     98  C   UNL A   1      49.630  26.619  33.256  1.00  0.00     0.091 A 
ATOM     99  F   UNL A   1      47.280  26.404  33.616  1.00  0.00    -0.205 F 
ATOM    100  C   UNL A   1      50.687  27.013  32.421  1.00  0.00     0.022 A 
BRANCH  98 101
ATOM    101  S   UNL A   1      50.062  25.963  34.873  1.00  0.00     0.127 S 
ATOM    102  O   UNL A   1      51.523  25.971  34.817  1.00  0.00    -0.237 OA
ATOM    103  O   UNL A   1      49.481  26.956  35.778  1.00  0.00    -0.237 OA
ATOM    104  O   UNL A   1      49.445  24.646  34.948  1.00  0.00    -0.744 OA
ENDBRANCH  98 101
ENDBRANCH  71  94
ENDBRANCH  45  46
ENDBRANCH  37  40
ENDBRANCH  35  36
ENDBRANCH  34  35
ENDBRANCH   1  34
TORSDOF 18
ENDMDL
