MODEL 1
REMARK VINA RESULT:     -13.1      0.000      0.000
REMARK SMILES Cc1nn(C)c(=O)c(C(=O)N2CC[C@@H](C(=O)NCCCCNC(=O)c3ccc(-c4c5nc(c(-c6cccc(S(=O)(=O)[O-])c6F)c6ccc([nH]6)c(-c6cccc(S(=O)(=O)[O-])c6F)c6nc(c(-c7cccc(S(=O)(=O)[O-])c7F)c7ccc4[nH]7)C=C6)C=C5)cc3)[C@@H]2C)c1C
REMARK SMILES IDX 20 1 19 2 18 3 17 4 15 5 16 6 14 8 11 9 12 10 88 11 13 12
REMARK SMILES IDX 89 13 9 14 10 15 8 16 1 17 2 18 3 19 90 20 4 21 91 22 5 23
REMARK SMILES IDX 6 24 7 25 21 26 22 27 23 28 24 30 25 31 26 32 87 33 27 34
REMARK SMILES IDX 86 35 28 36 29 37 30 38 80 39 31 40 85 41 79 42 81 43 32 44
REMARK SMILES IDX 84 45 78 46 77 47 33 49 65 50 45 51 64 52 46 53 49 54 63 55
REMARK SMILES IDX 82 56 47 57 48 58 62 60 83 61 50 62 34 63 35 64 43 65 36 66
REMARK SMILES IDX 38 67 44 68 37 69 39 70 40 71 41 72 42 73 66 74 67 75 75 76
REMARK SMILES IDX 68 77 70 78 76 79 69 80 71 81 72 82 73 83 74 84 51 85 52 86
REMARK SMILES IDX 60 87 53 88 55 89 61 90 54 91 56 92 57 93 58 94 59 95
REMARK H PARENT 17 7 22 29 81 48 49 59
REMARK Flexibility Score: inf
ROOT
ATOM      1  C   UNL A   1      36.053  21.252  24.492  1.00  0.00     0.023 C 
ENDROOT
BRANCH   1   2
ATOM      2  C   UNL A   1      35.451  19.935  24.949  1.00  0.00     0.023 C 
BRANCH   2   3
ATOM      3  C   UNL A   1      33.956  19.947  25.243  1.00  0.00     0.116 C 
BRANCH   3   4
ATOM      4  N   UNL A   1      33.660  20.564  26.520  1.00  0.00    -0.356 N 
ATOM      5  C   UNL A   1      33.285  21.828  26.846  1.00  0.00     0.225 C 
ATOM      6  O   UNL A   1      33.119  22.067  28.047  1.00  0.00    -0.275 OA
ATOM      7  H   UNL A   1      33.745  19.957  27.291  1.00  0.00     0.163 HD
BRANCH   5   8
ATOM      8  C   UNL A   1      33.129  22.960  25.838  1.00  0.00     0.102 C 
ATOM      9  N   UNL A   1      31.817  24.900  26.312  1.00  0.00    -0.335 N 
ATOM     10  C   UNL A   1      33.143  25.383  25.962  1.00  0.00     0.121 C 
ATOM     11  C   UNL A   1      31.699  23.521  25.823  1.00  0.00     0.094 C 
ATOM     12  C   UNL A   1      34.060  24.163  25.979  1.00  0.00     0.037 C 
ATOM     13  C   UNL A   1      31.094  23.426  24.417  1.00  0.00     0.032 C 
BRANCH   9  14
ATOM     14  C   UNL A   1      30.752  25.798  26.194  1.00  0.00     0.260 C 
ATOM     15  O   UNL A   1      29.598  25.481  26.468  1.00  0.00    -0.269 OA
BRANCH  14  16
ATOM     16  C   UNL A   1      31.087  27.137  25.610  1.00  0.00     0.111 A 
ATOM     17  C   UNL A   1      33.014  30.279  26.214  1.00  0.00     0.069 C 
ATOM     18  C   UNL A   1      31.938  29.385  25.634  1.00  0.00     0.062 A 
ATOM     19  N   UNL A   1      31.488  29.704  24.465  1.00  0.00    -0.175 NA
ATOM     20  C   UNL A   1      31.517  28.162  26.369  1.00  0.00    -0.010 A 
ATOM     21  N   UNL A   1      30.696  28.785  23.836  1.00  0.00    -0.232 N 
ATOM     22  C   UNL A   1      31.437  28.250  27.855  1.00  0.00     0.047 C 
ATOM     23  C   UNL A   1      30.040  29.258  22.631  1.00  0.00     0.178 C 
ATOM     24  C   UNL A   1      30.657  27.439  24.202  1.00  0.00     0.279 A 
ATOM     25  O   UNL A   1      30.235  26.555  23.460  1.00  0.00    -0.267 OA
ENDBRANCH  14  16
ENDBRANCH   9  14
ENDBRANCH   5   8
ENDBRANCH   3   4
ENDBRANCH   2   3
ENDBRANCH   1   2
BRANCH   1  26
ATOM     26  C   UNL A   1      37.151  21.795  25.392  1.00  0.00     0.116 C 
BRANCH  26  27
ATOM     27  N   UNL A   1      38.233  20.847  25.636  1.00  0.00    -0.352 N 
ATOM     28  C   UNL A   1      39.468  21.029  26.219  1.00  0.00     0.251 C 
ATOM     29  H   UNL A   1      38.051  19.927  25.336  1.00  0.00     0.163 HD
ATOM     30  O   UNL A   1      40.277  20.103  26.238  1.00  0.00    -0.269 OA
BRANCH  28  31
ATOM     31  C   UNL A   1      39.836  22.346  26.780  1.00  0.00     0.039 A 
ATOM     32  C   UNL A   1      40.868  22.434  27.718  1.00  0.00     0.014 A 
ATOM     33  C   UNL A   1      39.202  23.504  26.335  1.00  0.00     0.014 A 
ATOM     34  C   UNL A   1      41.337  23.690  28.113  1.00  0.00     0.010 A 
ATOM     35  C   UNL A   1      39.764  24.740  26.612  1.00  0.00     0.010 A 
ATOM     36  C   UNL A   1      40.832  24.855  27.514  1.00  0.00    -0.014 A 
BRANCH  36  37
ATOM     37  C   UNL A   1      41.375  26.207  27.808  1.00  0.00     0.031 A 
ATOM     38  C   UNL A   1      42.774  26.562  27.368  1.00  0.00     0.074 A 
ATOM     39  C   UNL A   1      40.668  27.071  28.567  1.00  0.00     0.049 A 
ATOM     40  N   UNL A   1      43.487  27.618  27.655  1.00  0.00    -0.248 NA
ATOM     41  C   UNL A   1      43.486  25.571  26.541  1.00  0.00     0.031 C 
ATOM     42  C   UNL A   1      39.343  26.816  29.135  1.00  0.00     0.029 A 
ATOM     43  N   UNL A   1      40.975  28.334  29.009  1.00  0.00    -0.354 N 
ATOM     44  C   UNL A   1      44.739  27.391  27.098  1.00  0.00     0.074 A 
ATOM     45  C   UNL A   1      44.710  26.074  26.507  1.00  0.00     0.031 C 
ATOM     46  C   UNL A   1      38.937  27.899  29.818  1.00  0.00     0.029 A 
ATOM     47  C   UNL A   1      39.986  28.913  29.771  1.00  0.00     0.049 A 
ATOM     48  H   UNL A   1      41.826  28.786  28.800  1.00  0.00     0.167 HD
ATOM     49  C   UNL A   1      45.804  28.224  27.031  1.00  0.00     0.034 A 
ATOM     50  C   UNL A   1      39.926  30.125  30.356  1.00  0.00     0.034 A 
ATOM     51  C   UNL A   1      45.791  29.572  27.524  1.00  0.00     0.049 A 
ATOM     52  C   UNL A   1      41.089  31.069  30.193  1.00  0.00     0.074 A 
ATOM     53  C   UNL A   1      46.778  30.535  27.417  1.00  0.00     0.029 A 
ATOM     54  N   UNL A   1      44.727  30.158  28.192  1.00  0.00    -0.354 N 
ATOM     55  N   UNL A   1      42.216  30.883  29.547  1.00  0.00    -0.248 NA
ATOM     56  C   UNL A   1      40.964  32.398  30.808  1.00  0.00     0.031 C 
ATOM     57  C   UNL A   1      46.310  31.705  28.019  1.00  0.00     0.029 A 
ATOM     58  C   UNL A   1      45.028  31.473  28.495  1.00  0.00     0.049 A 
ATOM     59  H   UNL A   1      43.882  29.705  28.417  1.00  0.00     0.167 HD
ATOM     60  C   UNL A   1      42.918  32.077  29.653  1.00  0.00     0.074 A 
ATOM     61  C   UNL A   1      42.081  32.989  30.404  1.00  0.00     0.031 C 
ATOM     62  C   UNL A   1      44.155  32.384  29.189  1.00  0.00     0.034 A 
BRANCH  49  63
ATOM     63  C   UNL A   1      47.034  27.736  26.312  1.00  0.00     0.023 A 
ATOM     64  C   UNL A   1      48.015  27.024  27.034  1.00  0.00     0.012 A 
ATOM     65  C   UNL A   1      47.198  27.925  24.926  1.00  0.00     0.148 A 
ATOM     66  C   UNL A   1      49.157  26.541  26.398  1.00  0.00     0.002 A 
ATOM     67  C   UNL A   1      48.317  27.398  24.290  1.00  0.00     0.091 A 
ATOM     68  F   UNL A   1      46.267  28.621  24.260  1.00  0.00    -0.205 F 
ATOM     69  C   UNL A   1      49.302  26.719  25.025  1.00  0.00     0.022 A 
BRANCH  67  70
ATOM     70  S   UNL A   1      48.563  27.499  22.512  1.00  0.00     0.127 S 
ATOM     71  O   UNL A   1      49.866  28.157  22.433  1.00  0.00    -0.237 OA
ATOM     72  O   UNL A   1      48.566  26.089  22.123  1.00  0.00    -0.237 OA
ATOM     73  O   UNL A   1      47.442  28.272  21.996  1.00  0.00    -0.744 OA
ENDBRANCH  67  70
ENDBRANCH  49  63
BRANCH  50  74
ATOM     74  C   UNL A   1      38.677  30.554  31.051  1.00  0.00     0.023 A 
ATOM     75  C   UNL A   1      38.585  30.387  32.447  1.00  0.00     0.012 A 
ATOM     76  C   UNL A   1      37.614  31.172  30.364  1.00  0.00     0.148 A 
ATOM     77  C   UNL A   1      37.451  30.807  33.144  1.00  0.00     0.002 A 
ATOM     78  C   UNL A   1      36.510  31.639  31.072  1.00  0.00     0.091 A 
ATOM     79  F   UNL A   1      37.712  31.314  29.034  1.00  0.00    -0.205 F 
ATOM     80  C   UNL A   1      36.421  31.444  32.459  1.00  0.00     0.022 A 
BRANCH  78  81
ATOM     81  S   UNL A   1      35.201  32.597  30.298  1.00  0.00     0.127 S 
ATOM     82  O   UNL A   1      34.223  32.696  31.379  1.00  0.00    -0.237 OA
ATOM     83  O   UNL A   1      35.890  33.845  29.971  1.00  0.00    -0.237 OA
ATOM     84  O   UNL A   1      34.785  31.821  29.136  1.00  0.00    -0.744 OA
ENDBRANCH  78  81
ENDBRANCH  50  74
BRANCH  62  85
ATOM     85  C   UNL A   1      44.689  33.765  29.456  1.00  0.00     0.023 A 
ATOM     86  C   UNL A   1      45.433  34.001  30.629  1.00  0.00     0.012 A 
ATOM     87  C   UNL A   1      44.574  34.783  28.490  1.00  0.00     0.148 A 
ATOM     88  C   UNL A   1      46.044  35.235  30.842  1.00  0.00     0.002 A 
ATOM     89  C   UNL A   1      45.225  35.995  28.686  1.00  0.00     0.091 A 
ATOM     90  F   UNL A   1      43.847  34.540  27.389  1.00  0.00    -0.205 F 
ATOM     91  C   UNL A   1      45.953  36.225  29.865  1.00  0.00     0.022 A 
BRANCH  89  92
ATOM     92  S   UNL A   1      45.253  37.285  27.438  1.00  0.00     0.127 S 
ATOM     93  O   UNL A   1      46.021  38.332  28.109  1.00  0.00    -0.237 OA
ATOM     94  O   UNL A   1      45.952  36.631  26.330  1.00  0.00    -0.237 OA
ATOM     95  O   UNL A   1      43.860  37.609  27.164  1.00  0.00    -0.744 OA
ENDBRANCH  89  92
ENDBRANCH  62  85
ENDBRANCH  36  37
ENDBRANCH  28  31
ENDBRANCH  26  27
ENDBRANCH   1  26
TORSDOF 16
ENDMDL
MODEL 2
REMARK VINA RESULT:     -12.8      4.984     10.467
REMARK SMILES Cc1nn(C)c(=O)c(C(=O)N2CC[C@@H](C(=O)NCCCCNC(=O)c3ccc(-c4c5nc(c(-c6cccc(S(=O)(=O)[O-])c6F)c6ccc([nH]6)c(-c6cccc(S(=O)(=O)[O-])c6F)c6nc(c(-c7cccc(S(=O)(=O)[O-])c7F)c7ccc4[nH]7)C=C6)C=C5)cc3)[C@@H]2C)c1C
REMARK SMILES IDX 20 1 19 2 18 3 17 4 15 5 16 6 14 8 11 9 12 10 88 11 13 12
REMARK SMILES IDX 89 13 9 14 10 15 8 16 1 17 2 18 3 19 90 20 4 21 91 22 5 23
REMARK SMILES IDX 6 24 7 25 21 26 22 27 23 28 24 30 25 31 26 32 87 33 27 34
REMARK SMILES IDX 86 35 28 36 29 37 30 38 80 39 31 40 85 41 79 42 81 43 32 44
REMARK SMILES IDX 84 45 78 46 77 47 33 49 65 50 45 51 64 52 46 53 49 54 63 55
REMARK SMILES IDX 82 56 47 57 48 58 62 60 83 61 50 62 34 63 35 64 43 65 36 66
REMARK SMILES IDX 38 67 44 68 37 69 39 70 40 71 41 72 42 73 66 74 67 75 75 76
REMARK SMILES IDX 68 77 70 78 76 79 69 80 71 81 72 82 73 83 74 84 51 85 52 86
REMARK SMILES IDX 60 87 53 88 55 89 61 90 54 91 56 92 57 93 58 94 59 95
REMARK H PARENT 17 7 22 29 81 48 49 59
REMARK Flexibility Score: inf
ROOT
ATOM      1  C   UNL A   1      31.077  31.108  25.724  1.00  0.00     0.023 C 
ENDROOT
BRANCH   1   2
ATOM      2  C   UNL A   1      31.114  29.698  25.163  1.00  0.00     0.023 C 
BRANCH   2   3
ATOM      3  C   UNL A   1      30.800  29.558  23.678  1.00  0.00     0.116 C 
BRANCH   3   4
ATOM      4  N   UNL A   1      31.995  29.327  22.892  1.00  0.00    -0.356 N 
ATOM      5  C   UNL A   1      32.816  28.249  22.793  1.00  0.00     0.225 C 
ATOM      6  O   UNL A   1      33.788  28.357  22.037  1.00  0.00    -0.275 OA
ATOM      7  H   UNL A   1      32.260  30.089  22.327  1.00  0.00     0.163 HD
BRANCH   5   8
ATOM      8  C   UNL A   1      32.643  26.966  23.599  1.00  0.00     0.102 C 
ATOM      9  N   UNL A   1      33.737  24.933  22.983  1.00  0.00    -0.335 N 
ATOM     10  C   UNL A   1      34.128  25.203  24.357  1.00  0.00     0.121 C 
ATOM     11  C   UNL A   1      32.539  25.731  22.693  1.00  0.00     0.094 C 
ATOM     12  C   UNL A   1      33.708  26.643  24.645  1.00  0.00     0.037 C 
ATOM     13  C   UNL A   1      31.229  24.976  22.955  1.00  0.00     0.032 C 
BRANCH   9  14
ATOM     14  C   UNL A   1      33.851  23.616  22.527  1.00  0.00     0.260 C 
ATOM     15  O   UNL A   1      33.541  23.292  21.384  1.00  0.00    -0.269 OA
BRANCH  14  16
ATOM     16  C   UNL A   1      34.273  22.605  23.549  1.00  0.00     0.111 A 
ATOM     17  C   UNL A   1      37.067  21.623  25.825  1.00  0.00     0.069 C 
ATOM     18  C   UNL A   1      35.826  21.449  24.974  1.00  0.00     0.062 A 
ATOM     19  N   UNL A   1      35.004  20.520  25.332  1.00  0.00    -0.175 NA
ATOM     20  C   UNL A   1      35.568  22.384  23.846  1.00  0.00    -0.010 A 
ATOM     21  N   UNL A   1      33.782  20.507  24.721  1.00  0.00    -0.232 N 
ATOM     22  C   UNL A   1      36.743  22.834  23.046  1.00  0.00     0.047 C 
ATOM     23  C   UNL A   1      32.970  19.335  24.989  1.00  0.00     0.178 C 
ATOM     24  C   UNL A   1      33.262  21.609  24.042  1.00  0.00     0.279 A 
ATOM     25  O   UNL A   1      32.065  21.738  23.791  1.00  0.00    -0.267 OA
ENDBRANCH  14  16
ENDBRANCH   9  14
ENDBRANCH   5   8
ENDBRANCH   3   4
ENDBRANCH   2   3
ENDBRANCH   1   2
BRANCH   1  26
ATOM     26  C   UNL A   1      32.096  31.384  26.817  1.00  0.00     0.116 C 
BRANCH  26  27
ATOM     27  N   UNL A   1      32.247  32.800  27.138  1.00  0.00    -0.352 N 
ATOM     28  C   UNL A   1      33.279  33.473  27.752  1.00  0.00     0.251 C 
ATOM     29  H   UNL A   1      31.487  33.366  26.871  1.00  0.00     0.163 HD
ATOM     30  O   UNL A   1      33.158  34.668  28.015  1.00  0.00    -0.269 OA
BRANCH  28  31
ATOM     31  C   UNL A   1      34.512  32.752  28.134  1.00  0.00     0.039 A 
ATOM     32  C   UNL A   1      35.736  33.425  28.129  1.00  0.00     0.014 A 
ATOM     33  C   UNL A   1      34.450  31.425  28.555  1.00  0.00     0.014 A 
ATOM     34  C   UNL A   1      36.869  32.801  28.659  1.00  0.00     0.010 A 
ATOM     35  C   UNL A   1      35.535  30.867  29.213  1.00  0.00     0.010 A 
ATOM     36  C   UNL A   1      36.764  31.539  29.266  1.00  0.00    -0.014 A 
BRANCH  36  37
ATOM     37  C   UNL A   1      37.909  30.882  29.949  1.00  0.00     0.031 A 
ATOM     38  C   UNL A   1      38.255  31.269  31.366  1.00  0.00     0.074 A 
ATOM     39  C   UNL A   1      38.706  30.030  29.270  1.00  0.00     0.049 A 
ATOM     40  N   UNL A   1      39.295  30.935  32.082  1.00  0.00    -0.248 NA
ATOM     41  C   UNL A   1      37.340  32.202  32.046  1.00  0.00     0.031 C 
ATOM     42  C   UNL A   1      38.537  29.644  27.867  1.00  0.00     0.029 A 
ATOM     43  N   UNL A   1      39.833  29.351  29.662  1.00  0.00    -0.354 N 
ATOM     44  C   UNL A   1      39.187  31.657  33.264  1.00  0.00     0.074 A 
ATOM     45  C   UNL A   1      38.016  32.492  33.147  1.00  0.00     0.031 C 
ATOM     46  C   UNL A   1      39.500  28.771  27.529  1.00  0.00     0.029 A 
ATOM     47  C   UNL A   1      40.378  28.562  28.676  1.00  0.00     0.049 A 
ATOM     48  H   UNL A   1      40.215  29.421  30.568  1.00  0.00     0.167 HD
ATOM     49  C   UNL A   1      39.959  31.592  34.374  1.00  0.00     0.034 A 
ATOM     50  C   UNL A   1      41.459  27.757  28.695  1.00  0.00     0.034 A 
ATOM     51  C   UNL A   1      41.058  30.681  34.527  1.00  0.00     0.049 A 
ATOM     52  C   UNL A   1      42.251  27.634  29.970  1.00  0.00     0.074 A 
ATOM     53  C   UNL A   1      41.841  30.461  35.644  1.00  0.00     0.029 A 
ATOM     54  N   UNL A   1      41.510  29.818  33.541  1.00  0.00    -0.354 N 
ATOM     55  N   UNL A   1      42.053  28.228  31.122  1.00  0.00    -0.248 NA
ATOM     56  C   UNL A   1      43.393  26.709  29.961  1.00  0.00     0.031 C 
ATOM     57  C   UNL A   1      42.768  29.462  35.335  1.00  0.00     0.029 A 
ATOM     58  C   UNL A   1      42.555  29.055  34.025  1.00  0.00     0.049 A 
ATOM     59  H   UNL A   1      41.141  29.758  32.630  1.00  0.00     0.167 HD
ATOM     60  C   UNL A   1      43.024  27.729  31.981  1.00  0.00     0.074 A 
ATOM     61  C   UNL A   1      43.796  26.766  31.225  1.00  0.00     0.031 C 
ATOM     62  C   UNL A   1      43.270  28.055  33.275  1.00  0.00     0.034 A 
BRANCH  49  63
ATOM     63  C   UNL A   1      39.579  32.459  35.547  1.00  0.00     0.023 A 
ATOM     64  C   UNL A   1      38.815  31.901  36.594  1.00  0.00     0.012 A 
ATOM     65  C   UNL A   1      40.016  33.793  35.645  1.00  0.00     0.148 A 
ATOM     66  C   UNL A   1      38.461  32.667  37.702  1.00  0.00     0.002 A 
ATOM     67  C   UNL A   1      39.699  34.537  36.778  1.00  0.00     0.091 A 
ATOM     68  F   UNL A   1      40.723  34.313  34.633  1.00  0.00    -0.205 F 
ATOM     69  C   UNL A   1      38.912  33.980  37.799  1.00  0.00     0.022 A 
BRANCH  67  70
ATOM     70  S   UNL A   1      40.297  36.211  37.041  1.00  0.00     0.127 S 
ATOM     71  O   UNL A   1      39.527  36.616  38.216  1.00  0.00    -0.237 OA
ATOM     72  O   UNL A   1      41.722  35.991  37.291  1.00  0.00    -0.237 OA
ATOM     73  O   UNL A   1      39.999  36.941  35.818  1.00  0.00    -0.744 OA
ENDBRANCH  67  70
ENDBRANCH  49  63
BRANCH  50  74
ATOM     74  C   UNL A   1      41.781  26.919  27.503  1.00  0.00     0.023 A 
ATOM     75  C   UNL A   1      42.387  27.530  26.387  1.00  0.00     0.012 A 
ATOM     76  C   UNL A   1      41.554  25.529  27.482  1.00  0.00     0.148 A 
ATOM     77  C   UNL A   1      42.740  26.780  25.264  1.00  0.00     0.002 A 
ATOM     78  C   UNL A   1      41.958  24.777  26.382  1.00  0.00     0.091 A 
ATOM     79  F   UNL A   1      40.966  24.964  28.546  1.00  0.00    -0.205 F 
ATOM     80  C   UNL A   1      42.538  25.403  25.267  1.00  0.00     0.022 A 
BRANCH  78  81
ATOM     81  S   UNL A   1      41.869  22.982  26.354  1.00  0.00     0.127 S 
ATOM     82  O   UNL A   1      40.427  22.755  26.299  1.00  0.00    -0.237 OA
ATOM     83  O   UNL A   1      42.592  22.662  25.123  1.00  0.00    -0.237 OA
ATOM     84  O   UNL A   1      42.535  22.539  27.571  1.00  0.00    -0.744 OA
ENDBRANCH  78  81
ENDBRANCH  50  74
BRANCH  62  85
ATOM     85  C   UNL A   1      44.406  27.363  33.977  1.00  0.00     0.023 A 
ATOM     86  C   UNL A   1      45.705  27.900  33.882  1.00  0.00     0.012 A 
ATOM     87  C   UNL A   1      44.166  26.271  34.834  1.00  0.00     0.148 A 
ATOM     88  C   UNL A   1      46.752  27.352  34.620  1.00  0.00     0.002 A 
ATOM     89  C   UNL A   1      45.205  25.760  35.603  1.00  0.00     0.091 A 
ATOM     90  F   UNL A   1      42.925  25.767  34.895  1.00  0.00    -0.205 F 
ATOM     91  C   UNL A   1      46.499  26.294  35.492  1.00  0.00     0.022 A 
BRANCH  89  92
ATOM     92  S   UNL A   1      44.950  24.472  36.829  1.00  0.00     0.127 S 
ATOM     93  O   UNL A   1      44.575  23.335  35.992  1.00  0.00    -0.237 OA
ATOM     94  O   UNL A   1      46.273  24.365  37.447  1.00  0.00    -0.237 OA
ATOM     95  O   UNL A   1      43.907  24.966  37.718  1.00  0.00    -0.744 OA
ENDBRANCH  89  92
ENDBRANCH  62  85
ENDBRANCH  36  37
ENDBRANCH  28  31
ENDBRANCH  26  27
ENDBRANCH   1  26
TORSDOF 16
ENDMDL
MODEL 3
REMARK VINA RESULT:     -12.7      1.628      2.148
REMARK SMILES Cc1nn(C)c(=O)c(C(=O)N2CC[C@@H](C(=O)NCCCCNC(=O)c3ccc(-c4c5nc(c(-c6cccc(S(=O)(=O)[O-])c6F)c6ccc([nH]6)c(-c6cccc(S(=O)(=O)[O-])c6F)c6nc(c(-c7cccc(S(=O)(=O)[O-])c7F)c7ccc4[nH]7)C=C6)C=C5)cc3)[C@@H]2C)c1C
REMARK SMILES IDX 20 1 19 2 18 3 17 4 15 5 16 6 14 8 11 9 12 10 88 11 13 12
REMARK SMILES IDX 89 13 9 14 10 15 8 16 1 17 2 18 3 19 90 20 4 21 91 22 5 23
REMARK SMILES IDX 6 24 7 25 21 26 22 27 23 28 24 30 25 31 26 32 87 33 27 34
REMARK SMILES IDX 86 35 28 36 29 37 30 38 80 39 31 40 85 41 79 42 81 43 32 44
REMARK SMILES IDX 84 45 78 46 77 47 33 49 65 50 45 51 64 52 46 53 49 54 63 55
REMARK SMILES IDX 82 56 47 57 48 58 62 60 83 61 50 62 34 63 35 64 43 65 36 66
REMARK SMILES IDX 38 67 44 68 37 69 39 70 40 71 41 72 42 73 66 74 67 75 75 76
REMARK SMILES IDX 68 77 70 78 76 79 69 80 71 81 72 82 73 83 74 84 51 85 52 86
REMARK SMILES IDX 60 87 53 88 55 89 61 90 54 91 56 92 57 93 58 94 59 95
REMARK H PARENT 17 7 22 29 81 48 49 59
REMARK Flexibility Score: inf
ROOT
ATOM      1  C   UNL A   1      35.488  21.642  24.360  1.00  0.00     0.023 C 
ENDROOT
BRANCH   1   2
ATOM      2  C   UNL A   1      35.069  20.316  24.971  1.00  0.00     0.023 C 
BRANCH   2   3
ATOM      3  C   UNL A   1      33.604  19.933  24.804  1.00  0.00     0.116 C 
BRANCH   3   4
ATOM      4  N   UNL A   1      32.915  20.815  23.883  1.00  0.00    -0.356 N 
ATOM      5  C   UNL A   1      32.251  21.983  24.078  1.00  0.00     0.225 C 
ATOM      6  O   UNL A   1      31.741  22.507  23.082  1.00  0.00    -0.275 OA
ATOM      7  H   UNL A   1      32.933  20.512  22.946  1.00  0.00     0.163 HD
BRANCH   5   8
ATOM      8  C   UNL A   1      32.047  22.634  25.442  1.00  0.00     0.102 C 
ATOM      9  N   UNL A   1      31.161  24.840  25.668  1.00  0.00    -0.335 N 
ATOM     10  C   UNL A   1      30.301  23.975  26.460  1.00  0.00     0.121 C 
ATOM     11  C   UNL A   1      32.419  24.123  25.428  1.00  0.00     0.094 C 
ATOM     12  C   UNL A   1      30.655  22.544  26.064  1.00  0.00     0.037 C 
ATOM     13  C   UNL A   1      33.498  24.423  26.476  1.00  0.00     0.032 C 
BRANCH   9  14
ATOM     14  C   UNL A   1      31.158  26.205  25.972  1.00  0.00     0.260 C 
ATOM     15  O   UNL A   1      31.037  26.617  27.122  1.00  0.00    -0.269 OA
BRANCH  14  16
ATOM     16  C   UNL A   1      31.204  27.137  24.799  1.00  0.00     0.111 A 
ATOM     17  C   UNL A   1      29.076  29.115  22.453  1.00  0.00     0.069 C 
ATOM     18  C   UNL A   1      30.297  28.366  22.943  1.00  0.00     0.062 A 
ATOM     19  N   UNL A   1      31.438  28.747  22.473  1.00  0.00    -0.175 NA
ATOM     20  C   UNL A   1      30.149  27.311  23.981  1.00  0.00    -0.010 A 
ATOM     21  N   UNL A   1      32.555  28.243  23.077  1.00  0.00    -0.232 N 
ATOM     22  C   UNL A   1      28.943  26.436  23.902  1.00  0.00     0.047 C 
ATOM     23  C   UNL A   1      33.805  28.522  22.395  1.00  0.00     0.178 C 
ATOM     24  C   UNL A   1      32.535  27.665  24.347  1.00  0.00     0.279 A 
ATOM     25  O   UNL A   1      33.545  27.523  25.034  1.00  0.00    -0.267 OA
ENDBRANCH  14  16
ENDBRANCH   9  14
ENDBRANCH   5   8
ENDBRANCH   3   4
ENDBRANCH   2   3
ENDBRANCH   1   2
BRANCH   1  26
ATOM     26  C   UNL A   1      36.858  22.136  24.794  1.00  0.00     0.116 C 
BRANCH  26  27
ATOM     27  N   UNL A   1      37.781  21.066  25.160  1.00  0.00    -0.352 N 
ATOM     28  C   UNL A   1      38.949  21.103  25.888  1.00  0.00     0.251 C 
ATOM     29  H   UNL A   1      37.527  20.173  24.834  1.00  0.00     0.163 HD
ATOM     30  O   UNL A   1      39.633  20.086  25.997  1.00  0.00    -0.269 OA
BRANCH  28  31
ATOM     31  C   UNL A   1      39.404  22.371  26.498  1.00  0.00     0.039 A 
ATOM     32  C   UNL A   1      40.524  22.373  27.333  1.00  0.00     0.014 A 
ATOM     33  C   UNL A   1      38.758  23.568  26.199  1.00  0.00     0.014 A 
ATOM     34  C   UNL A   1      41.061  23.589  27.764  1.00  0.00     0.010 A 
ATOM     35  C   UNL A   1      39.375  24.772  26.502  1.00  0.00     0.010 A 
ATOM     36  C   UNL A   1      40.529  24.803  27.298  1.00  0.00    -0.014 A 
BRANCH  36  37
ATOM     37  C   UNL A   1      41.133  26.121  27.629  1.00  0.00     0.031 A 
ATOM     38  C   UNL A   1      42.549  26.421  27.207  1.00  0.00     0.074 A 
ATOM     39  C   UNL A   1      40.461  26.999  28.404  1.00  0.00     0.049 A 
ATOM     40  N   UNL A   1      43.309  27.435  27.524  1.00  0.00    -0.248 NA
ATOM     41  C   UNL A   1      43.221  25.417  26.361  1.00  0.00     0.031 C 
ATOM     42  C   UNL A   1      39.121  26.792  28.957  1.00  0.00     0.029 A 
ATOM     43  N   UNL A   1      40.823  28.235  28.878  1.00  0.00    -0.354 N 
ATOM     44  C   UNL A   1      44.553  27.164  26.969  1.00  0.00     0.074 A 
ATOM     45  C   UNL A   1      44.467  25.864  26.347  1.00  0.00     0.031 C 
ATOM     46  C   UNL A   1      38.760  27.876  29.663  1.00  0.00     0.029 A 
ATOM     47  C   UNL A   1      39.856  28.841  29.647  1.00  0.00     0.049 A 
ATOM     48  H   UNL A   1      41.695  28.651  28.685  1.00  0.00     0.167 HD
ATOM     49  C   UNL A   1      45.656  27.947  26.930  1.00  0.00     0.034 A 
ATOM     50  C   UNL A   1      39.848  30.041  30.261  1.00  0.00     0.034 A 
ATOM     51  C   UNL A   1      45.703  29.282  27.454  1.00  0.00     0.049 A 
ATOM     52  C   UNL A   1      41.054  30.933  30.128  1.00  0.00     0.074 A 
ATOM     53  C   UNL A   1      46.734  30.200  27.377  1.00  0.00     0.029 A 
ATOM     54  N   UNL A   1      44.662  29.901  28.129  1.00  0.00    -0.354 N 
ATOM     55  N   UNL A   1      42.176  30.710  29.485  1.00  0.00    -0.248 NA
ATOM     56  C   UNL A   1      40.986  32.251  30.774  1.00  0.00     0.031 C 
ATOM     57  C   UNL A   1      46.316  31.376  28.004  1.00  0.00     0.029 A 
ATOM     58  C   UNL A   1      45.020  31.193  28.466  1.00  0.00     0.049 A 
ATOM     59  H   UNL A   1      43.795  29.483  28.338  1.00  0.00     0.167 HD
ATOM     60  C   UNL A   1      42.933  31.867  29.625  1.00  0.00     0.074 A 
ATOM     61  C   UNL A   1      42.134  32.798  30.392  1.00  0.00     0.031 C 
ATOM     62  C   UNL A   1      44.186  32.127  29.176  1.00  0.00     0.034 A 
BRANCH  49  63
ATOM     63  C   UNL A   1      46.868  27.419  26.207  1.00  0.00     0.023 A 
ATOM     64  C   UNL A   1      47.007  27.669  24.825  1.00  0.00     0.012 A 
ATOM     65  C   UNL A   1      47.889  26.732  26.890  1.00  0.00     0.148 A 
ATOM     66  C   UNL A   1      48.123  27.212  24.128  1.00  0.00     0.002 A 
ATOM     67  C   UNL A   1      49.023  26.322  26.197  1.00  0.00     0.091 A 
ATOM     68  F   UNL A   1      47.731  26.486  28.198  1.00  0.00    -0.205 F 
ATOM     69  C   UNL A   1      49.135  26.549  24.815  1.00  0.00     0.022 A 
BRANCH  67  70
ATOM     70  S   UNL A   1      50.422  25.531  27.001  1.00  0.00     0.127 S 
ATOM     71  O   UNL A   1      51.302  25.264  25.864  1.00  0.00    -0.237 OA
ATOM     72  O   UNL A   1      50.892  26.583  27.902  1.00  0.00    -0.237 OA
ATOM     73  O   UNL A   1      49.888  24.352  27.667  1.00  0.00    -0.744 OA
ENDBRANCH  67  70
ENDBRANCH  49  63
BRANCH  50  74
ATOM     74  C   UNL A   1      38.614  30.511  30.957  1.00  0.00     0.023 A 
ATOM     75  C   UNL A   1      38.510  30.328  32.351  1.00  0.00     0.012 A 
ATOM     76  C   UNL A   1      37.581  31.182  30.277  1.00  0.00     0.148 A 
ATOM     77  C   UNL A   1      37.392  30.784  33.050  1.00  0.00     0.002 A 
ATOM     78  C   UNL A   1      36.494  31.684  30.987  1.00  0.00     0.091 A 
ATOM     79  F   UNL A   1      37.690  31.338  28.949  1.00  0.00    -0.205 F 
ATOM     80  C   UNL A   1      36.391  31.473  32.371  1.00  0.00     0.022 A 
BRANCH  78  81
ATOM     81  S   UNL A   1      35.228  32.705  30.222  1.00  0.00     0.127 S 
ATOM     82  O   UNL A   1      36.010  33.840  29.738  1.00  0.00    -0.237 OA
ATOM     83  O   UNL A   1      34.713  31.819  29.178  1.00  0.00    -0.237 OA
ATOM     84  O   UNL A   1      34.273  33.000  31.282  1.00  0.00    -0.744 OA
ENDBRANCH  78  81
ENDBRANCH  50  74
BRANCH  62  85
ATOM     85  C   UNL A   1      44.782  33.474  29.480  1.00  0.00     0.023 A 
ATOM     86  C   UNL A   1      45.550  33.641  30.649  1.00  0.00     0.012 A 
ATOM     87  C   UNL A   1      44.697  34.528  28.549  1.00  0.00     0.148 A 
ATOM     88  C   UNL A   1      46.215  34.840  30.893  1.00  0.00     0.002 A 
ATOM     89  C   UNL A   1      45.402  35.704  28.775  1.00  0.00     0.091 A 
ATOM     90  F   UNL A   1      43.946  34.352  27.452  1.00  0.00    -0.205 F 
ATOM     91  C   UNL A   1      46.154  35.865  29.949  1.00  0.00     0.022 A 
BRANCH  89  92
ATOM     92  S   UNL A   1      45.468  37.033  27.568  1.00  0.00     0.127 S 
ATOM     93  O   UNL A   1      46.314  38.011  28.249  1.00  0.00    -0.237 OA
ATOM     94  O   UNL A   1      46.095  36.378  26.419  1.00  0.00    -0.237 OA
ATOM     95  O   UNL A   1      44.088  37.444  27.348  1.00  0.00    -0.744 OA
ENDBRANCH  89  92
ENDBRANCH  62  85
ENDBRANCH  36  37
ENDBRANCH  28  31
ENDBRANCH  26  27
ENDBRANCH   1  26
TORSDOF 16
ENDMDL
