MODEL 1
REMARK VINA RESULT:     -12.0      0.000      0.000
REMARK SMILES O=C(Cn1nc(-c2ccco2)ccc1=O)NCCCCNC(=O)c1ccc(-c2c3nc(c(-c4cccc(S(=O)(=O)[O-])c4F)c4ccc([nH]4)c(-c4cccc(S(=O)(=O)[O-])c4F)c4nc(c(-c5cccc(S(=O)(=O)[O-])c5F)c5ccc2[nH]5)C=C4)C=C3)cc1
REMARK SMILES IDX 19 1 18 2 17 3 16 4 1 5 2 6 3 8 4 9 5 10 14 11 6 12 13 13
REMARK SMILES IDX 15 14 12 15 7 16 8 17 11 18 9 19 10 20 20 21 21 22 22 23
REMARK SMILES IDX 23 25 24 26 25 27 86 28 26 29 85 30 27 31 28 32 29 33 79 34
REMARK SMILES IDX 30 35 84 36 78 37 80 38 31 39 83 40 77 41 76 42 32 44 64 45
REMARK SMILES IDX 44 46 63 47 45 48 48 49 62 50 81 51 46 52 47 53 61 55 82 56
REMARK SMILES IDX 49 57 33 58 34 59 42 60 35 61 37 62 43 63 36 64 38 65 39 66
REMARK SMILES IDX 40 67 41 68 65 69 66 70 74 71 67 72 69 73 75 74 68 75 70 76
REMARK SMILES IDX 71 77 72 78 73 79 50 80 51 81 59 82 52 83 54 84 60 85 53 86
REMARK SMILES IDX 55 87 56 88 57 89 58 90
REMARK H PARENT 16 7 21 24 80 43 48 54
REMARK Flexibility Score: inf
ROOT
ATOM      1  C   UNL A   1      32.525  29.696  25.457  1.00  0.00     0.023 C 
ENDROOT
BRANCH   1   2
ATOM      2  C   UNL A   1      33.843  28.945  25.258  1.00  0.00     0.023 C 
BRANCH   2   3
ATOM      3  C   UNL A   1      34.087  28.418  23.847  1.00  0.00     0.116 C 
BRANCH   3   4
ATOM      4  N   UNL A   1      32.937  27.756  23.263  1.00  0.00    -0.354 N 
ATOM      5  O   UNL A   1      34.111  26.662  21.631  1.00  0.00    -0.273 OA
ATOM      6  C   UNL A   1      33.061  26.822  22.254  1.00  0.00     0.241 C 
ATOM      7  H   UNL A   1      32.038  27.981  23.596  1.00  0.00     0.163 HD
BRANCH   6   8
ATOM      8  C   UNL A   1      31.770  26.102  21.848  1.00  0.00     0.248 C 
BRANCH   8   9
ATOM      9  N   UNL A   1      30.580  26.616  22.525  1.00  0.00    -0.220 N 
ATOM     10  N   UNL A   1      30.199  27.911  22.224  1.00  0.00    -0.166 NA
ATOM     11  C   UNL A   1      29.814  25.744  23.289  1.00  0.00     0.267 A 
ATOM     12  C   UNL A   1      29.128  28.377  22.794  1.00  0.00     0.126 A 
ATOM     13  C   UNL A   1      28.645  26.337  23.967  1.00  0.00     0.076 A 
ATOM     14  O   UNL A   1      30.064  24.554  23.460  1.00  0.00    -0.268 OA
ATOM     15  C   UNL A   1      28.313  27.612  23.763  1.00  0.00     0.040 A 
BRANCH  12  16
ATOM     16  C   UNL A   1      28.667  29.701  22.457  1.00  0.00     0.154 A 
ATOM     17  C   UNL A   1      27.984  30.651  23.192  1.00  0.00     0.052 A 
ATOM     18  O   UNL A   1      28.921  30.188  21.204  1.00  0.00    -0.463 OA
ATOM     19  C   UNL A   1      27.809  31.770  22.344  1.00  0.00     0.043 A 
ATOM     20  C   UNL A   1      28.367  31.427  21.135  1.00  0.00     0.196 A 
ENDBRANCH  12  16
ENDBRANCH   8   9
ENDBRANCH   6   8
ENDBRANCH   3   4
ENDBRANCH   2   3
ENDBRANCH   1   2
BRANCH   1  21
ATOM     21  C   UNL A   1      32.245  30.193  26.871  1.00  0.00     0.116 C 
BRANCH  21  22
ATOM     22  N   UNL A   1      32.191  31.643  26.989  1.00  0.00    -0.352 N 
ATOM     23  C   UNL A   1      33.157  32.513  27.445  1.00  0.00     0.251 C 
ATOM     24  H   UNL A   1      31.345  32.059  26.703  1.00  0.00     0.163 HD
ATOM     25  O   UNL A   1      32.903  33.710  27.551  1.00  0.00    -0.269 OA
BRANCH  23  26
ATOM     26  C   UNL A   1      34.484  31.994  27.854  1.00  0.00     0.039 A 
ATOM     27  C   UNL A   1      34.676  30.634  28.099  1.00  0.00     0.014 A 
ATOM     28  C   UNL A   1      35.539  32.894  28.041  1.00  0.00     0.014 A 
ATOM     29  C   UNL A   1      35.851  30.203  28.711  1.00  0.00     0.010 A 
ATOM     30  C   UNL A   1      36.749  32.444  28.582  1.00  0.00     0.010 A 
ATOM     31  C   UNL A   1      36.892  31.107  28.982  1.00  0.00    -0.014 A 
BRANCH  31  32
ATOM     32  C   UNL A   1      38.100  30.636  29.713  1.00  0.00     0.031 A 
ATOM     33  C   UNL A   1      38.343  31.042  31.145  1.00  0.00     0.074 A 
ATOM     34  C   UNL A   1      38.955  29.789  29.106  1.00  0.00     0.049 A 
ATOM     35  N   UNL A   1      39.314  30.681  31.947  1.00  0.00    -0.248 NA
ATOM     36  C   UNL A   1      37.378  31.969  31.760  1.00  0.00     0.031 C 
ATOM     37  C   UNL A   1      38.843  29.329  27.721  1.00  0.00     0.029 A 
ATOM     38  N   UNL A   1      40.074  29.150  29.580  1.00  0.00    -0.354 N 
ATOM     39  C   UNL A   1      39.099  31.362  33.140  1.00  0.00     0.074 A 
ATOM     40  C   UNL A   1      37.909  32.165  32.959  1.00  0.00     0.031 C 
ATOM     41  C   UNL A   1      39.822  28.446  27.472  1.00  0.00     0.029 A 
ATOM     42  C   UNL A   1      40.656  28.308  28.662  1.00  0.00     0.049 A 
ATOM     43  H   UNL A   1      40.426  29.282  30.490  1.00  0.00     0.167 HD
ATOM     44  C   UNL A   1      39.811  31.306  34.290  1.00  0.00     0.034 A 
ATOM     45  C   UNL A   1      41.739  27.512  28.761  1.00  0.00     0.034 A 
ATOM     46  C   UNL A   1      40.957  30.465  34.498  1.00  0.00     0.049 A 
ATOM     47  C   UNL A   1      42.504  27.461  30.052  1.00  0.00     0.074 A 
ATOM     48  C   UNL A   1      41.709  30.310  35.650  1.00  0.00     0.029 A 
ATOM     49  N   UNL A   1      41.511  29.631  33.542  1.00  0.00    -0.354 N 
ATOM     50  N   UNL A   1      42.235  28.054  31.189  1.00  0.00    -0.248 NA
ATOM     51  C   UNL A   1      43.712  26.624  30.079  1.00  0.00     0.031 C 
ATOM     52  C   UNL A   1      42.719  29.380  35.391  1.00  0.00     0.029 A 
ATOM     53  C   UNL A   1      42.595  28.957  34.077  1.00  0.00     0.049 A 
ATOM     54  H   UNL A   1      41.184  29.532  32.618  1.00  0.00     0.167 HD
ATOM     55  C   UNL A   1      43.233  27.655  32.069  1.00  0.00     0.074 A 
ATOM     56  C   UNL A   1      44.100  26.751  31.341  1.00  0.00     0.031 C 
ATOM     57  C   UNL A   1      43.423  28.023  33.359  1.00  0.00     0.034 A 
BRANCH  44  58
ATOM     58  C   UNL A   1      39.339  32.134  35.454  1.00  0.00     0.023 A 
ATOM     59  C   UNL A   1      38.486  31.547  36.410  1.00  0.00     0.012 A 
ATOM     60  C   UNL A   1      39.814  33.444  35.656  1.00  0.00     0.148 A 
ATOM     61  C   UNL A   1      38.104  32.256  37.547  1.00  0.00     0.002 A 
ATOM     62  C   UNL A   1      39.450  34.134  36.807  1.00  0.00     0.091 A 
ATOM     63  F   UNL A   1      40.613  33.984  34.726  1.00  0.00    -0.205 F 
ATOM     64  C   UNL A   1      38.593  33.544  37.751  1.00  0.00     0.022 A 
BRANCH  62  65
ATOM     65  S   UNL A   1      40.068  35.777  37.193  1.00  0.00     0.127 S 
ATOM     66  O   UNL A   1      39.308  36.101  38.400  1.00  0.00    -0.237 OA
ATOM     67  O   UNL A   1      41.491  35.524  37.419  1.00  0.00    -0.237 OA
ATOM     68  O   UNL A   1      39.772  36.602  36.031  1.00  0.00    -0.744 OA
ENDBRANCH  62  65
ENDBRANCH  44  58
BRANCH  45  69
ATOM     69  C   UNL A   1      42.115  26.649  27.610  1.00  0.00     0.023 A 
ATOM     70  C   UNL A   1      42.945  27.176  26.602  1.00  0.00     0.012 A 
ATOM     71  C   UNL A   1      41.722  25.299  27.548  1.00  0.00     0.148 A 
ATOM     72  C   UNL A   1      43.376  26.371  25.547  1.00  0.00     0.002 A 
ATOM     73  C   UNL A   1      42.190  24.491  26.519  1.00  0.00     0.091 A 
ATOM     74  F   UNL A   1      40.923  24.828  28.515  1.00  0.00    -0.205 F 
ATOM     75  C   UNL A   1      43.010  25.028  25.513  1.00  0.00     0.022 A 
BRANCH  73  76
ATOM     76  S   UNL A   1      41.869  22.726  26.453  1.00  0.00     0.127 S 
ATOM     77  O   UNL A   1      42.550  22.346  25.217  1.00  0.00    -0.237 OA
ATOM     78  O   UNL A   1      42.515  22.258  27.681  1.00  0.00    -0.237 OA
ATOM     79  O   UNL A   1      40.420  22.588  26.442  1.00  0.00    -0.744 OA
ENDBRANCH  73  76
ENDBRANCH  45  69
BRANCH  57  80
ATOM     80  C   UNL A   1      44.608  27.457  34.087  1.00  0.00     0.023 A 
ATOM     81  C   UNL A   1      45.822  28.171  34.077  1.00  0.00     0.012 A 
ATOM     82  C   UNL A   1      44.488  26.295  34.872  1.00  0.00     0.148 A 
ATOM     83  C   UNL A   1      46.905  27.732  34.837  1.00  0.00     0.002 A 
ATOM     84  C   UNL A   1      45.562  25.880  35.650  1.00  0.00     0.091 A 
ATOM     85  F   UNL A   1      43.324  25.631  34.854  1.00  0.00    -0.205 F 
ATOM     86  C   UNL A   1      46.771  26.594  35.631  1.00  0.00     0.022 A 
BRANCH  84  87
ATOM     87  S   UNL A   1      45.467  24.469  36.759  1.00  0.00     0.127 S 
ATOM     88  O   UNL A   1      46.839  24.391  37.259  1.00  0.00    -0.237 OA
ATOM     89  O   UNL A   1      44.482  24.915  37.744  1.00  0.00    -0.237 OA
ATOM     90  O   UNL A   1      45.040  23.341  35.941  1.00  0.00    -0.744 OA
ENDBRANCH  84  87
ENDBRANCH  57  80
ENDBRANCH  31  32
ENDBRANCH  23  26
ENDBRANCH  21  22
ENDBRANCH   1  21
TORSDOF 16
ENDMDL
MODEL 2
REMARK VINA RESULT:     -11.8      1.887      3.516
REMARK SMILES O=C(Cn1nc(-c2ccco2)ccc1=O)NCCCCNC(=O)c1ccc(-c2c3nc(c(-c4cccc(S(=O)(=O)[O-])c4F)c4ccc([nH]4)c(-c4cccc(S(=O)(=O)[O-])c4F)c4nc(c(-c5cccc(S(=O)(=O)[O-])c5F)c5ccc2[nH]5)C=C4)C=C3)cc1
REMARK SMILES IDX 19 1 18 2 17 3 16 4 1 5 2 6 3 8 4 9 5 10 14 11 6 12 13 13
REMARK SMILES IDX 15 14 12 15 7 16 8 17 11 18 9 19 10 20 20 21 21 22 22 23
REMARK SMILES IDX 23 25 24 26 25 27 86 28 26 29 85 30 27 31 28 32 29 33 79 34
REMARK SMILES IDX 30 35 84 36 78 37 80 38 31 39 83 40 77 41 76 42 32 44 64 45
REMARK SMILES IDX 44 46 63 47 45 48 48 49 62 50 81 51 46 52 47 53 61 55 82 56
REMARK SMILES IDX 49 57 33 58 34 59 42 60 35 61 37 62 43 63 36 64 38 65 39 66
REMARK SMILES IDX 40 67 41 68 65 69 66 70 74 71 67 72 69 73 75 74 68 75 70 76
REMARK SMILES IDX 71 77 72 78 73 79 50 80 51 81 59 82 52 83 54 84 60 85 53 86
REMARK SMILES IDX 55 87 56 88 57 89 58 90
REMARK H PARENT 16 7 21 24 80 43 48 54
REMARK Flexibility Score: inf
ROOT
ATOM      1  C   UNL A   1      32.248  29.774  25.272  1.00  0.00     0.023 C 
ENDROOT
BRANCH   1   2
ATOM      2  C   UNL A   1      33.217  28.614  25.037  1.00  0.00     0.023 C 
BRANCH   2   3
ATOM      3  C   UNL A   1      33.398  27.666  26.220  1.00  0.00     0.116 C 
BRANCH   3   4
ATOM      4  N   UNL A   1      32.894  26.329  25.980  1.00  0.00    -0.354 N 
ATOM      5  O   UNL A   1      30.817  26.709  26.865  1.00  0.00    -0.273 OA
ATOM      6  C   UNL A   1      31.579  25.986  26.222  1.00  0.00     0.241 C 
ATOM      7  H   UNL A   1      33.509  25.643  25.634  1.00  0.00     0.163 HD
BRANCH   6   8
ATOM      8  C   UNL A   1      31.163  24.579  25.776  1.00  0.00     0.248 C 
BRANCH   8   9
ATOM      9  N   UNL A   1      32.021  24.022  24.732  1.00  0.00    -0.220 N 
ATOM     10  N   UNL A   1      33.266  23.563  25.124  1.00  0.00    -0.166 NA
ATOM     11  C   UNL A   1      31.494  23.832  23.460  1.00  0.00     0.267 A 
ATOM     12  C   UNL A   1      34.033  23.039  24.215  1.00  0.00     0.126 A 
ATOM     13  C   UNL A   1      32.426  23.295  22.449  1.00  0.00     0.076 A 
ATOM     14  O   UNL A   1      30.346  24.112  23.127  1.00  0.00    -0.268 OA
ATOM     15  C   UNL A   1      33.663  22.931  22.788  1.00  0.00     0.040 A 
BRANCH  12  16
ATOM     16  C   UNL A   1      35.312  22.494  24.599  1.00  0.00     0.154 A 
ATOM     17  C   UNL A   1      36.496  23.103  24.969  1.00  0.00     0.052 A 
ATOM     18  O   UNL A   1      35.464  21.135  24.641  1.00  0.00    -0.463 OA
ATOM     19  C   UNL A   1      37.416  22.063  25.246  1.00  0.00     0.043 A 
ATOM     20  C   UNL A   1      36.751  20.886  25.000  1.00  0.00     0.196 A 
ENDBRANCH  12  16
ENDBRANCH   8   9
ENDBRANCH   6   8
ENDBRANCH   3   4
ENDBRANCH   2   3
ENDBRANCH   1   2
BRANCH   1  21
ATOM     21  C   UNL A   1      32.048  30.195  26.724  1.00  0.00     0.116 C 
BRANCH  21  22
ATOM     22  N   UNL A   1      31.974  31.636  26.917  1.00  0.00    -0.352 N 
ATOM     23  C   UNL A   1      32.923  32.492  27.434  1.00  0.00     0.251 C 
ATOM     24  H   UNL A   1      31.129  32.057  26.641  1.00  0.00     0.163 HD
ATOM     25  O   UNL A   1      32.653  33.678  27.599  1.00  0.00    -0.269 OA
BRANCH  23  26
ATOM     26  C   UNL A   1      34.250  31.966  27.835  1.00  0.00     0.039 A 
ATOM     27  C   UNL A   1      34.433  30.608  28.099  1.00  0.00     0.014 A 
ATOM     28  C   UNL A   1      35.315  32.859  27.998  1.00  0.00     0.014 A 
ATOM     29  C   UNL A   1      35.611  30.176  28.704  1.00  0.00     0.010 A 
ATOM     30  C   UNL A   1      36.527  32.406  28.532  1.00  0.00     0.010 A 
ATOM     31  C   UNL A   1      36.663  31.074  28.950  1.00  0.00    -0.014 A 
BRANCH  31  32
ATOM     32  C   UNL A   1      37.875  30.603  29.674  1.00  0.00     0.031 A 
ATOM     33  C   UNL A   1      38.113  30.988  31.112  1.00  0.00     0.074 A 
ATOM     34  C   UNL A   1      38.738  29.774  29.055  1.00  0.00     0.049 A 
ATOM     35  N   UNL A   1      39.086  30.624  31.909  1.00  0.00    -0.248 NA
ATOM     36  C   UNL A   1      37.139  31.896  31.742  1.00  0.00     0.031 C 
ATOM     37  C   UNL A   1      38.631  29.334  27.662  1.00  0.00     0.029 A 
ATOM     38  N   UNL A   1      39.863  29.137  29.519  1.00  0.00    -0.354 N 
ATOM     39  C   UNL A   1      38.865  31.284  33.113  1.00  0.00     0.074 A 
ATOM     40  C   UNL A   1      37.668  32.078  32.944  1.00  0.00     0.031 C 
ATOM     41  C   UNL A   1      39.618  28.465  27.400  1.00  0.00     0.029 A 
ATOM     42  C   UNL A   1      40.453  28.316  28.589  1.00  0.00     0.049 A 
ATOM     43  H   UNL A   1      40.213  29.258  30.431  1.00  0.00     0.167 HD
ATOM     44  C   UNL A   1      39.576  31.216  34.263  1.00  0.00     0.034 A 
ATOM     45  C   UNL A   1      41.543  27.529  28.676  1.00  0.00     0.034 A 
ATOM     46  C   UNL A   1      40.730  30.382  34.458  1.00  0.00     0.049 A 
ATOM     47  C   UNL A   1      42.308  27.465  29.966  1.00  0.00     0.074 A 
ATOM     48  C   UNL A   1      41.483  30.217  35.608  1.00  0.00     0.029 A 
ATOM     49  N   UNL A   1      41.293  29.569  33.489  1.00  0.00    -0.354 N 
ATOM     50  N   UNL A   1      42.033  28.036  31.112  1.00  0.00    -0.248 NA
ATOM     51  C   UNL A   1      43.524  26.638  29.981  1.00  0.00     0.031 C 
ATOM     52  C   UNL A   1      42.502  29.300  35.335  1.00  0.00     0.029 A 
ATOM     53  C   UNL A   1      42.383  28.897  34.014  1.00  0.00     0.049 A 
ATOM     54  H   UNL A   1      40.967  29.482  32.564  1.00  0.00     0.167 HD
ATOM     55  C   UNL A   1      43.033  27.633  31.987  1.00  0.00     0.074 A 
ATOM     56  C   UNL A   1      43.910  26.749  31.245  1.00  0.00     0.031 C 
ATOM     57  C   UNL A   1      43.219  27.982  33.282  1.00  0.00     0.034 A 
BRANCH  44  58
ATOM     58  C   UNL A   1      39.096  32.021  35.439  1.00  0.00     0.023 A 
ATOM     59  C   UNL A   1      38.180  31.438  36.338  1.00  0.00     0.012 A 
ATOM     60  C   UNL A   1      39.620  33.299  35.710  1.00  0.00     0.148 A 
ATOM     61  C   UNL A   1      37.786  32.121  37.487  1.00  0.00     0.002 A 
ATOM     62  C   UNL A   1      39.242  33.962  36.872  1.00  0.00     0.091 A 
ATOM     63  F   UNL A   1      40.478  33.836  34.832  1.00  0.00    -0.205 F 
ATOM     64  C   UNL A   1      38.323  33.377  37.759  1.00  0.00     0.022 A 
BRANCH  62  65
ATOM     65  S   UNL A   1      39.917  35.559  37.345  1.00  0.00     0.127 S 
ATOM     66  O   UNL A   1      39.165  35.846  38.567  1.00  0.00    -0.237 OA
ATOM     67  O   UNL A   1      41.329  35.245  37.558  1.00  0.00    -0.237 OA
ATOM     68  O   UNL A   1      39.653  36.454  36.228  1.00  0.00    -0.744 OA
ENDBRANCH  62  65
ENDBRANCH  44  58
BRANCH  45  69
ATOM     69  C   UNL A   1      41.928  26.688  27.511  1.00  0.00     0.023 A 
ATOM     70  C   UNL A   1      42.635  27.276  26.445  1.00  0.00     0.012 A 
ATOM     71  C   UNL A   1      41.668  25.305  27.489  1.00  0.00     0.148 A 
ATOM     72  C   UNL A   1      43.074  26.500  25.373  1.00  0.00     0.002 A 
ATOM     73  C   UNL A   1      42.147  24.530  26.440  1.00  0.00     0.091 A 
ATOM     74  F   UNL A   1      40.984  24.773  28.512  1.00  0.00    -0.205 F 
ATOM     75  C   UNL A   1      42.842  25.127  25.377  1.00  0.00     0.022 A 
BRANCH  73  76
ATOM     76  S   UNL A   1      42.000  22.740  26.414  1.00  0.00     0.127 S 
ATOM     77  O   UNL A   1      42.654  22.407  25.150  1.00  0.00    -0.237 OA
ATOM     78  O   UNL A   1      42.747  22.361  27.614  1.00  0.00    -0.237 OA
ATOM     79  O   UNL A   1      40.573  22.460  26.477  1.00  0.00    -0.744 OA
ENDBRANCH  73  76
ENDBRANCH  45  69
BRANCH  57  80
ATOM     80  C   UNL A   1      44.410  27.416  34.002  1.00  0.00     0.023 A 
ATOM     81  C   UNL A   1      45.635  28.108  33.949  1.00  0.00     0.012 A 
ATOM     82  C   UNL A   1      44.286  26.278  34.821  1.00  0.00     0.148 A 
ATOM     83  C   UNL A   1      46.725  27.671  34.699  1.00  0.00     0.002 A 
ATOM     84  C   UNL A   1      45.368  25.866  35.589  1.00  0.00     0.091 A 
ATOM     85  F   UNL A   1      43.110  25.634  34.845  1.00  0.00    -0.205 F 
ATOM     86  C   UNL A   1      46.589  26.558  35.527  1.00  0.00     0.022 A 
BRANCH  84  87
ATOM     87  S   UNL A   1      45.271  24.488  36.739  1.00  0.00     0.127 S 
ATOM     88  O   UNL A   1      44.977  23.372  35.841  1.00  0.00    -0.237 OA
ATOM     89  O   UNL A   1      46.615  24.471  37.315  1.00  0.00    -0.237 OA
ATOM     90  O   UNL A   1      44.211  24.822  37.680  1.00  0.00    -0.744 OA
ENDBRANCH  84  87
ENDBRANCH  57  80
ENDBRANCH  31  32
ENDBRANCH  23  26
ENDBRANCH  21  22
ENDBRANCH   1  21
TORSDOF 16
ENDMDL
MODEL 3
REMARK VINA RESULT:     -11.7      2.352      8.130
REMARK SMILES O=C(Cn1nc(-c2ccco2)ccc1=O)NCCCCNC(=O)c1ccc(-c2c3nc(c(-c4cccc(S(=O)(=O)[O-])c4F)c4ccc([nH]4)c(-c4cccc(S(=O)(=O)[O-])c4F)c4nc(c(-c5cccc(S(=O)(=O)[O-])c5F)c5ccc2[nH]5)C=C4)C=C3)cc1
REMARK SMILES IDX 19 1 18 2 17 3 16 4 1 5 2 6 3 8 4 9 5 10 14 11 6 12 13 13
REMARK SMILES IDX 15 14 12 15 7 16 8 17 11 18 9 19 10 20 20 21 21 22 22 23
REMARK SMILES IDX 23 25 24 26 25 27 86 28 26 29 85 30 27 31 28 32 29 33 79 34
REMARK SMILES IDX 30 35 84 36 78 37 80 38 31 39 83 40 77 41 76 42 32 44 64 45
REMARK SMILES IDX 44 46 63 47 45 48 48 49 62 50 81 51 46 52 47 53 61 55 82 56
REMARK SMILES IDX 49 57 33 58 34 59 42 60 35 61 37 62 43 63 36 64 38 65 39 66
REMARK SMILES IDX 40 67 41 68 65 69 66 70 74 71 67 72 69 73 75 74 68 75 70 76
REMARK SMILES IDX 71 77 72 78 73 79 50 80 51 81 59 82 52 83 54 84 60 85 53 86
REMARK SMILES IDX 55 87 56 88 57 89 58 90
REMARK H PARENT 16 7 21 24 80 43 48 54
REMARK Flexibility Score: inf
ROOT
ATOM      1  C   UNL A   1      31.754  31.727  26.863  1.00  0.00     0.023 C 
ENDROOT
BRANCH   1   2
ATOM      2  C   UNL A   1      32.208  30.502  26.068  1.00  0.00     0.023 C 
BRANCH   2   3
ATOM      3  C   UNL A   1      33.585  29.957  26.440  1.00  0.00     0.116 C 
BRANCH   3   4
ATOM      4  N   UNL A   1      34.004  28.828  25.633  1.00  0.00    -0.354 N 
ATOM      5  O   UNL A   1      32.974  27.238  26.920  1.00  0.00    -0.273 OA
ATOM      6  C   UNL A   1      33.558  27.545  25.880  1.00  0.00     0.241 C 
ATOM      7  H   UNL A   1      34.626  28.980  24.886  1.00  0.00     0.163 HD
BRANCH   6   8
ATOM      8  C   UNL A   1      33.969  26.485  24.850  1.00  0.00     0.248 C 
BRANCH   8   9
ATOM      9  N   UNL A   1      33.068  26.411  23.700  1.00  0.00    -0.220 N 
ATOM     10  N   UNL A   1      32.012  27.304  23.674  1.00  0.00    -0.166 NA
ATOM     11  C   UNL A   1      33.406  25.584  22.636  1.00  0.00     0.267 A 
ATOM     12  C   UNL A   1      31.216  27.274  22.647  1.00  0.00     0.126 A 
ATOM     13  C   UNL A   1      32.436  25.537  21.524  1.00  0.00     0.076 A 
ATOM     14  O   UNL A   1      34.411  24.882  22.583  1.00  0.00    -0.268 OA
ATOM     15  C   UNL A   1      31.360  26.324  21.523  1.00  0.00     0.040 A 
BRANCH  12  16
ATOM     16  C   UNL A   1      30.141  28.230  22.558  1.00  0.00     0.154 A 
ATOM     17  C   UNL A   1      28.906  28.285  23.176  1.00  0.00     0.052 A 
ATOM     18  O   UNL A   1      30.293  29.318  21.743  1.00  0.00    -0.463 OA
ATOM     19  C   UNL A   1      28.273  29.463  22.711  1.00  0.00     0.043 A 
ATOM     20  C   UNL A   1      29.143  30.039  21.817  1.00  0.00     0.196 A 
ENDBRANCH  12  16
ENDBRANCH   8   9
ENDBRANCH   6   8
ENDBRANCH   3   4
ENDBRANCH   2   3
ENDBRANCH   1   2
BRANCH   1  21
ATOM     21  C   UNL A   1      32.854  32.506  27.577  1.00  0.00     0.116 C 
BRANCH  21  22
ATOM     22  N   UNL A   1      32.561  33.921  27.747  1.00  0.00    -0.352 N 
ATOM     23  C   UNL A   1      33.151  34.834  28.595  1.00  0.00     0.251 C 
ATOM     24  H   UNL A   1      31.841  34.276  27.177  1.00  0.00     0.163 HD
ATOM     25  O   UNL A   1      32.715  35.980  28.662  1.00  0.00    -0.269 OA
BRANCH  23  26
ATOM     26  C   UNL A   1      34.278  34.413  29.462  1.00  0.00     0.039 A 
ATOM     27  C   UNL A   1      35.597  34.502  29.015  1.00  0.00     0.014 A 
ATOM     28  C   UNL A   1      34.003  33.876  30.724  1.00  0.00     0.014 A 
ATOM     29  C   UNL A   1      36.613  33.882  29.739  1.00  0.00     0.010 A 
ATOM     30  C   UNL A   1      35.039  33.326  31.487  1.00  0.00     0.010 A 
ATOM     31  C   UNL A   1      36.343  33.266  30.972  1.00  0.00    -0.014 A 
BRANCH  31  32
ATOM     32  C   UNL A   1      37.430  32.539  31.683  1.00  0.00     0.031 A 
ATOM     33  C   UNL A   1      38.166  31.406  31.014  1.00  0.00     0.074 A 
ATOM     34  C   UNL A   1      37.800  32.938  32.916  1.00  0.00     0.049 A 
ATOM     35  N   UNL A   1      39.172  30.700  31.466  1.00  0.00    -0.248 NA
ATOM     36  C   UNL A   1      37.721  31.009  29.667  1.00  0.00     0.031 C 
ATOM     37  C   UNL A   1      37.162  34.012  33.680  1.00  0.00     0.029 A 
ATOM     38  N   UNL A   1      38.812  32.503  33.735  1.00  0.00    -0.354 N 
ATOM     39  C   UNL A   1      39.454  29.759  30.483  1.00  0.00     0.074 A 
ATOM     40  C   UNL A   1      38.510  29.975  29.409  1.00  0.00     0.031 C 
ATOM     41  C   UNL A   1      37.826  34.184  34.832  1.00  0.00     0.029 A 
ATOM     42  C   UNL A   1      38.909  33.208  34.911  1.00  0.00     0.049 A 
ATOM     43  H   UNL A   1      39.411  31.757  33.502  1.00  0.00     0.167 HD
ATOM     44  C   UNL A   1      40.426  28.816  30.462  1.00  0.00     0.034 A 
ATOM     45  C   UNL A   1      39.770  33.088  35.940  1.00  0.00     0.034 A 
ATOM     46  C   UNL A   1      41.407  28.636  31.496  1.00  0.00     0.049 A 
ATOM     47  C   UNL A   1      40.845  32.041  35.886  1.00  0.00     0.074 A 
ATOM     48  C   UNL A   1      42.458  27.735  31.533  1.00  0.00     0.029 A 
ATOM     49  N   UNL A   1      41.466  29.370  32.669  1.00  0.00    -0.354 N 
ATOM     50  N   UNL A   1      41.140  31.217  34.912  1.00  0.00    -0.248 NA
ATOM     51  C   UNL A   1      41.715  31.916  37.066  1.00  0.00     0.031 C 
ATOM     52  C   UNL A   1      43.155  27.927  32.729  1.00  0.00     0.029 A 
ATOM     53  C   UNL A   1      42.537  28.946  33.436  1.00  0.00     0.049 A 
ATOM     54  H   UNL A   1      40.840  30.088  32.920  1.00  0.00     0.167 HD
ATOM     55  C   UNL A   1      42.232  30.482  35.355  1.00  0.00     0.074 A 
ATOM     56  C   UNL A   1      42.563  30.973  36.676  1.00  0.00     0.031 C 
ATOM     57  C   UNL A   1      42.887  29.475  34.728  1.00  0.00     0.034 A 
BRANCH  44  58
ATOM     58  C   UNL A   1      40.529  27.935  29.248  1.00  0.00     0.023 A 
ATOM     59  C   UNL A   1      39.640  26.850  29.113  1.00  0.00     0.012 A 
ATOM     60  C   UNL A   1      41.425  28.235  28.204  1.00  0.00     0.148 A 
ATOM     61  C   UNL A   1      39.648  26.069  27.958  1.00  0.00     0.002 A 
ATOM     62  C   UNL A   1      41.407  27.468  27.044  1.00  0.00     0.091 A 
ATOM     63  F   UNL A   1      42.269  29.264  28.363  1.00  0.00    -0.205 F 
ATOM     64  C   UNL A   1      40.523  26.383  26.921  1.00  0.00     0.022 A 
BRANCH  62  65
ATOM     65  S   UNL A   1      42.454  27.822  25.627  1.00  0.00     0.127 S 
ATOM     66  O   UNL A   1      43.770  27.935  26.255  1.00  0.00    -0.237 OA
ATOM     67  O   UNL A   1      42.272  26.626  24.805  1.00  0.00    -0.237 OA
ATOM     68  O   UNL A   1      41.937  29.050  25.041  1.00  0.00    -0.744 OA
ENDBRANCH  62  65
ENDBRANCH  44  58
BRANCH  45  69
ATOM     69  C   UNL A   1      39.680  34.039  37.079  1.00  0.00     0.023 A 
ATOM     70  C   UNL A   1      40.087  35.374  36.889  1.00  0.00     0.012 A 
ATOM     71  C   UNL A   1      39.127  33.654  38.314  1.00  0.00     0.148 A 
ATOM     72  C   UNL A   1      39.947  36.309  37.915  1.00  0.00     0.002 A 
ATOM     73  C   UNL A   1      38.949  34.599  39.316  1.00  0.00     0.091 A 
ATOM     74  F   UNL A   1      38.758  32.375  38.469  1.00  0.00    -0.205 F 
ATOM     75  C   UNL A   1      39.367  35.926  39.121  1.00  0.00     0.022 A 
BRANCH  73  76
ATOM     76  S   UNL A   1      38.107  34.229  40.857  1.00  0.00     0.127 S 
ATOM     77  O   UNL A   1      37.836  35.567  41.377  1.00  0.00    -0.237 OA
ATOM     78  O   UNL A   1      36.928  33.499  40.386  1.00  0.00    -0.237 OA
ATOM     79  O   UNL A   1      39.041  33.429  41.636  1.00  0.00    -0.744 OA
ENDBRANCH  73  76
ENDBRANCH  45  69
BRANCH  57  80
ATOM     80  C   UNL A   1      44.035  28.824  35.447  1.00  0.00     0.023 A 
ATOM     81  C   UNL A   1      45.324  29.375  35.318  1.00  0.00     0.012 A 
ATOM     82  C   UNL A   1      43.818  27.754  36.335  1.00  0.00     0.148 A 
ATOM     83  C   UNL A   1      46.386  28.865  36.062  1.00  0.00     0.002 A 
ATOM     84  C   UNL A   1      44.876  27.270  37.096  1.00  0.00     0.091 A 
ATOM     85  F   UNL A   1      42.582  27.243  36.430  1.00  0.00    -0.205 F 
ATOM     86  C   UNL A   1      46.161  27.822  36.958  1.00  0.00     0.022 A 
BRANCH  84  87
ATOM     87  S   UNL A   1      44.672  25.978  38.327  1.00  0.00     0.127 S 
ATOM     88  O   UNL A   1      43.759  26.613  39.276  1.00  0.00    -0.237 OA
ATOM     89  O   UNL A   1      44.083  24.893  37.543  1.00  0.00    -0.237 OA
ATOM     90  O   UNL A   1      46.006  25.699  38.844  1.00  0.00    -0.744 OA
ENDBRANCH  84  87
ENDBRANCH  57  80
ENDBRANCH  31  32
ENDBRANCH  23  26
ENDBRANCH  21  22
ENDBRANCH   1  21
TORSDOF 16
ENDMDL
