MODEL 1
REMARK VINA RESULT:     -12.8      0.000      0.000
REMARK SMILES C[C@H](NC(=O)c1c(C(=O)NCCCCNC(=O)c2ccc(-c3c4nc(c(-c5cccc(S(=O)(=O)[O-])c5F)c5ccc([nH]5)c(-c5cccc(S(=O)(=O)[O-])c5F)c5nc(c(-c6cccc(S(=O)(=O)[O-])c6F)c6ccc3[nH]6)C=C5)C=C4)cc2)cnn1C)[C@]12C[C@H]3C[C@H](C[C@H](C3)C1)C2
REMARK SMILES IDX 12 1 11 2 10 3 8 4 9 5 7 7 6 8 83 9 81 10 82 11 84 12 4 13
REMARK SMILES IDX 3 14 5 16 2 17 1 18 85 19 86 20 93 21 94 22 87 23 91 24
REMARK SMILES IDX 89 25 88 26 92 27 90 28 13 29 14 30 15 31 16 32 17 34 18 35
REMARK SMILES IDX 19 36 80 37 20 38 79 39 21 40 22 41 23 42 73 43 24 44 78 45
REMARK SMILES IDX 72 46 74 47 25 48 77 49 71 50 70 51 26 53 58 54 38 55 57 56
REMARK SMILES IDX 39 57 42 58 56 59 75 60 40 61 41 62 55 64 76 65 43 66 27 67
REMARK SMILES IDX 28 68 36 69 29 70 31 71 37 72 30 73 32 74 33 75 34 76 35 77
REMARK SMILES IDX 59 78 60 79 68 80 61 81 63 82 69 83 62 84 64 85 65 86 66 87
REMARK SMILES IDX 67 88 44 89 45 90 53 91 46 92 48 93 54 94 47 95 49 96 50 97
REMARK SMILES IDX 51 98 52 99
REMARK H PARENT 10 6 3 15 15 33 74 52 42 63
REMARK Flexibility Score: inf
ROOT
ATOM      1  C   UNL A   1      36.395  22.996  23.508  1.00  0.00     0.023 C 
ENDROOT
BRANCH   1   2
ATOM      2  C   UNL A   1      34.878  23.093  23.418  1.00  0.00     0.116 C 
BRANCH   2   3
ATOM      3  N   UNL A   1      34.188  21.919  23.872  1.00  0.00    -0.352 N 
ATOM      4  C   UNL A   1      33.144  21.752  24.740  1.00  0.00     0.255 C 
ATOM      5  O   UNL A   1      32.832  20.575  24.954  1.00  0.00    -0.269 OA
ATOM      6  H   UNL A   1      34.527  21.080  23.487  1.00  0.00     0.163 HD
BRANCH   4   7
ATOM      7  C   UNL A   1      32.393  22.818  25.410  1.00  0.00     0.090 A 
ATOM      8  C   UNL A   1      31.580  23.893  25.026  1.00  0.00     0.138 A 
ATOM      9  N   UNL A   1      30.949  24.284  26.189  1.00  0.00    -0.262 N 
ATOM     10  C   UNL A   1      32.334  22.863  26.834  1.00  0.00     0.149 A 
ATOM     11  N   UNL A   1      31.507  23.793  27.306  1.00  0.00    -0.180 NA
ATOM     12  C   UNL A   1      29.746  25.071  26.337  1.00  0.00     0.174 C 
BRANCH   8  13
ATOM     13  C   UNL A   1      31.163  24.367  23.742  1.00  0.00     0.270 C 
ATOM     14  N   UNL A   1      31.877  25.317  23.052  1.00  0.00    -0.348 N 
ATOM     15  H   UNL A   1      31.520  25.443  22.143  1.00  0.00     0.164 HD
ATOM     16  O   UNL A   1      30.141  23.947  23.199  1.00  0.00    -0.267 OA
BRANCH  14  17
ATOM     17  C   UNL A   1      33.036  26.199  23.298  1.00  0.00     0.085 C 
ATOM     18  C   UNL A   1      33.667  26.739  22.018  1.00  0.00     0.031 C 
BRANCH  17  19
ATOM     19  C   UNL A   1      32.922  27.247  24.467  1.00  0.00    -0.009 C 
ATOM     20  C   UNL A   1      31.412  27.594  24.689  1.00  0.00     0.012 C 
ATOM     21  C   UNL A   1      33.621  28.588  24.118  1.00  0.00     0.012 C 
ATOM     22  C   UNL A   1      33.498  26.736  25.812  1.00  0.00     0.012 C 
ATOM     23  C   UNL A   1      31.218  28.637  25.799  1.00  0.00    -0.010 C 
ATOM     24  C   UNL A   1      33.453  29.629  25.245  1.00  0.00    -0.010 C 
ATOM     25  C   UNL A   1      33.288  27.773  26.937  1.00  0.00    -0.010 C 
ATOM     26  C   UNL A   1      31.789  28.066  27.106  1.00  0.00     0.007 C 
ATOM     27  C   UNL A   1      31.959  29.928  25.425  1.00  0.00     0.007 C 
ATOM     28  C   UNL A   1      34.005  29.079  26.570  1.00  0.00     0.007 C 
ENDBRANCH  17  19
ENDBRANCH  14  17
ENDBRANCH   8  13
ENDBRANCH   4   7
ENDBRANCH   2   3
ENDBRANCH   1   2
BRANCH   1  29
ATOM     29  C   UNL A   1      36.966  21.706  24.062  1.00  0.00     0.023 C 
BRANCH  29  30
ATOM     30  C   UNL A   1      37.471  21.788  25.494  1.00  0.00     0.116 C 
BRANCH  30  31
ATOM     31  N   UNL A   1      38.599  20.902  25.776  1.00  0.00    -0.352 N 
ATOM     32  C   UNL A   1      39.813  21.173  26.366  1.00  0.00     0.251 C 
ATOM     33  H   UNL A   1      38.471  19.965  25.501  1.00  0.00     0.163 HD
ATOM     34  O   UNL A   1      40.682  20.305  26.421  1.00  0.00    -0.269 OA
BRANCH  32  35
ATOM     35  C   UNL A   1      40.076  22.525  26.897  1.00  0.00     0.039 A 
ATOM     36  C   UNL A   1      41.002  22.691  27.930  1.00  0.00     0.014 A 
ATOM     37  C   UNL A   1      39.463  23.634  26.316  1.00  0.00     0.014 A 
ATOM     38  C   UNL A   1      41.398  23.980  28.297  1.00  0.00     0.010 A 
ATOM     39  C   UNL A   1      39.942  24.904  26.599  1.00  0.00     0.010 A 
ATOM     40  C   UNL A   1      40.916  25.093  27.591  1.00  0.00    -0.014 A 
BRANCH  40  41
ATOM     41  C   UNL A   1      41.410  26.472  27.844  1.00  0.00     0.031 A 
ATOM     42  C   UNL A   1      42.830  26.829  27.491  1.00  0.00     0.074 A 
ATOM     43  C   UNL A   1      40.640  27.348  28.520  1.00  0.00     0.049 A 
ATOM     44  N   UNL A   1      43.506  27.908  27.782  1.00  0.00    -0.248 NA
ATOM     45  C   UNL A   1      43.606  25.814  26.756  1.00  0.00     0.031 C 
ATOM     46  C   UNL A   1      39.282  27.091  29.005  1.00  0.00     0.029 A 
ATOM     47  N   UNL A   1      40.909  28.624  28.954  1.00  0.00    -0.354 N 
ATOM     48  C   UNL A   1      44.798  27.676  27.325  1.00  0.00     0.074 A 
ATOM     49  C   UNL A   1      44.820  26.341  26.772  1.00  0.00     0.031 C 
ATOM     50  C   UNL A   1      38.836  28.173  29.663  1.00  0.00     0.029 A 
ATOM     51  C   UNL A   1      39.885  29.187  29.681  1.00  0.00     0.049 A 
ATOM     52  H   UNL A   1      41.754  29.090  28.763  1.00  0.00     0.167 HD
ATOM     53  C   UNL A   1      45.864  28.512  27.330  1.00  0.00     0.034 A 
ATOM     54  C   UNL A   1      39.803  30.383  30.296  1.00  0.00     0.034 A 
ATOM     55  C   UNL A   1      45.814  29.867  27.806  1.00  0.00     0.049 A 
ATOM     56  C   UNL A   1      40.969  31.330  30.209  1.00  0.00     0.074 A 
ATOM     57  C   UNL A   1      46.802  30.833  27.752  1.00  0.00     0.029 A 
ATOM     58  N   UNL A   1      44.714  30.450  28.412  1.00  0.00    -0.354 N 
ATOM     59  N   UNL A   1      42.133  31.153  29.630  1.00  0.00    -0.248 NA
ATOM     60  C   UNL A   1      40.801  32.654  30.825  1.00  0.00     0.031 C 
ATOM     61  C   UNL A   1      46.298  32.003  28.332  1.00  0.00     0.029 A 
ATOM     62  C   UNL A   1      44.993  31.766  28.736  1.00  0.00     0.049 A 
ATOM     63  H   UNL A   1      43.857  29.994  28.587  1.00  0.00     0.167 HD
ATOM     64  C   UNL A   1      42.821  32.351  29.780  1.00  0.00     0.074 A 
ATOM     65  C   UNL A   1      41.937  33.253  30.489  1.00  0.00     0.031 C 
ATOM     66  C   UNL A   1      44.077  32.669  29.383  1.00  0.00     0.034 A 
BRANCH  53  67
ATOM     67  C   UNL A   1      47.150  28.001  26.736  1.00  0.00     0.023 A 
ATOM     68  C   UNL A   1      48.187  27.576  27.592  1.00  0.00     0.012 A 
ATOM     69  C   UNL A   1      47.326  27.914  25.341  1.00  0.00     0.148 A 
ATOM     70  C   UNL A   1      49.394  27.114  27.072  1.00  0.00     0.002 A 
ATOM     71  C   UNL A   1      48.517  27.409  24.830  1.00  0.00     0.091 A 
ATOM     72  F   UNL A   1      46.341  28.348  24.542  1.00  0.00    -0.205 F 
ATOM     73  C   UNL A   1      49.556  27.022  25.692  1.00  0.00     0.022 A 
BRANCH  71  74
ATOM     74  S   UNL A   1      48.785  27.177  23.070  1.00  0.00     0.127 S 
ATOM     75  O   UNL A   1      48.055  28.313  22.507  1.00  0.00    -0.237 OA
ATOM     76  O   UNL A   1      50.240  27.275  22.961  1.00  0.00    -0.237 OA
ATOM     77  O   UNL A   1      48.244  25.862  22.756  1.00  0.00    -0.744 OA
ENDBRANCH  71  74
ENDBRANCH  53  67
BRANCH  54  78
ATOM     78  C   UNL A   1      38.536  30.784  30.972  1.00  0.00     0.023 A 
ATOM     79  C   UNL A   1      38.400  30.563  32.356  1.00  0.00     0.012 A 
ATOM     80  C   UNL A   1      37.492  31.420  30.273  1.00  0.00     0.148 A 
ATOM     81  C   UNL A   1      37.238  30.943  33.029  1.00  0.00     0.002 A 
ATOM     82  C   UNL A   1      36.358  31.843  30.958  1.00  0.00     0.091 A 
ATOM     83  F   UNL A   1      37.636  31.613  28.955  1.00  0.00    -0.205 F 
ATOM     84  C   UNL A   1      36.222  31.591  32.332  1.00  0.00     0.022 A 
BRANCH  82  85
ATOM     85  S   UNL A   1      35.057  32.803  30.173  1.00  0.00     0.127 S 
ATOM     86  O   UNL A   1      35.797  33.957  29.673  1.00  0.00    -0.237 OA
ATOM     87  O   UNL A   1      34.582  31.881  29.141  1.00  0.00    -0.237 OA
ATOM     88  O   UNL A   1      34.085  33.078  31.224  1.00  0.00    -0.744 OA
ENDBRANCH  82  85
ENDBRANCH  54  78
BRANCH  66  89
ATOM     89  C   UNL A   1      44.569  34.063  29.666  1.00  0.00     0.023 A 
ATOM     90  C   UNL A   1      45.160  34.354  30.911  1.00  0.00     0.012 A 
ATOM     91  C   UNL A   1      44.531  35.056  28.667  1.00  0.00     0.148 A 
ATOM     92  C   UNL A   1      45.685  35.620  31.165  1.00  0.00     0.002 A 
ATOM     93  C   UNL A   1      45.096  36.301  28.913  1.00  0.00     0.091 A 
ATOM     94  F   UNL A   1      43.946  34.763  27.496  1.00  0.00    -0.205 F 
ATOM     95  C   UNL A   1      45.666  36.588  30.164  1.00  0.00     0.022 A 
BRANCH  93  96
ATOM     96  S   UNL A   1      45.199  37.571  27.647  1.00  0.00     0.127 S 
ATOM     97  O   UNL A   1      45.806  36.839  26.537  1.00  0.00    -0.237 OA
ATOM     98  O   UNL A   1      43.794  37.928  27.445  1.00  0.00    -0.237 OA
ATOM     99  O   UNL A   1      46.013  38.637  28.217  1.00  0.00    -0.744 OA
ENDBRANCH  93  96
ENDBRANCH  66  89
ENDBRANCH  40  41
ENDBRANCH  32  35
ENDBRANCH  30  31
ENDBRANCH  29  30
ENDBRANCH   1  29
TORSDOF 17
ENDMDL
MODEL 2
REMARK VINA RESULT:     -12.6      5.569      8.774
REMARK SMILES C[C@H](NC(=O)c1c(C(=O)NCCCCNC(=O)c2ccc(-c3c4nc(c(-c5cccc(S(=O)(=O)[O-])c5F)c5ccc([nH]5)c(-c5cccc(S(=O)(=O)[O-])c5F)c5nc(c(-c6cccc(S(=O)(=O)[O-])c6F)c6ccc3[nH]6)C=C5)C=C4)cc2)cnn1C)[C@]12C[C@H]3C[C@H](C[C@H](C3)C1)C2
REMARK SMILES IDX 12 1 11 2 10 3 8 4 9 5 7 7 6 8 83 9 81 10 82 11 84 12 4 13
REMARK SMILES IDX 3 14 5 16 2 17 1 18 85 19 86 20 93 21 94 22 87 23 91 24
REMARK SMILES IDX 89 25 88 26 92 27 90 28 13 29 14 30 15 31 16 32 17 34 18 35
REMARK SMILES IDX 19 36 80 37 20 38 79 39 21 40 22 41 23 42 73 43 24 44 78 45
REMARK SMILES IDX 72 46 74 47 25 48 77 49 71 50 70 51 26 53 58 54 38 55 57 56
REMARK SMILES IDX 39 57 42 58 56 59 75 60 40 61 41 62 55 64 76 65 43 66 27 67
REMARK SMILES IDX 28 68 36 69 29 70 31 71 37 72 30 73 32 74 33 75 34 76 35 77
REMARK SMILES IDX 59 78 60 79 68 80 61 81 63 82 69 83 62 84 64 85 65 86 66 87
REMARK SMILES IDX 67 88 44 89 45 90 53 91 46 92 48 93 54 94 47 95 49 96 50 97
REMARK SMILES IDX 51 98 52 99
REMARK H PARENT 10 6 3 15 15 33 74 52 42 63
REMARK Flexibility Score: inf
ROOT
ATOM      1  C   UNL A   1      32.231  30.000  26.897  1.00  0.00     0.023 C 
ENDROOT
BRANCH   1   2
ATOM      2  C   UNL A   1      31.594  29.105  25.843  1.00  0.00     0.116 C 
BRANCH   2   3
ATOM      3  N   UNL A   1      32.018  29.388  24.500  1.00  0.00    -0.352 N 
ATOM      4  C   UNL A   1      31.955  28.653  23.349  1.00  0.00     0.255 C 
ATOM      5  O   UNL A   1      32.477  29.187  22.364  1.00  0.00    -0.269 OA
ATOM      6  H   UNL A   1      32.428  30.275  24.388  1.00  0.00     0.163 HD
BRANCH   4   7
ATOM      7  C   UNL A   1      31.337  27.332  23.195  1.00  0.00     0.090 A 
ATOM      8  C   UNL A   1      31.715  26.077  22.700  1.00  0.00     0.138 A 
ATOM      9  N   UNL A   1      30.743  25.214  23.161  1.00  0.00    -0.262 N 
ATOM     10  C   UNL A   1      30.021  27.098  23.691  1.00  0.00     0.149 A 
ATOM     11  N   UNL A   1      29.638  25.826  23.612  1.00  0.00    -0.180 NA
ATOM     12  C   UNL A   1      30.805  23.775  23.286  1.00  0.00     0.174 C 
BRANCH   8  13
ATOM     13  C   UNL A   1      32.937  25.603  22.124  1.00  0.00     0.270 C 
ATOM     14  N   UNL A   1      33.965  25.121  22.898  1.00  0.00    -0.348 N 
ATOM     15  H   UNL A   1      34.678  24.730  22.343  1.00  0.00     0.164 HD
ATOM     16  O   UNL A   1      33.122  25.609  20.907  1.00  0.00    -0.267 OA
BRANCH  14  17
ATOM     17  C   UNL A   1      34.294  25.027  24.334  1.00  0.00     0.085 C 
ATOM     18  C   UNL A   1      33.748  26.192  25.156  1.00  0.00     0.031 C 
BRANCH  17  19
ATOM     19  C   UNL A   1      34.164  23.618  25.025  1.00  0.00    -0.009 C 
ATOM     20  C   UNL A   1      33.979  22.529  23.917  1.00  0.00     0.012 C 
ATOM     21  C   UNL A   1      32.907  23.526  25.929  1.00  0.00     0.012 C 
ATOM     22  C   UNL A   1      35.402  23.232  25.874  1.00  0.00     0.012 C 
ATOM     23  C   UNL A   1      33.816  21.123  24.514  1.00  0.00    -0.010 C 
ATOM     24  C   UNL A   1      32.756  22.123  26.555  1.00  0.00    -0.010 C 
ATOM     25  C   UNL A   1      35.252  21.811  26.461  1.00  0.00    -0.010 C 
ATOM     26  C   UNL A   1      35.077  20.791  25.325  1.00  0.00     0.007 C 
ATOM     27  C   UNL A   1      32.583  21.095  25.429  1.00  0.00     0.007 C 
ATOM     28  C   UNL A   1      34.011  21.758  27.362  1.00  0.00     0.007 C 
ENDBRANCH  17  19
ENDBRANCH  14  17
ENDBRANCH   8  13
ENDBRANCH   4   7
ENDBRANCH   2   3
ENDBRANCH   1   2
BRANCH   1  29
ATOM     29  C   UNL A   1      32.099  31.496  26.694  1.00  0.00     0.023 C 
BRANCH  29  30
ATOM     30  C   UNL A   1      33.093  32.341  27.475  1.00  0.00     0.116 C 
BRANCH  30  31
ATOM     31  N   UNL A   1      32.671  33.729  27.664  1.00  0.00    -0.352 N 
ATOM     32  C   UNL A   1      33.143  34.688  28.531  1.00  0.00     0.251 C 
ATOM     33  H   UNL A   1      31.935  34.022  27.081  1.00  0.00     0.163 HD
ATOM     34  O   UNL A   1      32.581  35.779  28.614  1.00  0.00    -0.269 OA
BRANCH  32  35
ATOM     35  C   UNL A   1      34.305  34.383  29.389  1.00  0.00     0.039 A 
ATOM     36  C   UNL A   1      34.101  33.830  30.656  1.00  0.00     0.014 A 
ATOM     37  C   UNL A   1      35.598  34.571  28.904  1.00  0.00     0.014 A 
ATOM     38  C   UNL A   1      35.195  33.359  31.385  1.00  0.00     0.010 A 
ATOM     39  C   UNL A   1      36.669  33.999  29.574  1.00  0.00     0.010 A 
ATOM     40  C   UNL A   1      36.481  33.384  30.822  1.00  0.00    -0.014 A 
BRANCH  40  41
ATOM     41  C   UNL A   1      37.657  32.769  31.492  1.00  0.00     0.031 A 
ATOM     42  C   UNL A   1      38.368  31.617  30.834  1.00  0.00     0.074 A 
ATOM     43  C   UNL A   1      37.988  33.143  32.744  1.00  0.00     0.049 A 
ATOM     44  N   UNL A   1      39.295  30.834  31.318  1.00  0.00    -0.248 NA
ATOM     45  C   UNL A   1      37.943  31.269  29.466  1.00  0.00     0.031 C 
ATOM     46  C   UNL A   1      37.315  34.179  33.530  1.00  0.00     0.029 A 
ATOM     47  N   UNL A   1      38.953  32.660  33.594  1.00  0.00    -0.354 N 
ATOM     48  C   UNL A   1      39.517  29.867  30.345  1.00  0.00     0.074 A 
ATOM     49  C   UNL A   1      38.601  30.139  29.259  1.00  0.00     0.031 C 
ATOM     50  C   UNL A   1      37.889  34.258  34.741  1.00  0.00     0.029 A 
ATOM     51  C   UNL A   1      38.946  33.256  34.834  1.00  0.00     0.049 A 
ATOM     52  H   UNL A   1      39.591  31.955  33.340  1.00  0.00     0.167 HD
ATOM     53  C   UNL A   1      40.425  28.863  30.336  1.00  0.00     0.034 A 
ATOM     54  C   UNL A   1      39.700  33.019  35.925  1.00  0.00     0.034 A 
ATOM     55  C   UNL A   1      41.388  28.648  31.380  1.00  0.00     0.049 A 
ATOM     56  C   UNL A   1      40.765  31.958  35.858  1.00  0.00     0.074 A 
ATOM     57  C   UNL A   1      42.424  27.734  31.419  1.00  0.00     0.029 A 
ATOM     58  N   UNL A   1      41.438  29.363  32.566  1.00  0.00    -0.354 N 
ATOM     59  N   UNL A   1      41.068  31.156  34.865  1.00  0.00    -0.248 NA
ATOM     60  C   UNL A   1      41.617  31.792  37.044  1.00  0.00     0.031 C 
ATOM     61  C   UNL A   1      43.101  27.894  32.634  1.00  0.00     0.029 A 
ATOM     62  C   UNL A   1      42.491  28.916  33.344  1.00  0.00     0.049 A 
ATOM     63  H   UNL A   1      40.816  30.085  32.818  1.00  0.00     0.167 HD
ATOM     64  C   UNL A   1      42.165  30.417  35.292  1.00  0.00     0.074 A 
ATOM     65  C   UNL A   1      42.485  30.878  36.627  1.00  0.00     0.031 C 
ATOM     66  C   UNL A   1      42.835  29.433  34.644  1.00  0.00     0.034 A 
BRANCH  53  67
ATOM     67  C   UNL A   1      40.464  27.972  29.123  1.00  0.00     0.023 A 
ATOM     68  C   UNL A   1      39.542  26.909  29.015  1.00  0.00     0.012 A 
ATOM     69  C   UNL A   1      41.384  28.196  28.081  1.00  0.00     0.148 A 
ATOM     70  C   UNL A   1      39.564  26.057  27.913  1.00  0.00     0.002 A 
ATOM     71  C   UNL A   1      41.369  27.369  26.963  1.00  0.00     0.091 A 
ATOM     72  F   UNL A   1      42.270  29.193  28.211  1.00  0.00    -0.205 F 
ATOM     73  C   UNL A   1      40.471  26.293  26.882  1.00  0.00     0.022 A 
BRANCH  71  74
ATOM     74  S   UNL A   1      42.444  27.644  25.550  1.00  0.00     0.127 S 
ATOM     75  O   UNL A   1      41.930  28.910  25.029  1.00  0.00    -0.237 OA
ATOM     76  O   UNL A   1      43.763  27.734  26.176  1.00  0.00    -0.237 OA
ATOM     77  O   UNL A   1      42.265  26.487  24.684  1.00  0.00    -0.744 OA
ENDBRANCH  71  74
ENDBRANCH  53  67
BRANCH  54  78
ATOM     78  C   UNL A   1      39.532  33.863  37.142  1.00  0.00     0.023 A 
ATOM     79  C   UNL A   1      40.000  35.191  37.123  1.00  0.00     0.012 A 
ATOM     80  C   UNL A   1      38.876  33.383  38.293  1.00  0.00     0.148 A 
ATOM     81  C   UNL A   1      39.843  36.019  38.235  1.00  0.00     0.002 A 
ATOM     82  C   UNL A   1      38.676  34.230  39.378  1.00  0.00     0.091 A 
ATOM     83  F   UNL A   1      38.445  32.114  38.295  1.00  0.00    -0.205 F 
ATOM     84  C   UNL A   1      39.173  35.542  39.357  1.00  0.00     0.022 A 
BRANCH  82  85
ATOM     85  S   UNL A   1      37.709  33.747  40.814  1.00  0.00     0.127 S 
ATOM     86  O   UNL A   1      37.507  35.029  41.483  1.00  0.00    -0.237 OA
ATOM     87  O   UNL A   1      36.512  33.179  40.195  1.00  0.00    -0.237 OA
ATOM     88  O   UNL A   1      38.529  32.780  41.531  1.00  0.00    -0.744 OA
ENDBRANCH  82  85
ENDBRANCH  54  78
BRANCH  66  89
ATOM     89  C   UNL A   1      44.010  28.806  35.345  1.00  0.00     0.023 A 
ATOM     90  C   UNL A   1      45.299  29.342  35.158  1.00  0.00     0.012 A 
ATOM     91  C   UNL A   1      43.823  27.750  36.258  1.00  0.00     0.148 A 
ATOM     92  C   UNL A   1      46.389  28.819  35.854  1.00  0.00     0.002 A 
ATOM     93  C   UNL A   1      44.906  27.265  36.980  1.00  0.00     0.091 A 
ATOM     94  F   UNL A   1      42.590  27.242  36.404  1.00  0.00    -0.205 F 
ATOM     95  C   UNL A   1      46.191  27.792  36.773  1.00  0.00     0.022 A 
BRANCH  93  96
ATOM     96  S   UNL A   1      44.723  26.009  38.252  1.00  0.00     0.127 S 
ATOM     97  O   UNL A   1      46.099  25.857  38.721  1.00  0.00    -0.237 OA
ATOM     98  O   UNL A   1      43.823  26.658  39.206  1.00  0.00    -0.237 OA
ATOM     99  O   UNL A   1      44.154  24.846  37.585  1.00  0.00    -0.744 OA
ENDBRANCH  93  96
ENDBRANCH  66  89
ENDBRANCH  40  41
ENDBRANCH  32  35
ENDBRANCH  30  31
ENDBRANCH  29  30
ENDBRANCH   1  29
TORSDOF 17
ENDMDL
MODEL 3
REMARK VINA RESULT:     -12.5      4.996     10.353
REMARK SMILES C[C@H](NC(=O)c1c(C(=O)NCCCCNC(=O)c2ccc(-c3c4nc(c(-c5cccc(S(=O)(=O)[O-])c5F)c5ccc([nH]5)c(-c5cccc(S(=O)(=O)[O-])c5F)c5nc(c(-c6cccc(S(=O)(=O)[O-])c6F)c6ccc3[nH]6)C=C5)C=C4)cc2)cnn1C)[C@]12C[C@H]3C[C@H](C[C@H](C3)C1)C2
REMARK SMILES IDX 12 1 11 2 10 3 8 4 9 5 7 7 6 8 83 9 81 10 82 11 84 12 4 13
REMARK SMILES IDX 3 14 5 16 2 17 1 18 85 19 86 20 93 21 94 22 87 23 91 24
REMARK SMILES IDX 89 25 88 26 92 27 90 28 13 29 14 30 15 31 16 32 17 34 18 35
REMARK SMILES IDX 19 36 80 37 20 38 79 39 21 40 22 41 23 42 73 43 24 44 78 45
REMARK SMILES IDX 72 46 74 47 25 48 77 49 71 50 70 51 26 53 58 54 38 55 57 56
REMARK SMILES IDX 39 57 42 58 56 59 75 60 40 61 41 62 55 64 76 65 43 66 27 67
REMARK SMILES IDX 28 68 36 69 29 70 31 71 37 72 30 73 32 74 33 75 34 76 35 77
REMARK SMILES IDX 59 78 60 79 68 80 61 81 63 82 69 83 62 84 64 85 65 86 66 87
REMARK SMILES IDX 67 88 44 89 45 90 53 91 46 92 48 93 54 94 47 95 49 96 50 97
REMARK SMILES IDX 51 98 52 99
REMARK H PARENT 10 6 3 15 15 33 74 52 42 63
REMARK Flexibility Score: inf
ROOT
ATOM      1  C   UNL A   1      31.171  29.219  24.574  1.00  0.00     0.023 C 
ENDROOT
BRANCH   1   2
ATOM      2  C   UNL A   1      30.976  27.722  24.374  1.00  0.00     0.116 C 
BRANCH   2   3
ATOM      3  N   UNL A   1      30.938  26.969  25.596  1.00  0.00    -0.352 N 
ATOM      4  C   UNL A   1      31.618  25.854  26.004  1.00  0.00     0.255 C 
ATOM      5  O   UNL A   1      31.291  25.426  27.116  1.00  0.00    -0.269 OA
ATOM      6  H   UNL A   1      30.306  27.319  26.264  1.00  0.00     0.163 HD
BRANCH   4   7
ATOM      7  C   UNL A   1      32.668  25.156  25.256  1.00  0.00     0.090 A 
ATOM      8  C   UNL A   1      32.795  23.952  24.552  1.00  0.00     0.138 A 
ATOM      9  N   UNL A   1      33.964  24.089  23.834  1.00  0.00    -0.262 N 
ATOM     10  C   UNL A   1      33.937  25.777  25.059  1.00  0.00     0.149 A 
ATOM     11  N   UNL A   1      34.744  25.099  24.248  1.00  0.00    -0.180 NA
ATOM     12  C   UNL A   1      34.398  23.346  22.672  1.00  0.00     0.174 C 
BRANCH   8  13
ATOM     13  C   UNL A   1      31.868  22.892  24.294  1.00  0.00     0.270 C 
ATOM     14  N   UNL A   1      32.131  21.593  24.657  1.00  0.00    -0.348 N 
ATOM     15  H   UNL A   1      31.347  21.015  24.514  1.00  0.00     0.164 HD
ATOM     16  O   UNL A   1      30.793  23.097  23.731  1.00  0.00    -0.267 OA
BRANCH  14  17
ATOM     17  C   UNL A   1      33.268  20.825  25.205  1.00  0.00     0.085 C 
ATOM     18  C   UNL A   1      33.603  21.189  26.649  1.00  0.00     0.031 C 
BRANCH  17  19
ATOM     19  C   UNL A   1      33.335  19.286  24.883  1.00  0.00    -0.009 C 
ATOM     20  C   UNL A   1      34.830  18.883  24.655  1.00  0.00     0.012 C 
ATOM     21  C   UNL A   1      32.593  18.932  23.568  1.00  0.00     0.012 C 
ATOM     22  C   UNL A   1      32.767  18.393  26.016  1.00  0.00     0.012 C 
ATOM     23  C   UNL A   1      34.979  17.395  24.306  1.00  0.00    -0.010 C 
ATOM     24  C   UNL A   1      32.714  17.431  23.229  1.00  0.00    -0.010 C 
ATOM     25  C   UNL A   1      32.931  16.896  25.679  1.00  0.00    -0.010 C 
ATOM     26  C   UNL A   1      34.417  16.566  25.471  1.00  0.00     0.007 C 
ATOM     27  C   UNL A   1      34.195  17.089  23.022  1.00  0.00     0.007 C 
ATOM     28  C   UNL A   1      32.172  16.575  24.385  1.00  0.00     0.007 C 
ENDBRANCH  17  19
ENDBRANCH  14  17
ENDBRANCH   8  13
ENDBRANCH   4   7
ENDBRANCH   2   3
ENDBRANCH   1   2
BRANCH   1  29
ATOM     29  C   UNL A   1      32.449  29.657  25.262  1.00  0.00     0.023 C 
BRANCH  29  30
ATOM     30  C   UNL A   1      32.282  30.093  26.710  1.00  0.00     0.116 C 
BRANCH  30  31
ATOM     31  N   UNL A   1      32.327  31.542  26.901  1.00  0.00    -0.352 N 
ATOM     32  C   UNL A   1      33.309  32.333  27.451  1.00  0.00     0.251 C 
ATOM     33  H   UNL A   1      31.530  32.027  26.586  1.00  0.00     0.163 HD
ATOM     34  O   UNL A   1      33.114  33.535  27.620  1.00  0.00    -0.269 OA
BRANCH  32  35
ATOM     35  C   UNL A   1      34.583  31.719  27.874  1.00  0.00     0.039 A 
ATOM     36  C   UNL A   1      35.704  32.528  28.078  1.00  0.00     0.014 A 
ATOM     37  C   UNL A   1      34.644  30.353  28.143  1.00  0.00     0.014 A 
ATOM     38  C   UNL A   1      36.848  31.983  28.664  1.00  0.00     0.010 A 
ATOM     39  C   UNL A   1      35.734  29.841  28.831  1.00  0.00     0.010 A 
ATOM     40  C   UNL A   1      36.849  30.649  29.102  1.00  0.00    -0.014 A 
BRANCH  40  41
ATOM     41  C   UNL A   1      37.984  30.058  29.858  1.00  0.00     0.031 A 
ATOM     42  C   UNL A   1      38.257  30.516  31.266  1.00  0.00     0.074 A 
ATOM     43  C   UNL A   1      38.849  29.232  29.235  1.00  0.00     0.049 A 
ATOM     44  N   UNL A   1      39.284  30.262  32.032  1.00  0.00    -0.248 NA
ATOM     45  C   UNL A   1      37.266  31.423  31.873  1.00  0.00     0.031 C 
ATOM     46  C   UNL A   1      38.751  28.790  27.843  1.00  0.00     0.029 A 
ATOM     47  N   UNL A   1      40.008  28.649  29.685  1.00  0.00    -0.354 N 
ATOM     48  C   UNL A   1      39.095  31.023  33.180  1.00  0.00     0.074 A 
ATOM     49  C   UNL A   1      37.875  31.777  32.993  1.00  0.00     0.031 C 
ATOM     50  C   UNL A   1      39.800  28.003  27.554  1.00  0.00     0.029 A 
ATOM     51  C   UNL A   1      40.665  27.913  28.726  1.00  0.00     0.049 A 
ATOM     52  H   UNL A   1      40.338  28.749  30.607  1.00  0.00     0.167 HD
ATOM     53  C   UNL A   1      39.847  31.065  34.304  1.00  0.00     0.034 A 
ATOM     54  C   UNL A   1      41.835  27.246  28.782  1.00  0.00     0.034 A 
ATOM     55  C   UNL A   1      41.012  30.252  34.518  1.00  0.00     0.049 A 
ATOM     56  C   UNL A   1      42.606  27.235  30.074  1.00  0.00     0.074 A 
ATOM     57  C   UNL A   1      41.780  30.133  35.661  1.00  0.00     0.029 A 
ATOM     58  N   UNL A   1      41.571  29.412  33.569  1.00  0.00    -0.354 N 
ATOM     59  N   UNL A   1      42.327  27.835  31.206  1.00  0.00    -0.248 NA
ATOM     60  C   UNL A   1      43.833  26.426  30.111  1.00  0.00     0.031 C 
ATOM     61  C   UNL A   1      42.809  29.221  35.402  1.00  0.00     0.029 A 
ATOM     62  C   UNL A   1      42.673  28.764  34.100  1.00  0.00     0.049 A 
ATOM     63  H   UNL A   1      41.234  29.292  32.651  1.00  0.00     0.167 HD
ATOM     64  C   UNL A   1      43.320  27.449  32.099  1.00  0.00     0.074 A 
ATOM     65  C   UNL A   1      44.199  26.549  31.381  1.00  0.00     0.031 C 
ATOM     66  C   UNL A   1      43.498  27.821  33.390  1.00  0.00     0.034 A 
BRANCH  53  67
ATOM     67  C   UNL A   1      39.384  31.970  35.416  1.00  0.00     0.023 A 
ATOM     68  C   UNL A   1      38.459  31.483  36.364  1.00  0.00     0.012 A 
ATOM     69  C   UNL A   1      39.877  33.282  35.543  1.00  0.00     0.148 A 
ATOM     70  C   UNL A   1      38.000  32.301  37.394  1.00  0.00     0.002 A 
ATOM     71  C   UNL A   1      39.448  34.077  36.601  1.00  0.00     0.091 A 
ATOM     72  F   UNL A   1      40.734  33.739  34.619  1.00  0.00    -0.205 F 
ATOM     73  C   UNL A   1      38.501  33.594  37.518  1.00  0.00     0.022 A 
BRANCH  71  74
ATOM     74  S   UNL A   1      40.098  35.727  36.889  1.00  0.00     0.127 S 
ATOM     75  O   UNL A   1      39.640  36.438  35.696  1.00  0.00    -0.237 OA
ATOM     76  O   UNL A   1      39.423  36.116  38.126  1.00  0.00    -0.237 OA
ATOM     77  O   UNL A   1      41.541  35.568  37.014  1.00  0.00    -0.744 OA
ENDBRANCH  71  74
ENDBRANCH  53  67
BRANCH  54  78
ATOM     78  C   UNL A   1      42.299  26.463  27.603  1.00  0.00     0.023 A 
ATOM     79  C   UNL A   1      43.101  27.095  26.633  1.00  0.00     0.012 A 
ATOM     80  C   UNL A   1      41.996  25.095  27.455  1.00  0.00     0.148 A 
ATOM     81  C   UNL A   1      43.573  26.390  25.526  1.00  0.00     0.002 A 
ATOM     82  C   UNL A   1      42.512  24.384  26.376  1.00  0.00     0.091 A 
ATOM     83  F   UNL A   1      41.224  24.512  28.383  1.00  0.00    -0.205 F 
ATOM     84  C   UNL A   1      43.286  25.033  25.402  1.00  0.00     0.022 A 
BRANCH  82  85
ATOM     85  S   UNL A   1      42.307  22.607  26.204  1.00  0.00     0.127 S 
ATOM     86  O   UNL A   1      40.855  22.479  26.124  1.00  0.00    -0.237 OA
ATOM     87  O   UNL A   1      43.019  22.341  24.954  1.00  0.00    -0.237 OA
ATOM     88  O   UNL A   1      42.931  22.025  27.384  1.00  0.00    -0.744 OA
ENDBRANCH  82  85
ENDBRANCH  54  78
BRANCH  66  89
ATOM     89  C   UNL A   1      44.664  27.230  34.134  1.00  0.00     0.023 A 
ATOM     90  C   UNL A   1      45.894  27.916  34.160  1.00  0.00     0.012 A 
ATOM     91  C   UNL A   1      44.515  26.046  34.884  1.00  0.00     0.148 A 
ATOM     92  C   UNL A   1      46.965  27.420  34.902  1.00  0.00     0.002 A 
ATOM     93  C   UNL A   1      45.573  25.583  35.656  1.00  0.00     0.091 A 
ATOM     94  F   UNL A   1      43.342  25.399  34.828  1.00  0.00    -0.205 F 
ATOM     95  C   UNL A   1      46.801  26.263  35.660  1.00  0.00     0.022 A 
BRANCH  93  96
ATOM     96  S   UNL A   1      45.415  24.154  36.734  1.00  0.00     0.127 S 
ATOM     97  O   UNL A   1      46.801  23.936  37.144  1.00  0.00    -0.237 OA
ATOM     98  O   UNL A   1      44.539  24.657  37.794  1.00  0.00    -0.237 OA
ATOM     99  O   UNL A   1      44.828  23.101  35.918  1.00  0.00    -0.744 OA
ENDBRANCH  93  96
ENDBRANCH  66  89
ENDBRANCH  40  41
ENDBRANCH  32  35
ENDBRANCH  30  31
ENDBRANCH  29  30
ENDBRANCH   1  29
TORSDOF 17
ENDMDL
