MODEL 1
REMARK VINA RESULT:     -11.8      0.000      0.000
REMARK SMILES CCc1cccc2c3c([nH]c12)[C@](CC)(CC(=O)NCCCCNC(=O)c1ccc(-c2c4nc(c(-c5cccc(S(=O)(=O)[O-])c5F)c5ccc([nH]5)c(-c5cccc(S(=O)(=O)[O-])c5F)c5nc(c(-c6cccc(S(=O)(=O)[O-])c6F)c6ccc2[nH]6)C=C5)C=C4)cc1)OCC3
REMARK SMILES IDX 21 1 20 2 19 3 18 4 16 5 17 6 15 8 12 9 3 10 4 11 11 12 5 13
REMARK SMILES IDX 7 14 10 15 6 16 8 17 9 18 91 20 90 21 89 22 2 23 1 24 13 25
REMARK SMILES IDX 14 26 22 27 23 28 24 29 25 31 26 32 27 33 88 34 28 35 87 36
REMARK SMILES IDX 29 37 30 38 31 39 81 40 32 41 86 42 80 43 82 44 33 45 85 46
REMARK SMILES IDX 79 47 78 48 34 50 66 51 46 52 65 53 47 54 50 55 64 56 83 57
REMARK SMILES IDX 48 58 49 59 63 61 84 62 51 63 35 64 36 65 44 66 37 67 39 68
REMARK SMILES IDX 45 69 38 70 40 71 41 72 42 73 43 74 67 75 68 76 76 77 69 78
REMARK SMILES IDX 71 79 77 80 70 81 72 82 73 83 74 84 75 85 52 86 53 87 61 88
REMARK SMILES IDX 54 89 56 90 62 91 55 92 57 93 58 94 59 95 60 96
REMARK H PARENT 18 7 10 19 23 30 82 49 50 60
REMARK Flexibility Score: inf
ROOT
ATOM      1  C   UNL A   1      32.508  31.592  27.552  1.00  0.00     0.023 C 
ENDROOT
BRANCH   1   2
ATOM      2  C   UNL A   1      33.797  30.986  26.971  1.00  0.00     0.023 C 
BRANCH   2   3
ATOM      3  C   UNL A   1      34.078  29.513  27.318  1.00  0.00     0.116 C 
BRANCH   3   4
ATOM      4  N   UNL A   1      32.934  28.756  27.819  1.00  0.00    -0.356 N 
ATOM      5  C   UNL A   1      31.840  28.229  27.187  1.00  0.00     0.223 C 
ATOM      6  O   UNL A   1      31.022  27.612  27.873  1.00  0.00    -0.275 OA
ATOM      7  H   UNL A   1      32.953  28.595  28.790  1.00  0.00     0.163 HD
BRANCH   5   8
ATOM      8  C   UNL A   1      31.683  28.329  25.686  1.00  0.00     0.142 C 
BRANCH   8   9
ATOM      9  C   UNL A   1      31.774  27.051  24.815  1.00  0.00     0.117 C 
ATOM     10  C   UNL A   1      35.157  23.503  26.226  1.00  0.00    -0.024 A 
ATOM     11  C   UNL A   1      34.965  22.250  26.857  1.00  0.00     0.006 A 
ATOM     12  C   UNL A   1      33.997  24.300  26.084  1.00  0.00     0.049 A 
ATOM     13  C   UNL A   1      33.724  21.815  27.317  1.00  0.00     0.001 A 
ATOM     14  C   UNL A   1      32.748  23.855  26.504  1.00  0.00     0.003 A 
ATOM     15  N   UNL A   1      33.801  25.558  25.519  1.00  0.00    -0.356 N 
ATOM     16  C   UNL A   1      32.603  22.612  27.140  1.00  0.00     0.010 A 
ATOM     17  C   UNL A   1      31.808  24.802  26.061  1.00  0.00    -0.014 A 
ATOM     18  C   UNL A   1      32.460  25.872  25.489  1.00  0.00     0.052 A 
ATOM     19  H   UNL A   1      34.522  26.141  25.188  1.00  0.00     0.166 HD
ATOM     20  C   UNL A   1      30.353  24.636  26.037  1.00  0.00     0.066 C 
ATOM     21  C   UNL A   1      29.707  25.811  25.336  1.00  0.00     0.166 C 
ATOM     22  O   UNL A   1      30.489  26.550  24.379  1.00  0.00    -0.368 OA
BRANCH  10  23
ATOM     23  C   UNL A   1      36.500  23.939  25.697  1.00  0.00     0.034 C 
ATOM     24  C   UNL A   1      37.424  22.828  25.208  1.00  0.00     0.009 C 
ENDBRANCH  10  23
BRANCH   9  25
ATOM     25  C   UNL A   1      32.522  27.415  23.488  1.00  0.00     0.039 C 
ATOM     26  C   UNL A   1      32.465  26.352  22.383  1.00  0.00     0.007 C 
ENDBRANCH   9  25
ENDBRANCH   8   9
ENDBRANCH   5   8
ENDBRANCH   3   4
ENDBRANCH   2   3
ENDBRANCH   1   2
BRANCH   1  27
ATOM     27  C   UNL A   1      32.009  32.780  26.748  1.00  0.00     0.116 C 
BRANCH  27  28
ATOM     28  N   UNL A   1      32.054  33.998  27.521  1.00  0.00    -0.352 N 
ATOM     29  C   UNL A   1      32.956  34.553  28.383  1.00  0.00     0.251 C 
ATOM     30  H   UNL A   1      31.250  34.554  27.402  1.00  0.00     0.163 HD
ATOM     31  O   UNL A   1      32.548  35.533  29.015  1.00  0.00    -0.269 OA
BRANCH  29  32
ATOM     32  C   UNL A   1      34.330  34.046  28.636  1.00  0.00     0.039 A 
ATOM     33  C   UNL A   1      35.410  34.138  27.754  1.00  0.00     0.014 A 
ATOM     34  C   UNL A   1      34.530  33.441  29.889  1.00  0.00     0.014 A 
ATOM     35  C   UNL A   1      36.625  33.541  28.064  1.00  0.00     0.010 A 
ATOM     36  C   UNL A   1      35.752  32.882  30.224  1.00  0.00     0.010 A 
ATOM     37  C   UNL A   1      36.777  32.885  29.283  1.00  0.00    -0.014 A 
BRANCH  37  38
ATOM     38  C   UNL A   1      38.073  32.300  29.590  1.00  0.00     0.031 A 
ATOM     39  C   UNL A   1      38.212  30.857  29.220  1.00  0.00     0.074 A 
ATOM     40  C   UNL A   1      39.092  33.066  30.030  1.00  0.00     0.049 A 
ATOM     41  N   UNL A   1      38.536  29.857  29.976  1.00  0.00    -0.248 NA
ATOM     42  C   UNL A   1      37.809  30.466  27.857  1.00  0.00     0.031 C 
ATOM     43  C   UNL A   1      39.136  34.527  30.144  1.00  0.00     0.029 A 
ATOM     44  N   UNL A   1      40.371  32.704  30.307  1.00  0.00    -0.354 N 
ATOM     45  C   UNL A   1      38.566  28.742  29.136  1.00  0.00     0.074 A 
ATOM     46  C   UNL A   1      37.966  29.144  27.891  1.00  0.00     0.031 C 
ATOM     47  C   UNL A   1      40.426  34.927  30.171  1.00  0.00     0.029 A 
ATOM     48  C   UNL A   1      41.279  33.754  30.201  1.00  0.00     0.049 A 
ATOM     49  H   UNL A   1      40.631  31.788  30.559  1.00  0.00     0.167 HD
ATOM     50  C   UNL A   1      39.260  27.609  29.431  1.00  0.00     0.034 A 
ATOM     51  C   UNL A   1      42.618  33.630  30.005  1.00  0.00     0.034 A 
ATOM     52  C   UNL A   1      39.618  27.528  30.817  1.00  0.00     0.049 A 
ATOM     53  C   UNL A   1      42.983  32.255  30.436  1.00  0.00     0.074 A 
ATOM     54  C   UNL A   1      38.900  27.463  31.994  1.00  0.00     0.029 A 
ATOM     55  N   UNL A   1      40.883  27.934  31.171  1.00  0.00    -0.354 N 
ATOM     56  N   UNL A   1      42.849  31.822  31.659  1.00  0.00    -0.248 NA
ATOM     57  C   UNL A   1      43.048  31.227  29.408  1.00  0.00     0.031 C 
ATOM     58  C   UNL A   1      39.601  28.317  32.892  1.00  0.00     0.029 A 
ATOM     59  C   UNL A   1      40.738  28.789  32.234  1.00  0.00     0.049 A 
ATOM     60  H   UNL A   1      41.728  27.662  30.744  1.00  0.00     0.167 HD
ATOM     61  C   UNL A   1      42.377  30.523  31.518  1.00  0.00     0.074 A 
ATOM     62  C   UNL A   1      42.596  30.186  30.112  1.00  0.00     0.031 C 
ATOM     63  C   UNL A   1      41.581  29.942  32.464  1.00  0.00     0.034 A 
BRANCH  50  64
ATOM     64  C   UNL A   1      39.858  26.710  28.387  1.00  0.00     0.023 A 
ATOM     65  C   UNL A   1      39.482  25.354  28.345  1.00  0.00     0.012 A 
ATOM     66  C   UNL A   1      40.952  27.107  27.582  1.00  0.00     0.148 A 
ATOM     67  C   UNL A   1      40.153  24.439  27.524  1.00  0.00     0.002 A 
ATOM     68  C   UNL A   1      41.567  26.216  26.715  1.00  0.00     0.091 A 
ATOM     69  F   UNL A   1      41.476  28.329  27.746  1.00  0.00    -0.205 F 
ATOM     70  C   UNL A   1      41.183  24.873  26.694  1.00  0.00     0.022 A 
BRANCH  68  71
ATOM     71  S   UNL A   1      42.873  26.733  25.597  1.00  0.00     0.127 S 
ATOM     72  O   UNL A   1      43.898  27.185  26.526  1.00  0.00    -0.237 OA
ATOM     73  O   UNL A   1      43.174  25.488  24.892  1.00  0.00    -0.237 OA
ATOM     74  O   UNL A   1      42.271  27.764  24.752  1.00  0.00    -0.744 OA
ENDBRANCH  68  71
ENDBRANCH  50  64
BRANCH  51  75
ATOM     75  C   UNL A   1      43.493  34.448  29.117  1.00  0.00     0.023 A 
ATOM     76  C   UNL A   1      44.162  35.572  29.646  1.00  0.00     0.012 A 
ATOM     77  C   UNL A   1      43.894  33.994  27.838  1.00  0.00     0.148 A 
ATOM     78  C   UNL A   1      45.209  36.192  28.947  1.00  0.00     0.002 A 
ATOM     79  C   UNL A   1      44.914  34.629  27.135  1.00  0.00     0.091 A 
ATOM     80  F   UNL A   1      43.353  32.875  27.341  1.00  0.00    -0.205 F 
ATOM     81  C   UNL A   1      45.587  35.720  27.694  1.00  0.00     0.022 A 
BRANCH  79  82
ATOM     82  S   UNL A   1      45.430  34.066  25.506  1.00  0.00     0.127 S 
ATOM     83  O   UNL A   1      46.605  34.901  25.249  1.00  0.00    -0.237 OA
ATOM     84  O   UNL A   1      45.723  32.657  25.748  1.00  0.00    -0.237 OA
ATOM     85  O   UNL A   1      44.303  34.341  24.623  1.00  0.00    -0.744 OA
ENDBRANCH  79  82
ENDBRANCH  51  75
BRANCH  63  86
ATOM     86  C   UNL A   1      41.334  30.683  33.755  1.00  0.00     0.023 A 
ATOM     87  C   UNL A   1      42.280  30.689  34.804  1.00  0.00     0.012 A 
ATOM     88  C   UNL A   1      40.256  31.580  33.811  1.00  0.00     0.148 A 
ATOM     89  C   UNL A   1      42.153  31.572  35.883  1.00  0.00     0.002 A 
ATOM     90  C   UNL A   1      40.154  32.482  34.864  1.00  0.00     0.091 A 
ATOM     91  F   UNL A   1      39.381  31.573  32.795  1.00  0.00    -0.205 F 
ATOM     92  C   UNL A   1      41.098  32.479  35.904  1.00  0.00     0.022 A 
BRANCH  90  93
ATOM     93  S   UNL A   1      38.893  33.757  34.898  1.00  0.00     0.127 S 
ATOM     94  O   UNL A   1      39.194  34.516  33.686  1.00  0.00    -0.237 OA
ATOM     95  O   UNL A   1      37.658  32.974  34.837  1.00  0.00    -0.237 OA
ATOM     96  O   UNL A   1      39.081  34.483  36.147  1.00  0.00    -0.744 OA
ENDBRANCH  90  93
ENDBRANCH  63  86
ENDBRANCH  37  38
ENDBRANCH  29  32
ENDBRANCH  27  28
ENDBRANCH   1  27
TORSDOF 17
ENDMDL
MODEL 2
REMARK VINA RESULT:     -11.7      3.548      7.481
REMARK SMILES CCc1cccc2c3c([nH]c12)[C@](CC)(CC(=O)NCCCCNC(=O)c1ccc(-c2c4nc(c(-c5cccc(S(=O)(=O)[O-])c5F)c5ccc([nH]5)c(-c5cccc(S(=O)(=O)[O-])c5F)c5nc(c(-c6cccc(S(=O)(=O)[O-])c6F)c6ccc2[nH]6)C=C5)C=C4)cc1)OCC3
REMARK SMILES IDX 21 1 20 2 19 3 18 4 16 5 17 6 15 8 12 9 3 10 4 11 11 12 5 13
REMARK SMILES IDX 7 14 10 15 6 16 8 17 9 18 91 20 90 21 89 22 2 23 1 24 13 25
REMARK SMILES IDX 14 26 22 27 23 28 24 29 25 31 26 32 27 33 88 34 28 35 87 36
REMARK SMILES IDX 29 37 30 38 31 39 81 40 32 41 86 42 80 43 82 44 33 45 85 46
REMARK SMILES IDX 79 47 78 48 34 50 66 51 46 52 65 53 47 54 50 55 64 56 83 57
REMARK SMILES IDX 48 58 49 59 63 61 84 62 51 63 35 64 36 65 44 66 37 67 39 68
REMARK SMILES IDX 45 69 38 70 40 71 41 72 42 73 43 74 67 75 68 76 76 77 69 78
REMARK SMILES IDX 71 79 77 80 70 81 72 82 73 83 74 84 75 85 52 86 53 87 61 88
REMARK SMILES IDX 54 89 56 90 62 91 55 92 57 93 58 94 59 95 60 96
REMARK H PARENT 18 7 10 19 23 30 82 49 50 60
REMARK Flexibility Score: inf
ROOT
ATOM      1  C   UNL A   1      33.047  29.652  25.617  1.00  0.00     0.023 C 
ENDROOT
BRANCH   1   2
ATOM      2  C   UNL A   1      31.558  29.405  25.318  1.00  0.00     0.023 C 
BRANCH   2   3
ATOM      3  C   UNL A   1      31.233  28.729  23.975  1.00  0.00     0.116 C 
BRANCH   3   4
ATOM      4  N   UNL A   1      32.388  28.355  23.163  1.00  0.00    -0.356 N 
ATOM      5  C   UNL A   1      32.813  27.146  22.682  1.00  0.00     0.223 C 
ATOM      6  O   UNL A   1      33.838  27.129  21.997  1.00  0.00    -0.275 OA
ATOM      7  H   UNL A   1      32.967  29.112  22.916  1.00  0.00     0.163 HD
BRANCH   5   8
ATOM      8  C   UNL A   1      32.007  25.888  22.913  1.00  0.00     0.142 C 
BRANCH   8   9
ATOM      9  C   UNL A   1      32.065  25.177  24.288  1.00  0.00     0.117 C 
ATOM     10  C   UNL A   1      33.486  20.278  24.325  1.00  0.00    -0.024 A 
ATOM     11  C   UNL A   1      34.708  19.679  24.716  1.00  0.00     0.006 A 
ATOM     12  C   UNL A   1      33.471  21.692  24.329  1.00  0.00     0.049 A 
ATOM     13  C   UNL A   1      35.832  20.417  25.079  1.00  0.00     0.001 A 
ATOM     14  C   UNL A   1      34.576  22.436  24.730  1.00  0.00     0.003 A 
ATOM     15  N   UNL A   1      32.467  22.608  24.020  1.00  0.00    -0.356 N 
ATOM     16  C   UNL A   1      35.774  21.802  25.094  1.00  0.00     0.010 A 
ATOM     17  C   UNL A   1      34.167  23.779  24.780  1.00  0.00    -0.014 A 
ATOM     18  C   UNL A   1      32.880  23.892  24.304  1.00  0.00     0.052 A 
ATOM     19  H   UNL A   1      31.586  22.370  23.650  1.00  0.00     0.166 HD
ATOM     20  C   UNL A   1      34.900  24.888  25.394  1.00  0.00     0.066 C 
ATOM     21  C   UNL A   1      34.052  26.141  25.387  1.00  0.00     0.166 C 
ATOM     22  O   UNL A   1      32.620  25.996  25.344  1.00  0.00    -0.368 OA
BRANCH  10  23
ATOM     23  C   UNL A   1      32.267  19.462  23.974  1.00  0.00     0.034 C 
ATOM     24  C   UNL A   1      32.492  18.291  23.024  1.00  0.00     0.009 C 
ENDBRANCH  10  23
BRANCH   9  25
ATOM     25  C   UNL A   1      30.598  24.885  24.751  1.00  0.00     0.039 C 
ATOM     26  C   UNL A   1      30.072  25.774  25.886  1.00  0.00     0.007 C 
ENDBRANCH   9  25
ENDBRANCH   8   9
ENDBRANCH   5   8
ENDBRANCH   3   4
ENDBRANCH   2   3
ENDBRANCH   1   2
BRANCH   1  27
ATOM     27  C   UNL A   1      33.377  29.500  27.092  1.00  0.00     0.116 C 
BRANCH  27  28
ATOM     28  N   UNL A   1      33.674  30.775  27.701  1.00  0.00    -0.352 N 
ATOM     29  C   UNL A   1      34.760  31.302  28.338  1.00  0.00     0.251 C 
ATOM     30  H   UNL A   1      32.921  31.407  27.647  1.00  0.00     0.163 HD
ATOM     31  O   UNL A   1      34.566  32.380  28.909  1.00  0.00    -0.269 OA
BRANCH  29  32
ATOM     32  C   UNL A   1      36.100  30.665  28.427  1.00  0.00     0.039 A 
ATOM     33  C   UNL A   1      36.408  29.353  28.058  1.00  0.00     0.014 A 
ATOM     34  C   UNL A   1      37.130  31.489  28.915  1.00  0.00     0.014 A 
ATOM     35  C   UNL A   1      37.679  28.840  28.278  1.00  0.00     0.010 A 
ATOM     36  C   UNL A   1      38.412  30.998  29.095  1.00  0.00     0.010 A 
ATOM     37  C   UNL A   1      38.664  29.656  28.829  1.00  0.00    -0.014 A 
BRANCH  37  38
ATOM     38  C   UNL A   1      39.994  29.095  29.014  1.00  0.00     0.031 A 
ATOM     39  C   UNL A   1      40.406  28.916  30.440  1.00  0.00     0.074 A 
ATOM     40  C   UNL A   1      40.707  28.645  27.962  1.00  0.00     0.049 A 
ATOM     41  N   UNL A   1      41.449  29.386  31.045  1.00  0.00    -0.248 NA
ATOM     42  C   UNL A   1      39.457  28.230  31.337  1.00  0.00     0.031 C 
ATOM     43  C   UNL A   1      40.272  28.511  26.568  1.00  0.00     0.029 A 
ATOM     44  N   UNL A   1      41.926  28.045  27.954  1.00  0.00    -0.354 N 
ATOM     45  C   UNL A   1      41.386  28.891  32.349  1.00  0.00     0.074 A 
ATOM     46  C   UNL A   1      40.075  28.321  32.513  1.00  0.00     0.031 C 
ATOM     47  C   UNL A   1      41.072  27.623  25.940  1.00  0.00     0.029 A 
ATOM     48  C   UNL A   1      42.135  27.229  26.846  1.00  0.00     0.049 A 
ATOM     49  H   UNL A   1      42.597  28.175  28.663  1.00  0.00     0.167 HD
ATOM     50  C   UNL A   1      42.475  28.793  33.160  1.00  0.00     0.034 A 
ATOM     51  C   UNL A   1      43.031  26.211  26.765  1.00  0.00     0.034 A 
ATOM     52  C   UNL A   1      43.577  29.585  32.699  1.00  0.00     0.049 A 
ATOM     53  C   UNL A   1      44.051  26.462  27.817  1.00  0.00     0.074 A 
ATOM     54  C   UNL A   1      43.774  30.938  32.503  1.00  0.00     0.029 A 
ATOM     55  N   UNL A   1      44.549  28.954  31.961  1.00  0.00    -0.354 N 
ATOM     56  N   UNL A   1      44.832  27.508  27.831  1.00  0.00    -0.248 NA
ATOM     57  C   UNL A   1      43.871  25.794  29.097  1.00  0.00     0.031 C 
ATOM     58  C   UNL A   1      44.495  31.023  31.278  1.00  0.00     0.029 A 
ATOM     59  C   UNL A   1      44.756  29.722  30.843  1.00  0.00     0.049 A 
ATOM     60  H   UNL A   1      45.008  28.113  32.190  1.00  0.00     0.167 HD
ATOM     61  C   UNL A   1      44.884  27.884  29.167  1.00  0.00     0.074 A 
ATOM     62  C   UNL A   1      44.339  26.747  29.907  1.00  0.00     0.031 C 
ATOM     63  C   UNL A   1      45.077  29.184  29.539  1.00  0.00     0.034 A 
BRANCH  50  64
ATOM     64  C   UNL A   1      42.622  27.741  34.222  1.00  0.00     0.023 A 
ATOM     65  C   UNL A   1      42.353  28.074  35.564  1.00  0.00     0.012 A 
ATOM     66  C   UNL A   1      43.236  26.492  33.972  1.00  0.00     0.148 A 
ATOM     67  C   UNL A   1      42.663  27.191  36.607  1.00  0.00     0.002 A 
ATOM     68  C   UNL A   1      43.474  25.589  34.999  1.00  0.00     0.091 A 
ATOM     69  F   UNL A   1      43.700  26.224  32.745  1.00  0.00    -0.205 F 
ATOM     70  C   UNL A   1      43.206  25.941  36.323  1.00  0.00     0.022 A 
BRANCH  68  71
ATOM     71  S   UNL A   1      44.136  23.951  34.684  1.00  0.00     0.127 S 
ATOM     72  O   UNL A   1      44.321  23.440  36.034  1.00  0.00    -0.237 OA
ATOM     73  O   UNL A   1      43.052  23.330  33.924  1.00  0.00    -0.237 OA
ATOM     74  O   UNL A   1      45.355  24.171  33.907  1.00  0.00    -0.744 OA
ENDBRANCH  68  71
ENDBRANCH  50  64
BRANCH  51  75
ATOM     75  C   UNL A   1      42.841  24.871  26.140  1.00  0.00     0.023 A 
ATOM     76  C   UNL A   1      43.833  24.362  25.275  1.00  0.00     0.012 A 
ATOM     77  C   UNL A   1      41.842  23.972  26.583  1.00  0.00     0.148 A 
ATOM     78  C   UNL A   1      43.849  23.010  24.900  1.00  0.00     0.002 A 
ATOM     79  C   UNL A   1      41.845  22.638  26.186  1.00  0.00     0.091 A 
ATOM     80  F   UNL A   1      40.939  24.389  27.480  1.00  0.00    -0.205 F 
ATOM     81  C   UNL A   1      42.857  22.148  25.357  1.00  0.00     0.022 A 
BRANCH  79  82
ATOM     82  S   UNL A   1      40.576  21.487  26.738  1.00  0.00     0.127 S 
ATOM     83  O   UNL A   1      40.976  20.247  26.072  1.00  0.00    -0.237 OA
ATOM     84  O   UNL A   1      40.767  21.494  28.185  1.00  0.00    -0.237 OA
ATOM     85  O   UNL A   1      39.314  22.037  26.258  1.00  0.00    -0.744 OA
ENDBRANCH  79  82
ENDBRANCH  51  75
BRANCH  63  86
ATOM     86  C   UNL A   1      45.387  30.204  28.471  1.00  0.00     0.023 A 
ATOM     87  C   UNL A   1      44.378  31.005  27.890  1.00  0.00     0.012 A 
ATOM     88  C   UNL A   1      46.731  30.529  28.233  1.00  0.00     0.148 A 
ATOM     89  C   UNL A   1      44.706  32.106  27.091  1.00  0.00     0.002 A 
ATOM     90  C   UNL A   1      47.053  31.647  27.471  1.00  0.00     0.091 A 
ATOM     91  F   UNL A   1      47.673  29.769  28.811  1.00  0.00    -0.205 F 
ATOM     92  C   UNL A   1      46.044  32.436  26.895  1.00  0.00     0.022 A 
BRANCH  90  93
ATOM     93  S   UNL A   1      48.747  32.201  27.274  1.00  0.00     0.127 S 
ATOM     94  O   UNL A   1      48.582  33.399  26.453  1.00  0.00    -0.237 OA
ATOM     95  O   UNL A   1      49.151  32.459  28.657  1.00  0.00    -0.237 OA
ATOM     96  O   UNL A   1      49.463  31.105  26.635  1.00  0.00    -0.744 OA
ENDBRANCH  90  93
ENDBRANCH  63  86
ENDBRANCH  37  38
ENDBRANCH  29  32
ENDBRANCH  27  28
ENDBRANCH   1  27
TORSDOF 17
ENDMDL
MODEL 3
REMARK VINA RESULT:     -11.6      3.747      7.281
REMARK SMILES CCc1cccc2c3c([nH]c12)[C@](CC)(CC(=O)NCCCCNC(=O)c1ccc(-c2c4nc(c(-c5cccc(S(=O)(=O)[O-])c5F)c5ccc([nH]5)c(-c5cccc(S(=O)(=O)[O-])c5F)c5nc(c(-c6cccc(S(=O)(=O)[O-])c6F)c6ccc2[nH]6)C=C5)C=C4)cc1)OCC3
REMARK SMILES IDX 21 1 20 2 19 3 18 4 16 5 17 6 15 8 12 9 3 10 4 11 11 12 5 13
REMARK SMILES IDX 7 14 10 15 6 16 8 17 9 18 91 20 90 21 89 22 2 23 1 24 13 25
REMARK SMILES IDX 14 26 22 27 23 28 24 29 25 31 26 32 27 33 88 34 28 35 87 36
REMARK SMILES IDX 29 37 30 38 31 39 81 40 32 41 86 42 80 43 82 44 33 45 85 46
REMARK SMILES IDX 79 47 78 48 34 50 66 51 46 52 65 53 47 54 50 55 64 56 83 57
REMARK SMILES IDX 48 58 49 59 63 61 84 62 51 63 35 64 36 65 44 66 37 67 39 68
REMARK SMILES IDX 45 69 38 70 40 71 41 72 42 73 43 74 67 75 68 76 76 77 69 78
REMARK SMILES IDX 71 79 77 80 70 81 72 82 73 83 74 84 75 85 52 86 53 87 61 88
REMARK SMILES IDX 54 89 56 90 62 91 55 92 57 93 58 94 59 95 60 96
REMARK H PARENT 18 7 10 19 23 30 82 49 50 60
REMARK Flexibility Score: inf
ROOT
ATOM      1  C   UNL A   1      31.804  28.555  27.170  1.00  0.00     0.023 C 
ENDROOT
BRANCH   1   2
ATOM      2  C   UNL A   1      31.761  27.432  26.120  1.00  0.00     0.023 C 
BRANCH   2   3
ATOM      3  C   UNL A   1      32.375  26.084  26.535  1.00  0.00     0.116 C 
BRANCH   3   4
ATOM      4  N   UNL A   1      31.423  24.998  26.749  1.00  0.00    -0.356 N 
ATOM      5  C   UNL A   1      31.597  23.653  26.935  1.00  0.00     0.223 C 
ATOM      6  O   UNL A   1      30.592  22.962  27.110  1.00  0.00    -0.275 OA
ATOM      7  H   UNL A   1      30.482  25.286  26.763  1.00  0.00     0.163 HD
BRANCH   5   8
ATOM      8  C   UNL A   1      32.982  23.049  27.005  1.00  0.00     0.142 C 
BRANCH   8   9
ATOM      9  C   UNL A   1      33.770  22.772  25.700  1.00  0.00     0.117 C 
ATOM     10  C   UNL A   1      34.264  17.904  24.261  1.00  0.00    -0.024 A 
ATOM     11  C   UNL A   1      33.616  17.180  23.230  1.00  0.00     0.006 A 
ATOM     12  C   UNL A   1      33.798  19.223  24.467  1.00  0.00     0.049 A 
ATOM     13  C   UNL A   1      32.583  17.714  22.463  1.00  0.00     0.001 A 
ATOM     14  C   UNL A   1      32.795  19.777  23.677  1.00  0.00     0.003 A 
ATOM     15  N   UNL A   1      34.191  20.215  25.363  1.00  0.00    -0.356 N 
ATOM     16  C   UNL A   1      32.167  19.019  22.677  1.00  0.00     0.010 A 
ATOM     17  C   UNL A   1      32.702  21.134  24.030  1.00  0.00    -0.014 A 
ATOM     18  C   UNL A   1      33.533  21.396  25.096  1.00  0.00     0.052 A 
ATOM     19  H   UNL A   1      34.848  20.088  26.085  1.00  0.00     0.166 HD
ATOM     20  C   UNL A   1      31.978  22.175  23.297  1.00  0.00     0.066 C 
ATOM     21  C   UNL A   1      32.258  23.531  23.905  1.00  0.00     0.166 C 
ATOM     22  O   UNL A   1      33.484  23.712  24.637  1.00  0.00    -0.368 OA
BRANCH  10  23
ATOM     23  C   UNL A   1      35.408  17.323  25.053  1.00  0.00     0.034 C 
ATOM     24  C   UNL A   1      35.359  15.819  25.303  1.00  0.00     0.009 C 
ENDBRANCH  10  23
BRANCH   9  25
ATOM     25  C   UNL A   1      35.295  22.970  25.997  1.00  0.00     0.039 C 
ATOM     26  C   UNL A   1      35.923  24.242  25.413  1.00  0.00     0.007 C 
ENDBRANCH   9  25
ENDBRANCH   8   9
ENDBRANCH   5   8
ENDBRANCH   3   4
ENDBRANCH   2   3
ENDBRANCH   1   2
BRANCH   1  27
ATOM     27  C   UNL A   1      33.212  28.840  27.662  1.00  0.00     0.116 C 
BRANCH  27  28
ATOM     28  N   UNL A   1      33.473  30.258  27.728  1.00  0.00    -0.352 N 
ATOM     29  C   UNL A   1      34.572  31.019  28.006  1.00  0.00     0.251 C 
ATOM     30  H   UNL A   1      32.675  30.801  27.529  1.00  0.00     0.163 HD
ATOM     31  O   UNL A   1      34.355  32.224  28.161  1.00  0.00    -0.269 OA
BRANCH  29  32
ATOM     32  C   UNL A   1      35.956  30.503  28.176  1.00  0.00     0.039 A 
ATOM     33  C   UNL A   1      36.416  29.248  27.767  1.00  0.00     0.014 A 
ATOM     34  C   UNL A   1      36.860  31.387  28.791  1.00  0.00     0.014 A 
ATOM     35  C   UNL A   1      37.710  28.842  28.066  1.00  0.00     0.010 A 
ATOM     36  C   UNL A   1      38.165  31.005  29.053  1.00  0.00     0.010 A 
ATOM     37  C   UNL A   1      38.565  29.711  28.740  1.00  0.00    -0.014 A 
BRANCH  37  38
ATOM     38  C   UNL A   1      39.924  29.264  29.008  1.00  0.00     0.031 A 
ATOM     39  C   UNL A   1      40.227  29.011  30.450  1.00  0.00     0.074 A 
ATOM     40  C   UNL A   1      40.766  28.968  27.998  1.00  0.00     0.049 A 
ATOM     41  N   UNL A   1      41.162  29.526  31.182  1.00  0.00    -0.248 NA
ATOM     42  C   UNL A   1      39.279  28.169  31.203  1.00  0.00     0.031 C 
ATOM     43  C   UNL A   1      40.467  28.906  26.564  1.00  0.00     0.029 A 
ATOM     44  N   UNL A   1      42.035  28.488  28.061  1.00  0.00    -0.354 N 
ATOM     45  C   UNL A   1      41.038  28.925  32.435  1.00  0.00     0.074 A 
ATOM     46  C   UNL A   1      39.781  28.223  32.435  1.00  0.00     0.031 C 
ATOM     47  C   UNL A   1      41.404  28.149  25.951  1.00  0.00     0.029 A 
ATOM     48  C   UNL A   1      42.419  27.786  26.922  1.00  0.00     0.049 A 
ATOM     49  H   UNL A   1      42.626  28.623  28.837  1.00  0.00     0.167 HD
ATOM     50  C   UNL A   1      42.057  28.865  33.335  1.00  0.00     0.034 A 
ATOM     51  C   UNL A   1      43.417  26.867  26.852  1.00  0.00     0.034 A 
ATOM     52  C   UNL A   1      43.110  29.791  33.036  1.00  0.00     0.049 A 
ATOM     53  C   UNL A   1      44.312  27.127  28.010  1.00  0.00     0.074 A 
ATOM     54  C   UNL A   1      43.186  31.168  32.957  1.00  0.00     0.029 A 
ATOM     55  N   UNL A   1      44.200  29.315  32.349  1.00  0.00    -0.354 N 
ATOM     56  N   UNL A   1      44.980  28.236  28.172  1.00  0.00    -0.248 NA
ATOM     57  C   UNL A   1      44.091  26.344  29.217  1.00  0.00     0.031 C 
ATOM     58  C   UNL A   1      43.997  31.418  31.814  1.00  0.00     0.029 A 
ATOM     59  C   UNL A   1      44.424  30.186  31.314  1.00  0.00     0.049 A 
ATOM     60  H   UNL A   1      44.719  28.505  32.560  1.00  0.00     0.167 HD
ATOM     61  C   UNL A   1      44.879  28.508  29.530  1.00  0.00     0.074 A 
ATOM     62  C   UNL A   1      44.390  27.269  30.133  1.00  0.00     0.031 C 
ATOM     63  C   UNL A   1      44.908  29.787  30.011  1.00  0.00     0.034 A 
BRANCH  50  64
ATOM     64  C   UNL A   1      42.218  27.750  34.329  1.00  0.00     0.023 A 
ATOM     65  C   UNL A   1      41.764  27.933  35.650  1.00  0.00     0.012 A 
ATOM     66  C   UNL A   1      43.006  26.606  34.065  1.00  0.00     0.148 A 
ATOM     67  C   UNL A   1      42.066  27.006  36.656  1.00  0.00     0.002 A 
ATOM     68  C   UNL A   1      43.241  25.652  35.044  1.00  0.00     0.091 A 
ATOM     69  F   UNL A   1      43.631  26.500  32.885  1.00  0.00    -0.205 F 
ATOM     70  C   UNL A   1      42.788  25.856  36.350  1.00  0.00     0.022 A 
BRANCH  68  71
ATOM     71  S   UNL A   1      44.133  24.134  34.693  1.00  0.00     0.127 S 
ATOM     72  O   UNL A   1      45.502  24.614  34.582  1.00  0.00    -0.237 OA
ATOM     73  O   UNL A   1      43.845  23.335  35.883  1.00  0.00    -0.237 OA
ATOM     74  O   UNL A   1      43.533  23.611  33.466  1.00  0.00    -0.744 OA
ENDBRANCH  68  71
ENDBRANCH  50  64
BRANCH  51  75
ATOM     75  C   UNL A   1      43.417  25.568  26.118  1.00  0.00     0.023 A 
ATOM     76  C   UNL A   1      44.442  25.299  25.187  1.00  0.00     0.012 A 
ATOM     77  C   UNL A   1      42.592  24.487  26.509  1.00  0.00     0.148 A 
ATOM     78  C   UNL A   1      44.657  24.002  24.695  1.00  0.00     0.002 A 
ATOM     79  C   UNL A   1      42.790  23.208  25.997  1.00  0.00     0.091 A 
ATOM     80  F   UNL A   1      41.671  24.677  27.462  1.00  0.00    -0.205 F 
ATOM     81  C   UNL A   1      43.834  22.956  25.102  1.00  0.00     0.022 A 
BRANCH  79  82
ATOM     82  S   UNL A   1      41.744  21.826  26.480  1.00  0.00     0.127 S 
ATOM     83  O   UNL A   1      42.261  20.742  25.645  1.00  0.00    -0.237 OA
ATOM     84  O   UNL A   1      42.044  21.698  27.903  1.00  0.00    -0.237 OA
ATOM     85  O   UNL A   1      40.383  22.232  26.150  1.00  0.00    -0.744 OA
ENDBRANCH  79  82
ENDBRANCH  51  75
BRANCH  63  86
ATOM     86  C   UNL A   1      45.204  30.913  29.051  1.00  0.00     0.023 A 
ATOM     87  C   UNL A   1      44.186  31.534  28.294  1.00  0.00     0.012 A 
ATOM     88  C   UNL A   1      46.472  31.511  29.100  1.00  0.00     0.148 A 
ATOM     89  C   UNL A   1      44.429  32.727  27.604  1.00  0.00     0.002 A 
ATOM     90  C   UNL A   1      46.700  32.716  28.445  1.00  0.00     0.091 A 
ATOM     91  F   UNL A   1      47.419  30.917  29.841  1.00  0.00    -0.205 F 
ATOM     92  C   UNL A   1      45.683  33.326  27.693  1.00  0.00     0.022 A 
BRANCH  90  93
ATOM     93  S   UNL A   1      48.249  33.605  28.612  1.00  0.00     0.127 S 
ATOM     94  O   UNL A   1      48.323  33.819  30.056  1.00  0.00    -0.237 OA
ATOM     95  O   UNL A   1      49.217  32.643  28.086  1.00  0.00    -0.237 OA
ATOM     96  O   UNL A   1      48.112  34.816  27.812  1.00  0.00    -0.744 OA
ENDBRANCH  90  93
ENDBRANCH  63  86
ENDBRANCH  37  38
ENDBRANCH  29  32
ENDBRANCH  27  28
ENDBRANCH   1  27
TORSDOF 17
ENDMDL
