MODEL 1
REMARK VINA RESULT:     -12.1      0.000      0.000
REMARK SMILES Cc1cc(C(=O)N[C@H](CC(C)C)C(=O)NCCCCNC(=O)c2ccc(-c3c4nc(c(-c5cccc(S(=O)(=O)[O-])c5F)c5ccc([nH]5)c(-c5cccc(S(=O)(=O)[O-])c5F)c5nc(c(-c6cccc(S(=O)(=O)[O-])c6F)c6ccc3[nH]6)C=C5)C=C4)cc2)sc1Br
REMARK SMILES IDX 18 1 17 2 16 3 15 4 13 5 14 6 8 8 7 9 5 10 6 11 4 13 1 14
REMARK SMILES IDX 2 15 3 16 87 17 86 18 88 19 9 20 10 21 11 22 12 23 19 24
REMARK SMILES IDX 20 25 21 26 22 28 23 29 24 30 85 31 25 32 84 33 26 34 27 35
REMARK SMILES IDX 28 36 78 37 29 38 83 39 77 40 79 41 30 42 82 43 76 44 75 45
REMARK SMILES IDX 31 47 63 48 43 49 62 50 44 51 47 52 61 53 80 54 45 55 46 56
REMARK SMILES IDX 60 58 81 59 48 60 32 61 33 62 41 63 34 64 36 65 42 66 35 67
REMARK SMILES IDX 37 68 38 69 39 70 40 71 64 72 65 73 73 74 66 75 68 76 74 77
REMARK SMILES IDX 67 78 69 79 70 80 71 81 72 82 49 83 50 84 58 85 51 86 53 87
REMARK SMILES IDX 59 88 52 89 54 90 55 91 56 92 57 93
REMARK H PARENT 15 7 7 12 20 27 79 46 47 57
REMARK Flexibility Score: inf
ROOT
ATOM      1  C   UNL A   1      37.931  19.717  25.001  1.00  0.00     0.023 C 
ENDROOT
BRANCH   1   2
ATOM      2  C   UNL A   1      36.951  20.823  24.591  1.00  0.00     0.023 C 
BRANCH   2   3
ATOM      3  C   UNL A   1      35.855  21.138  25.617  1.00  0.00     0.116 C 
BRANCH   3   4
ATOM      4  N   UNL A   1      34.719  20.257  25.469  1.00  0.00    -0.354 N 
ATOM      5  C   UNL A   1      33.386  20.529  25.380  1.00  0.00     0.242 C 
ATOM      6  O   UNL A   1      32.604  19.576  25.454  1.00  0.00    -0.273 OA
ATOM      7  H   UNL A   1      34.945  19.300  25.428  1.00  0.00     0.163 HD
BRANCH   5   8
ATOM      8  C   UNL A   1      32.837  21.969  25.243  1.00  0.00     0.171 C 
BRANCH   8   9
ATOM      9  N   UNL A   1      31.785  22.220  26.208  1.00  0.00    -0.340 N 
ATOM     10  C   UNL A   1      31.164  23.369  26.643  1.00  0.00     0.262 C 
ATOM     11  O   UNL A   1      30.235  23.153  27.429  1.00  0.00    -0.268 OA
ATOM     12  H   UNL A   1      31.445  21.404  26.641  1.00  0.00     0.164 HD
BRANCH  10  13
ATOM     13  C   UNL A   1      31.514  24.702  26.158  1.00  0.00     0.093 A 
ATOM     14  C   UNL A   1      33.737  27.673  25.476  1.00  0.00     0.046 C 
ATOM     15  C   UNL A   1      32.578  26.735  25.552  1.00  0.00    -0.025 A 
ATOM     16  C   UNL A   1      32.619  25.519  26.325  1.00  0.00     0.030 A 
ATOM     17  C   UNL A   1      31.342  26.864  24.961  1.00  0.00     0.074 A 
ATOM     18  S   UNL A   1      30.334  25.527  25.202  1.00  0.00    -0.123 S 
ATOM     19  Br  UNL A   1      30.771  28.349  23.961  1.00  0.00    -0.039 Br
ENDBRANCH  10  13
ENDBRANCH   8   9
BRANCH   8  20
ATOM     20  C   UNL A   1      32.573  22.416  23.789  1.00  0.00     0.038 C 
BRANCH  20  21
ATOM     21  C   UNL A   1      33.543  23.348  23.032  1.00  0.00    -0.015 C 
ATOM     22  C   UNL A   1      32.870  24.542  22.355  1.00  0.00     0.007 C 
ATOM     23  C   UNL A   1      34.586  23.877  24.031  1.00  0.00     0.007 C 
ENDBRANCH  20  21
ENDBRANCH   8  20
ENDBRANCH   5   8
ENDBRANCH   3   4
ENDBRANCH   2   3
ENDBRANCH   1   2
BRANCH   1  24
ATOM     24  C   UNL A   1      39.133  20.203  25.805  1.00  0.00     0.116 C 
BRANCH  24  25
ATOM     25  N   UNL A   1      40.228  19.234  25.818  1.00  0.00    -0.352 N 
ATOM     26  C   UNL A   1      41.581  19.489  25.928  1.00  0.00     0.251 C 
ATOM     27  H   UNL A   1      39.969  18.287  25.741  1.00  0.00     0.163 HD
ATOM     28  O   UNL A   1      42.405  18.683  25.527  1.00  0.00    -0.269 OA
BRANCH  26  29
ATOM     29  C   UNL A   1      42.010  20.753  26.557  1.00  0.00     0.039 A 
ATOM     30  C   UNL A   1      42.425  21.835  25.779  1.00  0.00     0.014 A 
ATOM     31  C   UNL A   1      41.955  20.845  27.948  1.00  0.00     0.014 A 
ATOM     32  C   UNL A   1      42.700  23.046  26.410  1.00  0.00     0.010 A 
ATOM     33  C   UNL A   1      42.121  22.066  28.558  1.00  0.00     0.010 A 
ATOM     34  C   UNL A   1      42.521  23.163  27.799  1.00  0.00    -0.014 A 
BRANCH  34  35
ATOM     35  C   UNL A   1      42.548  24.483  28.432  1.00  0.00     0.031 A 
ATOM     36  C   UNL A   1      41.320  25.289  28.172  1.00  0.00     0.074 A 
ATOM     37  C   UNL A   1      43.474  24.847  29.349  1.00  0.00     0.049 A 
ATOM     38  N   UNL A   1      41.220  26.378  27.482  1.00  0.00    -0.248 NA
ATOM     39  C   UNL A   1      40.018  24.723  28.571  1.00  0.00     0.031 C 
ATOM     40  C   UNL A   1      44.541  24.011  29.914  1.00  0.00     0.029 A 
ATOM     41  N   UNL A   1      43.570  25.989  30.090  1.00  0.00    -0.354 N 
ATOM     42  C   UNL A   1      39.888  26.774  27.603  1.00  0.00     0.074 A 
ATOM     43  C   UNL A   1      39.170  25.617  28.058  1.00  0.00     0.031 C 
ATOM     44  C   UNL A   1      44.987  24.563  31.063  1.00  0.00     0.029 A 
ATOM     45  C   UNL A   1      44.364  25.862  31.231  1.00  0.00     0.049 A 
ATOM     46  H   UNL A   1      43.118  26.829  29.842  1.00  0.00     0.167 HD
ATOM     47  C   UNL A   1      39.554  28.095  27.620  1.00  0.00     0.034 A 
ATOM     48  C   UNL A   1      44.469  26.736  32.264  1.00  0.00     0.034 A 
ATOM     49  C   UNL A   1      40.645  28.904  27.131  1.00  0.00     0.049 A 
ATOM     50  C   UNL A   1      43.977  28.041  31.779  1.00  0.00     0.074 A 
ATOM     51  C   UNL A   1      41.381  28.976  25.965  1.00  0.00     0.029 A 
ATOM     52  N   UNL A   1      41.378  29.561  28.087  1.00  0.00    -0.354 N 
ATOM     53  N   UNL A   1      44.591  28.756  30.882  1.00  0.00    -0.248 NA
ATOM     54  C   UNL A   1      42.580  28.371  32.000  1.00  0.00     0.031 C 
ATOM     55  C   UNL A   1      42.709  29.284  26.385  1.00  0.00     0.029 A 
ATOM     56  C   UNL A   1      42.701  29.463  27.770  1.00  0.00     0.049 A 
ATOM     57  H   UNL A   1      41.009  30.027  28.872  1.00  0.00     0.167 HD
ATOM     58  C   UNL A   1      43.567  29.260  30.098  1.00  0.00     0.074 A 
ATOM     59  C   UNL A   1      42.361  29.112  30.912  1.00  0.00     0.031 C 
ATOM     60  C   UNL A   1      43.755  29.460  28.760  1.00  0.00     0.034 A 
BRANCH  47  61
ATOM     61  C   UNL A   1      38.462  28.713  28.483  1.00  0.00     0.023 A 
ATOM     62  C   UNL A   1      37.563  29.596  27.835  1.00  0.00     0.012 A 
ATOM     63  C   UNL A   1      38.448  28.731  29.898  1.00  0.00     0.148 A 
ATOM     64  C   UNL A   1      36.775  30.508  28.546  1.00  0.00     0.002 A 
ATOM     65  C   UNL A   1      37.607  29.587  30.604  1.00  0.00     0.091 A 
ATOM     66  F   UNL A   1      39.328  28.011  30.592  1.00  0.00    -0.205 F 
ATOM     67  C   UNL A   1      36.799  30.505  29.934  1.00  0.00     0.022 A 
BRANCH  65  68
ATOM     68  S   UNL A   1      37.562  29.596  32.403  1.00  0.00     0.127 S 
ATOM     69  O   UNL A   1      38.810  30.280  32.722  1.00  0.00    -0.237 OA
ATOM     70  O   UNL A   1      36.345  30.366  32.662  1.00  0.00    -0.237 OA
ATOM     71  O   UNL A   1      37.478  28.197  32.805  1.00  0.00    -0.744 OA
ENDBRANCH  65  68
ENDBRANCH  47  61
BRANCH  48  72
ATOM     72  C   UNL A   1      44.762  26.531  33.704  1.00  0.00     0.023 A 
ATOM     73  C   UNL A   1      46.031  26.890  34.210  1.00  0.00     0.012 A 
ATOM     74  C   UNL A   1      43.721  26.295  34.625  1.00  0.00     0.148 A 
ATOM     75  C   UNL A   1      46.241  27.059  35.583  1.00  0.00     0.002 A 
ATOM     76  C   UNL A   1      43.935  26.466  35.991  1.00  0.00     0.091 A 
ATOM     77  F   UNL A   1      42.501  26.002  34.156  1.00  0.00    -0.205 F 
ATOM     78  C   UNL A   1      45.190  26.861  36.473  1.00  0.00     0.022 A 
BRANCH  76  79
ATOM     79  S   UNL A   1      42.617  26.281  37.200  1.00  0.00     0.127 S 
ATOM     80  O   UNL A   1      41.718  27.377  36.834  1.00  0.00    -0.237 OA
ATOM     81  O   UNL A   1      42.111  24.946  36.892  1.00  0.00    -0.237 OA
ATOM     82  O   UNL A   1      43.252  26.430  38.502  1.00  0.00    -0.744 OA
ENDBRANCH  76  79
ENDBRANCH  48  72
BRANCH  60  83
ATOM     83  C   UNL A   1      45.170  29.470  28.241  1.00  0.00     0.023 A 
ATOM     84  C   UNL A   1      45.868  28.302  27.869  1.00  0.00     0.012 A 
ATOM     85  C   UNL A   1      45.765  30.720  28.008  1.00  0.00     0.148 A 
ATOM     86  C   UNL A   1      47.147  28.384  27.308  1.00  0.00     0.002 A 
ATOM     87  C   UNL A   1      47.013  30.798  27.405  1.00  0.00     0.091 A 
ATOM     88  F   UNL A   1      45.091  31.821  28.372  1.00  0.00    -0.205 F 
ATOM     89  C   UNL A   1      47.714  29.632  27.064  1.00  0.00     0.022 A 
BRANCH  87  90
ATOM     90  S   UNL A   1      47.726  32.383  26.965  1.00  0.00     0.127 S 
ATOM     91  O   UNL A   1      46.723  32.929  26.054  1.00  0.00    -0.237 OA
ATOM     92  O   UNL A   1      47.811  33.062  28.260  1.00  0.00    -0.237 OA
ATOM     93  O   UNL A   1      49.023  32.083  26.371  1.00  0.00    -0.744 OA
ENDBRANCH  87  90
ENDBRANCH  60  83
ENDBRANCH  34  35
ENDBRANCH  26  29
ENDBRANCH  24  25
ENDBRANCH   1  24
TORSDOF 18
ENDMDL
MODEL 2
REMARK VINA RESULT:     -11.8      1.565      1.800
REMARK SMILES Cc1cc(C(=O)N[C@H](CC(C)C)C(=O)NCCCCNC(=O)c2ccc(-c3c4nc(c(-c5cccc(S(=O)(=O)[O-])c5F)c5ccc([nH]5)c(-c5cccc(S(=O)(=O)[O-])c5F)c5nc(c(-c6cccc(S(=O)(=O)[O-])c6F)c6ccc3[nH]6)C=C5)C=C4)cc2)sc1Br
REMARK SMILES IDX 18 1 17 2 16 3 15 4 13 5 14 6 8 8 7 9 5 10 6 11 4 13 1 14
REMARK SMILES IDX 2 15 3 16 87 17 86 18 88 19 9 20 10 21 11 22 12 23 19 24
REMARK SMILES IDX 20 25 21 26 22 28 23 29 24 30 85 31 25 32 84 33 26 34 27 35
REMARK SMILES IDX 28 36 78 37 29 38 83 39 77 40 79 41 30 42 82 43 76 44 75 45
REMARK SMILES IDX 31 47 63 48 43 49 62 50 44 51 47 52 61 53 80 54 45 55 46 56
REMARK SMILES IDX 60 58 81 59 48 60 32 61 33 62 41 63 34 64 36 65 42 66 35 67
REMARK SMILES IDX 37 68 38 69 39 70 40 71 64 72 65 73 73 74 66 75 68 76 74 77
REMARK SMILES IDX 67 78 69 79 70 80 71 81 72 82 49 83 50 84 58 85 51 86 53 87
REMARK SMILES IDX 59 88 52 89 54 90 55 91 56 92 57 93
REMARK H PARENT 15 7 7 12 20 27 79 46 47 57
REMARK Flexibility Score: inf
ROOT
ATOM      1  C   UNL A   1      37.415  20.052  24.906  1.00  0.00     0.023 C 
ENDROOT
BRANCH   1   2
ATOM      2  C   UNL A   1      36.363  21.159  24.768  1.00  0.00     0.023 C 
BRANCH   2   3
ATOM      3  C   UNL A   1      35.284  21.175  25.857  1.00  0.00     0.116 C 
BRANCH   3   4
ATOM      4  N   UNL A   1      34.198  20.274  25.544  1.00  0.00    -0.354 N 
ATOM      5  C   UNL A   1      32.879  20.519  25.300  1.00  0.00     0.242 C 
ATOM      6  O   UNL A   1      32.119  19.547  25.248  1.00  0.00    -0.273 OA
ATOM      7  H   UNL A   1      34.452  19.325  25.500  1.00  0.00     0.163 HD
BRANCH   5   8
ATOM      8  C   UNL A   1      32.312  21.951  25.143  1.00  0.00     0.171 C 
BRANCH   8   9
ATOM      9  N   UNL A   1      31.293  22.220  26.138  1.00  0.00    -0.340 N 
ATOM     10  C   UNL A   1      30.817  23.381  26.704  1.00  0.00     0.262 C 
ATOM     11  O   UNL A   1      29.863  23.195  27.467  1.00  0.00    -0.268 OA
ATOM     12  H   UNL A   1      30.851  21.409  26.477  1.00  0.00     0.164 HD
BRANCH  10  13
ATOM     13  C   UNL A   1      31.334  24.706  26.371  1.00  0.00     0.093 A 
ATOM     14  C   UNL A   1      33.940  27.389  25.875  1.00  0.00     0.046 C 
ATOM     15  C   UNL A   1      32.657  26.630  25.941  1.00  0.00    -0.025 A 
ATOM     16  C   UNL A   1      32.565  25.319  26.534  1.00  0.00     0.030 A 
ATOM     17  C   UNL A   1      31.413  27.024  25.502  1.00  0.00     0.074 A 
ATOM     18  S   UNL A   1      30.228  25.827  25.661  1.00  0.00    -0.123 S 
ATOM     19  Br  UNL A   1      31.008  28.709  24.776  1.00  0.00    -0.039 Br
ENDBRANCH  10  13
ENDBRANCH   8   9
BRANCH   8  20
ATOM     20  C   UNL A   1      31.994  22.354  23.687  1.00  0.00     0.038 C 
BRANCH  20  21
ATOM     21  C   UNL A   1      32.749  23.494  22.972  1.00  0.00    -0.015 C 
ATOM     22  C   UNL A   1      33.386  23.091  21.641  1.00  0.00     0.007 C 
ATOM     23  C   UNL A   1      31.762  24.643  22.713  1.00  0.00     0.007 C 
ENDBRANCH  20  21
ENDBRANCH   8  20
ENDBRANCH   5   8
ENDBRANCH   3   4
ENDBRANCH   2   3
ENDBRANCH   1   2
BRANCH   1  24
ATOM     24  C   UNL A   1      38.760  20.522  25.452  1.00  0.00     0.116 C 
BRANCH  24  25
ATOM     25  N   UNL A   1      39.700  19.421  25.649  1.00  0.00    -0.352 N 
ATOM     26  C   UNL A   1      41.050  19.502  25.935  1.00  0.00     0.251 C 
ATOM     27  H   UNL A   1      39.327  18.513  25.570  1.00  0.00     0.163 HD
ATOM     28  O   UNL A   1      41.801  18.576  25.678  1.00  0.00    -0.269 OA
BRANCH  26  29
ATOM     29  C   UNL A   1      41.560  20.731  26.573  1.00  0.00     0.039 A 
ATOM     30  C   UNL A   1      42.086  21.771  25.804  1.00  0.00     0.014 A 
ATOM     31  C   UNL A   1      41.470  20.836  27.960  1.00  0.00     0.014 A 
ATOM     32  C   UNL A   1      42.439  22.960  26.439  1.00  0.00     0.010 A 
ATOM     33  C   UNL A   1      41.716  22.043  28.571  1.00  0.00     0.010 A 
ATOM     34  C   UNL A   1      42.228  23.100  27.821  1.00  0.00    -0.014 A 
BRANCH  34  35
ATOM     35  C   UNL A   1      42.343  24.417  28.450  1.00  0.00     0.031 A 
ATOM     36  C   UNL A   1      41.178  25.307  28.174  1.00  0.00     0.074 A 
ATOM     37  C   UNL A   1      43.283  24.718  29.375  1.00  0.00     0.049 A 
ATOM     38  N   UNL A   1      41.163  26.397  27.479  1.00  0.00    -0.248 NA
ATOM     39  C   UNL A   1      39.835  24.838  28.562  1.00  0.00     0.031 C 
ATOM     40  C   UNL A   1      44.282  23.810  29.953  1.00  0.00     0.029 A 
ATOM     41  N   UNL A   1      43.453  25.853  30.113  1.00  0.00    -0.354 N 
ATOM     42  C   UNL A   1      39.862  26.888  27.585  1.00  0.00     0.074 A 
ATOM     43  C   UNL A   1      39.058  25.787  28.036  1.00  0.00     0.031 C 
ATOM     44  C   UNL A   1      44.755  24.333  31.105  1.00  0.00     0.029 A 
ATOM     45  C   UNL A   1      44.224  25.674  31.263  1.00  0.00     0.049 A 
ATOM     46  H   UNL A   1      43.065  26.722  29.857  1.00  0.00     0.167 HD
ATOM     47  C   UNL A   1      39.623  28.230  27.594  1.00  0.00     0.034 A 
ATOM     48  C   UNL A   1      44.381  26.543  32.294  1.00  0.00     0.034 A 
ATOM     49  C   UNL A   1      40.774  28.957  27.113  1.00  0.00     0.049 A 
ATOM     50  C   UNL A   1      43.988  27.877  31.799  1.00  0.00     0.074 A 
ATOM     51  C   UNL A   1      41.525  28.971  25.955  1.00  0.00     0.029 A 
ATOM     52  N   UNL A   1      41.542  29.564  28.075  1.00  0.00    -0.354 N 
ATOM     53  N   UNL A   1      44.661  28.543  30.906  1.00  0.00    -0.248 NA
ATOM     54  C   UNL A   1      42.616  28.307  32.005  1.00  0.00     0.031 C 
ATOM     55  C   UNL A   1      42.867  29.186  26.388  1.00  0.00     0.029 A 
ATOM     56  C   UNL A   1      42.858  29.370  27.772  1.00  0.00     0.049 A 
ATOM     57  H   UNL A   1      41.199  30.058  28.855  1.00  0.00     0.167 HD
ATOM     58  C   UNL A   1      43.683  29.116  30.109  1.00  0.00     0.074 A 
ATOM     59  C   UNL A   1      42.462  29.058  30.911  1.00  0.00     0.031 C 
ATOM     60  C   UNL A   1      43.899  29.296  28.773  1.00  0.00     0.034 A 
BRANCH  47  61
ATOM     61  C   UNL A   1      38.569  28.928  28.444  1.00  0.00     0.023 A 
ATOM     62  C   UNL A   1      37.829  29.961  27.817  1.00  0.00     0.012 A 
ATOM     63  C   UNL A   1      38.474  28.856  29.853  1.00  0.00     0.148 A 
ATOM     64  C   UNL A   1      37.123  30.920  28.552  1.00  0.00     0.002 A 
ATOM     65  C   UNL A   1      37.709  29.767  30.576  1.00  0.00     0.091 A 
ATOM     66  F   UNL A   1      39.213  27.983  30.538  1.00  0.00    -0.205 F 
ATOM     67  C   UNL A   1      37.064  30.824  29.935  1.00  0.00     0.022 A 
BRANCH  65  68
ATOM     68  S   UNL A   1      37.558  29.665  32.367  1.00  0.00     0.127 S 
ATOM     69  O   UNL A   1      38.764  30.363  32.800  1.00  0.00    -0.237 OA
ATOM     70  O   UNL A   1      36.305  30.383  32.598  1.00  0.00    -0.237 OA
ATOM     71  O   UNL A   1      37.497  28.242  32.679  1.00  0.00    -0.744 OA
ENDBRANCH  65  68
ENDBRANCH  47  61
BRANCH  48  72
ATOM     72  C   UNL A   1      44.644  26.323  33.737  1.00  0.00     0.023 A 
ATOM     73  C   UNL A   1      45.918  26.632  34.264  1.00  0.00     0.012 A 
ATOM     74  C   UNL A   1      43.581  26.125  34.642  1.00  0.00     0.148 A 
ATOM     75  C   UNL A   1      46.113  26.790  35.640  1.00  0.00     0.002 A 
ATOM     76  C   UNL A   1      43.780  26.285  36.011  1.00  0.00     0.091 A 
ATOM     77  F   UNL A   1      42.358  25.880  34.154  1.00  0.00    -0.205 F 
ATOM     78  C   UNL A   1      45.043  26.630  36.513  1.00  0.00     0.022 A 
BRANCH  76  79
ATOM     79  S   UNL A   1      42.438  26.149  37.200  1.00  0.00     0.127 S 
ATOM     80  O   UNL A   1      41.946  24.794  36.943  1.00  0.00    -0.237 OA
ATOM     81  O   UNL A   1      43.142  26.314  38.469  1.00  0.00    -0.237 OA
ATOM     82  O   UNL A   1      41.499  27.208  36.857  1.00  0.00    -0.744 OA
ENDBRANCH  76  79
ENDBRANCH  48  72
BRANCH  60  83
ATOM     83  C   UNL A   1      45.316  29.203  28.269  1.00  0.00     0.023 A 
ATOM     84  C   UNL A   1      46.233  30.273  28.328  1.00  0.00     0.012 A 
ATOM     85  C   UNL A   1      45.767  27.946  27.834  1.00  0.00     0.148 A 
ATOM     86  C   UNL A   1      47.562  30.097  27.929  1.00  0.00     0.002 A 
ATOM     87  C   UNL A   1      47.098  27.763  27.487  1.00  0.00     0.091 A 
ATOM     88  F   UNL A   1      44.881  26.940  27.778  1.00  0.00    -0.205 F 
ATOM     89  C   UNL A   1      47.998  28.838  27.520  1.00  0.00     0.022 A 
BRANCH  87  90
ATOM     90  S   UNL A   1      47.726  26.137  27.069  1.00  0.00     0.127 S 
ATOM     91  O   UNL A   1      49.171  26.343  27.125  1.00  0.00    -0.237 OA
ATOM     92  O   UNL A   1      47.184  25.302  28.144  1.00  0.00    -0.237 OA
ATOM     93  O   UNL A   1      47.182  25.827  25.752  1.00  0.00    -0.744 OA
ENDBRANCH  87  90
ENDBRANCH  60  83
ENDBRANCH  34  35
ENDBRANCH  26  29
ENDBRANCH  24  25
ENDBRANCH   1  24
TORSDOF 18
ENDMDL
MODEL 3
REMARK VINA RESULT:     -11.2      3.865      9.182
REMARK SMILES Cc1cc(C(=O)N[C@H](CC(C)C)C(=O)NCCCCNC(=O)c2ccc(-c3c4nc(c(-c5cccc(S(=O)(=O)[O-])c5F)c5ccc([nH]5)c(-c5cccc(S(=O)(=O)[O-])c5F)c5nc(c(-c6cccc(S(=O)(=O)[O-])c6F)c6ccc3[nH]6)C=C5)C=C4)cc2)sc1Br
REMARK SMILES IDX 18 1 17 2 16 3 15 4 13 5 14 6 8 8 7 9 5 10 6 11 4 13 1 14
REMARK SMILES IDX 2 15 3 16 87 17 86 18 88 19 9 20 10 21 11 22 12 23 19 24
REMARK SMILES IDX 20 25 21 26 22 28 23 29 24 30 85 31 25 32 84 33 26 34 27 35
REMARK SMILES IDX 28 36 78 37 29 38 83 39 77 40 79 41 30 42 82 43 76 44 75 45
REMARK SMILES IDX 31 47 63 48 43 49 62 50 44 51 47 52 61 53 80 54 45 55 46 56
REMARK SMILES IDX 60 58 81 59 48 60 32 61 33 62 41 63 34 64 36 65 42 66 35 67
REMARK SMILES IDX 37 68 38 69 39 70 40 71 64 72 65 73 73 74 66 75 68 76 74 77
REMARK SMILES IDX 67 78 69 79 70 80 71 81 72 82 49 83 50 84 58 85 51 86 53 87
REMARK SMILES IDX 59 88 52 89 54 90 55 91 56 92 57 93
REMARK H PARENT 15 7 7 12 20 27 79 46 47 57
REMARK Flexibility Score: inf
ROOT
ATOM      1  C   UNL A   1      31.468  32.025  26.650  1.00  0.00     0.023 C 
ENDROOT
BRANCH   1   2
ATOM      2  C   UNL A   1      31.689  30.635  26.041  1.00  0.00     0.023 C 
BRANCH   2   3
ATOM      3  C   UNL A   1      31.870  29.499  27.054  1.00  0.00     0.116 C 
BRANCH   3   4
ATOM      4  N   UNL A   1      32.902  28.576  26.640  1.00  0.00    -0.354 N 
ATOM      5  C   UNL A   1      32.831  27.265  26.271  1.00  0.00     0.242 C 
ATOM      6  O   UNL A   1      33.894  26.649  26.147  1.00  0.00    -0.273 OA
ATOM      7  H   UNL A   1      33.810  28.957  26.622  1.00  0.00     0.163 HD
BRANCH   5   8
ATOM      8  C   UNL A   1      31.485  26.532  26.059  1.00  0.00     0.171 C 
BRANCH   8   9
ATOM      9  N   UNL A   1      31.433  25.303  26.826  1.00  0.00    -0.340 N 
ATOM     10  C   UNL A   1      31.966  24.050  26.628  1.00  0.00     0.262 C 
ATOM     11  O   UNL A   1      31.766  23.281  27.574  1.00  0.00    -0.268 OA
ATOM     12  H   UNL A   1      30.913  25.381  27.657  1.00  0.00     0.164 HD
BRANCH  10  13
ATOM     13  C   UNL A   1      32.759  23.692  25.455  1.00  0.00     0.093 A 
ATOM     14  C   UNL A   1      33.492  23.163  21.791  1.00  0.00     0.046 C 
ATOM     15  C   UNL A   1      33.598  23.254  23.277  1.00  0.00    -0.025 A 
ATOM     16  C   UNL A   1      32.452  23.488  24.120  1.00  0.00     0.030 A 
ATOM     17  C   UNL A   1      34.723  23.116  24.058  1.00  0.00     0.074 A 
ATOM     18  S   UNL A   1      34.444  23.397  25.703  1.00  0.00    -0.123 S 
ATOM     19  Br  UNL A   1      36.434  22.673  23.419  1.00  0.00    -0.039 Br
ENDBRANCH  10  13
ENDBRANCH   8   9
BRANCH   8  20
ATOM     20  C   UNL A   1      31.025  26.458  24.586  1.00  0.00     0.038 C 
BRANCH  20  21
ATOM     21  C   UNL A   1      30.093  27.521  23.968  1.00  0.00    -0.015 C 
ATOM     22  C   UNL A   1      30.611  28.134  22.667  1.00  0.00     0.007 C 
ATOM     23  C   UNL A   1      28.728  26.868  23.690  1.00  0.00     0.007 C 
ENDBRANCH  20  21
ENDBRANCH   8  20
ENDBRANCH   5   8
ENDBRANCH   3   4
ENDBRANCH   2   3
ENDBRANCH   1   2
BRANCH   1  24
ATOM     24  C   UNL A   1      32.700  32.627  27.318  1.00  0.00     0.116 C 
BRANCH  24  25
ATOM     25  N   UNL A   1      32.483  34.002  27.762  1.00  0.00    -0.352 N 
ATOM     26  C   UNL A   1      33.113  34.666  28.797  1.00  0.00     0.251 C 
ATOM     27  H   UNL A   1      31.807  34.516  27.264  1.00  0.00     0.163 HD
ATOM     28  O   UNL A   1      32.590  35.628  29.334  1.00  0.00    -0.269 OA
BRANCH  26  29
ATOM     29  C   UNL A   1      34.442  34.194  29.228  1.00  0.00     0.039 A 
ATOM     30  C   UNL A   1      34.581  33.365  30.342  1.00  0.00     0.014 A 
ATOM     31  C   UNL A   1      35.550  34.573  28.471  1.00  0.00     0.014 A 
ATOM     32  C   UNL A   1      35.838  32.843  30.637  1.00  0.00     0.010 A 
ATOM     33  C   UNL A   1      36.768  33.975  28.697  1.00  0.00     0.010 A 
ATOM     34  C   UNL A   1      36.925  33.131  29.794  1.00  0.00    -0.014 A 
BRANCH  34  35
ATOM     35  C   UNL A   1      38.179  32.388  29.935  1.00  0.00     0.031 A 
ATOM     36  C   UNL A   1      38.118  31.012  29.361  1.00  0.00     0.074 A 
ATOM     37  C   UNL A   1      39.341  32.959  30.326  1.00  0.00     0.049 A 
ATOM     38  N   UNL A   1      38.174  29.887  29.995  1.00  0.00    -0.248 NA
ATOM     39  C   UNL A   1      37.770  30.868  27.935  1.00  0.00     0.031 C 
ATOM     40  C   UNL A   1      39.581  34.381  30.608  1.00  0.00     0.029 A 
ATOM     41  N   UNL A   1      40.594  32.426  30.407  1.00  0.00    -0.354 N 
ATOM     42  C   UNL A   1      38.150  28.902  29.008  1.00  0.00     0.074 A 
ATOM     43  C   UNL A   1      37.659  29.542  27.820  1.00  0.00     0.031 C 
ATOM     44  C   UNL A   1      40.907  34.633  30.563  1.00  0.00     0.029 A 
ATOM     45  C   UNL A   1      41.617  33.377  30.416  1.00  0.00     0.049 A 
ATOM     46  H   UNL A   1      40.763  31.457  30.455  1.00  0.00     0.167 HD
ATOM     47  C   UNL A   1      38.830  27.733  29.175  1.00  0.00     0.034 A 
ATOM     48  C   UNL A   1      42.949  33.157  30.267  1.00  0.00     0.034 A 
ATOM     49  C   UNL A   1      39.192  27.546  30.560  1.00  0.00     0.049 A 
ATOM     50  C   UNL A   1      43.186  31.729  30.557  1.00  0.00     0.074 A 
ATOM     51  C   UNL A   1      38.515  27.470  31.760  1.00  0.00     0.029 A 
ATOM     52  N   UNL A   1      40.502  27.806  30.875  1.00  0.00    -0.354 N 
ATOM     53  N   UNL A   1      43.054  31.202  31.740  1.00  0.00    -0.248 NA
ATOM     54  C   UNL A   1      43.186  30.795  29.446  1.00  0.00     0.031 C 
ATOM     55  C   UNL A   1      39.362  28.122  32.704  1.00  0.00     0.029 A 
ATOM     56  C   UNL A   1      40.541  28.491  32.054  1.00  0.00     0.049 A 
ATOM     57  H   UNL A   1      41.285  27.542  30.339  1.00  0.00     0.167 HD
ATOM     58  C   UNL A   1      42.465  29.973  31.492  1.00  0.00     0.074 A 
ATOM     59  C   UNL A   1      42.703  29.719  30.072  1.00  0.00     0.031 C 
ATOM     60  C   UNL A   1      41.585  29.435  32.388  1.00  0.00     0.034 A 
BRANCH  47  61
ATOM     61  C   UNL A   1      39.573  26.985  28.075  1.00  0.00     0.023 A 
ATOM     62  C   UNL A   1      39.364  25.585  28.006  1.00  0.00     0.012 A 
ATOM     63  C   UNL A   1      40.663  27.493  27.331  1.00  0.00     0.148 A 
ATOM     64  C   UNL A   1      40.242  24.736  27.323  1.00  0.00     0.002 A 
ATOM     65  C   UNL A   1      41.491  26.654  26.591  1.00  0.00     0.091 A 
ATOM     66  F   UNL A   1      40.999  28.781  27.416  1.00  0.00    -0.205 F 
ATOM     67  C   UNL A   1      41.309  25.272  26.615  1.00  0.00     0.022 A 
BRANCH  65  68
ATOM     68  S   UNL A   1      42.862  27.296  25.618  1.00  0.00     0.127 S 
ATOM     69  O   UNL A   1      43.387  26.075  25.014  1.00  0.00    -0.237 OA
ATOM     70  O   UNL A   1      42.172  28.199  24.697  1.00  0.00    -0.237 OA
ATOM     71  O   UNL A   1      43.742  27.968  26.567  1.00  0.00    -0.744 OA
ENDBRANCH  65  68
ENDBRANCH  47  61
BRANCH  48  72
ATOM     72  C   UNL A   1      44.030  34.000  29.700  1.00  0.00     0.023 A 
ATOM     73  C   UNL A   1      44.893  34.699  30.572  1.00  0.00     0.012 A 
ATOM     74  C   UNL A   1      44.414  33.868  28.350  1.00  0.00     0.148 A 
ATOM     75  C   UNL A   1      46.120  35.202  30.128  1.00  0.00     0.002 A 
ATOM     76  C   UNL A   1      45.638  34.369  27.912  1.00  0.00     0.091 A 
ATOM     77  F   UNL A   1      43.628  33.166  27.523  1.00  0.00    -0.205 F 
ATOM     78  C   UNL A   1      46.500  35.026  28.802  1.00  0.00     0.022 A 
BRANCH  76  79
ATOM     79  S   UNL A   1      46.225  34.136  26.229  1.00  0.00     0.127 S 
ATOM     80  O   UNL A   1      45.208  34.852  25.455  1.00  0.00    -0.237 OA
ATOM     81  O   UNL A   1      47.531  34.788  26.272  1.00  0.00    -0.237 OA
ATOM     82  O   UNL A   1      46.245  32.696  26.014  1.00  0.00    -0.744 OA
ENDBRANCH  76  79
ENDBRANCH  48  72
BRANCH  60  83
ATOM     83  C   UNL A   1      41.552  30.016  33.778  1.00  0.00     0.023 A 
ATOM     84  C   UNL A   1      42.462  29.651  34.793  1.00  0.00     0.012 A 
ATOM     85  C   UNL A   1      40.644  31.058  34.024  1.00  0.00     0.148 A 
ATOM     86  C   UNL A   1      42.439  30.293  36.036  1.00  0.00     0.002 A 
ATOM     87  C   UNL A   1      40.658  31.726  35.240  1.00  0.00     0.091 A 
ATOM     88  F   UNL A   1      39.782  31.389  33.050  1.00  0.00    -0.205 F 
ATOM     89  C   UNL A   1      41.545  31.339  36.255  1.00  0.00     0.022 A 
BRANCH  87  90
ATOM     90  S   UNL A   1      39.608  33.151  35.521  1.00  0.00     0.127 S 
ATOM     91  O   UNL A   1      39.875  33.456  36.925  1.00  0.00    -0.237 OA
ATOM     92  O   UNL A   1      40.141  34.130  34.571  1.00  0.00    -0.237 OA
ATOM     93  O   UNL A   1      38.251  32.712  35.216  1.00  0.00    -0.744 OA
ENDBRANCH  87  90
ENDBRANCH  60  83
ENDBRANCH  34  35
ENDBRANCH  26  29
ENDBRANCH  24  25
ENDBRANCH   1  24
TORSDOF 18
ENDMDL
