MODEL 1
REMARK VINA RESULT:     -12.8      0.000      0.000
REMARK SMILES Cc1c(Cl)cc2c(c1C)O[C@H](C(F)(F)F)C(C(=O)NCCCCNC(=O)c1ccc(-c3c4nc(c(-c5cccc(S(=O)(=O)[O-])c5F)c5ccc([nH]5)c(-c5cccc(S(=O)(=O)[O-])c5F)c5nc(c(-c6cccc(S(=O)(=O)[O-])c6F)c6ccc3[nH]6)C=C5)C=C4)cc1)=C2
REMARK SMILES IDX 22 1 21 2 20 3 19 4 17 5 18 6 16 8 1 9 2 10 3 11 8 12 4 13
REMARK SMILES IDX 5 14 7 15 9 16 6 17 10 18 90 19 11 20 12 21 13 22 14 23
REMARK SMILES IDX 15 24 23 25 24 26 25 27 26 29 27 30 28 31 89 32 29 33 88 34
REMARK SMILES IDX 30 35 31 36 32 37 82 38 33 39 87 40 81 41 83 42 34 43 86 44
REMARK SMILES IDX 80 45 79 46 35 48 67 49 47 50 66 51 48 52 51 53 65 54 84 55
REMARK SMILES IDX 49 56 50 57 64 59 85 60 52 61 36 62 37 63 45 64 38 65 40 66
REMARK SMILES IDX 46 67 39 68 41 69 42 70 43 71 44 72 68 73 69 74 77 75 70 76
REMARK SMILES IDX 72 77 78 78 71 79 73 80 74 81 75 82 76 83 53 84 54 85 62 86
REMARK SMILES IDX 55 87 57 88 63 89 56 90 58 91 59 92 60 93 61 94
REMARK H PARENT 19 7 24 28 83 47 51 58
REMARK Flexibility Score: inf
ROOT
ATOM      1  C   UNL A   1      32.223  28.075  25.171  1.00  0.00     0.023 C 
ENDROOT
BRANCH   1   2
ATOM      2  C   UNL A   1      31.144  28.067  24.085  1.00  0.00     0.023 C 
BRANCH   2   3
ATOM      3  C   UNL A   1      30.507  26.701  23.848  1.00  0.00     0.116 C 
BRANCH   3   4
ATOM      4  N   UNL A   1      30.049  26.091  25.084  1.00  0.00    -0.352 N 
ATOM      5  C   UNL A   1      30.411  25.048  25.867  1.00  0.00     0.251 C 
ATOM      6  O   UNL A   1      29.720  24.875  26.875  1.00  0.00    -0.270 OA
ATOM      7  H   UNL A   1      29.265  26.561  25.450  1.00  0.00     0.163 HD
BRANCH   5   8
ATOM      8  C   UNL A   1      31.556  24.126  25.601  1.00  0.00     0.067 C 
ATOM      9  C   UNL A   1      37.409  21.240  25.025  1.00  0.00     0.046 C 
ATOM     10  C   UNL A   1      36.180  22.072  25.288  1.00  0.00    -0.026 A 
ATOM     11  C   UNL A   1      36.324  23.391  25.774  1.00  0.00     0.045 A 
ATOM     12  C   UNL A   1      34.873  21.559  25.107  1.00  0.00    -0.004 A 
ATOM     13  Cl  UNL A   1      37.882  24.073  26.110  1.00  0.00    -0.084 Cl
ATOM     14  C   UNL A   1      35.214  24.204  26.021  1.00  0.00     0.032 A 
ATOM     15  C   UNL A   1      33.769  22.410  25.330  1.00  0.00     0.131 A 
ATOM     16  C   UNL A   1      34.593  20.157  24.627  1.00  0.00     0.049 C 
ATOM     17  C   UNL A   1      33.931  23.719  25.787  1.00  0.00     0.019 A 
ATOM     18  O   UNL A   1      32.521  21.883  25.127  1.00  0.00    -0.475 OA
ATOM     19  C   UNL A   1      32.756  24.543  26.045  1.00  0.00     0.025 C 
ATOM     20  C   UNL A   1      31.450  22.828  24.855  1.00  0.00     0.314 C 
BRANCH  20  21
ATOM     21  C   UNL A   1      31.319  23.022  23.332  1.00  0.00     0.429 C 
ATOM     22  F   UNL A   1      30.070  23.451  23.018  1.00  0.00    -0.167 F 
ATOM     23  F   UNL A   1      32.177  23.948  22.848  1.00  0.00    -0.167 F 
ATOM     24  F   UNL A   1      31.537  21.881  22.640  1.00  0.00    -0.167 F 
ENDBRANCH  20  21
ENDBRANCH   5   8
ENDBRANCH   3   4
ENDBRANCH   2   3
ENDBRANCH   1   2
BRANCH   1  25
ATOM     25  C   UNL A   1      33.118  29.314  25.201  1.00  0.00     0.116 C 
BRANCH  25  26
ATOM     26  N   UNL A   1      32.496  30.473  25.828  1.00  0.00    -0.352 N 
ATOM     27  C   UNL A   1      32.975  31.222  26.877  1.00  0.00     0.251 C 
ATOM     28  H   UNL A   1      31.629  30.754  25.456  1.00  0.00     0.163 HD
ATOM     29  O   UNL A   1      32.299  32.126  27.359  1.00  0.00    -0.269 OA
BRANCH  27  30
ATOM     30  C   UNL A   1      34.298  30.892  27.438  1.00  0.00     0.039 A 
ATOM     31  C   UNL A   1      35.228  31.919  27.626  1.00  0.00     0.014 A 
ATOM     32  C   UNL A   1      34.585  29.586  27.840  1.00  0.00     0.014 A 
ATOM     33  C   UNL A   1      36.425  31.646  28.289  1.00  0.00     0.010 A 
ATOM     34  C   UNL A   1      35.752  29.330  28.551  1.00  0.00     0.010 A 
ATOM     35  C   UNL A   1      36.678  30.358  28.788  1.00  0.00    -0.014 A 
BRANCH  35  36
ATOM     36  C   UNL A   1      37.894  30.057  29.581  1.00  0.00     0.031 A 
ATOM     37  C   UNL A   1      38.924  29.109  29.039  1.00  0.00     0.074 A 
ATOM     38  C   UNL A   1      38.013  30.553  30.828  1.00  0.00     0.049 A 
ATOM     39  N   UNL A   1      39.991  28.631  29.622  1.00  0.00    -0.248 NA
ATOM     40  C   UNL A   1      38.711  28.612  27.669  1.00  0.00     0.031 C 
ATOM     41  C   UNL A   1      37.044  31.434  31.483  1.00  0.00     0.029 A 
ATOM     42  N   UNL A   1      38.985  30.362  31.777  1.00  0.00    -0.354 N 
ATOM     43  C   UNL A   1      40.560  27.755  28.707  1.00  0.00     0.074 A 
ATOM     44  C   UNL A   1      39.703  27.742  27.542  1.00  0.00     0.031 C 
ATOM     45  C   UNL A   1      37.472  31.709  32.726  1.00  0.00     0.029 A 
ATOM     46  C   UNL A   1      38.726  31.002  32.967  1.00  0.00     0.049 A 
ATOM     47  H   UNL A   1      39.791  29.819  31.622  1.00  0.00     0.167 HD
ATOM     48  C   UNL A   1      41.711  27.050  28.816  1.00  0.00     0.034 A 
ATOM     49  C   UNL A   1      39.419  31.014  34.123  1.00  0.00     0.034 A 
ATOM     50  C   UNL A   1      42.581  27.103  29.958  1.00  0.00     0.049 A 
ATOM     51  C   UNL A   1      40.712  30.250  34.205  1.00  0.00     0.074 A 
ATOM     52  C   UNL A   1      43.800  26.474  30.140  1.00  0.00     0.029 A 
ATOM     53  N   UNL A   1      42.330  27.830  31.112  1.00  0.00    -0.354 N 
ATOM     54  N   UNL A   1      41.300  29.525  33.285  1.00  0.00    -0.248 NA
ATOM     55  C   UNL A   1      41.455  30.329  35.472  1.00  0.00     0.031 C 
ATOM     56  C   UNL A   1      44.283  26.817  31.406  1.00  0.00     0.029 A 
ATOM     57  C   UNL A   1      43.372  27.670  32.009  1.00  0.00     0.049 A 
ATOM     58  H   UNL A   1      41.528  28.379  31.270  1.00  0.00     0.167 HD
ATOM     59  C   UNL A   1      42.494  29.086  33.847  1.00  0.00     0.074 A 
ATOM     60  C   UNL A   1      42.555  29.646  35.182  1.00  0.00     0.031 C 
ATOM     61  C   UNL A   1      43.442  28.278  33.314  1.00  0.00     0.034 A 
BRANCH  48  62
ATOM     62  C   UNL A   1      42.130  26.216  27.635  1.00  0.00     0.023 A 
ATOM     63  C   UNL A   1      42.896  26.810  26.610  1.00  0.00     0.012 A 
ATOM     64  C   UNL A   1      41.825  24.843  27.562  1.00  0.00     0.148 A 
ATOM     65  C   UNL A   1      43.326  26.060  25.518  1.00  0.00     0.002 A 
ATOM     66  C   UNL A   1      42.294  24.091  26.489  1.00  0.00     0.091 A 
ATOM     67  F   UNL A   1      41.074  24.300  28.530  1.00  0.00    -0.205 F 
ATOM     68  C   UNL A   1      43.037  24.700  25.463  1.00  0.00     0.022 A 
BRANCH  66  69
ATOM     69  S   UNL A   1      42.039  22.317  26.365  1.00  0.00     0.127 S 
ATOM     70  O   UNL A   1      42.747  22.003  25.125  1.00  0.00    -0.237 OA
ATOM     71  O   UNL A   1      42.690  21.826  27.580  1.00  0.00    -0.237 OA
ATOM     72  O   UNL A   1      40.597  22.123  26.331  1.00  0.00    -0.744 OA
ENDBRANCH  66  69
ENDBRANCH  48  62
BRANCH  49  73
ATOM     73  C   UNL A   1      38.941  31.855  35.258  1.00  0.00     0.023 A 
ATOM     74  C   UNL A   1      38.979  33.257  35.130  1.00  0.00     0.012 A 
ATOM     75  C   UNL A   1      38.387  31.286  36.421  1.00  0.00     0.148 A 
ATOM     76  C   UNL A   1      38.490  34.079  36.147  1.00  0.00     0.002 A 
ATOM     77  C   UNL A   1      37.850  32.109  37.406  1.00  0.00     0.091 A 
ATOM     78  F   UNL A   1      38.370  29.951  36.529  1.00  0.00    -0.205 F 
ATOM     79  C   UNL A   1      37.914  33.506  37.277  1.00  0.00     0.022 A 
BRANCH  77  80
ATOM     80  S   UNL A   1      36.961  31.463  38.827  1.00  0.00     0.127 S 
ATOM     81  O   UNL A   1      37.928  31.662  39.902  1.00  0.00    -0.237 OA
ATOM     82  O   UNL A   1      35.792  32.343  38.876  1.00  0.00    -0.237 OA
ATOM     83  O   UNL A   1      36.653  30.077  38.501  1.00  0.00    -0.744 OA
ENDBRANCH  77  80
ENDBRANCH  49  73
BRANCH  61  84
ATOM     84  C   UNL A   1      44.645  27.952  34.160  1.00  0.00     0.023 A 
ATOM     85  C   UNL A   1      45.737  28.841  34.184  1.00  0.00     0.012 A 
ATOM     86  C   UNL A   1      44.652  26.824  35.005  1.00  0.00     0.148 A 
ATOM     87  C   UNL A   1      46.827  28.602  35.021  1.00  0.00     0.002 A 
ATOM     88  C   UNL A   1      45.721  26.617  35.869  1.00  0.00     0.091 A 
ATOM     89  F   UNL A   1      43.613  25.977  34.952  1.00  0.00    -0.205 F 
ATOM     90  C   UNL A   1      46.813  27.500  35.871  1.00  0.00     0.022 A 
BRANCH  88  91
ATOM     91  S   UNL A   1      45.734  25.278  37.067  1.00  0.00     0.127 S 
ATOM     92  O   UNL A   1      45.889  24.108  36.206  1.00  0.00    -0.237 OA
ATOM     93  O   UNL A   1      46.908  25.595  37.882  1.00  0.00    -0.237 OA
ATOM     94  O   UNL A   1      44.467  25.374  37.781  1.00  0.00    -0.744 OA
ENDBRANCH  88  91
ENDBRANCH  61  84
ENDBRANCH  35  36
ENDBRANCH  27  30
ENDBRANCH  25  26
ENDBRANCH   1  25
TORSDOF 15
ENDMDL
MODEL 2
REMARK VINA RESULT:     -12.7      2.879      8.044
REMARK SMILES Cc1c(Cl)cc2c(c1C)O[C@H](C(F)(F)F)C(C(=O)NCCCCNC(=O)c1ccc(-c3c4nc(c(-c5cccc(S(=O)(=O)[O-])c5F)c5ccc([nH]5)c(-c5cccc(S(=O)(=O)[O-])c5F)c5nc(c(-c6cccc(S(=O)(=O)[O-])c6F)c6ccc3[nH]6)C=C5)C=C4)cc1)=C2
REMARK SMILES IDX 22 1 21 2 20 3 19 4 17 5 18 6 16 8 1 9 2 10 3 11 8 12 4 13
REMARK SMILES IDX 5 14 7 15 9 16 6 17 10 18 90 19 11 20 12 21 13 22 14 23
REMARK SMILES IDX 15 24 23 25 24 26 25 27 26 29 27 30 28 31 89 32 29 33 88 34
REMARK SMILES IDX 30 35 31 36 32 37 82 38 33 39 87 40 81 41 83 42 34 43 86 44
REMARK SMILES IDX 80 45 79 46 35 48 67 49 47 50 66 51 48 52 51 53 65 54 84 55
REMARK SMILES IDX 49 56 50 57 64 59 85 60 52 61 36 62 37 63 45 64 38 65 40 66
REMARK SMILES IDX 46 67 39 68 41 69 42 70 43 71 44 72 68 73 69 74 77 75 70 76
REMARK SMILES IDX 72 77 78 78 71 79 73 80 74 81 75 82 76 83 53 84 54 85 62 86
REMARK SMILES IDX 55 87 57 88 63 89 56 90 58 91 59 92 60 93 61 94
REMARK H PARENT 19 7 24 28 83 47 51 58
REMARK Flexibility Score: inf
ROOT
ATOM      1  C   UNL A   1      33.706  28.629  25.301  1.00  0.00     0.023 C 
ENDROOT
BRANCH   1   2
ATOM      2  C   UNL A   1      32.395  28.920  24.564  1.00  0.00     0.023 C 
BRANCH   2   3
ATOM      3  C   UNL A   1      31.659  27.673  24.085  1.00  0.00     0.116 C 
BRANCH   3   4
ATOM      4  N   UNL A   1      30.874  27.063  25.144  1.00  0.00    -0.352 N 
ATOM      5  C   UNL A   1      30.853  25.882  25.806  1.00  0.00     0.251 C 
ATOM      6  O   UNL A   1      29.982  25.776  26.674  1.00  0.00    -0.270 OA
ATOM      7  H   UNL A   1      30.168  27.669  25.466  1.00  0.00     0.163 HD
BRANCH   5   8
ATOM      8  C   UNL A   1      31.785  24.741  25.564  1.00  0.00     0.067 C 
ATOM      9  C   UNL A   1      36.942  20.743  24.975  1.00  0.00     0.046 C 
ATOM     10  C   UNL A   1      35.910  21.813  25.225  1.00  0.00    -0.026 A 
ATOM     11  C   UNL A   1      36.328  23.107  25.607  1.00  0.00     0.045 A 
ATOM     12  C   UNL A   1      34.521  21.553  25.132  1.00  0.00    -0.004 A 
ATOM     13  Cl  UNL A   1      38.002  23.494  25.833  1.00  0.00    -0.084 Cl
ATOM     14  C   UNL A   1      35.408  24.134  25.837  1.00  0.00     0.032 A 
ATOM     15  C   UNL A   1      33.613  22.614  25.334  1.00  0.00     0.131 A 
ATOM     16  C   UNL A   1      33.955  20.204  24.766  1.00  0.00     0.049 C 
ATOM     17  C   UNL A   1      34.045  23.893  25.688  1.00  0.00     0.019 A 
ATOM     18  O   UNL A   1      32.279  22.327  25.218  1.00  0.00    -0.475 OA
ATOM     19  C   UNL A   1      33.064  24.944  25.930  1.00  0.00     0.025 C 
ATOM     20  C   UNL A   1      31.395  23.443  24.919  1.00  0.00     0.314 C 
BRANCH  20  21
ATOM     21  C   UNL A   1      31.225  23.561  23.393  1.00  0.00     0.429 C 
ATOM     22  F   UNL A   1      31.385  22.348  22.806  1.00  0.00    -0.167 F 
ATOM     23  F   UNL A   1      29.997  24.002  23.037  1.00  0.00    -0.167 F 
ATOM     24  F   UNL A   1      32.124  24.401  22.830  1.00  0.00    -0.167 F 
ENDBRANCH  20  21
ENDBRANCH   5   8
ENDBRANCH   3   4
ENDBRANCH   2   3
ENDBRANCH   1   2
BRANCH   1  25
ATOM     25  C   UNL A   1      33.665  28.818  26.818  1.00  0.00     0.116 C 
BRANCH  25  26
ATOM     26  N   UNL A   1      33.647  30.214  27.236  1.00  0.00    -0.352 N 
ATOM     27  C   UNL A   1      34.620  30.900  27.925  1.00  0.00     0.251 C 
ATOM     28  H   UNL A   1      32.842  30.727  26.997  1.00  0.00     0.163 HD
ATOM     29  O   UNL A   1      34.432  32.057  28.286  1.00  0.00    -0.269 OA
BRANCH  27  30
ATOM     30  C   UNL A   1      35.877  30.204  28.257  1.00  0.00     0.039 A 
ATOM     31  C   UNL A   1      36.941  30.262  27.353  1.00  0.00     0.014 A 
ATOM     32  C   UNL A   1      36.021  29.561  29.489  1.00  0.00     0.014 A 
ATOM     33  C   UNL A   1      38.180  29.734  27.718  1.00  0.00     0.010 A 
ATOM     34  C   UNL A   1      37.270  29.088  29.872  1.00  0.00     0.010 A 
ATOM     35  C   UNL A   1      38.362  29.177  28.994  1.00  0.00    -0.014 A 
BRANCH  35  36
ATOM     36  C   UNL A   1      39.688  28.696  29.451  1.00  0.00     0.031 A 
ATOM     37  C   UNL A   1      40.417  29.434  30.536  1.00  0.00     0.074 A 
ATOM     38  C   UNL A   1      40.275  27.664  28.814  1.00  0.00     0.049 A 
ATOM     39  N   UNL A   1      41.626  29.243  30.992  1.00  0.00    -0.248 NA
ATOM     40  C   UNL A   1      39.701  30.552  31.174  1.00  0.00     0.031 C 
ATOM     41  C   UNL A   1      39.688  26.912  27.704  1.00  0.00     0.029 A 
ATOM     42  N   UNL A   1      41.509  27.091  28.990  1.00  0.00    -0.354 N 
ATOM     43  C   UNL A   1      41.830  30.232  31.946  1.00  0.00     0.074 A 
ATOM     44  C   UNL A   1      40.632  31.042  31.979  1.00  0.00     0.031 C 
ATOM     45  C   UNL A   1      40.560  25.974  27.300  1.00  0.00     0.029 A 
ATOM     46  C   UNL A   1      41.777  26.078  28.098  1.00  0.00     0.049 A 
ATOM     47  H   UNL A   1      42.143  27.376  29.687  1.00  0.00     0.167 HD
ATOM     48  C   UNL A   1      42.907  30.427  32.744  1.00  0.00     0.034 A 
ATOM     49  C   UNL A   1      42.882  25.322  27.940  1.00  0.00     0.034 A 
ATOM     50  C   UNL A   1      44.075  29.591  32.736  1.00  0.00     0.049 A 
ATOM     51  C   UNL A   1      44.051  25.536  28.864  1.00  0.00     0.074 A 
ATOM     52  C   UNL A   1      45.192  29.668  33.548  1.00  0.00     0.029 A 
ATOM     53  N   UNL A   1      44.277  28.519  31.878  1.00  0.00    -0.354 N 
ATOM     54  N   UNL A   1      44.178  26.396  29.844  1.00  0.00    -0.248 NA
ATOM     55  C   UNL A   1      45.215  24.657  28.681  1.00  0.00     0.031 C 
ATOM     56  C   UNL A   1      46.072  28.647  33.177  1.00  0.00     0.029 A 
ATOM     57  C   UNL A   1      45.498  27.924  32.143  1.00  0.00     0.049 A 
ATOM     58  H   UNL A   1      43.644  28.226  31.184  1.00  0.00     0.167 HD
ATOM     59  C   UNL A   1      45.420  26.145  30.416  1.00  0.00     0.074 A 
ATOM     60  C   UNL A   1      45.997  25.036  29.684  1.00  0.00     0.031 C 
ATOM     61  C   UNL A   1      46.034  26.787  31.440  1.00  0.00     0.034 A 
BRANCH  48  62
ATOM     62  C   UNL A   1      42.837  31.550  33.744  1.00  0.00     0.023 A 
ATOM     63  C   UNL A   1      43.328  32.822  33.384  1.00  0.00     0.012 A 
ATOM     64  C   UNL A   1      42.237  31.372  35.006  1.00  0.00     0.148 A 
ATOM     65  C   UNL A   1      43.251  33.892  34.273  1.00  0.00     0.002 A 
ATOM     66  C   UNL A   1      42.126  32.455  35.872  1.00  0.00     0.091 A 
ATOM     67  F   UNL A   1      41.800  30.151  35.341  1.00  0.00    -0.205 F 
ATOM     68  C   UNL A   1      42.641  33.712  35.511  1.00  0.00     0.022 A 
BRANCH  66  69
ATOM     69  S   UNL A   1      41.289  32.344  37.457  1.00  0.00     0.127 S 
ATOM     70  O   UNL A   1      41.191  33.753  37.838  1.00  0.00    -0.237 OA
ATOM     71  O   UNL A   1      40.015  31.722  37.091  1.00  0.00    -0.237 OA
ATOM     72  O   UNL A   1      42.143  31.523  38.303  1.00  0.00    -0.744 OA
ENDBRANCH  66  69
ENDBRANCH  48  62
BRANCH  49  73
ATOM     73  C   UNL A   1      42.887  24.232  26.923  1.00  0.00     0.023 A 
ATOM     74  C   UNL A   1      43.640  24.403  25.745  1.00  0.00     0.012 A 
ATOM     75  C   UNL A   1      42.219  23.011  27.140  1.00  0.00     0.148 A 
ATOM     76  C   UNL A   1      43.716  23.385  24.793  1.00  0.00     0.002 A 
ATOM     77  C   UNL A   1      42.343  21.980  26.214  1.00  0.00     0.091 A 
ATOM     78  F   UNL A   1      41.498  22.873  28.260  1.00  0.00    -0.205 F 
ATOM     79  C   UNL A   1      43.079  22.171  25.034  1.00  0.00     0.022 A 
BRANCH  77  80
ATOM     80  S   UNL A   1      41.680  20.336  26.504  1.00  0.00     0.127 S 
ATOM     81  O   UNL A   1      40.241  20.582  26.467  1.00  0.00    -0.237 OA
ATOM     82  O   UNL A   1      42.209  19.592  25.360  1.00  0.00    -0.237 OA
ATOM     83  O   UNL A   1      42.218  19.917  27.791  1.00  0.00    -0.744 OA
ENDBRANCH  77  80
ENDBRANCH  49  73
BRANCH  61  84
ATOM     84  C   UNL A   1      47.401  26.306  31.852  1.00  0.00     0.023 A 
ATOM     85  C   UNL A   1      47.525  25.418  32.938  1.00  0.00     0.012 A 
ATOM     86  C   UNL A   1      48.546  26.649  31.105  1.00  0.00     0.148 A 
ATOM     87  C   UNL A   1      48.769  24.895  33.289  1.00  0.00     0.002 A 
ATOM     88  C   UNL A   1      49.775  26.089  31.432  1.00  0.00     0.091 A 
ATOM     89  F   UNL A   1      48.412  27.513  30.088  1.00  0.00    -0.205 F 
ATOM     90  C   UNL A   1      49.890  25.220  32.529  1.00  0.00     0.022 A 
BRANCH  88  91
ATOM     91  S   UNL A   1      51.247  26.376  30.442  1.00  0.00     0.127 S 
ATOM     92  O   UNL A   1      52.259  25.631  31.190  1.00  0.00    -0.237 OA
ATOM     93  O   UNL A   1      50.882  25.782  29.155  1.00  0.00    -0.237 OA
ATOM     94  O   UNL A   1      51.424  27.821  30.407  1.00  0.00    -0.744 OA
ENDBRANCH  88  91
ENDBRANCH  61  84
ENDBRANCH  35  36
ENDBRANCH  27  30
ENDBRANCH  25  26
ENDBRANCH   1  25
TORSDOF 15
ENDMDL
MODEL 3
REMARK VINA RESULT:     -12.5      2.583      7.811
REMARK SMILES Cc1c(Cl)cc2c(c1C)O[C@H](C(F)(F)F)C(C(=O)NCCCCNC(=O)c1ccc(-c3c4nc(c(-c5cccc(S(=O)(=O)[O-])c5F)c5ccc([nH]5)c(-c5cccc(S(=O)(=O)[O-])c5F)c5nc(c(-c6cccc(S(=O)(=O)[O-])c6F)c6ccc3[nH]6)C=C5)C=C4)cc1)=C2
REMARK SMILES IDX 22 1 21 2 20 3 19 4 17 5 18 6 16 8 1 9 2 10 3 11 8 12 4 13
REMARK SMILES IDX 5 14 7 15 9 16 6 17 10 18 90 19 11 20 12 21 13 22 14 23
REMARK SMILES IDX 15 24 23 25 24 26 25 27 26 29 27 30 28 31 89 32 29 33 88 34
REMARK SMILES IDX 30 35 31 36 32 37 82 38 33 39 87 40 81 41 83 42 34 43 86 44
REMARK SMILES IDX 80 45 79 46 35 48 67 49 47 50 66 51 48 52 51 53 65 54 84 55
REMARK SMILES IDX 49 56 50 57 64 59 85 60 52 61 36 62 37 63 45 64 38 65 40 66
REMARK SMILES IDX 46 67 39 68 41 69 42 70 43 71 44 72 68 73 69 74 77 75 70 76
REMARK SMILES IDX 72 77 78 78 71 79 73 80 74 81 75 82 76 83 53 84 54 85 62 86
REMARK SMILES IDX 55 87 57 88 63 89 56 90 58 91 59 92 60 93 61 94
REMARK H PARENT 19 7 24 28 83 47 51 58
REMARK Flexibility Score: inf
ROOT
ATOM      1  C   UNL A   1      32.505  28.491  26.180  1.00  0.00     0.023 C 
ENDROOT
BRANCH   1   2
ATOM      2  C   UNL A   1      31.723  28.668  24.875  1.00  0.00     0.023 C 
BRANCH   2   3
ATOM      3  C   UNL A   1      31.163  27.369  24.303  1.00  0.00     0.116 C 
BRANCH   3   4
ATOM      4  N   UNL A   1      30.406  26.620  25.292  1.00  0.00    -0.352 N 
ATOM      5  C   UNL A   1      30.480  25.404  25.882  1.00  0.00     0.251 C 
ATOM      6  O   UNL A   1      29.594  25.159  26.705  1.00  0.00    -0.270 OA
ATOM      7  H   UNL A   1      29.632  27.133  25.619  1.00  0.00     0.163 HD
BRANCH   5   8
ATOM      8  C   UNL A   1      31.530  24.377  25.612  1.00  0.00     0.067 C 
ATOM      9  C   UNL A   1      37.074  20.935  25.032  1.00  0.00     0.046 C 
ATOM     10  C   UNL A   1      35.931  21.881  25.298  1.00  0.00    -0.026 A 
ATOM     11  C   UNL A   1      36.202  23.176  25.795  1.00  0.00     0.045 A 
ATOM     12  C   UNL A   1      34.581  21.500  25.108  1.00  0.00    -0.004 A 
ATOM     13  Cl  UNL A   1      37.818  23.699  26.142  1.00  0.00    -0.084 Cl
ATOM     14  C   UNL A   1      35.176  24.092  26.045  1.00  0.00     0.032 A 
ATOM     15  C   UNL A   1      33.565  22.454  25.335  1.00  0.00     0.131 A 
ATOM     16  C   UNL A   1      34.167  20.136  24.615  1.00  0.00     0.049 C 
ATOM     17  C   UNL A   1      33.852  23.737  25.803  1.00  0.00     0.019 A 
ATOM     18  O   UNL A   1      32.272  22.053  25.123  1.00  0.00    -0.475 OA
ATOM     19  C   UNL A   1      32.763  24.670  26.064  1.00  0.00     0.025 C 
ATOM     20  C   UNL A   1      31.300  23.101  24.855  1.00  0.00     0.314 C 
BRANCH  20  21
ATOM     21  C   UNL A   1      31.195  23.319  23.333  1.00  0.00     0.429 C 
ATOM     22  F   UNL A   1      29.945  23.732  23.002  1.00  0.00    -0.167 F 
ATOM     23  F   UNL A   1      32.046  24.268  22.882  1.00  0.00    -0.167 F 
ATOM     24  F   UNL A   1      31.447  22.194  22.626  1.00  0.00    -0.167 F 
ENDBRANCH  20  21
ENDBRANCH   5   8
ENDBRANCH   3   4
ENDBRANCH   2   3
ENDBRANCH   1   2
BRANCH   1  25
ATOM     25  C   UNL A   1      33.861  29.194  26.235  1.00  0.00     0.116 C 
BRANCH  25  26
ATOM     26  N   UNL A   1      33.809  30.529  26.817  1.00  0.00    -0.352 N 
ATOM     27  C   UNL A   1      34.687  31.094  27.711  1.00  0.00     0.251 C 
ATOM     28  H   UNL A   1      33.054  31.095  26.535  1.00  0.00     0.163 HD
ATOM     29  O   UNL A   1      34.470  32.205  28.183  1.00  0.00    -0.269 OA
BRANCH  27  30
ATOM     30  C   UNL A   1      35.874  30.321  28.123  1.00  0.00     0.039 A 
ATOM     31  C   UNL A   1      37.029  30.386  27.339  1.00  0.00     0.014 A 
ATOM     32  C   UNL A   1      35.861  29.597  29.318  1.00  0.00     0.014 A 
ATOM     33  C   UNL A   1      38.201  29.779  27.794  1.00  0.00     0.010 A 
ATOM     34  C   UNL A   1      37.043  29.044  29.795  1.00  0.00     0.010 A 
ATOM     35  C   UNL A   1      38.224  29.136  29.042  1.00  0.00    -0.014 A 
BRANCH  35  36
ATOM     36  C   UNL A   1      39.474  28.567  29.599  1.00  0.00     0.031 A 
ATOM     37  C   UNL A   1      40.113  29.200  30.801  1.00  0.00     0.074 A 
ATOM     38  C   UNL A   1      40.085  27.551  28.958  1.00  0.00     0.049 A 
ATOM     39  N   UNL A   1      41.258  28.925  31.366  1.00  0.00    -0.248 NA
ATOM     40  C   UNL A   1      39.378  30.308  31.435  1.00  0.00     0.031 C 
ATOM     41  C   UNL A   1      39.589  26.897  27.746  1.00  0.00     0.029 A 
ATOM     42  N   UNL A   1      41.270  26.911  29.221  1.00  0.00    -0.354 N 
ATOM     43  C   UNL A   1      41.400  29.841  32.399  1.00  0.00     0.074 A 
ATOM     44  C   UNL A   1      40.238  30.703  32.364  1.00  0.00     0.031 C 
ATOM     45  C   UNL A   1      40.461  25.948  27.371  1.00  0.00     0.029 A 
ATOM     46  C   UNL A   1      41.590  25.945  28.296  1.00  0.00     0.049 A 
ATOM     47  H   UNL A   1      41.836  27.122  29.998  1.00  0.00     0.167 HD
ATOM     48  C   UNL A   1      42.392  29.936  33.315  1.00  0.00     0.034 A 
ATOM     49  C   UNL A   1      42.675  25.150  28.202  1.00  0.00     0.034 A 
ATOM     50  C   UNL A   1      43.521  29.049  33.372  1.00  0.00     0.049 A 
ATOM     51  C   UNL A   1      43.746  25.251  29.253  1.00  0.00     0.074 A 
ATOM     52  C   UNL A   1      44.548  29.023  34.298  1.00  0.00     0.029 A 
ATOM     53  N   UNL A   1      43.770  28.025  32.469  1.00  0.00    -0.354 N 
ATOM     54  N   UNL A   1      43.803  26.041  30.297  1.00  0.00    -0.248 NA
ATOM     55  C   UNL A   1      44.888  24.333  29.133  1.00  0.00     0.031 C 
ATOM     56  C   UNL A   1      45.421  27.988  33.951  1.00  0.00     0.029 A 
ATOM     57  C   UNL A   1      44.931  27.359  32.818  1.00  0.00     0.049 A 
ATOM     58  H   UNL A   1      43.203  27.806  31.695  1.00  0.00     0.167 HD
ATOM     59  C   UNL A   1      44.967  25.697  30.976  1.00  0.00     0.074 A 
ATOM     60  C   UNL A   1      45.574  24.611  30.234  1.00  0.00     0.031 C 
ATOM     61  C   UNL A   1      45.494  26.244  32.098  1.00  0.00     0.034 A 
BRANCH  48  62
ATOM     62  C   UNL A   1      42.261  30.996  34.376  1.00  0.00     0.023 A 
ATOM     63  C   UNL A   1      41.676  30.661  35.615  1.00  0.00     0.012 A 
ATOM     64  C   UNL A   1      42.764  32.297  34.179  1.00  0.00     0.148 A 
ATOM     65  C   UNL A   1      41.567  31.609  36.629  1.00  0.00     0.002 A 
ATOM     66  C   UNL A   1      42.689  33.226  35.212  1.00  0.00     0.091 A 
ATOM     67  F   UNL A   1      43.293  32.606  32.987  1.00  0.00    -0.205 F 
ATOM     68  C   UNL A   1      42.083  32.886  36.433  1.00  0.00     0.022 A 
BRANCH  66  69
ATOM     69  S   UNL A   1      43.394  34.873  35.084  1.00  0.00     0.127 S 
ATOM     70  O   UNL A   1      42.570  35.466  34.031  1.00  0.00    -0.237 OA
ATOM     71  O   UNL A   1      43.155  35.416  36.422  1.00  0.00    -0.237 OA
ATOM     72  O   UNL A   1      44.798  34.682  34.750  1.00  0.00    -0.744 OA
ENDBRANCH  66  69
ENDBRANCH  48  62
BRANCH  49  73
ATOM     73  C   UNL A   1      42.744  24.127  27.119  1.00  0.00     0.023 A 
ATOM     74  C   UNL A   1      43.520  24.398  25.975  1.00  0.00     0.012 A 
ATOM     75  C   UNL A   1      42.116  22.873  27.242  1.00  0.00     0.148 A 
ATOM     76  C   UNL A   1      43.656  23.445  24.964  1.00  0.00     0.002 A 
ATOM     77  C   UNL A   1      42.300  21.907  26.257  1.00  0.00     0.091 A 
ATOM     78  F   UNL A   1      41.372  22.639  28.332  1.00  0.00    -0.205 F 
ATOM     79  C   UNL A   1      43.058  22.197  25.112  1.00  0.00     0.022 A 
BRANCH  77  80
ATOM     80  S   UNL A   1      41.690  20.226  26.427  1.00  0.00     0.127 S 
ATOM     81  O   UNL A   1      42.183  19.860  27.751  1.00  0.00    -0.237 OA
ATOM     82  O   UNL A   1      40.242  20.421  26.340  1.00  0.00    -0.237 OA
ATOM     83  O   UNL A   1      42.262  19.486  25.310  1.00  0.00    -0.744 OA
ENDBRANCH  77  80
ENDBRANCH  49  73
BRANCH  61  84
ATOM     84  C   UNL A   1      46.789  25.676  32.616  1.00  0.00     0.023 A 
ATOM     85  C   UNL A   1      48.011  26.186  32.135  1.00  0.00     0.012 A 
ATOM     86  C   UNL A   1      46.799  24.714  33.645  1.00  0.00     0.148 A 
ATOM     87  C   UNL A   1      49.223  25.733  32.657  1.00  0.00     0.002 A 
ATOM     88  C   UNL A   1      48.008  24.301  34.192  1.00  0.00     0.091 A 
ATOM     89  F   UNL A   1      45.626  24.223  34.075  1.00  0.00    -0.205 F 
ATOM     90  C   UNL A   1      49.221  24.803  33.692  1.00  0.00     0.022 A 
BRANCH  88  91
ATOM     91  S   UNL A   1      48.088  23.182  35.596  1.00  0.00     0.127 S 
ATOM     92  O   UNL A   1      47.222  23.854  36.563  1.00  0.00    -0.237 OA
ATOM     93  O   UNL A   1      47.538  21.943  35.043  1.00  0.00    -0.237 OA
ATOM     94  O   UNL A   1      49.497  23.103  35.958  1.00  0.00    -0.744 OA
ENDBRANCH  88  91
ENDBRANCH  61  84
ENDBRANCH  35  36
ENDBRANCH  27  30
ENDBRANCH  25  26
ENDBRANCH   1  25
TORSDOF 15
ENDMDL
