MODEL 1
REMARK VINA RESULT:     -12.8      0.000      0.000
REMARK SMILES O=C(NCCCCNC(=O)c1cc(F)c(F)cc1NS(=O)(=O)c1ccc2c(c1)CCC2)c1ccc(-c2c3nc(c(-c4cccc(S(=O)(=O)[O-])c4F)c4ccc([nH]4)c(-c4cccc(S(=O)(=O)[O-])c4F)c4nc(c(-c5cccc(S(=O)(=O)[O-])c5F)c5ccc2[nH]5)C=C4)C=C3)cc1
REMARK SMILES IDX 5 1 4 2 3 3 1 4 2 5 32 7 33 8 94 9 34 10 93 11 35 12 36 13
REMARK SMILES IDX 37 14 87 15 38 16 92 17 86 18 88 19 39 20 91 21 85 22 84 23
REMARK SMILES IDX 40 25 72 26 52 27 71 28 53 29 56 30 70 31 89 32 54 33 55 34
REMARK SMILES IDX 69 36 90 37 57 38 41 39 42 40 50 41 43 42 45 43 51 44 44 45
REMARK SMILES IDX 46 46 47 47 48 48 49 49 73 50 74 51 82 52 75 53 77 54 83 55
REMARK SMILES IDX 76 56 78 57 79 58 80 59 81 60 58 61 59 62 67 63 60 64 62 65
REMARK SMILES IDX 68 66 61 67 63 68 64 69 65 70 66 71 6 72 7 73 8 74 9 75
REMARK SMILES IDX 10 77 11 78 12 79 18 80 13 81 17 82 14 83 15 84 16 85 19 86
REMARK SMILES IDX 20 88 21 89 22 90 23 91 24 92 28 93 25 94 27 95 26 96 29 97
REMARK SMILES IDX 31 98 30 99
REMARK H PARENT 3 6 88 24 56 35 8 76 19 87
REMARK Flexibility Score: inf
ROOT
ATOM      1  C   UNL A   1      38.040  19.949  24.668  1.00  0.00     0.023 C 
ENDROOT
BRANCH   1   2
ATOM      2  C   UNL A   1      39.011  20.384  25.756  1.00  0.00     0.116 C 
BRANCH   2   3
ATOM      3  N   UNL A   1      40.033  19.388  26.047  1.00  0.00    -0.352 N 
ATOM      4  O   UNL A   1      42.112  18.612  26.450  1.00  0.00    -0.269 OA
ATOM      5  C   UNL A   1      41.360  19.577  26.368  1.00  0.00     0.251 C 
ATOM      6  H   UNL A   1      39.735  18.451  26.007  1.00  0.00     0.163 HD
BRANCH   5   7
ATOM      7  C   UNL A   1      41.869  20.950  26.576  1.00  0.00     0.039 A 
ATOM      8  C   UNL A   1      42.200  21.391  27.858  1.00  0.00     0.014 A 
ATOM      9  C   UNL A   1      41.975  21.819  25.486  1.00  0.00     0.014 A 
ATOM     10  C   UNL A   1      42.453  22.738  28.078  1.00  0.00     0.010 A 
ATOM     11  C   UNL A   1      42.339  23.152  25.697  1.00  0.00     0.010 A 
ATOM     12  C   UNL A   1      42.540  23.635  26.999  1.00  0.00    -0.014 A 
BRANCH  12  13
ATOM     13  C   UNL A   1      42.913  25.049  27.266  1.00  0.00     0.031 A 
ATOM     14  C   UNL A   1      41.966  26.001  27.945  1.00  0.00     0.074 A 
ATOM     15  C   UNL A   1      44.140  25.466  26.897  1.00  0.00     0.049 A 
ATOM     16  N   UNL A   1      42.161  27.253  28.276  1.00  0.00    -0.248 NA
ATOM     17  C   UNL A   1      40.629  25.495  28.292  1.00  0.00     0.031 C 
ATOM     18  C   UNL A   1      45.130  24.645  26.195  1.00  0.00     0.029 A 
ATOM     19  N   UNL A   1      44.769  26.674  27.059  1.00  0.00    -0.354 N 
ATOM     20  C   UNL A   1      40.966  27.697  28.830  1.00  0.00     0.074 A 
ATOM     21  C   UNL A   1      40.045  26.580  28.784  1.00  0.00     0.031 C 
ATOM     22  C   UNL A   1      46.251  25.357  26.016  1.00  0.00     0.029 A 
ATOM     23  C   UNL A   1      46.038  26.704  26.530  1.00  0.00     0.049 A 
ATOM     24  H   UNL A   1      44.353  27.443  27.510  1.00  0.00     0.167 HD
ATOM     25  C   UNL A   1      40.667  28.917  29.340  1.00  0.00     0.034 A 
ATOM     26  C   UNL A   1      46.928  27.710  26.443  1.00  0.00     0.034 A 
ATOM     27  C   UNL A   1      41.598  30.015  29.406  1.00  0.00     0.049 A 
ATOM     28  C   UNL A   1      46.571  29.046  27.026  1.00  0.00     0.074 A 
ATOM     29  C   UNL A   1      41.409  31.269  29.961  1.00  0.00     0.029 A 
ATOM     30  N   UNL A   1      42.884  29.999  28.889  1.00  0.00    -0.354 N 
ATOM     31  N   UNL A   1      45.481  29.406  27.656  1.00  0.00    -0.248 NA
ATOM     32  C   UNL A   1      47.581  30.108  26.910  1.00  0.00     0.031 C 
ATOM     33  C   UNL A   1      42.570  32.021  29.750  1.00  0.00     0.029 A 
ATOM     34  C   UNL A   1      43.497  31.224  29.098  1.00  0.00     0.049 A 
ATOM     35  H   UNL A   1      43.302  29.229  28.440  1.00  0.00     0.167 HD
ATOM     36  C   UNL A   1      45.681  30.724  28.039  1.00  0.00     0.074 A 
ATOM     37  C   UNL A   1      47.011  31.091  27.593  1.00  0.00     0.031 C 
ATOM     38  C   UNL A   1      44.836  31.562  28.689  1.00  0.00     0.034 A 
BRANCH  25  39
ATOM     39  C   UNL A   1      39.281  29.132  29.895  1.00  0.00     0.023 A 
ATOM     40  C   UNL A   1      38.976  28.709  31.204  1.00  0.00     0.012 A 
ATOM     41  C   UNL A   1      38.301  29.819  29.149  1.00  0.00     0.148 A 
ATOM     42  C   UNL A   1      37.712  28.935  31.751  1.00  0.00     0.002 A 
ATOM     43  C   UNL A   1      37.059  30.081  29.717  1.00  0.00     0.091 A 
ATOM     44  F   UNL A   1      38.601  30.201  27.900  1.00  0.00    -0.205 F 
ATOM     45  C   UNL A   1      36.759  29.630  31.012  1.00  0.00     0.022 A 
BRANCH  43  46
ATOM     46  S   UNL A   1      35.791  31.039  28.878  1.00  0.00     0.127 S 
ATOM     47  O   UNL A   1      35.141  30.015  28.061  1.00  0.00    -0.237 OA
ATOM     48  O   UNL A   1      34.985  31.530  29.995  1.00  0.00    -0.237 OA
ATOM     49  O   UNL A   1      36.496  32.075  28.135  1.00  0.00    -0.744 OA
ENDBRANCH  43  46
ENDBRANCH  25  39
BRANCH  26  50
ATOM     50  C   UNL A   1      48.253  27.472  25.804  1.00  0.00     0.023 A 
ATOM     51  C   UNL A   1      49.342  27.056  26.592  1.00  0.00     0.012 A 
ATOM     52  C   UNL A   1      48.424  27.617  24.413  1.00  0.00     0.148 A 
ATOM     53  C   UNL A   1      50.587  26.817  26.011  1.00  0.00     0.002 A 
ATOM     54  C   UNL A   1      49.650  27.317  23.833  1.00  0.00     0.091 A 
ATOM     55  F   UNL A   1      47.377  28.024  23.682  1.00  0.00    -0.205 F 
ATOM     56  C   UNL A   1      50.737  26.935  24.632  1.00  0.00     0.022 A 
BRANCH  54  57
ATOM     57  S   UNL A   1      49.891  27.302  22.054  1.00  0.00     0.127 S 
ATOM     58  O   UNL A   1      49.681  28.706  21.713  1.00  0.00    -0.237 OA
ATOM     59  O   UNL A   1      51.275  26.841  21.941  1.00  0.00    -0.237 OA
ATOM     60  O   UNL A   1      48.904  26.368  21.530  1.00  0.00    -0.744 OA
ENDBRANCH  54  57
ENDBRANCH  26  50
BRANCH  38  61
ATOM     61  C   UNL A   1      45.337  32.950  28.993  1.00  0.00     0.023 A 
ATOM     62  C   UNL A   1      46.047  33.199  30.185  1.00  0.00     0.012 A 
ATOM     63  C   UNL A   1      45.147  33.998  28.070  1.00  0.00     0.148 A 
ATOM     64  C   UNL A   1      46.525  34.477  30.471  1.00  0.00     0.002 A 
ATOM     65  C   UNL A   1      45.672  35.255  28.338  1.00  0.00     0.091 A 
ATOM     66  F   UNL A   1      44.452  33.746  26.951  1.00  0.00    -0.205 F 
ATOM     67  C   UNL A   1      46.348  35.500  29.545  1.00  0.00     0.022 A 
BRANCH  65  68
ATOM     68  S   UNL A   1      45.577  36.608  27.161  1.00  0.00     0.127 S 
ATOM     69  O   UNL A   1      46.302  37.666  27.864  1.00  0.00    -0.237 OA
ATOM     70  O   UNL A   1      46.277  36.058  25.999  1.00  0.00    -0.237 OA
ATOM     71  O   UNL A   1      44.158  36.858  26.949  1.00  0.00    -0.744 OA
ENDBRANCH  65  68
ENDBRANCH  38  61
ENDBRANCH  12  13
ENDBRANCH   5   7
ENDBRANCH   2   3
ENDBRANCH   1   2
BRANCH   1  72
ATOM     72  C   UNL A   1      36.565  20.073  25.032  1.00  0.00     0.023 C 
BRANCH  72  73
ATOM     73  C   UNL A   1      36.124  21.470  25.461  1.00  0.00     0.116 C 
BRANCH  73  74
ATOM     74  N   UNL A   1      35.299  21.454  26.665  1.00  0.00    -0.352 N 
ATOM     75  C   UNL A   1      33.928  21.419  26.764  1.00  0.00     0.253 C 
ATOM     76  H   UNL A   1      35.789  21.470  27.519  1.00  0.00     0.163 HD
ATOM     77  O   UNL A   1      33.352  21.633  27.821  1.00  0.00    -0.269 OA
BRANCH  75  78
ATOM     78  C   UNL A   1      33.141  21.195  25.541  1.00  0.00     0.067 A 
ATOM     79  C   UNL A   1      33.015  19.876  25.073  1.00  0.00     0.058 A 
ATOM     80  C   UNL A   1      32.679  22.289  24.786  1.00  0.00     0.065 A 
ATOM     81  C   UNL A   1      32.548  19.661  23.787  1.00  0.00     0.159 A 
ATOM     82  C   UNL A   1      32.320  22.045  23.459  1.00  0.00     0.070 A 
ATOM     83  F   UNL A   1      32.478  18.412  23.310  1.00  0.00    -0.204 F 
ATOM     84  C   UNL A   1      32.235  20.741  22.974  1.00  0.00     0.160 A 
ATOM     85  F   UNL A   1      31.856  20.538  21.705  1.00  0.00    -0.204 F 
BRANCH  80  86
ATOM     86  N   UNL A   1      32.703  23.651  25.282  1.00  0.00    -0.279 N 
ATOM     87  H   UNL A   1      33.489  24.223  25.123  1.00  0.00     0.180 HD
BRANCH  86  88
ATOM     88  S   UNL A   1      31.348  24.262  26.156  1.00  0.00     0.261 S 
ATOM     89  O   UNL A   1      30.277  23.304  26.019  1.00  0.00    -0.201 OA
ATOM     90  O   UNL A   1      31.845  24.633  27.467  1.00  0.00    -0.201 OA
BRANCH  88  91
ATOM     91  C   UNL A   1      30.825  25.751  25.337  1.00  0.00     0.088 A 
ATOM     92  C   UNL A   1      29.870  25.650  24.304  1.00  0.00     0.022 A 
ATOM     93  C   UNL A   1      31.367  26.988  25.708  1.00  0.00     0.026 A 
ATOM     94  C   UNL A   1      29.561  26.765  23.525  1.00  0.00     0.005 A 
ATOM     95  C   UNL A   1      31.002  28.097  24.961  1.00  0.00    -0.043 A 
ATOM     96  C   UNL A   1      30.149  27.975  23.855  1.00  0.00    -0.045 A 
ATOM     97  C   UNL A   1      31.458  29.516  25.121  1.00  0.00     0.036 C 
ATOM     98  C   UNL A   1      30.054  29.271  23.114  1.00  0.00     0.036 C 
ATOM     99  C   UNL A   1      30.466  30.260  24.211  1.00  0.00     0.010 C 
ENDBRANCH  88  91
ENDBRANCH  86  88
ENDBRANCH  80  86
ENDBRANCH  75  78
ENDBRANCH  73  74
ENDBRANCH  72  73
ENDBRANCH   1  72
TORSDOF 17
ENDMDL
MODEL 2
REMARK VINA RESULT:     -12.8      5.879     11.359
REMARK SMILES O=C(NCCCCNC(=O)c1cc(F)c(F)cc1NS(=O)(=O)c1ccc2c(c1)CCC2)c1ccc(-c2c3nc(c(-c4cccc(S(=O)(=O)[O-])c4F)c4ccc([nH]4)c(-c4cccc(S(=O)(=O)[O-])c4F)c4nc(c(-c5cccc(S(=O)(=O)[O-])c5F)c5ccc2[nH]5)C=C4)C=C3)cc1
REMARK SMILES IDX 5 1 4 2 3 3 1 4 2 5 32 7 33 8 94 9 34 10 93 11 35 12 36 13
REMARK SMILES IDX 37 14 87 15 38 16 92 17 86 18 88 19 39 20 91 21 85 22 84 23
REMARK SMILES IDX 40 25 72 26 52 27 71 28 53 29 56 30 70 31 89 32 54 33 55 34
REMARK SMILES IDX 69 36 90 37 57 38 41 39 42 40 50 41 43 42 45 43 51 44 44 45
REMARK SMILES IDX 46 46 47 47 48 48 49 49 73 50 74 51 82 52 75 53 77 54 83 55
REMARK SMILES IDX 76 56 78 57 79 58 80 59 81 60 58 61 59 62 67 63 60 64 62 65
REMARK SMILES IDX 68 66 61 67 63 68 64 69 65 70 66 71 6 72 7 73 8 74 9 75
REMARK SMILES IDX 10 77 11 78 12 79 18 80 13 81 17 82 14 83 15 84 16 85 19 86
REMARK SMILES IDX 20 88 21 89 22 90 23 91 24 92 28 93 25 94 27 95 26 96 29 97
REMARK SMILES IDX 31 98 30 99
REMARK H PARENT 3 6 88 24 56 35 8 76 19 87
REMARK Flexibility Score: inf
ROOT
ATOM      1  C   UNL A   1      31.115  32.018  26.642  1.00  0.00     0.023 C 
ENDROOT
BRANCH   1   2
ATOM      2  C   UNL A   1      32.515  32.530  26.953  1.00  0.00     0.116 C 
BRANCH   2   3
ATOM      3  N   UNL A   1      32.530  33.890  27.473  1.00  0.00    -0.352 N 
ATOM      4  O   UNL A   1      33.153  35.582  28.827  1.00  0.00    -0.269 OA
ATOM      5  C   UNL A   1      33.373  34.451  28.406  1.00  0.00     0.251 C 
ATOM      6  H   UNL A   1      31.841  34.490  27.108  1.00  0.00     0.163 HD
BRANCH   5   7
ATOM      7  C   UNL A   1      34.517  33.665  28.917  1.00  0.00     0.039 A 
ATOM      8  C   UNL A   1      34.297  32.518  29.681  1.00  0.00     0.014 A 
ATOM      9  C   UNL A   1      35.821  34.101  28.668  1.00  0.00     0.014 A 
ATOM     10  C   UNL A   1      35.359  31.920  30.346  1.00  0.00     0.010 A 
ATOM     11  C   UNL A   1      36.900  33.429  29.251  1.00  0.00     0.010 A 
ATOM     12  C   UNL A   1      36.676  32.358  30.130  1.00  0.00    -0.014 A 
BRANCH  12  13
ATOM     13  C   UNL A   1      37.795  31.627  30.782  1.00  0.00     0.031 A 
ATOM     14  C   UNL A   1      38.607  30.601  30.040  1.00  0.00     0.074 A 
ATOM     15  C   UNL A   1      38.083  31.917  32.066  1.00  0.00     0.049 A 
ATOM     16  N   UNL A   1      39.634  29.907  30.463  1.00  0.00    -0.248 NA
ATOM     17  C   UNL A   1      38.219  30.305  28.652  1.00  0.00     0.031 C 
ATOM     18  C   UNL A   1      37.340  32.865  32.901  1.00  0.00     0.029 A 
ATOM     19  N   UNL A   1      39.072  31.453  32.894  1.00  0.00    -0.354 N 
ATOM     20  C   UNL A   1      39.989  29.066  29.415  1.00  0.00     0.074 A 
ATOM     21  C   UNL A   1      39.063  29.330  28.335  1.00  0.00     0.031 C 
ATOM     22  C   UNL A   1      37.916  32.939  34.108  1.00  0.00     0.029 A 
ATOM     23  C   UNL A   1      39.028  31.998  34.157  1.00  0.00     0.049 A 
ATOM     24  H   UNL A   1      39.748  30.796  32.613  1.00  0.00     0.167 HD
ATOM     25  C   UNL A   1      41.002  28.166  29.355  1.00  0.00     0.034 A 
ATOM     26  C   UNL A   1      39.780  31.752  35.245  1.00  0.00     0.034 A 
ATOM     27  C   UNL A   1      41.937  27.928  30.425  1.00  0.00     0.049 A 
ATOM     28  C   UNL A   1      40.899  30.757  35.143  1.00  0.00     0.074 A 
ATOM     29  C   UNL A   1      43.033  27.083  30.436  1.00  0.00     0.029 A 
ATOM     30  N   UNL A   1      41.879  28.521  31.677  1.00  0.00    -0.354 N 
ATOM     31  N   UNL A   1      41.295  30.065  34.104  1.00  0.00    -0.248 NA
ATOM     32  C   UNL A   1      41.694  30.531  36.358  1.00  0.00     0.031 C 
ATOM     33  C   UNL A   1      43.618  27.140  31.707  1.00  0.00     0.029 A 
ATOM     34  C   UNL A   1      42.910  28.051  32.474  1.00  0.00     0.049 A 
ATOM     35  H   UNL A   1      41.205  29.180  31.958  1.00  0.00     0.167 HD
ATOM     36  C   UNL A   1      42.402  29.343  34.527  1.00  0.00     0.074 A 
ATOM     37  C   UNL A   1      42.631  29.704  35.912  1.00  0.00     0.031 C 
ATOM     38  C   UNL A   1      43.153  28.451  33.837  1.00  0.00     0.034 A 
BRANCH  25  39
ATOM     39  C   UNL A   1      41.175  27.380  28.078  1.00  0.00     0.023 A 
ATOM     40  C   UNL A   1      41.693  28.014  26.930  1.00  0.00     0.012 A 
ATOM     41  C   UNL A   1      40.897  25.999  28.034  1.00  0.00     0.148 A 
ATOM     42  C   UNL A   1      41.901  27.296  25.752  1.00  0.00     0.002 A 
ATOM     43  C   UNL A   1      41.148  25.281  26.870  1.00  0.00     0.091 A 
ATOM     44  F   UNL A   1      40.389  25.415  29.129  1.00  0.00    -0.205 F 
ATOM     45  C   UNL A   1      41.639  25.929  25.725  1.00  0.00     0.022 A 
BRANCH  43  46
ATOM     46  S   UNL A   1      40.919  23.502  26.760  1.00  0.00     0.127 S 
ATOM     47  O   UNL A   1      41.418  23.060  28.062  1.00  0.00    -0.237 OA
ATOM     48  O   UNL A   1      39.471  23.386  26.591  1.00  0.00    -0.237 OA
ATOM     49  O   UNL A   1      41.702  23.066  25.612  1.00  0.00    -0.744 OA
ENDBRANCH  43  46
ENDBRANCH  25  39
BRANCH  26  50
ATOM     50  C   UNL A   1      39.511  32.489  36.511  1.00  0.00     0.023 A 
ATOM     51  C   UNL A   1      40.198  33.688  36.779  1.00  0.00     0.012 A 
ATOM     52  C   UNL A   1      38.548  32.027  37.430  1.00  0.00     0.148 A 
ATOM     53  C   UNL A   1      39.953  34.398  37.954  1.00  0.00     0.002 A 
ATOM     54  C   UNL A   1      38.264  32.773  38.567  1.00  0.00     0.091 A 
ATOM     55  F   UNL A   1      37.912  30.878  37.161  1.00  0.00    -0.205 F 
ATOM     56  C   UNL A   1      38.978  33.948  38.840  1.00  0.00     0.022 A 
BRANCH  54  57
ATOM     57  S   UNL A   1      36.927  32.343  39.686  1.00  0.00     0.127 S 
ATOM     58  O   UNL A   1      37.351  31.032  40.168  1.00  0.00    -0.237 OA
ATOM     59  O   UNL A   1      37.005  33.419  40.675  1.00  0.00    -0.237 OA
ATOM     60  O   UNL A   1      35.716  32.361  38.877  1.00  0.00    -0.744 OA
ENDBRANCH  54  57
ENDBRANCH  26  50
BRANCH  38  61
ATOM     61  C   UNL A   1      44.321  27.828  34.557  1.00  0.00     0.023 A 
ATOM     62  C   UNL A   1      45.548  28.515  34.637  1.00  0.00     0.012 A 
ATOM     63  C   UNL A   1      44.184  26.580  35.198  1.00  0.00     0.148 A 
ATOM     64  C   UNL A   1      46.632  27.953  35.310  1.00  0.00     0.002 A 
ATOM     65  C   UNL A   1      45.251  26.051  35.912  1.00  0.00     0.091 A 
ATOM     66  F   UNL A   1      43.014  25.933  35.094  1.00  0.00    -0.205 F 
ATOM     67  C   UNL A   1      46.481  26.729  35.956  1.00  0.00     0.022 A 
BRANCH  65  68
ATOM     68  S   UNL A   1      45.118  24.529  36.855  1.00  0.00     0.127 S 
ATOM     69  O   UNL A   1      46.489  24.354  37.333  1.00  0.00    -0.237 OA
ATOM     70  O   UNL A   1      44.151  24.891  37.892  1.00  0.00    -0.237 OA
ATOM     71  O   UNL A   1      44.649  23.517  35.919  1.00  0.00    -0.744 OA
ENDBRANCH  65  68
ENDBRANCH  38  61
ENDBRANCH  12  13
ENDBRANCH   5   7
ENDBRANCH   2   3
ENDBRANCH   1   2
BRANCH   1  72
ATOM     72  C   UNL A   1      31.018  31.099  25.430  1.00  0.00     0.023 C 
BRANCH  72  73
ATOM     73  C   UNL A   1      31.826  29.807  25.538  1.00  0.00     0.116 C 
BRANCH  73  74
ATOM     74  N   UNL A   1      32.645  29.558  24.356  1.00  0.00    -0.352 N 
ATOM     75  C   UNL A   1      32.292  28.930  23.185  1.00  0.00     0.253 C 
ATOM     76  H   UNL A   1      33.574  29.883  24.403  1.00  0.00     0.163 HD
ATOM     77  O   UNL A   1      33.127  28.586  22.360  1.00  0.00    -0.269 OA
BRANCH  75  78
ATOM     78  C   UNL A   1      30.875  28.596  22.967  1.00  0.00     0.067 A 
ATOM     79  C   UNL A   1      30.051  29.577  22.389  1.00  0.00     0.058 A 
ATOM     80  C   UNL A   1      30.343  27.398  23.476  1.00  0.00     0.065 A 
ATOM     81  C   UNL A   1      28.677  29.418  22.444  1.00  0.00     0.159 A 
ATOM     82  C   UNL A   1      28.956  27.322  23.614  1.00  0.00     0.070 A 
ATOM     83  F   UNL A   1      27.881  30.373  21.948  1.00  0.00    -0.204 F 
ATOM     84  C   UNL A   1      28.133  28.313  23.083  1.00  0.00     0.160 A 
ATOM     85  F   UNL A   1      26.803  28.194  23.205  1.00  0.00    -0.204 F 
BRANCH  80  86
ATOM     86  N   UNL A   1      31.174  26.325  23.987  1.00  0.00    -0.279 N 
ATOM     87  H   UNL A   1      31.580  26.394  24.881  1.00  0.00     0.180 HD
BRANCH  86  88
ATOM     88  S   UNL A   1      31.448  24.926  23.016  1.00  0.00     0.261 S 
ATOM     89  O   UNL A   1      30.281  24.084  23.131  1.00  0.00    -0.201 OA
ATOM     90  O   UNL A   1      31.884  25.412  21.720  1.00  0.00    -0.201 OA
BRANCH  88  91
ATOM     91  C   UNL A   1      32.806  24.041  23.745  1.00  0.00     0.088 A 
ATOM     92  C   UNL A   1      32.664  23.558  25.063  1.00  0.00     0.022 A 
ATOM     93  C   UNL A   1      33.991  23.846  23.023  1.00  0.00     0.026 A 
ATOM     94  C   UNL A   1      33.760  23.011  25.730  1.00  0.00     0.005 A 
ATOM     95  C   UNL A   1      35.052  23.245  23.683  1.00  0.00    -0.043 A 
ATOM     96  C   UNL A   1      34.949  22.878  25.032  1.00  0.00    -0.045 A 
ATOM     97  C   UNL A   1      36.425  22.954  23.160  1.00  0.00     0.036 C 
ATOM     98  C   UNL A   1      36.273  22.422  25.558  1.00  0.00     0.036 C 
ATOM     99  C   UNL A   1      36.979  22.028  24.256  1.00  0.00     0.010 C 
ENDBRANCH  88  91
ENDBRANCH  86  88
ENDBRANCH  80  86
ENDBRANCH  75  78
ENDBRANCH  73  74
ENDBRANCH  72  73
ENDBRANCH   1  72
TORSDOF 17
ENDMDL
MODEL 3
REMARK VINA RESULT:     -12.7      2.741      8.551
REMARK SMILES O=C(NCCCCNC(=O)c1cc(F)c(F)cc1NS(=O)(=O)c1ccc2c(c1)CCC2)c1ccc(-c2c3nc(c(-c4cccc(S(=O)(=O)[O-])c4F)c4ccc([nH]4)c(-c4cccc(S(=O)(=O)[O-])c4F)c4nc(c(-c5cccc(S(=O)(=O)[O-])c5F)c5ccc2[nH]5)C=C4)C=C3)cc1
REMARK SMILES IDX 5 1 4 2 3 3 1 4 2 5 32 7 33 8 94 9 34 10 93 11 35 12 36 13
REMARK SMILES IDX 37 14 87 15 38 16 92 17 86 18 88 19 39 20 91 21 85 22 84 23
REMARK SMILES IDX 40 25 72 26 52 27 71 28 53 29 56 30 70 31 89 32 54 33 55 34
REMARK SMILES IDX 69 36 90 37 57 38 41 39 42 40 50 41 43 42 45 43 51 44 44 45
REMARK SMILES IDX 46 46 47 47 48 48 49 49 73 50 74 51 82 52 75 53 77 54 83 55
REMARK SMILES IDX 76 56 78 57 79 58 80 59 81 60 58 61 59 62 67 63 60 64 62 65
REMARK SMILES IDX 68 66 61 67 63 68 64 69 65 70 66 71 6 72 7 73 8 74 9 75
REMARK SMILES IDX 10 77 11 78 12 79 18 80 13 81 17 82 14 83 15 84 16 85 19 86
REMARK SMILES IDX 20 88 21 89 22 90 23 91 24 92 28 93 25 94 27 95 26 96 29 97
REMARK SMILES IDX 31 98 30 99
REMARK H PARENT 3 6 88 24 56 35 8 76 19 87
REMARK Flexibility Score: inf
ROOT
ATOM      1  C   UNL A   1      35.690  21.930  24.334  1.00  0.00     0.023 C 
ENDROOT
BRANCH   1   2
ATOM      2  C   UNL A   1      36.459  21.807  25.642  1.00  0.00     0.116 C 
BRANCH   2   3
ATOM      3  N   UNL A   1      37.453  20.744  25.628  1.00  0.00    -0.352 N 
ATOM      4  O   UNL A   1      39.517  19.838  25.715  1.00  0.00    -0.269 OA
ATOM      5  C   UNL A   1      38.801  20.814  25.909  1.00  0.00     0.251 C 
ATOM      6  H   UNL A   1      37.117  19.852  25.384  1.00  0.00     0.163 HD
BRANCH   5   7
ATOM      7  C   UNL A   1      39.373  22.084  26.408  1.00  0.00     0.039 A 
ATOM      8  C   UNL A   1      38.918  23.305  25.908  1.00  0.00     0.014 A 
ATOM      9  C   UNL A   1      40.403  22.053  27.352  1.00  0.00     0.014 A 
ATOM     10  C   UNL A   1      39.611  24.470  26.205  1.00  0.00     0.010 A 
ATOM     11  C   UNL A   1      41.028  23.243  27.734  1.00  0.00     0.010 A 
ATOM     12  C   UNL A   1      40.666  24.459  27.133  1.00  0.00    -0.014 A 
BRANCH  12  13
ATOM     13  C   UNL A   1      41.317  25.744  27.501  1.00  0.00     0.031 A 
ATOM     14  C   UNL A   1      42.725  26.065  27.080  1.00  0.00     0.074 A 
ATOM     15  C   UNL A   1      40.606  26.638  28.216  1.00  0.00     0.049 A 
ATOM     16  N   UNL A   1      43.416  27.157  27.295  1.00  0.00    -0.248 NA
ATOM     17  C   UNL A   1      43.460  25.034  26.331  1.00  0.00     0.031 C 
ATOM     18  C   UNL A   1      39.245  26.422  28.716  1.00  0.00     0.029 A 
ATOM     19  N   UNL A   1      40.918  27.902  28.645  1.00  0.00    -0.354 N 
ATOM     20  C   UNL A   1      44.674  26.932  26.748  1.00  0.00     0.074 A 
ATOM     21  C   UNL A   1      44.655  25.594  26.196  1.00  0.00     0.031 C 
ATOM     22  C   UNL A   1      38.827  27.523  29.353  1.00  0.00     0.029 A 
ATOM     23  C   UNL A   1      39.909  28.499  29.365  1.00  0.00     0.049 A 
ATOM     24  H   UNL A   1      41.779  28.339  28.457  1.00  0.00     0.167 HD
ATOM     25  C   UNL A   1      45.740  27.768  26.700  1.00  0.00     0.034 A 
ATOM     26  C   UNL A   1      39.864  29.690  29.990  1.00  0.00     0.034 A 
ATOM     27  C   UNL A   1      45.741  29.109  27.229  1.00  0.00     0.049 A 
ATOM     28  C   UNL A   1      41.057  30.596  29.910  1.00  0.00     0.074 A 
ATOM     29  C   UNL A   1      46.751  30.053  27.172  1.00  0.00     0.029 A 
ATOM     30  N   UNL A   1      44.691  29.690  27.922  1.00  0.00    -0.354 N 
ATOM     31  N   UNL A   1      42.191  30.412  29.280  1.00  0.00    -0.248 NA
ATOM     32  C   UNL A   1      40.954  31.888  30.603  1.00  0.00     0.031 C 
ATOM     33  C   UNL A   1      46.323  31.194  27.862  1.00  0.00     0.029 A 
ATOM     34  C   UNL A   1      45.032  30.975  28.313  1.00  0.00     0.049 A 
ATOM     35  H   UNL A   1      43.829  29.254  28.109  1.00  0.00     0.167 HD
ATOM     36  C   UNL A   1      42.927  31.573  29.474  1.00  0.00     0.074 A 
ATOM     37  C   UNL A   1      42.096  32.466  30.259  1.00  0.00     0.031 C 
ATOM     38  C   UNL A   1      44.181  31.869  29.055  1.00  0.00     0.034 A 
BRANCH  25  39
ATOM     39  C   UNL A   1      46.998  27.272  26.030  1.00  0.00     0.023 A 
ATOM     40  C   UNL A   1      47.214  27.534  24.661  1.00  0.00     0.012 A 
ATOM     41  C   UNL A   1      48.001  26.613  26.770  1.00  0.00     0.148 A 
ATOM     42  C   UNL A   1      48.389  27.120  24.033  1.00  0.00     0.002 A 
ATOM     43  C   UNL A   1      49.188  26.244  26.148  1.00  0.00     0.091 A 
ATOM     44  F   UNL A   1      47.774  26.358  28.066  1.00  0.00    -0.205 F 
ATOM     45  C   UNL A   1      49.379  26.486  24.777  1.00  0.00     0.022 A 
BRANCH  43  46
ATOM     46  S   UNL A   1      50.558  25.494  27.037  1.00  0.00     0.127 S 
ATOM     47  O   UNL A   1      51.513  25.252  25.957  1.00  0.00    -0.237 OA
ATOM     48  O   UNL A   1      50.944  26.558  27.963  1.00  0.00    -0.237 OA
ATOM     49  O   UNL A   1      50.019  24.300  27.673  1.00  0.00    -0.744 OA
ENDBRANCH  43  46
ENDBRANCH  25  39
BRANCH  26  50
ATOM     50  C   UNL A   1      38.629  30.098  30.716  1.00  0.00     0.023 A 
ATOM     51  C   UNL A   1      38.474  29.756  32.073  1.00  0.00     0.012 A 
ATOM     52  C   UNL A   1      37.628  30.857  30.078  1.00  0.00     0.148 A 
ATOM     53  C   UNL A   1      37.330  30.139  32.773  1.00  0.00     0.002 A 
ATOM     54  C   UNL A   1      36.522  31.288  30.798  1.00  0.00     0.091 A 
ATOM     55  F   UNL A   1      37.791  31.162  28.783  1.00  0.00    -0.205 F 
ATOM     56  C   UNL A   1      36.361  30.914  32.140  1.00  0.00     0.022 A 
BRANCH  54  57
ATOM     57  S   UNL A   1      35.302  32.407  30.104  1.00  0.00     0.127 S 
ATOM     58  O   UNL A   1      34.367  32.555  31.216  1.00  0.00    -0.237 OA
ATOM     59  O   UNL A   1      36.110  33.592  29.816  1.00  0.00    -0.237 OA
ATOM     60  O   UNL A   1      34.780  31.736  28.922  1.00  0.00    -0.744 OA
ENDBRANCH  54  57
ENDBRANCH  26  50
BRANCH  38  61
ATOM     61  C   UNL A   1      44.722  33.232  29.402  1.00  0.00     0.023 A 
ATOM     62  C   UNL A   1      44.519  34.316  28.525  1.00  0.00     0.012 A 
ATOM     63  C   UNL A   1      45.389  33.447  30.624  1.00  0.00     0.148 A 
ATOM     64  C   UNL A   1      45.005  35.584  28.840  1.00  0.00     0.002 A 
ATOM     65  C   UNL A   1      45.824  34.724  30.956  1.00  0.00     0.091 A 
ATOM     66  F   UNL A   1      45.590  32.399  31.436  1.00  0.00    -0.205 F 
ATOM     67  C   UNL A   1      45.647  35.790  30.059  1.00  0.00     0.022 A 
BRANCH  65  68
ATOM     68  S   UNL A   1      46.574  35.103  32.544  1.00  0.00     0.127 S 
ATOM     69  O   UNL A   1      47.809  34.323  32.483  1.00  0.00    -0.237 OA
ATOM     70  O   UNL A   1      46.762  36.551  32.459  1.00  0.00    -0.237 OA
ATOM     71  O   UNL A   1      45.614  34.676  33.552  1.00  0.00    -0.744 OA
ENDBRANCH  65  68
ENDBRANCH  38  61
ENDBRANCH  12  13
ENDBRANCH   5   7
ENDBRANCH   2   3
ENDBRANCH   1   2
BRANCH   1  72
ATOM     72  C   UNL A   1      35.920  23.228  23.569  1.00  0.00     0.023 C 
BRANCH  72  73
ATOM     73  C   UNL A   1      34.954  24.358  23.918  1.00  0.00     0.116 C 
BRANCH  73  74
ATOM     74  N   UNL A   1      34.063  24.696  22.812  1.00  0.00    -0.352 N 
ATOM     75  C   UNL A   1      32.940  25.489  22.828  1.00  0.00     0.253 C 
ATOM     76  H   UNL A   1      34.297  24.304  21.939  1.00  0.00     0.163 HD
ATOM     77  O   UNL A   1      32.155  25.516  21.890  1.00  0.00    -0.269 OA
BRANCH  75  78
ATOM     78  C   UNL A   1      32.643  26.263  24.044  1.00  0.00     0.067 A 
ATOM     79  C   UNL A   1      33.237  27.529  24.178  1.00  0.00     0.058 A 
ATOM     80  C   UNL A   1      31.925  25.673  25.101  1.00  0.00     0.065 A 
ATOM     81  C   UNL A   1      33.227  28.148  25.417  1.00  0.00     0.159 A 
ATOM     82  C   UNL A   1      32.031  26.271  26.358  1.00  0.00     0.070 A 
ATOM     83  F   UNL A   1      33.840  29.329  25.569  1.00  0.00    -0.204 F 
ATOM     84  C   UNL A   1      32.658  27.508  26.507  1.00  0.00     0.160 A 
ATOM     85  F   UNL A   1      32.714  28.070  27.722  1.00  0.00    -0.204 F 
BRANCH  80  86
ATOM     86  N   UNL A   1      31.218  24.415  24.963  1.00  0.00    -0.279 N 
ATOM     87  H   UNL A   1      30.467  24.335  24.332  1.00  0.00     0.180 HD
BRANCH  86  88
ATOM     88  S   UNL A   1      31.701  23.060  25.913  1.00  0.00     0.261 S 
ATOM     89  O   UNL A   1      32.950  23.401  26.552  1.00  0.00    -0.201 OA
ATOM     90  O   UNL A   1      30.544  22.686  26.704  1.00  0.00    -0.201 OA
BRANCH  88  91
ATOM     91  C   UNL A   1      32.038  21.725  24.787  1.00  0.00     0.088 A 
ATOM     92  C   UNL A   1      31.950  21.976  23.402  1.00  0.00     0.022 A 
ATOM     93  C   UNL A   1      32.370  20.455  25.277  1.00  0.00     0.026 A 
ATOM     94  C   UNL A   1      32.038  20.921  22.493  1.00  0.00     0.005 A 
ATOM     95  C   UNL A   1      32.514  19.430  24.355  1.00  0.00    -0.043 A 
ATOM     96  C   UNL A   1      32.302  19.654  22.987  1.00  0.00    -0.045 A 
ATOM     97  C   UNL A   1      32.827  17.987  24.610  1.00  0.00     0.036 C 
ATOM     98  C   UNL A   1      32.339  18.365  22.228  1.00  0.00     0.036 C 
ATOM     99  C   UNL A   1      33.146  17.488  23.191  1.00  0.00     0.010 C 
ENDBRANCH  88  91
ENDBRANCH  86  88
ENDBRANCH  80  86
ENDBRANCH  75  78
ENDBRANCH  73  74
ENDBRANCH  72  73
ENDBRANCH   1  72
TORSDOF 17
ENDMDL
