MODEL 1
REMARK VINA RESULT:     -12.0      0.000      0.000
REMARK SMILES O=C(C[N@H+]1CCC[C@@H]1C(=O)NCCCCNC(=O)c1ccc(-c2c3nc(c(-c4cccc(S(=O)(=O)[O-])c4F)c4ccc([nH]4)c(-c4cccc(S(=O)(=O)[O-])c4F)c4nc(c(-c5cccc(S(=O)(=O)[O-])c5F)c5ccc2[nH]5)C=C4)C=C3)cc1)NCc1ccc(Cl)cc1
REMARK SMILES IDX 13 1 12 2 11 3 9 4 10 5 8 7 4 8 5 9 6 11 7 12 3 13 2 14 1 15
REMARK SMILES IDX 82 16 83 18 84 19 85 20 90 21 86 22 89 23 87 24 88 25 14 26
REMARK SMILES IDX 15 27 16 28 17 29 18 31 19 32 20 33 81 34 21 35 80 36 22 37
REMARK SMILES IDX 23 38 24 39 74 40 25 41 79 42 73 43 75 44 26 45 78 46 72 47
REMARK SMILES IDX 71 48 27 50 59 51 39 52 58 53 40 54 43 55 57 56 76 57 41 58
REMARK SMILES IDX 42 59 56 61 77 62 44 63 28 64 29 65 37 66 30 67 32 68 38 69
REMARK SMILES IDX 31 70 33 71 34 72 35 73 36 74 60 75 61 76 69 77 62 78 64 79
REMARK SMILES IDX 70 80 63 81 65 82 66 83 67 84 68 85 45 86 46 87 54 88 47 89
REMARK SMILES IDX 49 90 55 91 48 92 50 93 51 94 52 95 53 96
REMARK H PARENT 11 6 4 10 82 17 16 30 75 49 43 60
REMARK Flexibility Score: inf
ROOT
ATOM      1  C   UNL A   1      33.943  28.253  24.391  1.00  0.00     0.023 C 
ENDROOT
BRANCH   1   2
ATOM      2  C   UNL A   1      33.230  26.942  24.095  1.00  0.00     0.116 C 
BRANCH   2   3
ATOM      3  N   UNL A   1      33.239  26.612  22.681  1.00  0.00    -0.351 N 
ATOM      4  C   UNL A   1      33.297  25.388  22.079  1.00  0.00     0.278 C 
ATOM      5  O   UNL A   1      33.203  25.338  20.848  1.00  0.00    -0.268 OA
ATOM      6  H   UNL A   1      33.197  27.381  22.068  1.00  0.00     0.163 HD
BRANCH   4   7
ATOM      7  C   UNL A   1      33.533  24.096  22.877  1.00  0.00     0.274 C 
ATOM      8  N   UNL A   1      32.624  23.935  24.018  1.00  0.00    -0.317 N 
ATOM      9  C   UNL A   1      33.272  23.034  24.952  1.00  0.00     0.263 C 
ATOM     10  H   UNL A   1      32.490  24.835  24.479  1.00  0.00     0.349 HD
ATOM     11  C   UNL A   1      34.683  23.598  24.961  1.00  0.00     0.068 C 
ATOM     12  C   UNL A   1      34.921  24.060  23.525  1.00  0.00     0.081 C 
BRANCH   8  13
ATOM     13  C   UNL A   1      31.219  23.710  23.713  1.00  0.00     0.364 C 
BRANCH  13  14
ATOM     14  C   UNL A   1      30.401  24.786  24.444  1.00  0.00     0.275 C 
ATOM     15  O   UNL A   1      30.386  24.898  25.667  1.00  0.00    -0.268 OA
ATOM     16  N   UNL A   1      29.601  25.533  23.606  1.00  0.00    -0.347 N 
ATOM     17  H   UNL A   1      29.714  25.439  22.633  1.00  0.00     0.164 HD
BRANCH  16  18
ATOM     18  C   UNL A   1      28.605  26.449  24.107  1.00  0.00     0.151 C 
BRANCH  18  19
ATOM     19  C   UNL A   1      28.642  27.765  23.375  1.00  0.00    -0.029 A 
ATOM     20  C   UNL A   1      29.859  28.260  22.881  1.00  0.00     0.007 A 
ATOM     21  C   UNL A   1      27.477  28.528  23.197  1.00  0.00     0.007 A 
ATOM     22  C   UNL A   1      29.906  29.485  22.212  1.00  0.00     0.021 A 
ATOM     23  C   UNL A   1      27.523  29.746  22.520  1.00  0.00     0.021 A 
ATOM     24  C   UNL A   1      28.738  30.221  22.030  1.00  0.00     0.041 A 
ATOM     25  Cl  UNL A   1      28.792  31.727  21.203  1.00  0.00    -0.084 Cl
ENDBRANCH  18  19
ENDBRANCH  16  18
ENDBRANCH  13  14
ENDBRANCH   8  13
ENDBRANCH   4   7
ENDBRANCH   2   3
ENDBRANCH   1   2
BRANCH   1  26
ATOM     26  C   UNL A   1      33.020  29.417  24.729  1.00  0.00     0.023 C 
BRANCH  26  27
ATOM     27  C   UNL A   1      32.796  29.659  26.218  1.00  0.00     0.116 C 
BRANCH  27  28
ATOM     28  N   UNL A   1      32.548  31.056  26.555  1.00  0.00    -0.352 N 
ATOM     29  C   UNL A   1      33.328  31.898  27.313  1.00  0.00     0.251 C 
ATOM     30  H   UNL A   1      31.718  31.445  26.195  1.00  0.00     0.163 HD
ATOM     31  O   UNL A   1      32.945  33.029  27.598  1.00  0.00    -0.269 OA
BRANCH  29  32
ATOM     32  C   UNL A   1      34.624  31.400  27.812  1.00  0.00     0.039 A 
ATOM     33  C   UNL A   1      35.634  32.314  28.114  1.00  0.00     0.014 A 
ATOM     34  C   UNL A   1      34.801  30.034  28.055  1.00  0.00     0.014 A 
ATOM     35  C   UNL A   1      36.800  31.866  28.739  1.00  0.00     0.010 A 
ATOM     36  C   UNL A   1      35.931  29.603  28.741  1.00  0.00     0.010 A 
ATOM     37  C   UNL A   1      36.938  30.514  29.094  1.00  0.00    -0.014 A 
BRANCH  37  38
ATOM     38  C   UNL A   1      38.118  30.031  29.855  1.00  0.00     0.031 A 
ATOM     39  C   UNL A   1      38.378  30.542  31.244  1.00  0.00     0.074 A 
ATOM     40  C   UNL A   1      39.005  29.212  29.256  1.00  0.00     0.049 A 
ATOM     41  N   UNL A   1      39.388  30.293  32.037  1.00  0.00    -0.248 NA
ATOM     42  C   UNL A   1      37.390  31.477  31.807  1.00  0.00     0.031 C 
ATOM     43  C   UNL A   1      38.909  28.718  27.879  1.00  0.00     0.029 A 
ATOM     44  N   UNL A   1      40.178  28.672  29.719  1.00  0.00    -0.354 N 
ATOM     45  C   UNL A   1      39.175  31.062  33.174  1.00  0.00     0.074 A 
ATOM     46  C   UNL A   1      37.960  31.816  32.953  1.00  0.00     0.031 C 
ATOM     47  C   UNL A   1      39.973  27.945  27.614  1.00  0.00     0.029 A 
ATOM     48  C   UNL A   1      40.839  27.905  28.788  1.00  0.00     0.049 A 
ATOM     49  H   UNL A   1      40.516  28.820  30.632  1.00  0.00     0.167 HD
ATOM     50  C   UNL A   1      39.903  31.109  34.314  1.00  0.00     0.034 A 
ATOM     51  C   UNL A   1      42.010  27.244  28.872  1.00  0.00     0.034 A 
ATOM     52  C   UNL A   1      41.081  30.320  34.551  1.00  0.00     0.049 A 
ATOM     53  C   UNL A   1      42.771  27.268  30.170  1.00  0.00     0.074 A 
ATOM     54  C   UNL A   1      41.845  30.238  35.700  1.00  0.00     0.029 A 
ATOM     55  N   UNL A   1      41.662  29.472  33.621  1.00  0.00    -0.354 N 
ATOM     56  N   UNL A   1      42.470  27.879  31.291  1.00  0.00    -0.248 NA
ATOM     57  C   UNL A   1      44.012  26.482  30.231  1.00  0.00     0.031 C 
ATOM     58  C   UNL A   1      42.894  29.342  35.464  1.00  0.00     0.029 A 
ATOM     59  C   UNL A   1      42.775  28.860  34.170  1.00  0.00     0.049 A 
ATOM     60  H   UNL A   1      41.334  29.328  32.704  1.00  0.00     0.167 HD
ATOM     61  C   UNL A   1      43.462  27.524  32.198  1.00  0.00     0.074 A 
ATOM     62  C   UNL A   1      44.362  26.628  31.502  1.00  0.00     0.031 C 
ATOM     63  C   UNL A   1      43.624  27.920  33.484  1.00  0.00     0.034 A 
BRANCH  50  64
ATOM     64  C   UNL A   1      39.396  31.990  35.426  1.00  0.00     0.023 A 
ATOM     65  C   UNL A   1      38.475  31.460  36.354  1.00  0.00     0.012 A 
ATOM     66  C   UNL A   1      39.857  33.309  35.586  1.00  0.00     0.148 A 
ATOM     67  C   UNL A   1      37.995  32.240  37.404  1.00  0.00     0.002 A 
ATOM     68  C   UNL A   1      39.407  34.069  36.660  1.00  0.00     0.091 A 
ATOM     69  F   UNL A   1      40.714  33.804  34.681  1.00  0.00    -0.205 F 
ATOM     70  C   UNL A   1      38.468  33.540  37.563  1.00  0.00     0.022 A 
BRANCH  68  71
ATOM     71  S   UNL A   1      40.011  35.727  36.996  1.00  0.00     0.127 S 
ATOM     72  O   UNL A   1      39.297  36.058  38.229  1.00  0.00    -0.237 OA
ATOM     73  O   UNL A   1      41.447  35.506  37.166  1.00  0.00    -0.237 OA
ATOM     74  O   UNL A   1      39.654  36.525  35.831  1.00  0.00    -0.744 OA
ENDBRANCH  68  71
ENDBRANCH  50  64
BRANCH  51  75
ATOM     75  C   UNL A   1      42.489  26.427  27.719  1.00  0.00     0.023 A 
ATOM     76  C   UNL A   1      43.394  27.000  26.804  1.00  0.00     0.012 A 
ATOM     77  C   UNL A   1      42.086  25.090  27.542  1.00  0.00     0.148 A 
ATOM     78  C   UNL A   1      43.866  26.265  25.716  1.00  0.00     0.002 A 
ATOM     79  C   UNL A   1      42.601  24.347  26.484  1.00  0.00     0.091 A 
ATOM     80  F   UNL A   1      41.213  24.567  28.415  1.00  0.00    -0.205 F 
ATOM     81  C   UNL A   1      43.479  24.937  25.562  1.00  0.00     0.022 A 
BRANCH  79  82
ATOM     82  S   UNL A   1      42.257  22.596  26.286  1.00  0.00     0.127 S 
ATOM     83  O   UNL A   1      42.855  22.034  27.493  1.00  0.00    -0.237 OA
ATOM     84  O   UNL A   1      40.794  22.573  26.255  1.00  0.00    -0.237 OA
ATOM     85  O   UNL A   1      42.884  22.216  25.027  1.00  0.00    -0.744 OA
ENDBRANCH  79  82
ENDBRANCH  51  75
BRANCH  63  86
ATOM     86  C   UNL A   1      44.801  27.367  34.242  1.00  0.00     0.023 A 
ATOM     87  C   UNL A   1      46.021  28.073  34.244  1.00  0.00     0.012 A 
ATOM     88  C   UNL A   1      44.675  26.197  35.017  1.00  0.00     0.148 A 
ATOM     89  C   UNL A   1      47.106  27.607  34.985  1.00  0.00     0.002 A 
ATOM     90  C   UNL A   1      45.748  25.763  35.787  1.00  0.00     0.091 A 
ATOM     91  F   UNL A   1      43.513  25.529  34.985  1.00  0.00    -0.205 F 
ATOM     92  C   UNL A   1      46.967  26.461  35.765  1.00  0.00     0.022 A 
BRANCH  90  93
ATOM     93  S   UNL A   1      45.626  24.350  36.891  1.00  0.00     0.127 S 
ATOM     94  O   UNL A   1      44.540  24.761  37.780  1.00  0.00    -0.237 OA
ATOM     95  O   UNL A   1      45.283  23.264  35.971  1.00  0.00    -0.237 OA
ATOM     96  O   UNL A   1      46.935  24.218  37.515  1.00  0.00    -0.744 OA
ENDBRANCH  90  93
ENDBRANCH  63  86
ENDBRANCH  37  38
ENDBRANCH  29  32
ENDBRANCH  27  28
ENDBRANCH  26  27
ENDBRANCH   1  26
TORSDOF 18
ENDMDL
MODEL 2
REMARK VINA RESULT:     -11.9      3.059      8.581
REMARK SMILES O=C(C[N@H+]1CCC[C@@H]1C(=O)NCCCCNC(=O)c1ccc(-c2c3nc(c(-c4cccc(S(=O)(=O)[O-])c4F)c4ccc([nH]4)c(-c4cccc(S(=O)(=O)[O-])c4F)c4nc(c(-c5cccc(S(=O)(=O)[O-])c5F)c5ccc2[nH]5)C=C4)C=C3)cc1)NCc1ccc(Cl)cc1
REMARK SMILES IDX 13 1 12 2 11 3 9 4 10 5 8 7 4 8 5 9 6 11 7 12 3 13 2 14 1 15
REMARK SMILES IDX 82 16 83 18 84 19 85 20 90 21 86 22 89 23 87 24 88 25 14 26
REMARK SMILES IDX 15 27 16 28 17 29 18 31 19 32 20 33 81 34 21 35 80 36 22 37
REMARK SMILES IDX 23 38 24 39 74 40 25 41 79 42 73 43 75 44 26 45 78 46 72 47
REMARK SMILES IDX 71 48 27 50 59 51 39 52 58 53 40 54 43 55 57 56 76 57 41 58
REMARK SMILES IDX 42 59 56 61 77 62 44 63 28 64 29 65 37 66 30 67 32 68 38 69
REMARK SMILES IDX 31 70 33 71 34 72 35 73 36 74 60 75 61 76 69 77 62 78 64 79
REMARK SMILES IDX 70 80 63 81 65 82 66 83 67 84 68 85 45 86 46 87 54 88 47 89
REMARK SMILES IDX 49 90 55 91 48 92 50 93 51 94 52 95 53 96
REMARK H PARENT 11 6 4 10 82 17 16 30 75 49 43 60
REMARK Flexibility Score: inf
ROOT
ATOM      1  C   UNL A   1      32.332  30.445  26.393  1.00  0.00     0.023 C 
ENDROOT
BRANCH   1   2
ATOM      2  C   UNL A   1      32.015  29.250  27.280  1.00  0.00     0.116 C 
BRANCH   2   3
ATOM      3  N   UNL A   1      32.833  28.092  26.965  1.00  0.00    -0.351 N 
ATOM      4  C   UNL A   1      32.718  27.207  25.933  1.00  0.00     0.278 C 
ATOM      5  O   UNL A   1      33.587  26.338  25.809  1.00  0.00    -0.268 OA
ATOM      6  H   UNL A   1      33.579  27.921  27.585  1.00  0.00     0.163 HD
BRANCH   4   7
ATOM      7  C   UNL A   1      31.520  27.226  24.971  1.00  0.00     0.274 C 
ATOM      8  N   UNL A   1      30.880  25.916  24.803  1.00  0.00    -0.317 N 
ATOM      9  C   UNL A   1      30.178  25.946  23.534  1.00  0.00     0.263 C 
ATOM     10  H   UNL A   1      31.593  25.188  24.760  1.00  0.00     0.349 HD
ATOM     11  C   UNL A   1      31.229  26.587  22.642  1.00  0.00     0.068 C 
ATOM     12  C   UNL A   1      31.929  27.602  23.543  1.00  0.00     0.081 C 
BRANCH   8  13
ATOM     13  C   UNL A   1      30.180  25.374  25.958  1.00  0.00     0.364 C 
BRANCH  13  14
ATOM     14  C   UNL A   1      30.876  24.062  26.357  1.00  0.00     0.275 C 
ATOM     15  O   UNL A   1      30.538  23.398  27.333  1.00  0.00    -0.268 OA
ATOM     16  N   UNL A   1      31.980  23.769  25.587  1.00  0.00    -0.347 N 
ATOM     17  H   UNL A   1      32.152  24.305  24.780  1.00  0.00     0.164 HD
BRANCH  16  18
ATOM     18  C   UNL A   1      32.891  22.703  25.923  1.00  0.00     0.151 C 
BRANCH  18  19
ATOM     19  C   UNL A   1      32.713  21.512  25.017  1.00  0.00    -0.029 A 
ATOM     20  C   UNL A   1      32.879  20.214  25.523  1.00  0.00     0.007 A 
ATOM     21  C   UNL A   1      32.407  21.677  23.657  1.00  0.00     0.007 A 
ATOM     22  C   UNL A   1      32.727  19.103  24.690  1.00  0.00     0.021 A 
ATOM     23  C   UNL A   1      32.246  20.567  22.827  1.00  0.00     0.021 A 
ATOM     24  C   UNL A   1      32.408  19.284  23.347  1.00  0.00     0.041 A 
ATOM     25  Cl  UNL A   1      32.216  17.920  22.319  1.00  0.00    -0.084 Cl
ENDBRANCH  18  19
ENDBRANCH  16  18
ENDBRANCH  13  14
ENDBRANCH   8  13
ENDBRANCH   4   7
ENDBRANCH   2   3
ENDBRANCH   1   2
BRANCH   1  26
ATOM     26  C   UNL A   1      31.864  31.786  26.942  1.00  0.00     0.023 C 
BRANCH  26  27
ATOM     27  C   UNL A   1      32.960  32.664  27.539  1.00  0.00     0.116 C 
BRANCH  27  28
ATOM     28  N   UNL A   1      32.550  34.045  27.763  1.00  0.00    -0.352 N 
ATOM     29  C   UNL A   1      33.069  34.949  28.660  1.00  0.00     0.251 C 
ATOM     30  H   UNL A   1      31.809  34.371  27.203  1.00  0.00     0.163 HD
ATOM     31  O   UNL A   1      32.558  36.055  28.809  1.00  0.00    -0.269 OA
BRANCH  29  32
ATOM     32  C   UNL A   1      34.236  34.549  29.470  1.00  0.00     0.039 A 
ATOM     33  C   UNL A   1      34.031  34.028  30.748  1.00  0.00     0.014 A 
ATOM     34  C   UNL A   1      35.522  34.615  28.923  1.00  0.00     0.014 A 
ATOM     35  C   UNL A   1      35.113  33.496  31.453  1.00  0.00     0.010 A 
ATOM     36  C   UNL A   1      36.582  34.021  29.597  1.00  0.00     0.010 A 
ATOM     37  C   UNL A   1      36.388  33.451  30.864  1.00  0.00    -0.014 A 
BRANCH  37  38
ATOM     38  C   UNL A   1      37.531  32.794  31.547  1.00  0.00     0.031 A 
ATOM     39  C   UNL A   1      38.220  31.624  30.903  1.00  0.00     0.074 A 
ATOM     40  C   UNL A   1      37.880  33.189  32.787  1.00  0.00     0.049 A 
ATOM     41  N   UNL A   1      39.188  30.878  31.372  1.00  0.00    -0.248 NA
ATOM     42  C   UNL A   1      37.743  31.219  29.570  1.00  0.00     0.031 C 
ATOM     43  C   UNL A   1      37.228  34.253  33.554  1.00  0.00     0.029 A 
ATOM     44  N   UNL A   1      38.853  32.720  33.635  1.00  0.00    -0.354 N 
ATOM     45  C   UNL A   1      39.412  29.901  30.410  1.00  0.00     0.074 A 
ATOM     46  C   UNL A   1      38.454  30.124  29.349  1.00  0.00     0.031 C 
ATOM     47  C   UNL A   1      37.822  34.360  34.753  1.00  0.00     0.029 A 
ATOM     48  C   UNL A   1      38.879  33.359  34.853  1.00  0.00     0.049 A 
ATOM     49  H   UNL A   1      39.472  31.994  33.394  1.00  0.00     0.167 HD
ATOM     50  C   UNL A   1      40.353  28.928  30.393  1.00  0.00     0.034 A 
ATOM     51  C   UNL A   1      39.668  33.161  35.927  1.00  0.00     0.034 A 
ATOM     52  C   UNL A   1      41.336  28.741  31.425  1.00  0.00     0.049 A 
ATOM     53  C   UNL A   1      40.743  32.110  35.859  1.00  0.00     0.074 A 
ATOM     54  C   UNL A   1      42.380  27.835  31.466  1.00  0.00     0.029 A 
ATOM     55  N   UNL A   1      41.399  29.478  32.598  1.00  0.00    -0.354 N 
ATOM     56  N   UNL A   1      41.041  31.297  34.874  1.00  0.00    -0.248 NA
ATOM     57  C   UNL A   1      41.616  31.973  37.034  1.00  0.00     0.031 C 
ATOM     58  C   UNL A   1      43.073  28.021  32.666  1.00  0.00     0.029 A 
ATOM     59  C   UNL A   1      42.465  29.050  33.368  1.00  0.00     0.049 A 
ATOM     60  H   UNL A   1      40.776  30.199  32.847  1.00  0.00     0.167 HD
ATOM     61  C   UNL A   1      42.154  30.579  35.295  1.00  0.00     0.074 A 
ATOM     62  C   UNL A   1      42.491  31.067  36.616  1.00  0.00     0.031 C 
ATOM     63  C   UNL A   1      42.825  29.591  34.654  1.00  0.00     0.034 A 
BRANCH  50  64
ATOM     64  C   UNL A   1      40.414  28.041  29.178  1.00  0.00     0.023 A 
ATOM     65  C   UNL A   1      39.483  26.989  29.050  1.00  0.00     0.012 A 
ATOM     66  C   UNL A   1      41.345  28.270  28.148  1.00  0.00     0.148 A 
ATOM     67  C   UNL A   1      39.500  26.157  27.932  1.00  0.00     0.002 A 
ATOM     68  C   UNL A   1      41.329  27.462  27.016  1.00  0.00     0.091 A 
ATOM     69  F   UNL A   1      42.237  29.259  28.297  1.00  0.00    -0.205 F 
ATOM     70  C   UNL A   1      40.415  26.399  26.911  1.00  0.00     0.022 A 
BRANCH  68  71
ATOM     71  S   UNL A   1      42.417  27.737  25.613  1.00  0.00     0.127 S 
ATOM     72  O   UNL A   1      43.730  27.746  26.255  1.00  0.00    -0.237 OA
ATOM     73  O   UNL A   1      42.154  26.562  24.782  1.00  0.00    -0.237 OA
ATOM     74  O   UNL A   1      41.997  29.001  25.025  1.00  0.00    -0.744 OA
ENDBRANCH  68  71
ENDBRANCH  50  64
BRANCH  51  75
ATOM     75  C   UNL A   1      39.529  34.038  37.125  1.00  0.00     0.023 A 
ATOM     76  C   UNL A   1      39.950  35.380  37.043  1.00  0.00     0.012 A 
ATOM     77  C   UNL A   1      38.958  33.570  38.323  1.00  0.00     0.148 A 
ATOM     78  C   UNL A   1      39.832  36.231  38.141  1.00  0.00     0.002 A 
ATOM     79  C   UNL A   1      38.796  34.438  39.398  1.00  0.00     0.091 A 
ATOM     80  F   UNL A   1      38.577  32.286  38.387  1.00  0.00    -0.205 F 
ATOM     81  C   UNL A   1      39.246  35.764  39.314  1.00  0.00     0.022 A 
BRANCH  79  82
ATOM     82  S   UNL A   1      37.935  33.955  40.899  1.00  0.00     0.127 S 
ATOM     83  O   UNL A   1      36.796  33.213  40.366  1.00  0.00    -0.237 OA
ATOM     84  O   UNL A   1      38.940  33.137  41.578  1.00  0.00    -0.237 OA
ATOM     85  O   UNL A   1      37.619  35.202  41.584  1.00  0.00    -0.744 OA
ENDBRANCH  79  82
ENDBRANCH  51  75
BRANCH  63  86
ATOM     86  C   UNL A   1      44.013  28.986  35.353  1.00  0.00     0.023 A 
ATOM     87  C   UNL A   1      45.294  29.539  35.154  1.00  0.00     0.012 A 
ATOM     88  C   UNL A   1      43.849  27.929  36.270  1.00  0.00     0.148 A 
ATOM     89  C   UNL A   1      46.398  29.030  35.836  1.00  0.00     0.002 A 
ATOM     90  C   UNL A   1      44.948  27.455  36.978  1.00  0.00     0.091 A 
ATOM     91  F   UNL A   1      42.626  27.403  36.430  1.00  0.00    -0.205 F 
ATOM     92  C   UNL A   1      46.224  27.998  36.756  1.00  0.00     0.022 A 
BRANCH  90  93
ATOM     93  S   UNL A   1      44.797  26.193  38.248  1.00  0.00     0.127 S 
ATOM     94  O   UNL A   1      43.566  26.598  38.925  1.00  0.00    -0.237 OA
ATOM     95  O   UNL A   1      44.682  24.966  37.457  1.00  0.00    -0.237 OA
ATOM     96  O   UNL A   1      46.013  26.282  39.045  1.00  0.00    -0.744 OA
ENDBRANCH  90  93
ENDBRANCH  63  86
ENDBRANCH  37  38
ENDBRANCH  29  32
ENDBRANCH  27  28
ENDBRANCH  26  27
ENDBRANCH   1  26
TORSDOF 18
ENDMDL
MODEL 3
REMARK VINA RESULT:     -11.9      2.358      7.929
REMARK SMILES O=C(C[N@H+]1CCC[C@@H]1C(=O)NCCCCNC(=O)c1ccc(-c2c3nc(c(-c4cccc(S(=O)(=O)[O-])c4F)c4ccc([nH]4)c(-c4cccc(S(=O)(=O)[O-])c4F)c4nc(c(-c5cccc(S(=O)(=O)[O-])c5F)c5ccc2[nH]5)C=C4)C=C3)cc1)NCc1ccc(Cl)cc1
REMARK SMILES IDX 13 1 12 2 11 3 9 4 10 5 8 7 4 8 5 9 6 11 7 12 3 13 2 14 1 15
REMARK SMILES IDX 82 16 83 18 84 19 85 20 90 21 86 22 89 23 87 24 88 25 14 26
REMARK SMILES IDX 15 27 16 28 17 29 18 31 19 32 20 33 81 34 21 35 80 36 22 37
REMARK SMILES IDX 23 38 24 39 74 40 25 41 79 42 73 43 75 44 26 45 78 46 72 47
REMARK SMILES IDX 71 48 27 50 59 51 39 52 58 53 40 54 43 55 57 56 76 57 41 58
REMARK SMILES IDX 42 59 56 61 77 62 44 63 28 64 29 65 37 66 30 67 32 68 38 69
REMARK SMILES IDX 31 70 33 71 34 72 35 73 36 74 60 75 61 76 69 77 62 78 64 79
REMARK SMILES IDX 70 80 63 81 65 82 66 83 67 84 68 85 45 86 46 87 54 88 47 89
REMARK SMILES IDX 49 90 55 91 48 92 50 93 51 94 52 95 53 96
REMARK H PARENT 11 6 4 10 82 17 16 30 75 49 43 60
REMARK Flexibility Score: inf
ROOT
ATOM      1  C   UNL A   1      32.211  29.864  27.174  1.00  0.00     0.023 C 
ENDROOT
BRANCH   1   2
ATOM      2  C   UNL A   1      32.304  28.946  25.964  1.00  0.00     0.116 C 
BRANCH   2   3
ATOM      3  N   UNL A   1      33.165  27.801  26.201  1.00  0.00    -0.351 N 
ATOM      4  C   UNL A   1      33.416  26.727  25.397  1.00  0.00     0.278 C 
ATOM      5  O   UNL A   1      34.260  25.905  25.768  1.00  0.00    -0.268 OA
ATOM      6  H   UNL A   1      33.636  27.799  27.065  1.00  0.00     0.163 HD
BRANCH   4   7
ATOM      7  C   UNL A   1      32.643  26.487  24.090  1.00  0.00     0.274 C 
ATOM      8  N   UNL A   1      32.340  25.073  23.838  1.00  0.00    -0.317 N 
ATOM      9  C   UNL A   1      32.130  24.933  22.410  1.00  0.00     0.263 C 
ATOM     10  H   UNL A   1      33.140  24.498  24.104  1.00  0.00     0.349 HD
ATOM     11  C   UNL A   1      33.296  25.743  21.869  1.00  0.00     0.068 C 
ATOM     12  C   UNL A   1      33.450  26.899  22.855  1.00  0.00     0.081 C 
BRANCH   8  13
ATOM     13  C   UNL A   1      31.389  24.434  24.736  1.00  0.00     0.364 C 
BRANCH  13  14
ATOM     14  C   UNL A   1      30.256  25.436  25.010  1.00  0.00     0.275 C 
ATOM     15  O   UNL A   1      29.993  25.854  26.135  1.00  0.00    -0.268 OA
ATOM     16  N   UNL A   1      29.496  25.726  23.898  1.00  0.00    -0.347 N 
ATOM     17  H   UNL A   1      29.803  25.412  23.017  1.00  0.00     0.164 HD
BRANCH  16  18
ATOM     18  C   UNL A   1      28.265  26.475  23.981  1.00  0.00     0.151 C 
BRANCH  18  19
ATOM     19  C   UNL A   1      28.427  27.872  23.440  1.00  0.00    -0.029 A 
ATOM     20  C   UNL A   1      27.299  28.680  23.235  1.00  0.00     0.007 A 
ATOM     21  C   UNL A   1      29.694  28.377  23.108  1.00  0.00     0.007 A 
ATOM     22  C   UNL A   1      27.436  29.972  22.722  1.00  0.00     0.021 A 
ATOM     23  C   UNL A   1      29.832  29.671  22.605  1.00  0.00     0.021 A 
ATOM     24  C   UNL A   1      28.702  30.463  22.414  1.00  0.00     0.041 A 
ATOM     25  Cl  UNL A   1      28.875  32.055  21.786  1.00  0.00    -0.084 Cl
ENDBRANCH  18  19
ENDBRANCH  16  18
ENDBRANCH  13  14
ENDBRANCH   8  13
ENDBRANCH   4   7
ENDBRANCH   2   3
ENDBRANCH   1   2
BRANCH   1  26
ATOM     26  C   UNL A   1      32.005  31.336  26.840  1.00  0.00     0.023 C 
BRANCH  26  27
ATOM     27  C   UNL A   1      33.103  32.275  27.330  1.00  0.00     0.116 C 
BRANCH  27  28
ATOM     28  N   UNL A   1      32.652  33.644  27.549  1.00  0.00    -0.352 N 
ATOM     29  C   UNL A   1      33.114  34.553  28.472  1.00  0.00     0.251 C 
ATOM     30  H   UNL A   1      31.925  33.957  26.963  1.00  0.00     0.163 HD
ATOM     31  O   UNL A   1      32.571  35.645  28.610  1.00  0.00    -0.269 OA
BRANCH  29  32
ATOM     32  C   UNL A   1      34.259  34.173  29.323  1.00  0.00     0.039 A 
ATOM     33  C   UNL A   1      34.020  33.516  30.531  1.00  0.00     0.014 A 
ATOM     34  C   UNL A   1      35.565  34.396  28.877  1.00  0.00     0.014 A 
ATOM     35  C   UNL A   1      35.098  33.009  31.259  1.00  0.00     0.010 A 
ATOM     36  C   UNL A   1      36.630  33.829  29.568  1.00  0.00     0.010 A 
ATOM     37  C   UNL A   1      36.407  33.125  30.761  1.00  0.00    -0.014 A 
BRANCH  37  38
ATOM     38  C   UNL A   1      37.558  32.501  31.461  1.00  0.00     0.031 A 
ATOM     39  C   UNL A   1      38.286  31.348  30.831  1.00  0.00     0.074 A 
ATOM     40  C   UNL A   1      37.881  32.911  32.704  1.00  0.00     0.049 A 
ATOM     41  N   UNL A   1      39.266  30.629  31.315  1.00  0.00    -0.248 NA
ATOM     42  C   UNL A   1      37.836  30.925  29.494  1.00  0.00     0.031 C 
ATOM     43  C   UNL A   1      37.192  33.961  33.458  1.00  0.00     0.029 A 
ATOM     44  N   UNL A   1      38.855  32.471  33.565  1.00  0.00    -0.354 N 
ATOM     45  C   UNL A   1      39.528  29.654  30.361  1.00  0.00     0.074 A 
ATOM     46  C   UNL A   1      38.578  29.848  29.287  1.00  0.00     0.031 C 
ATOM     47  C   UNL A   1      37.768  34.089  34.663  1.00  0.00     0.029 A 
ATOM     48  C   UNL A   1      38.850  33.116  34.781  1.00  0.00     0.049 A 
ATOM     49  H   UNL A   1      39.497  31.761  33.336  1.00  0.00     0.167 HD
ATOM     50  C   UNL A   1      40.494  28.706  30.360  1.00  0.00     0.034 A 
ATOM     51  C   UNL A   1      39.630  32.943  35.865  1.00  0.00     0.034 A 
ATOM     52  C   UNL A   1      41.469  28.550  31.405  1.00  0.00     0.049 A 
ATOM     53  C   UNL A   1      40.733  31.920  35.816  1.00  0.00     0.074 A 
ATOM     54  C   UNL A   1      42.536  27.672  31.463  1.00  0.00     0.029 A 
ATOM     55  N   UNL A   1      41.498  29.293  32.575  1.00  0.00    -0.354 N 
ATOM     56  N   UNL A   1      41.064  31.111  34.838  1.00  0.00    -0.248 NA
ATOM     57  C   UNL A   1      41.595  31.812  37.002  1.00  0.00     0.031 C 
ATOM     58  C   UNL A   1      43.209  27.880  32.671  1.00  0.00     0.029 A 
ATOM     59  C   UNL A   1      42.566  28.896  33.360  1.00  0.00     0.049 A 
ATOM     60  H   UNL A   1      40.853  29.998  32.813  1.00  0.00     0.167 HD
ATOM     61  C   UNL A   1      42.191  30.425  35.276  1.00  0.00     0.074 A 
ATOM     62  C   UNL A   1      42.498  30.927  36.599  1.00  0.00     0.031 C 
ATOM     63  C   UNL A   1      42.895  29.452  34.648  1.00  0.00     0.034 A 
BRANCH  50  64
ATOM     64  C   UNL A   1      40.593  27.816  29.150  1.00  0.00     0.023 A 
ATOM     65  C   UNL A   1      39.749  26.690  29.056  1.00  0.00     0.012 A 
ATOM     66  C   UNL A   1      41.473  28.111  28.092  1.00  0.00     0.148 A 
ATOM     67  C   UNL A   1      39.803  25.851  27.945  1.00  0.00     0.002 A 
ATOM     68  C   UNL A   1      41.491  27.294  26.966  1.00  0.00     0.091 A 
ATOM     69  F   UNL A   1      42.285  29.172  28.208  1.00  0.00    -0.205 F 
ATOM     70  C   UNL A   1      40.666  26.159  26.896  1.00  0.00     0.022 A 
BRANCH  68  71
ATOM     71  S   UNL A   1      42.513  27.645  25.530  1.00  0.00     0.127 S 
ATOM     72  O   UNL A   1      43.850  27.680  26.120  1.00  0.00    -0.237 OA
ATOM     73  O   UNL A   1      42.255  26.485  24.676  1.00  0.00    -0.237 OA
ATOM     74  O   UNL A   1      42.029  28.910  24.996  1.00  0.00    -0.744 OA
ENDBRANCH  68  71
ENDBRANCH  50  64
BRANCH  51  75
ATOM     75  C   UNL A   1      39.454  33.822  37.057  1.00  0.00     0.023 A 
ATOM     76  C   UNL A   1      39.897  35.157  36.995  1.00  0.00     0.012 A 
ATOM     77  C   UNL A   1      38.825  33.361  38.230  1.00  0.00     0.148 A 
ATOM     78  C   UNL A   1      39.745  36.009  38.089  1.00  0.00     0.002 A 
ATOM     79  C   UNL A   1      38.630  34.231  39.298  1.00  0.00     0.091 A 
ATOM     80  F   UNL A   1      38.423  32.082  38.276  1.00  0.00    -0.205 F 
ATOM     81  C   UNL A   1      39.103  35.550  39.235  1.00  0.00     0.022 A 
BRANCH  79  82
ATOM     82  S   UNL A   1      37.700  33.760  40.760  1.00  0.00     0.127 S 
ATOM     83  O   UNL A   1      37.558  35.039  41.450  1.00  0.00    -0.237 OA
ATOM     84  O   UNL A   1      36.464  33.232  40.180  1.00  0.00    -0.237 OA
ATOM     85  O   UNL A   1      38.516  32.759  41.435  1.00  0.00    -0.744 OA
ENDBRANCH  79  82
ENDBRANCH  51  75
BRANCH  63  86
ATOM     86  C   UNL A   1      44.090  28.881  35.365  1.00  0.00     0.023 A 
ATOM     87  C   UNL A   1      45.353  29.486  35.204  1.00  0.00     0.012 A 
ATOM     88  C   UNL A   1      43.946  27.803  36.260  1.00  0.00     0.148 A 
ATOM     89  C   UNL A   1      46.460  29.008  35.903  1.00  0.00     0.002 A 
ATOM     90  C   UNL A   1      45.046  27.360  36.986  1.00  0.00     0.091 A 
ATOM     91  F   UNL A   1      42.741  27.228  36.384  1.00  0.00    -0.205 F 
ATOM     92  C   UNL A   1      46.305  27.955  36.802  1.00  0.00     0.022 A 
BRANCH  90  93
ATOM     93  S   UNL A   1      44.916  26.071  38.231  1.00  0.00     0.127 S 
ATOM     94  O   UNL A   1      43.835  26.580  39.073  1.00  0.00    -0.237 OA
ATOM     95  O   UNL A   1      44.565  24.897  37.430  1.00  0.00    -0.237 OA
ATOM     96  O   UNL A   1      46.226  25.996  38.866  1.00  0.00    -0.744 OA
ENDBRANCH  90  93
ENDBRANCH  63  86
ENDBRANCH  37  38
ENDBRANCH  29  32
ENDBRANCH  27  28
ENDBRANCH  26  27
ENDBRANCH   1  26
TORSDOF 18
ENDMDL
