MODEL 1
REMARK VINA RESULT:     -11.4      0.000      0.000
REMARK SMILES CCS(=O)(=O)N[C@H]1C=C[C@@H](C(=O)NCCCCNC(=O)c2ccc(-c3c4nc(c(-c5cccc(S(=O)(=O)[O-])c5F)c5ccc([nH]5)c(-c5cccc(S(=O)(=O)[O-])c5F)c5nc(c(-c6cccc(S(=O)(=O)[O-])c6F)c6ccc3[nH]6)C=C5)C=C4)cc2)C1
REMARK SMILES IDX 15 1 14 2 13 3 11 4 12 5 10 7 7 8 8 9 84 10 9 11 6 12 3 14
REMARK SMILES IDX 4 15 5 16 2 17 1 18 16 19 17 20 18 21 19 22 20 24 21 25
REMARK SMILES IDX 22 26 83 27 23 28 82 29 24 30 25 31 26 32 76 33 27 34 81 35
REMARK SMILES IDX 75 36 77 37 28 38 80 39 74 40 73 41 29 43 61 44 41 45 60 46
REMARK SMILES IDX 42 47 45 48 59 49 78 50 43 51 44 52 58 54 79 55 46 56 30 57
REMARK SMILES IDX 31 58 39 59 32 60 34 61 40 62 33 63 35 64 36 65 37 66 38 67
REMARK SMILES IDX 62 68 63 69 71 70 64 71 66 72 72 73 65 74 67 75 68 76 69 77
REMARK SMILES IDX 70 78 47 79 48 80 56 81 49 82 51 83 57 84 50 85 52 86 53 87
REMARK SMILES IDX 54 88 55 89
REMARK H PARENT 13 6 6 13 18 23 77 42 45 53
REMARK Flexibility Score: inf
ROOT
ATOM      1  C   UNL A   1      31.586  27.659  26.761  1.00  0.00     0.023 C 
ENDROOT
BRANCH   1   2
ATOM      2  C   UNL A   1      31.785  26.454  25.844  1.00  0.00     0.116 C 
BRANCH   2   3
ATOM      3  N   UNL A   1      30.942  25.337  26.182  1.00  0.00    -0.356 N 
ATOM      4  C   UNL A   1      31.084  24.040  25.804  1.00  0.00     0.226 C 
ATOM      5  O   UNL A   1      30.382  23.198  26.376  1.00  0.00    -0.274 OA
ATOM      6  H   UNL A   1      30.167  25.539  26.756  1.00  0.00     0.163 HD
BRANCH   4   7
ATOM      7  C   UNL A   1      32.114  23.578  24.756  1.00  0.00     0.103 C 
ATOM      8  C   UNL A   1      32.845  21.469  23.682  1.00  0.00     0.093 C 
ATOM      9  C   UNL A   1      31.969  22.272  22.804  1.00  0.00    -0.011 C 
ATOM     10  C   UNL A   1      32.923  22.287  24.989  1.00  0.00     0.042 C 
ATOM     11  C   UNL A   1      31.541  23.399  23.383  1.00  0.00    -0.016 C 
BRANCH   8  12
ATOM     12  N   UNL A   1      32.468  20.077  23.893  1.00  0.00    -0.208 NA
ATOM     13  H   UNL A   1      31.541  20.155  24.311  1.00  0.00     0.141 HD
BRANCH  12  14
ATOM     14  S   UNL A   1      33.129  18.795  24.705  1.00  0.00     0.211 S 
ATOM     15  O   UNL A   1      32.523  18.629  26.000  1.00  0.00    -0.212 OA
ATOM     16  O   UNL A   1      34.551  19.081  24.627  1.00  0.00    -0.212 OA
BRANCH  14  17
ATOM     17  C   UNL A   1      32.865  17.305  23.750  1.00  0.00     0.150 C 
ATOM     18  C   UNL A   1      34.110  16.720  23.107  1.00  0.00     0.022 C 
ENDBRANCH  14  17
ENDBRANCH  12  14
ENDBRANCH   8  12
ENDBRANCH   4   7
ENDBRANCH   2   3
ENDBRANCH   1   2
BRANCH   1  19
ATOM     19  C   UNL A   1      31.435  28.982  26.027  1.00  0.00     0.023 C 
BRANCH  19  20
ATOM     20  C   UNL A   1      32.675  29.863  26.036  1.00  0.00     0.116 C 
BRANCH  20  21
ATOM     21  N   UNL A   1      32.423  31.242  26.436  1.00  0.00    -0.352 N 
ATOM     22  C   UNL A   1      33.198  32.025  27.267  1.00  0.00     0.251 C 
ATOM     23  H   UNL A   1      31.610  31.662  26.074  1.00  0.00     0.163 HD
ATOM     24  O   UNL A   1      32.838  33.143  27.620  1.00  0.00    -0.269 OA
BRANCH  22  25
ATOM     25  C   UNL A   1      34.477  31.465  27.753  1.00  0.00     0.039 A 
ATOM     26  C   UNL A   1      35.552  32.318  28.008  1.00  0.00     0.014 A 
ATOM     27  C   UNL A   1      34.556  30.106  28.069  1.00  0.00     0.014 A 
ATOM     28  C   UNL A   1      36.683  31.820  28.661  1.00  0.00     0.010 A 
ATOM     29  C   UNL A   1      35.636  29.640  28.807  1.00  0.00     0.010 A 
ATOM     30  C   UNL A   1      36.715  30.488  29.106  1.00  0.00    -0.014 A 
BRANCH  30  31
ATOM     31  C   UNL A   1      37.864  29.933  29.870  1.00  0.00     0.031 A 
ATOM     32  C   UNL A   1      38.120  30.422  31.271  1.00  0.00     0.074 A 
ATOM     33  C   UNL A   1      38.738  29.094  29.278  1.00  0.00     0.049 A 
ATOM     34  N   UNL A   1      39.141  30.192  32.053  1.00  0.00    -0.248 NA
ATOM     35  C   UNL A   1      37.109  31.322  31.854  1.00  0.00     0.031 C 
ATOM     36  C   UNL A   1      38.639  28.592  27.906  1.00  0.00     0.029 A 
ATOM     37  N   UNL A   1      39.906  28.543  29.747  1.00  0.00    -0.354 N 
ATOM     38  C   UNL A   1      38.922  30.955  33.194  1.00  0.00     0.074 A 
ATOM     39  C   UNL A   1      37.691  31.685  32.986  1.00  0.00     0.031 C 
ATOM     40  C   UNL A   1      39.701  27.811  27.645  1.00  0.00     0.029 A 
ATOM     41  C   UNL A   1      40.578  27.790  28.811  1.00  0.00     0.049 A 
ATOM     42  H   UNL A   1      40.231  28.674  30.667  1.00  0.00     0.167 HD
ATOM     43  C   UNL A   1      39.662  31.025  34.325  1.00  0.00     0.034 A 
ATOM     44  C   UNL A   1      41.774  27.171  28.878  1.00  0.00     0.034 A 
ATOM     45  C   UNL A   1      40.861  30.265  34.546  1.00  0.00     0.049 A 
ATOM     46  C   UNL A   1      42.568  27.245  30.156  1.00  0.00     0.074 A 
ATOM     47  C   UNL A   1      41.637  30.200  35.689  1.00  0.00     0.029 A 
ATOM     48  N   UNL A   1      41.460  29.443  33.606  1.00  0.00    -0.354 N 
ATOM     49  N   UNL A   1      42.278  27.867  31.273  1.00  0.00    -0.248 NA
ATOM     50  C   UNL A   1      43.838  26.504  30.196  1.00  0.00     0.031 C 
ATOM     51  C   UNL A   1      42.728  29.366  35.427  1.00  0.00     0.029 A 
ATOM     52  C   UNL A   1      42.602  28.874  34.137  1.00  0.00     0.049 A 
ATOM     53  H   UNL A   1      41.123  29.288  32.693  1.00  0.00     0.167 HD
ATOM     54  C   UNL A   1      43.300  27.552  32.162  1.00  0.00     0.074 A 
ATOM     55  C   UNL A   1      44.214  26.679  31.456  1.00  0.00     0.031 C 
ATOM     56  C   UNL A   1      43.468  27.954  33.445  1.00  0.00     0.034 A 
BRANCH  43  57
ATOM     57  C   UNL A   1      39.173  31.930  35.426  1.00  0.00     0.023 A 
ATOM     58  C   UNL A   1      39.369  33.323  35.329  1.00  0.00     0.012 A 
ATOM     59  C   UNL A   1      38.480  31.407  36.534  1.00  0.00     0.148 A 
ATOM     60  C   UNL A   1      38.923  34.176  36.336  1.00  0.00     0.002 A 
ATOM     61  C   UNL A   1      37.991  32.268  37.509  1.00  0.00     0.091 A 
ATOM     62  F   UNL A   1      38.320  30.079  36.620  1.00  0.00    -0.205 F 
ATOM     63  C   UNL A   1      38.225  33.651  37.420  1.00  0.00     0.022 A 
BRANCH  61  64
ATOM     64  S   UNL A   1      37.003  31.700  38.897  1.00  0.00     0.127 S 
ATOM     65  O   UNL A   1      35.885  32.643  38.868  1.00  0.00    -0.237 OA
ATOM     66  O   UNL A   1      36.661  30.336  38.492  1.00  0.00    -0.237 OA
ATOM     67  O   UNL A   1      37.863  31.790  40.068  1.00  0.00    -0.744 OA
ENDBRANCH  61  64
ENDBRANCH  43  57
BRANCH  44  68
ATOM     68  C   UNL A   1      42.277  26.383  27.716  1.00  0.00     0.023 A 
ATOM     69  C   UNL A   1      43.112  27.005  26.767  1.00  0.00     0.012 A 
ATOM     70  C   UNL A   1      41.944  25.024  27.550  1.00  0.00     0.148 A 
ATOM     71  C   UNL A   1      43.573  26.302  25.652  1.00  0.00     0.002 A 
ATOM     72  C   UNL A   1      42.454  24.314  26.468  1.00  0.00     0.091 A 
ATOM     73  F   UNL A   1      41.144  24.451  28.460  1.00  0.00    -0.205 F 
ATOM     74  C   UNL A   1      43.252  24.956  25.508  1.00  0.00     0.022 A 
BRANCH  72  75
ATOM     75  S   UNL A   1      42.195  22.549  26.263  1.00  0.00     0.127 S 
ATOM     76  O   UNL A   1      42.835  22.011  27.462  1.00  0.00    -0.237 OA
ATOM     77  O   UNL A   1      40.734  22.460  26.252  1.00  0.00    -0.237 OA
ATOM     78  O   UNL A   1      42.829  22.200  24.999  1.00  0.00    -0.744 OA
ENDBRANCH  72  75
ENDBRANCH  44  68
BRANCH  56  79
ATOM     79  C   UNL A   1      44.640  27.402  34.214  1.00  0.00     0.023 A 
ATOM     80  C   UNL A   1      45.852  28.115  34.279  1.00  0.00     0.012 A 
ATOM     81  C   UNL A   1      44.495  26.213  34.960  1.00  0.00     0.148 A 
ATOM     82  C   UNL A   1      46.911  27.641  35.053  1.00  0.00     0.002 A 
ATOM     83  C   UNL A   1      45.534  25.777  35.771  1.00  0.00     0.091 A 
ATOM     84  F   UNL A   1      43.338  25.540  34.870  1.00  0.00    -0.205 F 
ATOM     85  C   UNL A   1      46.747  26.482  35.809  1.00  0.00     0.022 A 
BRANCH  83  86
ATOM     86  S   UNL A   1      45.377  24.356  36.859  1.00  0.00     0.127 S 
ATOM     87  O   UNL A   1      46.747  24.199  37.343  1.00  0.00    -0.237 OA
ATOM     88  O   UNL A   1      44.427  24.839  37.861  1.00  0.00    -0.237 OA
ATOM     89  O   UNL A   1      44.882  23.265  36.031  1.00  0.00    -0.744 OA
ENDBRANCH  83  86
ENDBRANCH  56  79
ENDBRANCH  30  31
ENDBRANCH  22  25
ENDBRANCH  20  21
ENDBRANCH  19  20
ENDBRANCH   1  19
TORSDOF 17
ENDMDL
MODEL 2
REMARK VINA RESULT:     -11.3      5.432      7.942
REMARK SMILES CCS(=O)(=O)N[C@H]1C=C[C@@H](C(=O)NCCCCNC(=O)c2ccc(-c3c4nc(c(-c5cccc(S(=O)(=O)[O-])c5F)c5ccc([nH]5)c(-c5cccc(S(=O)(=O)[O-])c5F)c5nc(c(-c6cccc(S(=O)(=O)[O-])c6F)c6ccc3[nH]6)C=C5)C=C4)cc2)C1
REMARK SMILES IDX 15 1 14 2 13 3 11 4 12 5 10 7 7 8 8 9 84 10 9 11 6 12 3 14
REMARK SMILES IDX 4 15 5 16 2 17 1 18 16 19 17 20 18 21 19 22 20 24 21 25
REMARK SMILES IDX 22 26 83 27 23 28 82 29 24 30 25 31 26 32 76 33 27 34 81 35
REMARK SMILES IDX 75 36 77 37 28 38 80 39 74 40 73 41 29 43 61 44 41 45 60 46
REMARK SMILES IDX 42 47 45 48 59 49 78 50 43 51 44 52 58 54 79 55 46 56 30 57
REMARK SMILES IDX 31 58 39 59 32 60 34 61 40 62 33 63 35 64 36 65 37 66 38 67
REMARK SMILES IDX 62 68 63 69 71 70 64 71 66 72 72 73 65 74 67 75 68 76 69 77
REMARK SMILES IDX 70 78 47 79 48 80 56 81 49 82 51 83 57 84 50 85 52 86 53 87
REMARK SMILES IDX 54 88 55 89
REMARK H PARENT 13 6 6 13 18 23 77 42 45 53
REMARK Flexibility Score: inf
ROOT
ATOM      1  C   UNL A   1      34.218  23.229  26.498  1.00  0.00     0.023 C 
ENDROOT
BRANCH   1   2
ATOM      2  C   UNL A   1      32.749  22.875  26.719  1.00  0.00     0.116 C 
BRANCH   2   3
ATOM      3  N   UNL A   1      32.418  21.538  26.301  1.00  0.00    -0.356 N 
ATOM      4  C   UNL A   1      32.123  21.105  25.047  1.00  0.00     0.226 C 
ATOM      5  O   UNL A   1      32.082  19.884  24.860  1.00  0.00    -0.274 OA
ATOM      6  H   UNL A   1      32.402  20.855  27.010  1.00  0.00     0.163 HD
BRANCH   4   7
ATOM      7  C   UNL A   1      31.909  22.060  23.857  1.00  0.00     0.103 C 
ATOM      8  C   UNL A   1      32.105  24.480  23.366  1.00  0.00     0.093 C 
ATOM      9  C   UNL A   1      33.246  23.705  22.837  1.00  0.00    -0.011 C 
ATOM     10  C   UNL A   1      31.231  23.426  24.079  1.00  0.00     0.042 C 
ATOM     11  C   UNL A   1      33.169  22.401  23.121  1.00  0.00    -0.016 C 
BRANCH   8  12
ATOM     12  N   UNL A   1      32.423  25.630  24.204  1.00  0.00    -0.208 NA
ATOM     13  H   UNL A   1      31.756  25.542  24.970  1.00  0.00     0.141 HD
BRANCH  12  14
ATOM     14  S   UNL A   1      32.494  27.266  23.967  1.00  0.00     0.211 S 
ATOM     15  O   UNL A   1      31.340  27.741  23.251  1.00  0.00    -0.212 OA
ATOM     16  O   UNL A   1      33.809  27.434  23.371  1.00  0.00    -0.212 OA
BRANCH  14  17
ATOM     17  C   UNL A   1      32.560  28.080  25.559  1.00  0.00     0.150 C 
ATOM     18  C   UNL A   1      33.890  27.978  26.285  1.00  0.00     0.022 C 
ENDBRANCH  14  17
ENDBRANCH  12  14
ENDBRANCH   8  12
ENDBRANCH   4   7
ENDBRANCH   2   3
ENDBRANCH   1   2
BRANCH   1  19
ATOM     19  C   UNL A   1      35.129  22.024  26.319  1.00  0.00     0.023 C 
BRANCH  19  20
ATOM     20  C   UNL A   1      36.407  22.299  25.540  1.00  0.00     0.116 C 
BRANCH  20  21
ATOM     21  N   UNL A   1      37.295  21.148  25.428  1.00  0.00    -0.352 N 
ATOM     22  C   UNL A   1      38.623  21.079  25.794  1.00  0.00     0.251 C 
ATOM     23  H   UNL A   1      36.903  20.327  25.050  1.00  0.00     0.163 HD
ATOM     24  O   UNL A   1      39.305  20.087  25.561  1.00  0.00    -0.269 OA
BRANCH  22  25
ATOM     25  C   UNL A   1      39.222  22.258  26.456  1.00  0.00     0.039 A 
ATOM     26  C   UNL A   1      40.294  22.087  27.333  1.00  0.00     0.014 A 
ATOM     27  C   UNL A   1      38.789  23.539  26.102  1.00  0.00     0.014 A 
ATOM     28  C   UNL A   1      40.989  23.209  27.793  1.00  0.00     0.010 A 
ATOM     29  C   UNL A   1      39.544  24.641  26.478  1.00  0.00     0.010 A 
ATOM     30  C   UNL A   1      40.648  24.491  27.333  1.00  0.00    -0.014 A 
BRANCH  30  31
ATOM     31  C   UNL A   1      41.405  25.706  27.735  1.00  0.00     0.031 A 
ATOM     32  C   UNL A   1      40.705  26.782  28.523  1.00  0.00     0.074 A 
ATOM     33  C   UNL A   1      42.666  25.902  27.300  1.00  0.00     0.049 A 
ATOM     34  N   UNL A   1      41.122  27.978  28.842  1.00  0.00    -0.248 NA
ATOM     35  C   UNL A   1      39.335  26.484  28.978  1.00  0.00     0.031 C 
ATOM     36  C   UNL A   1      43.437  24.967  26.479  1.00  0.00     0.029 A 
ATOM     37  N   UNL A   1      43.510  26.975  27.459  1.00  0.00    -0.354 N 
ATOM     38  C   UNL A   1      40.054  28.592  29.487  1.00  0.00     0.074 A 
ATOM     39  C   UNL A   1      38.957  27.649  29.479  1.00  0.00     0.031 C 
ATOM     40  C   UNL A   1      44.637  25.507  26.205  1.00  0.00     0.029 A 
ATOM     41  C   UNL A   1      44.706  26.842  26.791  1.00  0.00     0.049 A 
ATOM     42  H   UNL A   1      43.281  27.765  27.999  1.00  0.00     0.167 HD
ATOM     43  C   UNL A   1      39.997  29.817  30.058  1.00  0.00     0.034 A 
ATOM     44  C   UNL A   1      45.733  27.705  26.649  1.00  0.00     0.034 A 
ATOM     45  C   UNL A   1      41.103  30.733  30.103  1.00  0.00     0.049 A 
ATOM     46  C   UNL A   1      45.654  29.054  27.314  1.00  0.00     0.074 A 
ATOM     47  C   UNL A   1      41.173  31.963  30.730  1.00  0.00     0.029 A 
ATOM     48  N   UNL A   1      42.328  30.522  29.492  1.00  0.00    -0.354 N 
ATOM     49  N   UNL A   1      44.683  29.565  28.033  1.00  0.00    -0.248 NA
ATOM     50  C   UNL A   1      46.824  29.935  27.178  1.00  0.00     0.031 C 
ATOM     51  C   UNL A   1      42.430  32.514  30.468  1.00  0.00     0.029 A 
ATOM     52  C   UNL A   1      43.159  31.603  29.719  1.00  0.00     0.049 A 
ATOM     53  H   UNL A   1      42.571  29.721  28.973  1.00  0.00     0.167 HD
ATOM     54  C   UNL A   1      45.145  30.800  28.475  1.00  0.00     0.074 A 
ATOM     55  C   UNL A   1      46.484  30.959  27.949  1.00  0.00     0.031 C 
ATOM     56  C   UNL A   1      44.514  31.720  29.244  1.00  0.00     0.034 A 
BRANCH  43  57
ATOM     57  C   UNL A   1      38.702  30.223  30.714  1.00  0.00     0.023 A 
ATOM     58  C   UNL A   1      38.472  29.908  32.068  1.00  0.00     0.012 A 
ATOM     59  C   UNL A   1      37.733  30.956  30.002  1.00  0.00     0.148 A 
ATOM     60  C   UNL A   1      37.281  30.276  32.692  1.00  0.00     0.002 A 
ATOM     61  C   UNL A   1      36.572  31.367  30.644  1.00  0.00     0.091 A 
ATOM     62  F   UNL A   1      37.960  31.230  28.709  1.00  0.00    -0.205 F 
ATOM     63  C   UNL A   1      36.337  31.014  31.984  1.00  0.00     0.022 A 
BRANCH  61  64
ATOM     64  S   UNL A   1      35.334  32.396  29.847  1.00  0.00     0.127 S 
ATOM     65  O   UNL A   1      34.373  32.593  30.932  1.00  0.00    -0.237 OA
ATOM     66  O   UNL A   1      36.108  33.586  29.494  1.00  0.00    -0.237 OA
ATOM     67  O   UNL A   1      34.843  31.630  28.711  1.00  0.00    -0.744 OA
ENDBRANCH  61  64
ENDBRANCH  43  57
BRANCH  44  68
ATOM     68  C   UNL A   1      46.950  27.304  25.886  1.00  0.00     0.023 A 
ATOM     69  C   UNL A   1      47.949  26.545  26.524  1.00  0.00     0.012 A 
ATOM     70  C   UNL A   1      47.120  27.662  24.533  1.00  0.00     0.148 A 
ATOM     71  C   UNL A   1      49.113  26.181  25.845  1.00  0.00     0.002 A 
ATOM     72  C   UNL A   1      48.256  27.248  23.846  1.00  0.00     0.091 A 
ATOM     73  F   UNL A   1      46.162  28.390  23.944  1.00  0.00    -0.205 F 
ATOM     74  C   UNL A   1      49.262  26.525  24.505  1.00  0.00     0.022 A 
BRANCH  72  75
ATOM     75  S   UNL A   1      48.480  27.537  22.088  1.00  0.00     0.127 S 
ATOM     76  O   UNL A   1      49.653  28.409  22.075  1.00  0.00    -0.237 OA
ATOM     77  O   UNL A   1      48.714  26.181  21.589  1.00  0.00    -0.237 OA
ATOM     78  O   UNL A   1      47.239  28.143  21.625  1.00  0.00    -0.744 OA
ENDBRANCH  72  75
ENDBRANCH  44  68
BRANCH  56  79
ATOM     79  C   UNL A   1      45.277  32.957  29.640  1.00  0.00     0.023 A 
ATOM     80  C   UNL A   1      46.090  32.958  30.789  1.00  0.00     0.012 A 
ATOM     81  C   UNL A   1      45.263  34.091  28.801  1.00  0.00     0.148 A 
ATOM     82  C   UNL A   1      46.856  34.078  31.113  1.00  0.00     0.002 A 
ATOM     83  C   UNL A   1      46.070  35.180  29.100  1.00  0.00     0.091 A 
ATOM     84  F   UNL A   1      44.469  34.075  27.720  1.00  0.00    -0.205 F 
ATOM     85  C   UNL A   1      46.857  35.181  30.261  1.00  0.00     0.022 A 
BRANCH  83  86
ATOM     86  S   UNL A   1      46.218  36.600  28.008  1.00  0.00     0.127 S 
ATOM     87  O   UNL A   1      47.176  37.433  28.731  1.00  0.00    -0.237 OA
ATOM     88  O   UNL A   1      46.737  35.994  26.782  1.00  0.00    -0.237 OA
ATOM     89  O   UNL A   1      44.877  37.158  27.887  1.00  0.00    -0.744 OA
ENDBRANCH  83  86
ENDBRANCH  56  79
ENDBRANCH  30  31
ENDBRANCH  22  25
ENDBRANCH  20  21
ENDBRANCH  19  20
ENDBRANCH   1  19
TORSDOF 17
ENDMDL
MODEL 3
REMARK VINA RESULT:     -11.3      2.564      8.598
REMARK SMILES CCS(=O)(=O)N[C@H]1C=C[C@@H](C(=O)NCCCCNC(=O)c2ccc(-c3c4nc(c(-c5cccc(S(=O)(=O)[O-])c5F)c5ccc([nH]5)c(-c5cccc(S(=O)(=O)[O-])c5F)c5nc(c(-c6cccc(S(=O)(=O)[O-])c6F)c6ccc3[nH]6)C=C5)C=C4)cc2)C1
REMARK SMILES IDX 15 1 14 2 13 3 11 4 12 5 10 7 7 8 8 9 84 10 9 11 6 12 3 14
REMARK SMILES IDX 4 15 5 16 2 17 1 18 16 19 17 20 18 21 19 22 20 24 21 25
REMARK SMILES IDX 22 26 83 27 23 28 82 29 24 30 25 31 26 32 76 33 27 34 81 35
REMARK SMILES IDX 75 36 77 37 28 38 80 39 74 40 73 41 29 43 61 44 41 45 60 46
REMARK SMILES IDX 42 47 45 48 59 49 78 50 43 51 44 52 58 54 79 55 46 56 30 57
REMARK SMILES IDX 31 58 39 59 32 60 34 61 40 62 33 63 35 64 36 65 37 66 38 67
REMARK SMILES IDX 62 68 63 69 71 70 64 71 66 72 72 73 65 74 67 75 68 76 69 77
REMARK SMILES IDX 70 78 47 79 48 80 56 81 49 82 51 83 57 84 50 85 52 86 53 87
REMARK SMILES IDX 54 88 55 89
REMARK H PARENT 13 6 6 13 18 23 77 42 45 53
REMARK Flexibility Score: inf
ROOT
ATOM      1  C   UNL A   1      34.267  26.275  25.168  1.00  0.00     0.023 C 
ENDROOT
BRANCH   1   2
ATOM      2  C   UNL A   1      33.523  24.950  25.011  1.00  0.00     0.116 C 
BRANCH   2   3
ATOM      3  N   UNL A   1      33.050  24.413  26.260  1.00  0.00    -0.356 N 
ATOM      4  C   UNL A   1      31.781  24.052  26.586  1.00  0.00     0.226 C 
ATOM      5  O   UNL A   1      31.620  23.410  27.630  1.00  0.00    -0.274 OA
ATOM      6  H   UNL A   1      33.728  24.294  26.964  1.00  0.00     0.163 HD
BRANCH   4   7
ATOM      7  C   UNL A   1      30.566  24.348  25.686  1.00  0.00     0.103 C 
ATOM      8  C   UNL A   1      29.861  26.047  24.027  1.00  0.00     0.093 C 
ATOM      9  C   UNL A   1      30.319  24.795  23.389  1.00  0.00    -0.011 C 
ATOM     10  C   UNL A   1      30.053  25.794  25.537  1.00  0.00     0.042 C 
ATOM     11  C   UNL A   1      30.732  23.880  24.272  1.00  0.00    -0.016 C 
BRANCH   8  12
ATOM     12  N   UNL A   1      30.478  27.284  23.564  1.00  0.00    -0.208 NA
ATOM     13  H   UNL A   1      31.077  27.544  24.348  1.00  0.00     0.141 HD
BRANCH  12  14
ATOM     14  S   UNL A   1      29.914  28.747  23.035  1.00  0.00     0.211 S 
ATOM     15  O   UNL A   1      30.287  28.987  21.667  1.00  0.00    -0.212 OA
ATOM     16  O   UNL A   1      30.395  29.654  24.064  1.00  0.00    -0.212 OA
BRANCH  14  17
ATOM     17  C   UNL A   1      28.128  28.758  23.156  1.00  0.00     0.150 C 
ATOM     18  C   UNL A   1      27.469  30.100  22.887  1.00  0.00     0.022 C 
ENDBRANCH  14  17
ENDBRANCH  12  14
ENDBRANCH   8  12
ENDBRANCH   4   7
ENDBRANCH   2   3
ENDBRANCH   1   2
BRANCH   1  19
ATOM     19  C   UNL A   1      33.379  27.446  25.561  1.00  0.00     0.023 C 
BRANCH  19  20
ATOM     20  C   UNL A   1      33.983  28.819  25.309  1.00  0.00     0.116 C 
BRANCH  20  21
ATOM     21  N   UNL A   1      33.071  29.927  25.566  1.00  0.00    -0.352 N 
ATOM     22  C   UNL A   1      33.122  30.824  26.612  1.00  0.00     0.251 C 
ATOM     23  H   UNL A   1      32.337  30.049  24.921  1.00  0.00     0.163 HD
ATOM     24  O   UNL A   1      32.241  31.659  26.789  1.00  0.00    -0.269 OA
BRANCH  22  25
ATOM     25  C   UNL A   1      34.265  30.736  27.547  1.00  0.00     0.039 A 
ATOM     26  C   UNL A   1      34.470  29.565  28.278  1.00  0.00     0.014 A 
ATOM     27  C   UNL A   1      35.195  31.778  27.595  1.00  0.00     0.014 A 
ATOM     28  C   UNL A   1      35.657  29.405  28.998  1.00  0.00     0.010 A 
ATOM     29  C   UNL A   1      36.414  31.573  28.226  1.00  0.00     0.010 A 
ATOM     30  C   UNL A   1      36.658  30.388  28.940  1.00  0.00    -0.014 A 
BRANCH  30  31
ATOM     31  C   UNL A   1      37.967  30.230  29.628  1.00  0.00     0.031 A 
ATOM     32  C   UNL A   1      39.019  29.346  29.012  1.00  0.00     0.074 A 
ATOM     33  C   UNL A   1      38.171  30.772  30.846  1.00  0.00     0.049 A 
ATOM     34  N   UNL A   1      40.159  28.947  29.509  1.00  0.00    -0.248 NA
ATOM     35  C   UNL A   1      38.729  28.807  27.671  1.00  0.00     0.031 C 
ATOM     36  C   UNL A   1      37.210  31.598  31.580  1.00  0.00     0.029 A 
ATOM     37  N   UNL A   1      39.244  30.676  31.698  1.00  0.00    -0.354 N 
ATOM     38  C   UNL A   1      40.697  28.074  28.570  1.00  0.00     0.074 A 
ATOM     39  C   UNL A   1      39.740  27.972  27.490  1.00  0.00     0.031 C 
ATOM     40  C   UNL A   1      37.736  31.931  32.772  1.00  0.00     0.029 A 
ATOM     41  C   UNL A   1      39.049  31.308  32.906  1.00  0.00     0.049 A 
ATOM     42  H   UNL A   1      40.074  30.200  31.468  1.00  0.00     0.167 HD
ATOM     43  C   UNL A   1      41.890  27.435  28.589  1.00  0.00     0.034 A 
ATOM     44  C   UNL A   1      39.831  31.362  34.004  1.00  0.00     0.034 A 
ATOM     45  C   UNL A   1      42.857  27.574  29.641  1.00  0.00     0.049 A 
ATOM     46  C   UNL A   1      41.164  30.661  33.991  1.00  0.00     0.074 A 
ATOM     47  C   UNL A   1      44.129  27.037  29.714  1.00  0.00     0.029 A 
ATOM     48  N   UNL A   1      42.658  28.297  30.807  1.00  0.00    -0.354 N 
ATOM     49  N   UNL A   1      41.712  29.947  33.037  1.00  0.00    -0.248 NA
ATOM     50  C   UNL A   1      42.003  30.800  35.191  1.00  0.00     0.031 C 
ATOM     51  C   UNL A   1      44.687  27.404  30.942  1.00  0.00     0.029 A 
ATOM     52  C   UNL A   1      43.780  28.213  31.610  1.00  0.00     0.049 A 
ATOM     53  H   UNL A   1      41.839  28.796  31.030  1.00  0.00     0.167 HD
ATOM     54  C   UNL A   1      42.975  29.597  33.500  1.00  0.00     0.074 A 
ATOM     55  C   UNL A   1      43.115  30.181  34.818  1.00  0.00     0.031 C 
ATOM     56  C   UNL A   1      43.931  28.853  32.891  1.00  0.00     0.034 A 
BRANCH  43  57
ATOM     57  C   UNL A   1      42.230  26.554  27.414  1.00  0.00     0.023 A 
ATOM     58  C   UNL A   1      42.898  27.098  26.299  1.00  0.00     0.012 A 
ATOM     59  C   UNL A   1      41.928  25.179  27.434  1.00  0.00     0.148 A 
ATOM     60  C   UNL A   1      43.222  26.299  25.204  1.00  0.00     0.002 A 
ATOM     61  C   UNL A   1      42.301  24.377  26.363  1.00  0.00     0.091 A 
ATOM     62  F   UNL A   1      41.274  24.682  28.494  1.00  0.00    -0.205 F 
ATOM     63  C   UNL A   1      42.933  24.938  25.240  1.00  0.00     0.022 A 
BRANCH  61  64
ATOM     64  S   UNL A   1      42.054  22.598  26.351  1.00  0.00     0.127 S 
ATOM     65  O   UNL A   1      40.598  22.502  26.449  1.00  0.00    -0.237 OA
ATOM     66  O   UNL A   1      42.604  22.222  25.048  1.00  0.00    -0.237 OA
ATOM     67  O   UNL A   1      42.791  22.081  27.495  1.00  0.00    -0.744 OA
ENDBRANCH  61  64
ENDBRANCH  43  57
BRANCH  44  68
ATOM     68  C   UNL A   1      39.398  32.149  35.195  1.00  0.00     0.023 A 
ATOM     69  C   UNL A   1      38.560  31.548  36.154  1.00  0.00     0.012 A 
ATOM     70  C   UNL A   1      39.817  33.480  35.388  1.00  0.00     0.148 A 
ATOM     71  C   UNL A   1      38.113  32.269  37.263  1.00  0.00     0.002 A 
ATOM     72  C   UNL A   1      39.416  34.174  36.525  1.00  0.00     0.091 A 
ATOM     73  F   UNL A   1      40.610  34.036  34.462  1.00  0.00    -0.205 F 
ATOM     74  C   UNL A   1      38.548  33.577  37.453  1.00  0.00     0.022 A 
BRANCH  72  75
ATOM     75  S   UNL A   1      40.020  35.819  36.916  1.00  0.00     0.127 S 
ATOM     76  O   UNL A   1      39.332  36.099  38.175  1.00  0.00    -0.237 OA
ATOM     77  O   UNL A   1      41.460  35.586  37.040  1.00  0.00    -0.237 OA
ATOM     78  O   UNL A   1      39.641  36.659  35.789  1.00  0.00    -0.744 OA
ENDBRANCH  72  75
ENDBRANCH  44  68
BRANCH  56  79
ATOM     79  C   UNL A   1      45.252  28.683  33.595  1.00  0.00     0.023 A 
ATOM     80  C   UNL A   1      46.231  29.693  33.531  1.00  0.00     0.012 A 
ATOM     81  C   UNL A   1      45.476  27.552  34.408  1.00  0.00     0.148 A 
ATOM     82  C   UNL A   1      47.423  29.568  34.245  1.00  0.00     0.002 A 
ATOM     83  C   UNL A   1      46.640  27.461  35.158  1.00  0.00     0.091 A 
ATOM     84  F   UNL A   1      44.537  26.594  34.440  1.00  0.00    -0.205 F 
ATOM     85  C   UNL A   1      47.620  28.461  35.068  1.00  0.00     0.022 A 
BRANCH  83  86
ATOM     86  S   UNL A   1      46.933  26.127  36.325  1.00  0.00     0.127 S 
ATOM     87  O   UNL A   1      47.006  24.967  35.439  1.00  0.00    -0.237 OA
ATOM     88  O   UNL A   1      48.209  26.517  36.925  1.00  0.00    -0.237 OA
ATOM     89  O   UNL A   1      45.802  26.136  37.243  1.00  0.00    -0.744 OA
ENDBRANCH  83  86
ENDBRANCH  56  79
ENDBRANCH  30  31
ENDBRANCH  22  25
ENDBRANCH  20  21
ENDBRANCH  19  20
ENDBRANCH   1  19
TORSDOF 17
ENDMDL
