MODEL 1
REMARK VINA RESULT:     -12.4      0.000      0.000
REMARK SMILES N#C/C(=C/c1ccc(-c2cccc(C(=O)NCCCCNC(=O)c3ccc(-c4c5nc(c(-c6cccc(S(=O)(=O)[O-])c6F)c6ccc([nH]6)c(-c6cccc(S(=O)(=O)[O-])c6F)c6nc(c(-c7cccc(S(=O)(=O)[O-])c7F)c7ccc4[nH]7)C=C6)C=C5)cc3)c2)o1)c1ccc(F)cc1
REMARK SMILES IDX 18 1 17 2 16 3 14 4 15 5 13 7 9 8 10 9 87 10 11 11 12 12
REMARK SMILES IDX 8 13 5 14 6 15 88 16 7 17 4 18 3 19 2 20 1 21 89 22 90 23
REMARK SMILES IDX 95 24 91 25 94 26 92 27 93 28 19 29 20 30 21 31 22 32 23 34
REMARK SMILES IDX 24 35 25 36 86 37 26 38 85 39 27 40 28 41 29 42 79 43 30 44
REMARK SMILES IDX 84 45 78 46 80 47 31 48 83 49 77 50 76 51 32 53 64 54 44 55
REMARK SMILES IDX 63 56 45 57 48 58 62 59 81 60 46 61 47 62 61 64 82 65 49 66
REMARK SMILES IDX 33 67 34 68 42 69 35 70 37 71 43 72 36 73 38 74 39 75 40 76
REMARK SMILES IDX 41 77 65 78 66 79 74 80 67 81 69 82 75 83 68 84 70 85 71 86
REMARK SMILES IDX 72 87 73 88 50 89 51 90 59 91 52 92 54 93 60 94 53 95 55 96
REMARK SMILES IDX 56 97 57 98 58 99
REMARK H PARENT 16 6 21 33 80 52 48 63
REMARK Flexibility Score: inf
ROOT
ATOM      1  C   UNL A   1      32.482  30.080  25.763  1.00  0.00     0.023 C 
ENDROOT
BRANCH   1   2
ATOM      2  C   UNL A   1      33.777  29.327  25.489  1.00  0.00     0.116 C 
BRANCH   2   3
ATOM      3  N   UNL A   1      34.001  28.936  24.102  1.00  0.00    -0.352 N 
ATOM      4  C   UNL A   1      33.221  28.177  23.246  1.00  0.00     0.251 C 
ATOM      5  O   UNL A   1      33.598  27.968  22.095  1.00  0.00    -0.269 OA
ATOM      6  H   UNL A   1      34.844  29.263  23.712  1.00  0.00     0.163 HD
BRANCH   4   7
ATOM      7  C   UNL A   1      31.957  27.551  23.714  1.00  0.00     0.040 A 
ATOM      8  C   UNL A   1      30.890  25.708  24.864  1.00  0.00     0.018 A 
ATOM      9  C   UNL A   1      29.693  25.992  24.201  1.00  0.00     0.012 A 
ATOM     10  C   UNL A   1      31.967  26.588  24.716  1.00  0.00     0.025 A 
ATOM     11  C   UNL A   1      29.611  27.100  23.347  1.00  0.00     0.002 A 
ATOM     12  C   UNL A   1      30.755  27.855  23.072  1.00  0.00     0.014 A 
BRANCH   8  13
ATOM     13  C   UNL A   1      31.149  24.451  25.553  1.00  0.00     0.134 A 
ATOM     14  C   UNL A   1      31.743  22.309  25.578  1.00  0.00     0.128 A 
ATOM     15  C   UNL A   1      31.910  22.818  26.862  1.00  0.00     0.051 A 
ATOM     16  O   UNL A   1      31.294  23.336  24.777  1.00  0.00    -0.457 OA
ATOM     17  C   UNL A   1      31.479  24.157  26.857  1.00  0.00     0.051 A 
BRANCH  14  18
ATOM     18  C   UNL A   1      31.921  20.965  25.128  1.00  0.00     0.067 C 
ATOM     19  C   UNL A   1      33.113  20.556  24.653  1.00  0.00     0.063 C 
BRANCH  19  20
ATOM     20  C   UNL A   1      33.321  19.170  24.064  1.00  0.00     0.100 C 
ATOM     21  N   UNL A   1      33.494  18.020  23.575  1.00  0.00    -0.192 NA
ENDBRANCH  19  20
BRANCH  19  22
ATOM     22  C   UNL A   1      34.337  21.413  24.669  1.00  0.00    -0.007 A 
ATOM     23  C   UNL A   1      35.311  21.261  25.676  1.00  0.00     0.012 A 
ATOM     24  C   UNL A   1      34.517  22.414  23.701  1.00  0.00     0.012 A 
ATOM     25  C   UNL A   1      36.400  22.131  25.752  1.00  0.00     0.040 A 
ATOM     26  C   UNL A   1      35.621  23.270  23.768  1.00  0.00     0.040 A 
ATOM     27  C   UNL A   1      36.543  23.130  24.799  1.00  0.00     0.123 A 
ATOM     28  F   UNL A   1      37.579  23.974  24.878  1.00  0.00    -0.207 F 
ENDBRANCH  19  22
ENDBRANCH  14  18
ENDBRANCH   8  13
ENDBRANCH   4   7
ENDBRANCH   2   3
ENDBRANCH   1   2
BRANCH   1  29
ATOM     29  C   UNL A   1      32.396  30.837  27.081  1.00  0.00     0.023 C 
BRANCH  29  30
ATOM     30  C   UNL A   1      33.418  31.947  27.296  1.00  0.00     0.116 C 
BRANCH  30  31
ATOM     31  N   UNL A   1      32.835  33.256  27.569  1.00  0.00    -0.352 N 
ATOM     32  C   UNL A   1      33.207  34.215  28.488  1.00  0.00     0.251 C 
ATOM     33  H   UNL A   1      32.058  33.490  27.013  1.00  0.00     0.163 HD
ATOM     34  O   UNL A   1      32.553  35.245  28.595  1.00  0.00    -0.269 OA
BRANCH  32  35
ATOM     35  C   UNL A   1      34.365  33.973  29.378  1.00  0.00     0.039 A 
ATOM     36  C   UNL A   1      34.164  33.268  30.567  1.00  0.00     0.014 A 
ATOM     37  C   UNL A   1      35.649  34.381  29.011  1.00  0.00     0.014 A 
ATOM     38  C   UNL A   1      35.266  32.863  31.326  1.00  0.00     0.010 A 
ATOM     39  C   UNL A   1      36.749  33.910  29.725  1.00  0.00     0.010 A 
ATOM     40  C   UNL A   1      36.569  33.126  30.874  1.00  0.00    -0.014 A 
BRANCH  40  41
ATOM     41  C   UNL A   1      37.759  32.531  31.539  1.00  0.00     0.031 A 
ATOM     42  C   UNL A   1      38.502  31.392  30.900  1.00  0.00     0.074 A 
ATOM     43  C   UNL A   1      38.090  32.936  32.782  1.00  0.00     0.049 A 
ATOM     44  N   UNL A   1      39.495  30.686  31.376  1.00  0.00    -0.248 NA
ATOM     45  C   UNL A   1      38.051  30.973  29.563  1.00  0.00     0.031 C 
ATOM     46  C   UNL A   1      37.397  33.976  33.546  1.00  0.00     0.029 A 
ATOM     47  N   UNL A   1      39.073  32.499  33.636  1.00  0.00    -0.354 N 
ATOM     48  C   UNL A   1      39.765  29.719  30.417  1.00  0.00     0.074 A 
ATOM     49  C   UNL A   1      38.808  29.908  29.346  1.00  0.00     0.031 C 
ATOM     50  C   UNL A   1      37.980  34.103  34.749  1.00  0.00     0.029 A 
ATOM     51  C   UNL A   1      39.065  33.133  34.857  1.00  0.00     0.049 A 
ATOM     52  H   UNL A   1      39.723  31.799  33.397  1.00  0.00     0.167 HD
ATOM     53  C   UNL A   1      40.740  28.779  30.410  1.00  0.00     0.034 A 
ATOM     54  C   UNL A   1      39.838  32.951  35.946  1.00  0.00     0.034 A 
ATOM     55  C   UNL A   1      41.719  28.623  31.453  1.00  0.00     0.049 A 
ATOM     56  C   UNL A   1      40.926  31.914  35.908  1.00  0.00     0.074 A 
ATOM     57  C   UNL A   1      42.808  27.771  31.491  1.00  0.00     0.029 A 
ATOM     58  N   UNL A   1      41.721  29.329  32.647  1.00  0.00    -0.354 N 
ATOM     59  N   UNL A   1      41.273  31.121  34.923  1.00  0.00    -0.248 NA
ATOM     60  C   UNL A   1      41.745  31.764  37.119  1.00  0.00     0.031 C 
ATOM     61  C   UNL A   1      43.462  27.952  32.715  1.00  0.00     0.029 A 
ATOM     62  C   UNL A   1      42.785  28.923  33.434  1.00  0.00     0.049 A 
ATOM     63  H   UNL A   1      41.064  30.018  32.896  1.00  0.00     0.167 HD
ATOM     64  C   UNL A   1      42.367  30.397  35.384  1.00  0.00     0.074 A 
ATOM     65  C   UNL A   1      42.638  30.862  36.730  1.00  0.00     0.031 C 
ATOM     66  C   UNL A   1      43.072  29.424  34.755  1.00  0.00     0.034 A 
BRANCH  53  67
ATOM     67  C   UNL A   1      40.833  27.889  29.199  1.00  0.00     0.023 A 
ATOM     68  C   UNL A   1      40.071  26.702  29.157  1.00  0.00     0.012 A 
ATOM     69  C   UNL A   1      41.639  28.231  28.097  1.00  0.00     0.148 A 
ATOM     70  C   UNL A   1      40.142  25.850  28.057  1.00  0.00     0.002 A 
ATOM     71  C   UNL A   1      41.674  27.395  26.985  1.00  0.00     0.091 A 
ATOM     72  F   UNL A   1      42.377  29.348  28.163  1.00  0.00    -0.205 F 
ATOM     73  C   UNL A   1      40.936  26.201  26.967  1.00  0.00     0.022 A 
BRANCH  71  74
ATOM     74  S   UNL A   1      42.614  27.805  25.511  1.00  0.00     0.127 S 
ATOM     75  O   UNL A   1      42.399  26.620  24.684  1.00  0.00    -0.237 OA
ATOM     76  O   UNL A   1      41.937  29.013  25.031  1.00  0.00    -0.237 OA
ATOM     77  O   UNL A   1      43.980  28.024  25.964  1.00  0.00    -0.744 OA
ENDBRANCH  71  74
ENDBRANCH  53  67
BRANCH  54  78
ATOM     78  C   UNL A   1      39.660  33.833  37.135  1.00  0.00     0.023 A 
ATOM     79  C   UNL A   1      40.114  35.164  37.068  1.00  0.00     0.012 A 
ATOM     80  C   UNL A   1      39.002  33.388  38.298  1.00  0.00     0.148 A 
ATOM     81  C   UNL A   1      39.932  36.034  38.143  1.00  0.00     0.002 A 
ATOM     82  C   UNL A   1      38.779  34.273  39.346  1.00  0.00     0.091 A 
ATOM     83  F   UNL A   1      38.588  32.114  38.345  1.00  0.00    -0.205 F 
ATOM     84  C   UNL A   1      39.256  35.592  39.277  1.00  0.00     0.022 A 
BRANCH  82  85
ATOM     85  S   UNL A   1      37.805  33.834  40.791  1.00  0.00     0.127 S 
ATOM     86  O   UNL A   1      37.592  35.137  41.416  1.00  0.00    -0.237 OA
ATOM     87  O   UNL A   1      36.614  33.240  40.182  1.00  0.00    -0.237 OA
ATOM     88  O   UNL A   1      38.624  32.895  41.546  1.00  0.00    -0.744 OA
ENDBRANCH  82  85
ENDBRANCH  54  78
BRANCH  66  89
ATOM     89  C   UNL A   1      44.216  28.796  35.507  1.00  0.00     0.023 A 
ATOM     90  C   UNL A   1      45.512  29.330  35.367  1.00  0.00     0.012 A 
ATOM     91  C   UNL A   1      43.995  27.738  36.410  1.00  0.00     0.148 A 
ATOM     92  C   UNL A   1      46.577  28.804  36.099  1.00  0.00     0.002 A 
ATOM     93  C   UNL A   1      45.053  27.248  37.167  1.00  0.00     0.091 A 
ATOM     94  F   UNL A   1      42.757  27.232  36.513  1.00  0.00    -0.205 F 
ATOM     95  C   UNL A   1      46.345  27.773  37.006  1.00  0.00     0.022 A 
BRANCH  93  96
ATOM     96  S   UNL A   1      44.833  25.982  38.423  1.00  0.00     0.127 S 
ATOM     97  O   UNL A   1      46.200  25.807  38.913  1.00  0.00    -0.237 OA
ATOM     98  O   UNL A   1      43.926  26.635  39.368  1.00  0.00    -0.237 OA
ATOM     99  O   UNL A   1      44.263  24.831  37.736  1.00  0.00    -0.744 OA
ENDBRANCH  93  96
ENDBRANCH  66  89
ENDBRANCH  40  41
ENDBRANCH  32  35
ENDBRANCH  30  31
ENDBRANCH  29  30
ENDBRANCH   1  29
TORSDOF 18
ENDMDL
MODEL 2
REMARK VINA RESULT:     -11.7      3.586      8.512
REMARK SMILES N#C/C(=C/c1ccc(-c2cccc(C(=O)NCCCCNC(=O)c3ccc(-c4c5nc(c(-c6cccc(S(=O)(=O)[O-])c6F)c6ccc([nH]6)c(-c6cccc(S(=O)(=O)[O-])c6F)c6nc(c(-c7cccc(S(=O)(=O)[O-])c7F)c7ccc4[nH]7)C=C6)C=C5)cc3)c2)o1)c1ccc(F)cc1
REMARK SMILES IDX 18 1 17 2 16 3 14 4 15 5 13 7 9 8 10 9 87 10 11 11 12 12
REMARK SMILES IDX 8 13 5 14 6 15 88 16 7 17 4 18 3 19 2 20 1 21 89 22 90 23
REMARK SMILES IDX 95 24 91 25 94 26 92 27 93 28 19 29 20 30 21 31 22 32 23 34
REMARK SMILES IDX 24 35 25 36 86 37 26 38 85 39 27 40 28 41 29 42 79 43 30 44
REMARK SMILES IDX 84 45 78 46 80 47 31 48 83 49 77 50 76 51 32 53 64 54 44 55
REMARK SMILES IDX 63 56 45 57 48 58 62 59 81 60 46 61 47 62 61 64 82 65 49 66
REMARK SMILES IDX 33 67 34 68 42 69 35 70 37 71 43 72 36 73 38 74 39 75 40 76
REMARK SMILES IDX 41 77 65 78 66 79 74 80 67 81 69 82 75 83 68 84 70 85 71 86
REMARK SMILES IDX 72 87 73 88 50 89 51 90 59 91 52 92 54 93 60 94 53 95 55 96
REMARK SMILES IDX 56 97 57 98 58 99
REMARK H PARENT 16 6 21 33 80 52 48 63
REMARK Flexibility Score: inf
ROOT
ATOM      1  C   UNL A   1      33.369  29.396  24.411  1.00  0.00     0.023 C 
ENDROOT
BRANCH   1   2
ATOM      2  C   UNL A   1      34.341  28.296  24.011  1.00  0.00     0.116 C 
BRANCH   2   3
ATOM      3  N   UNL A   1      34.117  27.696  22.700  1.00  0.00    -0.352 N 
ATOM      4  C   UNL A   1      33.009  27.041  22.191  1.00  0.00     0.251 C 
ATOM      5  O   UNL A   1      33.025  26.611  21.040  1.00  0.00    -0.269 OA
ATOM      6  H   UNL A   1      34.876  27.769  22.078  1.00  0.00     0.163 HD
BRANCH   4   7
ATOM      7  C   UNL A   1      31.813  26.788  23.037  1.00  0.00     0.040 A 
ATOM      8  C   UNL A   1      30.705  25.347  24.635  1.00  0.00     0.018 A 
ATOM      9  C   UNL A   1      29.472  25.894  24.267  1.00  0.00     0.012 A 
ATOM     10  C   UNL A   1      31.874  25.910  24.113  1.00  0.00     0.025 A 
ATOM     11  C   UNL A   1      29.419  26.937  23.334  1.00  0.00     0.002 A 
ATOM     12  C   UNL A   1      30.586  27.357  22.688  1.00  0.00     0.014 A 
BRANCH   8  13
ATOM     13  C   UNL A   1      30.842  24.105  25.383  1.00  0.00     0.134 A 
ATOM     14  C   UNL A   1      31.542  22.005  25.596  1.00  0.00     0.128 A 
ATOM     15  C   UNL A   1      31.314  22.516  26.870  1.00  0.00     0.051 A 
ATOM     16  O   UNL A   1      31.268  23.007  24.690  1.00  0.00    -0.457 OA
ATOM     17  C   UNL A   1      30.817  23.825  26.731  1.00  0.00     0.051 A 
BRANCH  14  18
ATOM     18  C   UNL A   1      31.923  20.679  25.229  1.00  0.00     0.067 C 
ATOM     19  C   UNL A   1      33.188  20.411  24.850  1.00  0.00     0.063 C 
BRANCH  19  20
ATOM     20  C   UNL A   1      33.614  19.041  24.347  1.00  0.00     0.100 C 
ATOM     21  N   UNL A   1      33.967  17.905  23.931  1.00  0.00    -0.192 NA
ENDBRANCH  19  20
BRANCH  19  22
ATOM     22  C   UNL A   1      34.286  21.424  24.896  1.00  0.00    -0.007 A 
ATOM     23  C   UNL A   1      34.514  22.290  23.808  1.00  0.00     0.012 A 
ATOM     24  C   UNL A   1      35.136  21.502  26.011  1.00  0.00     0.012 A 
ATOM     25  C   UNL A   1      35.604  23.162  23.807  1.00  0.00     0.040 A 
ATOM     26  C   UNL A   1      36.215  22.392  26.015  1.00  0.00     0.040 A 
ATOM     27  C   UNL A   1      36.447  23.202  24.909  1.00  0.00     0.123 A 
ATOM     28  F   UNL A   1      37.501  24.028  24.904  1.00  0.00    -0.207 F 
ENDBRANCH  19  22
ENDBRANCH  14  18
ENDBRANCH   8  13
ENDBRANCH   4   7
ENDBRANCH   2   3
ENDBRANCH   1   2
BRANCH   1  29
ATOM     29  C   UNL A   1      32.491  29.127  25.625  1.00  0.00     0.023 C 
BRANCH  29  30
ATOM     30  C   UNL A   1      33.134  29.340  26.990  1.00  0.00     0.116 C 
BRANCH  30  31
ATOM     31  N   UNL A   1      33.411  30.735  27.312  1.00  0.00    -0.352 N 
ATOM     32  C   UNL A   1      34.543  31.310  27.850  1.00  0.00     0.251 C 
ATOM     33  H   UNL A   1      32.678  31.363  27.115  1.00  0.00     0.163 HD
ATOM     34  O   UNL A   1      34.564  32.511  28.091  1.00  0.00    -0.269 OA
BRANCH  32  35
ATOM     35  C   UNL A   1      35.712  30.464  28.184  1.00  0.00     0.039 A 
ATOM     36  C   UNL A   1      36.779  30.406  27.284  1.00  0.00     0.014 A 
ATOM     37  C   UNL A   1      35.782  29.787  29.402  1.00  0.00     0.014 A 
ATOM     38  C   UNL A   1      37.966  29.772  27.660  1.00  0.00     0.010 A 
ATOM     39  C   UNL A   1      36.990  29.224  29.806  1.00  0.00     0.010 A 
ATOM     40  C   UNL A   1      38.102  29.233  28.950  1.00  0.00    -0.014 A 
BRANCH  40  41
ATOM     41  C   UNL A   1      39.411  28.743  29.457  1.00  0.00     0.031 A 
ATOM     42  C   UNL A   1      40.145  29.495  30.530  1.00  0.00     0.074 A 
ATOM     43  C   UNL A   1      39.997  27.688  28.854  1.00  0.00     0.049 A 
ATOM     44  N   UNL A   1      41.337  29.274  31.023  1.00  0.00    -0.248 NA
ATOM     45  C   UNL A   1      39.463  30.666  31.106  1.00  0.00     0.031 C 
ATOM     46  C   UNL A   1      39.425  26.921  27.745  1.00  0.00     0.029 A 
ATOM     47  N   UNL A   1      41.218  27.097  29.068  1.00  0.00    -0.354 N 
ATOM     48  C   UNL A   1      41.564  30.295  31.937  1.00  0.00     0.074 A 
ATOM     49  C   UNL A   1      40.398  31.154  31.906  1.00  0.00     0.031 C 
ATOM     50  C   UNL A   1      40.288  25.959  27.382  1.00  0.00     0.029 A 
ATOM     51  C   UNL A   1      41.487  26.058  28.207  1.00  0.00     0.049 A 
ATOM     52  H   UNL A   1      41.842  27.388  29.772  1.00  0.00     0.167 HD
ATOM     53  C   UNL A   1      42.628  30.483  32.753  1.00  0.00     0.034 A 
ATOM     54  C   UNL A   1      42.579  25.277  28.088  1.00  0.00     0.034 A 
ATOM     55  C   UNL A   1      43.763  29.602  32.815  1.00  0.00     0.049 A 
ATOM     56  C   UNL A   1      43.741  25.494  29.017  1.00  0.00     0.074 A 
ATOM     57  C   UNL A   1      44.842  29.648  33.680  1.00  0.00     0.029 A 
ATOM     58  N   UNL A   1      43.971  28.520  31.974  1.00  0.00    -0.354 N 
ATOM     59  N   UNL A   1      43.865  26.363  29.991  1.00  0.00    -0.248 NA
ATOM     60  C   UNL A   1      44.901  24.608  28.849  1.00  0.00     0.031 C 
ATOM     61  C   UNL A   1      45.710  28.601  33.351  1.00  0.00     0.029 A 
ATOM     62  C   UNL A   1      45.167  27.897  32.289  1.00  0.00     0.049 A 
ATOM     63  H   UNL A   1      43.358  28.235  31.258  1.00  0.00     0.167 HD
ATOM     64  C   UNL A   1      45.104  26.112  30.570  1.00  0.00     0.074 A 
ATOM     65  C   UNL A   1      45.682  24.995  29.850  1.00  0.00     0.031 C 
ATOM     66  C   UNL A   1      45.713  26.758  31.595  1.00  0.00     0.034 A 
BRANCH  53  67
ATOM     67  C   UNL A   1      42.578  31.658  33.693  1.00  0.00     0.023 A 
ATOM     68  C   UNL A   1      43.270  32.841  33.355  1.00  0.00     0.012 A 
ATOM     69  C   UNL A   1      41.833  31.612  34.885  1.00  0.00     0.148 A 
ATOM     70  C   UNL A   1      43.254  33.943  34.207  1.00  0.00     0.002 A 
ATOM     71  C   UNL A   1      41.789  32.730  35.713  1.00  0.00     0.091 A 
ATOM     72  F   UNL A   1      41.203  30.473  35.207  1.00  0.00    -0.205 F 
ATOM     73  C   UNL A   1      42.506  33.891  35.381  1.00  0.00     0.022 A 
BRANCH  71  74
ATOM     74  S   UNL A   1      40.795  32.775  37.208  1.00  0.00     0.127 S 
ATOM     75  O   UNL A   1      41.512  31.836  38.068  1.00  0.00    -0.237 OA
ATOM     76  O   UNL A   1      40.902  34.178  37.616  1.00  0.00    -0.237 OA
ATOM     77  O   UNL A   1      39.457  32.369  36.802  1.00  0.00    -0.744 OA
ENDBRANCH  71  74
ENDBRANCH  53  67
BRANCH  54  78
ATOM     78  C   UNL A   1      42.585  24.162  27.099  1.00  0.00     0.023 A 
ATOM     79  C   UNL A   1      43.255  24.341  25.875  1.00  0.00     0.012 A 
ATOM     80  C   UNL A   1      41.988  22.917  27.380  1.00  0.00     0.148 A 
ATOM     81  C   UNL A   1      43.317  23.310  24.938  1.00  0.00     0.002 A 
ATOM     82  C   UNL A   1      42.096  21.877  26.464  1.00  0.00     0.091 A 
ATOM     83  F   UNL A   1      41.345  22.771  28.547  1.00  0.00    -0.205 F 
ATOM     84  C   UNL A   1      42.748  22.075  25.237  1.00  0.00     0.022 A 
BRANCH  82  85
ATOM     85  S   UNL A   1      41.508  20.215  26.816  1.00  0.00     0.127 S 
ATOM     86  O   UNL A   1      40.125  20.465  27.212  1.00  0.00    -0.237 OA
ATOM     87  O   UNL A   1      41.670  19.558  25.518  1.00  0.00    -0.237 OA
ATOM     88  O   UNL A   1      42.384  19.701  27.860  1.00  0.00    -0.744 OA
ENDBRANCH  82  85
ENDBRANCH  54  78
BRANCH  66  89
ATOM     89  C   UNL A   1      47.076  26.273  32.012  1.00  0.00     0.023 A 
ATOM     90  C   UNL A   1      47.196  25.422  33.127  1.00  0.00     0.012 A 
ATOM     91  C   UNL A   1      48.221  26.591  31.256  1.00  0.00     0.148 A 
ATOM     92  C   UNL A   1      48.440  24.911  33.498  1.00  0.00     0.002 A 
ATOM     93  C   UNL A   1      49.450  26.044  31.606  1.00  0.00     0.091 A 
ATOM     94  F   UNL A   1      48.088  27.419  30.209  1.00  0.00    -0.205 F 
ATOM     95  C   UNL A   1      49.563  25.211  32.731  1.00  0.00     0.022 A 
BRANCH  93  96
ATOM     96  S   UNL A   1      50.935  26.304  30.627  1.00  0.00     0.127 S 
ATOM     97  O   UNL A   1      50.554  25.713  29.345  1.00  0.00    -0.237 OA
ATOM     98  O   UNL A   1      51.049  27.763  30.617  1.00  0.00    -0.237 OA
ATOM     99  O   UNL A   1      52.007  25.620  31.338  1.00  0.00    -0.744 OA
ENDBRANCH  93  96
ENDBRANCH  66  89
ENDBRANCH  40  41
ENDBRANCH  32  35
ENDBRANCH  30  31
ENDBRANCH  29  30
ENDBRANCH   1  29
TORSDOF 18
ENDMDL
MODEL 3
REMARK VINA RESULT:     -11.5      3.480      8.510
REMARK SMILES N#C/C(=C/c1ccc(-c2cccc(C(=O)NCCCCNC(=O)c3ccc(-c4c5nc(c(-c6cccc(S(=O)(=O)[O-])c6F)c6ccc([nH]6)c(-c6cccc(S(=O)(=O)[O-])c6F)c6nc(c(-c7cccc(S(=O)(=O)[O-])c7F)c7ccc4[nH]7)C=C6)C=C5)cc3)c2)o1)c1ccc(F)cc1
REMARK SMILES IDX 18 1 17 2 16 3 14 4 15 5 13 7 9 8 10 9 87 10 11 11 12 12
REMARK SMILES IDX 8 13 5 14 6 15 88 16 7 17 4 18 3 19 2 20 1 21 89 22 90 23
REMARK SMILES IDX 95 24 91 25 94 26 92 27 93 28 19 29 20 30 21 31 22 32 23 34
REMARK SMILES IDX 24 35 25 36 86 37 26 38 85 39 27 40 28 41 29 42 79 43 30 44
REMARK SMILES IDX 84 45 78 46 80 47 31 48 83 49 77 50 76 51 32 53 64 54 44 55
REMARK SMILES IDX 63 56 45 57 48 58 62 59 81 60 46 61 47 62 61 64 82 65 49 66
REMARK SMILES IDX 33 67 34 68 42 69 35 70 37 71 43 72 36 73 38 74 39 75 40 76
REMARK SMILES IDX 41 77 65 78 66 79 74 80 67 81 69 82 75 83 68 84 70 85 71 86
REMARK SMILES IDX 72 87 73 88 50 89 51 90 59 91 52 92 54 93 60 94 53 95 55 96
REMARK SMILES IDX 56 97 57 98 58 99
REMARK H PARENT 16 6 21 33 80 52 48 63
REMARK Flexibility Score: inf
ROOT
ATOM      1  C   UNL A   1      33.618  29.254  24.647  1.00  0.00     0.023 C 
ENDROOT
BRANCH   1   2
ATOM      2  C   UNL A   1      34.036  27.989  23.910  1.00  0.00     0.116 C 
BRANCH   2   3
ATOM      3  N   UNL A   1      33.146  27.556  22.838  1.00  0.00    -0.352 N 
ATOM      4  C   UNL A   1      31.977  26.817  22.886  1.00  0.00     0.251 C 
ATOM      5  O   UNL A   1      31.367  26.564  21.850  1.00  0.00    -0.269 OA
ATOM      6  H   UNL A   1      33.422  27.834  21.935  1.00  0.00     0.163 HD
BRANCH   4   7
ATOM      7  C   UNL A   1      31.473  26.264  24.171  1.00  0.00     0.040 A 
ATOM      8  C   UNL A   1      31.741  24.637  25.942  1.00  0.00     0.018 A 
ATOM      9  C   UNL A   1      30.390  24.779  26.272  1.00  0.00     0.012 A 
ATOM     10  C   UNL A   1      32.295  25.494  24.986  1.00  0.00     0.025 A 
ATOM     11  C   UNL A   1      29.599  25.715  25.594  1.00  0.00     0.002 A 
ATOM     12  C   UNL A   1      30.130  26.428  24.516  1.00  0.00     0.014 A 
BRANCH   8  13
ATOM     13  C   UNL A   1      32.568  23.527  26.398  1.00  0.00     0.134 A 
ATOM     14  C   UNL A   1      34.505  22.443  26.529  1.00  0.00     0.128 A 
ATOM     15  C   UNL A   1      33.695  22.010  27.575  1.00  0.00     0.051 A 
ATOM     16  O   UNL A   1      33.803  23.397  25.826  1.00  0.00    -0.457 OA
ATOM     17  C   UNL A   1      32.450  22.654  27.455  1.00  0.00     0.051 A 
BRANCH  14  18
ATOM     18  C   UNL A   1      35.803  21.976  26.162  1.00  0.00     0.067 C 
ATOM     19  C   UNL A   1      35.942  20.893  25.373  1.00  0.00     0.063 C 
BRANCH  19  20
ATOM     20  C   UNL A   1      37.300  20.294  25.045  1.00  0.00     0.100 C 
ATOM     21  N   UNL A   1      38.427  19.798  24.772  1.00  0.00    -0.192 NA
ENDBRANCH  19  20
BRANCH  19  22
ATOM     22  C   UNL A   1      34.785  20.188  24.743  1.00  0.00    -0.007 A 
ATOM     23  C   UNL A   1      33.692  20.913  24.229  1.00  0.00     0.012 A 
ATOM     24  C   UNL A   1      34.751  18.785  24.688  1.00  0.00     0.012 A 
ATOM     25  C   UNL A   1      32.565  20.251  23.737  1.00  0.00     0.040 A 
ATOM     26  C   UNL A   1      33.628  18.126  24.174  1.00  0.00     0.040 A 
ATOM     27  C   UNL A   1      32.542  18.864  23.718  1.00  0.00     0.123 A 
ATOM     28  F   UNL A   1      31.457  18.228  23.259  1.00  0.00    -0.207 F 
ENDBRANCH  19  22
ENDBRANCH  14  18
ENDBRANCH   8  13
ENDBRANCH   4   7
ENDBRANCH   2   3
ENDBRANCH   1   2
BRANCH   1  29
ATOM     29  C   UNL A   1      32.635  29.083  25.797  1.00  0.00     0.023 C 
BRANCH  29  30
ATOM     30  C   UNL A   1      33.196  29.264  27.203  1.00  0.00     0.116 C 
BRANCH  30  31
ATOM     31  N   UNL A   1      33.454  30.651  27.573  1.00  0.00    -0.352 N 
ATOM     32  C   UNL A   1      34.580  31.223  28.127  1.00  0.00     0.251 C 
ATOM     33  H   UNL A   1      32.711  31.274  27.401  1.00  0.00     0.163 HD
ATOM     34  O   UNL A   1      34.584  32.415  28.410  1.00  0.00    -0.269 OA
BRANCH  32  35
ATOM     35  C   UNL A   1      35.762  30.384  28.426  1.00  0.00     0.039 A 
ATOM     36  C   UNL A   1      36.818  30.358  27.512  1.00  0.00     0.014 A 
ATOM     37  C   UNL A   1      35.856  29.679  29.628  1.00  0.00     0.014 A 
ATOM     38  C   UNL A   1      38.017  29.729  27.858  1.00  0.00     0.010 A 
ATOM     39  C   UNL A   1      37.076  29.122  30.003  1.00  0.00     0.010 A 
ATOM     40  C   UNL A   1      38.176  29.163  29.134  1.00  0.00    -0.014 A 
BRANCH  40  41
ATOM     41  C   UNL A   1      39.497  28.677  29.612  1.00  0.00     0.031 A 
ATOM     42  C   UNL A   1      40.240  29.417  30.687  1.00  0.00     0.074 A 
ATOM     43  C   UNL A   1      40.083  27.638  28.983  1.00  0.00     0.049 A 
ATOM     44  N   UNL A   1      41.441  29.200  31.157  1.00  0.00    -0.248 NA
ATOM     45  C   UNL A   1      39.557  30.572  31.292  1.00  0.00     0.031 C 
ATOM     46  C   UNL A   1      39.502  26.885  27.869  1.00  0.00     0.029 A 
ATOM     47  N   UNL A   1      41.313  27.054  29.168  1.00  0.00    -0.354 N 
ATOM     48  C   UNL A   1      41.673  30.206  32.086  1.00  0.00     0.074 A 
ATOM     49  C   UNL A   1      40.499  31.055  32.087  1.00  0.00     0.031 C 
ATOM     50  C   UNL A   1      40.367  25.937  27.477  1.00  0.00     0.029 A 
ATOM     51  C   UNL A   1      41.578  26.033  28.285  1.00  0.00     0.049 A 
ATOM     52  H   UNL A   1      41.945  27.340  29.867  1.00  0.00     0.167 HD
ATOM     53  C   UNL A   1      42.748  30.391  32.888  1.00  0.00     0.034 A 
ATOM     54  C   UNL A   1      42.675  25.265  28.136  1.00  0.00     0.034 A 
ATOM     55  C   UNL A   1      43.892  29.520  32.919  1.00  0.00     0.049 A 
ATOM     56  C   UNL A   1      43.849  25.476  29.051  1.00  0.00     0.074 A 
ATOM     57  C   UNL A   1      44.983  29.561  33.768  1.00  0.00     0.029 A 
ATOM     58  N   UNL A   1      44.097  28.453  32.056  1.00  0.00    -0.354 N 
ATOM     59  N   UNL A   1      43.980  26.329  30.038  1.00  0.00    -0.248 NA
ATOM     60  C   UNL A   1      45.015  24.604  28.851  1.00  0.00     0.031 C 
ATOM     61  C   UNL A   1      45.856  28.528  33.408  1.00  0.00     0.029 A 
ATOM     62  C   UNL A   1      45.303  27.837  32.342  1.00  0.00     0.049 A 
ATOM     63  H   UNL A   1      43.475  28.175  31.345  1.00  0.00     0.167 HD
ATOM     64  C   UNL A   1      45.230  26.080  30.594  1.00  0.00     0.074 A 
ATOM     65  C   UNL A   1      45.807  24.981  29.847  1.00  0.00     0.031 C 
ATOM     66  C   UNL A   1      45.848  26.715  31.620  1.00  0.00     0.034 A 
BRANCH  53  67
ATOM     67  C   UNL A   1      42.701  31.549  33.849  1.00  0.00     0.023 A 
ATOM     68  C   UNL A   1      43.281  32.780  33.473  1.00  0.00     0.012 A 
ATOM     69  C   UNL A   1      42.067  31.440  35.100  1.00  0.00     0.148 A 
ATOM     70  C   UNL A   1      43.265  33.868  34.342  1.00  0.00     0.002 A 
ATOM     71  C   UNL A   1      42.020  32.543  35.947  1.00  0.00     0.091 A 
ATOM     72  F   UNL A   1      41.545  30.257  35.455  1.00  0.00    -0.205 F 
ATOM     73  C   UNL A   1      42.628  33.753  35.575  1.00  0.00     0.022 A 
BRANCH  71  74
ATOM     74  S   UNL A   1      41.159  32.503  37.522  1.00  0.00     0.127 S 
ATOM     75  O   UNL A   1      42.013  31.612  38.304  1.00  0.00    -0.237 OA
ATOM     76  O   UNL A   1      41.200  33.907  37.939  1.00  0.00    -0.237 OA
ATOM     77  O   UNL A   1      39.823  32.004  37.227  1.00  0.00    -0.744 OA
ENDBRANCH  71  74
ENDBRANCH  53  67
BRANCH  54  78
ATOM     78  C   UNL A   1      42.676  24.166  27.129  1.00  0.00     0.023 A 
ATOM     79  C   UNL A   1      43.299  24.384  25.885  1.00  0.00     0.012 A 
ATOM     80  C   UNL A   1      42.122  22.901  27.408  1.00  0.00     0.148 A 
ATOM     81  C   UNL A   1      43.355  23.370  24.929  1.00  0.00     0.002 A 
ATOM     82  C   UNL A   1      42.226  21.879  26.471  1.00  0.00     0.091 A 
ATOM     83  F   UNL A   1      41.524  22.718  28.594  1.00  0.00    -0.205 F 
ATOM     84  C   UNL A   1      42.830  22.115  25.226  1.00  0.00     0.022 A 
BRANCH  82  85
ATOM     85  S   UNL A   1      41.696  20.197  26.814  1.00  0.00     0.127 S 
ATOM     86  O   UNL A   1      41.813  19.573  25.498  1.00  0.00    -0.237 OA
ATOM     87  O   UNL A   1      42.692  19.761  27.794  1.00  0.00    -0.237 OA
ATOM     88  O   UNL A   1      40.344  20.311  27.343  1.00  0.00    -0.744 OA
ENDBRANCH  82  85
ENDBRANCH  54  78
BRANCH  66  89
ATOM     89  C   UNL A   1      47.222  26.236  32.009  1.00  0.00     0.023 A 
ATOM     90  C   UNL A   1      48.355  26.838  31.429  1.00  0.00     0.012 A 
ATOM     91  C   UNL A   1      47.392  25.254  33.005  1.00  0.00     0.148 A 
ATOM     92  C   UNL A   1      49.639  26.454  31.817  1.00  0.00     0.002 A 
ATOM     93  C   UNL A   1      48.674  24.907  33.417  1.00  0.00     0.091 A 
ATOM     94  F   UNL A   1      46.300  24.679  33.531  1.00  0.00    -0.205 F 
ATOM     95  C   UNL A   1      49.798  25.499  32.818  1.00  0.00     0.022 A 
BRANCH  93  96
ATOM     96  S   UNL A   1      48.974  23.751  34.759  1.00  0.00     0.127 S 
ATOM     97  O   UNL A   1      50.025  22.905  34.196  1.00  0.00    -0.237 OA
ATOM     98  O   UNL A   1      49.417  24.636  35.838  1.00  0.00    -0.237 OA
ATOM     99  O   UNL A   1      47.702  23.087  35.008  1.00  0.00    -0.744 OA
ENDBRANCH  93  96
ENDBRANCH  66  89
ENDBRANCH  40  41
ENDBRANCH  32  35
ENDBRANCH  30  31
ENDBRANCH  29  30
ENDBRANCH   1  29
TORSDOF 18
ENDMDL
