MODEL 1
REMARK VINA RESULT:     -12.0      0.000      0.000
REMARK SMILES CC[C@H]1SC[C@H](C(=O)NCCCCNC(=O)c2ccc(-c3c4nc(c(-c5cccc(S(=O)(=O)[O-])c5F)c5ccc([nH]5)c(-c5cccc(S(=O)(=O)[O-])c5F)c5nc(c(-c6cccc(S(=O)(=O)[O-])c6F)c6ccc3[nH]6)C=C5)C=C4)cc2)N1C(=O)Cc1ccc(F)c(F)c1
REMARK SMILES IDX 11 1 10 2 9 3 7 4 8 5 6 7 3 8 4 9 80 10 5 11 2 12 1 13 81 14
REMARK SMILES IDX 82 15 83 16 84 17 85 18 91 19 86 20 89 21 87 22 90 23 88 24
REMARK SMILES IDX 12 25 13 26 14 27 15 28 16 30 17 31 18 32 79 33 19 34 78 35
REMARK SMILES IDX 20 36 21 37 22 38 72 39 23 40 77 41 71 42 73 43 24 44 76 45
REMARK SMILES IDX 70 46 69 47 25 49 57 50 37 51 56 52 38 53 41 54 55 55 74 56
REMARK SMILES IDX 39 57 40 58 54 60 75 61 42 62 26 63 27 64 35 65 28 66 30 67
REMARK SMILES IDX 36 68 29 69 31 70 32 71 33 72 34 73 58 74 59 75 67 76 60 77
REMARK SMILES IDX 62 78 68 79 61 80 63 81 64 82 65 83 66 84 43 85 44 86 52 87
REMARK SMILES IDX 45 88 47 89 53 90 46 91 48 92 49 93 50 94 51 95
REMARK H PARENT 9 6 14 29 73 48 41 59
REMARK Flexibility Score: inf
ROOT
ATOM      1  C   UNL A   1      36.278  23.287  23.748  1.00  0.00     0.023 C 
ENDROOT
BRANCH   1   2
ATOM      2  C   UNL A   1      35.145  24.263  24.067  1.00  0.00     0.116 C 
BRANCH   2   3
ATOM      3  N   UNL A   1      34.336  24.561  22.896  1.00  0.00    -0.354 N 
ATOM      4  C   UNL A   1      33.369  25.518  22.729  1.00  0.00     0.243 C 
ATOM      5  O   UNL A   1      32.702  25.517  21.693  1.00  0.00    -0.273 OA
ATOM      6  H   UNL A   1      34.509  23.994  22.109  1.00  0.00     0.163 HD
BRANCH   4   7
ATOM      7  C   UNL A   1      33.211  26.610  23.799  1.00  0.00     0.185 C 
ATOM      8  C   UNL A   1      31.416  27.633  25.101  1.00  0.00     0.143 C 
ATOM      9  S   UNL A   1      31.475  28.661  23.608  1.00  0.00    -0.134 SA
ATOM     10  N   UNL A   1      32.084  26.405  24.718  1.00  0.00    -0.318 N 
ATOM     11  C   UNL A   1      33.037  27.940  23.048  1.00  0.00     0.107 C 
BRANCH   8  12
ATOM     12  C   UNL A   1      32.078  28.415  26.272  1.00  0.00     0.033 C 
ATOM     13  C   UNL A   1      31.519  28.225  27.679  1.00  0.00     0.007 C 
ENDBRANCH   8  12
BRANCH  10  14
ATOM     14  C   UNL A   1      31.976  25.200  25.390  1.00  0.00     0.228 C 
ATOM     15  O   UNL A   1      32.722  24.926  26.334  1.00  0.00    -0.274 OA
BRANCH  14  16
ATOM     16  C   UNL A   1      30.923  24.198  24.938  1.00  0.00     0.135 C 
BRANCH  16  17
ATOM     17  C   UNL A   1      31.510  22.875  24.506  1.00  0.00    -0.036 A 
ATOM     18  C   UNL A   1      31.925  21.933  25.464  1.00  0.00     0.007 A 
ATOM     19  C   UNL A   1      31.610  22.552  23.145  1.00  0.00     0.046 A 
ATOM     20  C   UNL A   1      32.358  20.665  25.070  1.00  0.00     0.043 A 
ATOM     21  C   UNL A   1      32.038  21.284  22.763  1.00  0.00     0.159 A 
ATOM     22  C   UNL A   1      32.396  20.342  23.719  1.00  0.00     0.158 A 
ATOM     23  F   UNL A   1      32.065  20.969  21.460  1.00  0.00    -0.204 F 
ATOM     24  F   UNL A   1      32.770  19.111  23.346  1.00  0.00    -0.204 F 
ENDBRANCH  16  17
ENDBRANCH  14  16
ENDBRANCH  10  14
ENDBRANCH   4   7
ENDBRANCH   2   3
ENDBRANCH   1   2
BRANCH   1  25
ATOM     25  C   UNL A   1      36.095  21.892  24.351  1.00  0.00     0.023 C 
BRANCH  25  26
ATOM     26  C   UNL A   1      36.782  21.679  25.695  1.00  0.00     0.116 C 
BRANCH  26  27
ATOM     27  N   UNL A   1      37.764  20.604  25.670  1.00  0.00    -0.352 N 
ATOM     28  C   UNL A   1      39.099  20.669  25.992  1.00  0.00     0.251 C 
ATOM     29  H   UNL A   1      37.432  19.721  25.389  1.00  0.00     0.163 HD
ATOM     30  O   UNL A   1      39.831  19.700  25.811  1.00  0.00    -0.269 OA
BRANCH  28  31
ATOM     31  C   UNL A   1      39.648  21.933  26.525  1.00  0.00     0.039 A 
ATOM     32  C   UNL A   1      40.642  21.882  27.504  1.00  0.00     0.014 A 
ATOM     33  C   UNL A   1      39.214  23.160  26.016  1.00  0.00     0.014 A 
ATOM     34  C   UNL A   1      41.255  23.065  27.926  1.00  0.00     0.010 A 
ATOM     35  C   UNL A   1      39.870  24.327  26.389  1.00  0.00     0.010 A 
ATOM     36  C   UNL A   1      40.898  24.293  27.346  1.00  0.00    -0.014 A 
BRANCH  36  37
ATOM     37  C   UNL A   1      41.576  25.561  27.711  1.00  0.00     0.031 A 
ATOM     38  C   UNL A   1      40.813  26.626  28.449  1.00  0.00     0.074 A 
ATOM     39  C   UNL A   1      42.830  25.801  27.277  1.00  0.00     0.049 A 
ATOM     40  N   UNL A   1      41.166  27.854  28.723  1.00  0.00    -0.248 NA
ATOM     41  C   UNL A   1      39.460  26.273  28.914  1.00  0.00     0.031 C 
ATOM     42  C   UNL A   1      43.650  24.872  26.495  1.00  0.00     0.029 A 
ATOM     43  N   UNL A   1      43.619  26.918  27.397  1.00  0.00    -0.354 N 
ATOM     44  C   UNL A   1      40.069  28.432  29.351  1.00  0.00     0.074 A 
ATOM     45  C   UNL A   1      39.028  27.430  29.396  1.00  0.00     0.031 C 
ATOM     46  C   UNL A   1      44.817  25.463  26.193  1.00  0.00     0.029 A 
ATOM     47  C   UNL A   1      44.820  26.819  26.731  1.00  0.00     0.049 A 
ATOM     48  H   UNL A   1      43.351  27.715  27.911  1.00  0.00     0.167 HD
ATOM     49  C   UNL A   1      39.949  29.678  29.869  1.00  0.00     0.034 A 
ATOM     50  C   UNL A   1      45.803  27.726  26.559  1.00  0.00     0.034 A 
ATOM     51  C   UNL A   1      41.004  30.652  29.873  1.00  0.00     0.049 A 
ATOM     52  C   UNL A   1      45.662  29.086  27.192  1.00  0.00     0.074 A 
ATOM     53  C   UNL A   1      41.003  31.919  30.431  1.00  0.00     0.029 A 
ATOM     54  N   UNL A   1      42.253  30.467  29.300  1.00  0.00    -0.354 N 
ATOM     55  N   UNL A   1      44.667  29.567  27.898  1.00  0.00    -0.248 NA
ATOM     56  C   UNL A   1      46.792  30.014  27.039  1.00  0.00     0.031 C 
ATOM     57  C   UNL A   1      42.252  32.501  30.193  1.00  0.00     0.029 A 
ATOM     58  C   UNL A   1      43.034  31.590  29.500  1.00  0.00     0.049 A 
ATOM     59  H   UNL A   1      42.540  29.657  28.821  1.00  0.00     0.167 HD
ATOM     60  C   UNL A   1      45.070  30.831  28.311  1.00  0.00     0.074 A 
ATOM     61  C   UNL A   1      46.404  31.038  27.788  1.00  0.00     0.031 C 
ATOM     62  C   UNL A   1      44.391  31.746  29.046  1.00  0.00     0.034 A 
BRANCH  49  63
ATOM     63  C   UNL A   1      38.651  30.036  30.542  1.00  0.00     0.023 A 
ATOM     64  C   UNL A   1      38.430  29.626  31.873  1.00  0.00     0.012 A 
ATOM     65  C   UNL A   1      37.689  30.836  29.896  1.00  0.00     0.148 A 
ATOM     66  C   UNL A   1      37.259  29.982  32.540  1.00  0.00     0.002 A 
ATOM     67  C   UNL A   1      36.544  31.223  30.582  1.00  0.00     0.091 A 
ATOM     68  F   UNL A   1      37.909  31.199  28.624  1.00  0.00    -0.205 F 
ATOM     69  C   UNL A   1      36.324  30.789  31.901  1.00  0.00     0.022 A 
BRANCH  67  70
ATOM     70  S   UNL A   1      35.313  32.324  29.875  1.00  0.00     0.127 S 
ATOM     71  O   UNL A   1      34.403  32.511  31.004  1.00  0.00    -0.237 OA
ATOM     72  O   UNL A   1      36.112  33.501  29.535  1.00  0.00    -0.237 OA
ATOM     73  O   UNL A   1      34.753  31.618  28.731  1.00  0.00    -0.744 OA
ENDBRANCH  67  70
ENDBRANCH  49  63
BRANCH  50  74
ATOM     74  C   UNL A   1      47.039  27.359  25.810  1.00  0.00     0.023 A 
ATOM     75  C   UNL A   1      48.061  26.651  26.472  1.00  0.00     0.012 A 
ATOM     76  C   UNL A   1      47.205  27.694  24.453  1.00  0.00     0.148 A 
ATOM     77  C   UNL A   1      49.241  26.317  25.807  1.00  0.00     0.002 A 
ATOM     78  C   UNL A   1      48.361  27.311  23.781  1.00  0.00     0.091 A 
ATOM     79  F   UNL A   1      46.230  28.383  23.841  1.00  0.00    -0.205 F 
ATOM     80  C   UNL A   1      49.388  26.638  24.461  1.00  0.00     0.022 A 
BRANCH  78  81
ATOM     81  S   UNL A   1      48.568  27.571  22.016  1.00  0.00     0.127 S 
ATOM     82  O   UNL A   1      49.734  28.449  21.976  1.00  0.00    -0.237 OA
ATOM     83  O   UNL A   1      48.803  26.210  21.529  1.00  0.00    -0.237 OA
ATOM     84  O   UNL A   1      47.312  28.153  21.564  1.00  0.00    -0.744 OA
ENDBRANCH  78  81
ENDBRANCH  50  74
BRANCH  62  85
ATOM     85  C   UNL A   1      45.089  33.032  29.393  1.00  0.00     0.023 A 
ATOM     86  C   UNL A   1      45.899  33.103  30.542  1.00  0.00     0.012 A 
ATOM     87  C   UNL A   1      45.024  34.135  28.520  1.00  0.00     0.148 A 
ATOM     88  C   UNL A   1      46.619  34.262  30.829  1.00  0.00     0.002 A 
ATOM     89  C   UNL A   1      45.777  35.271  28.788  1.00  0.00     0.091 A 
ATOM     90  F   UNL A   1      44.231  34.052  27.441  1.00  0.00    -0.205 F 
ATOM     91  C   UNL A   1      46.569  35.340  29.946  1.00  0.00     0.022 A 
BRANCH  89  92
ATOM     92  S   UNL A   1      45.850  36.668  27.660  1.00  0.00     0.127 S 
ATOM     93  O   UNL A   1      46.646  37.627  28.424  1.00  0.00    -0.237 OA
ATOM     94  O   UNL A   1      46.533  36.094  26.499  1.00  0.00    -0.237 OA
ATOM     95  O   UNL A   1      44.467  37.057  27.414  1.00  0.00    -0.744 OA
ENDBRANCH  89  92
ENDBRANCH  62  85
ENDBRANCH  36  37
ENDBRANCH  28  31
ENDBRANCH  26  27
ENDBRANCH  25  26
ENDBRANCH   1  25
TORSDOF 18
ENDMDL
MODEL 2
REMARK VINA RESULT:     -11.9      0.994      7.518
REMARK SMILES CC[C@H]1SC[C@H](C(=O)NCCCCNC(=O)c2ccc(-c3c4nc(c(-c5cccc(S(=O)(=O)[O-])c5F)c5ccc([nH]5)c(-c5cccc(S(=O)(=O)[O-])c5F)c5nc(c(-c6cccc(S(=O)(=O)[O-])c6F)c6ccc3[nH]6)C=C5)C=C4)cc2)N1C(=O)Cc1ccc(F)c(F)c1
REMARK SMILES IDX 11 1 10 2 9 3 7 4 8 5 6 7 3 8 4 9 80 10 5 11 2 12 1 13 81 14
REMARK SMILES IDX 82 15 83 16 84 17 85 18 91 19 86 20 89 21 87 22 90 23 88 24
REMARK SMILES IDX 12 25 13 26 14 27 15 28 16 30 17 31 18 32 79 33 19 34 78 35
REMARK SMILES IDX 20 36 21 37 22 38 72 39 23 40 77 41 71 42 73 43 24 44 76 45
REMARK SMILES IDX 70 46 69 47 25 49 57 50 37 51 56 52 38 53 41 54 55 55 74 56
REMARK SMILES IDX 39 57 40 58 54 60 75 61 42 62 26 63 27 64 35 65 28 66 30 67
REMARK SMILES IDX 36 68 29 69 31 70 32 71 33 72 34 73 58 74 59 75 67 76 60 77
REMARK SMILES IDX 62 78 68 79 61 80 63 81 64 82 65 83 66 84 43 85 44 86 52 87
REMARK SMILES IDX 45 88 47 89 53 90 46 91 48 92 49 93 50 94 51 95
REMARK H PARENT 9 6 14 29 73 48 41 59
REMARK Flexibility Score: inf
ROOT
ATOM      1  C   UNL A   1      36.026  23.122  23.568  1.00  0.00     0.023 C 
ENDROOT
BRANCH   1   2
ATOM      2  C   UNL A   1      34.774  23.847  24.061  1.00  0.00     0.116 C 
BRANCH   2   3
ATOM      3  N   UNL A   1      34.033  24.459  22.969  1.00  0.00    -0.354 N 
ATOM      4  C   UNL A   1      33.127  25.487  23.003  1.00  0.00     0.243 C 
ATOM      5  O   UNL A   1      32.506  25.768  21.977  1.00  0.00    -0.273 OA
ATOM      6  H   UNL A   1      34.208  24.080  22.076  1.00  0.00     0.163 HD
BRANCH   4   7
ATOM      7  C   UNL A   1      32.982  26.308  24.294  1.00  0.00     0.185 C 
ATOM      8  C   UNL A   1      31.384  27.864  25.290  1.00  0.00     0.143 C 
ATOM      9  S   UNL A   1      32.481  28.955  24.342  1.00  0.00    -0.134 SA
ATOM     10  N   UNL A   1      31.595  26.552  24.710  1.00  0.00    -0.318 N 
ATOM     11  C   UNL A   1      33.695  27.648  24.045  1.00  0.00     0.107 C 
BRANCH   8  12
ATOM     12  C   UNL A   1      31.737  27.990  26.799  1.00  0.00     0.033 C 
ATOM     13  C   UNL A   1      32.584  29.176  27.250  1.00  0.00     0.007 C 
ENDBRANCH   8  12
BRANCH  10  14
ATOM     14  C   UNL A   1      30.738  25.475  24.851  1.00  0.00     0.228 C 
ATOM     15  O   UNL A   1      29.941  25.171  23.960  1.00  0.00    -0.274 OA
BRANCH  14  16
ATOM     16  C   UNL A   1      30.781  24.665  26.140  1.00  0.00     0.135 C 
BRANCH  16  17
ATOM     17  C   UNL A   1      31.534  23.364  25.999  1.00  0.00    -0.036 A 
ATOM     18  C   UNL A   1      31.318  22.533  24.885  1.00  0.00     0.007 A 
ATOM     19  C   UNL A   1      32.488  22.987  26.955  1.00  0.00     0.046 A 
ATOM     20  C   UNL A   1      32.096  21.389  24.692  1.00  0.00     0.043 A 
ATOM     21  C   UNL A   1      33.261  21.848  26.752  1.00  0.00     0.159 A 
ATOM     22  C   UNL A   1      33.077  21.062  25.622  1.00  0.00     0.158 A 
ATOM     23  F   UNL A   1      34.214  21.538  27.643  1.00  0.00    -0.204 F 
ATOM     24  F   UNL A   1      33.850  19.988  25.413  1.00  0.00    -0.204 F 
ENDBRANCH  16  17
ENDBRANCH  14  16
ENDBRANCH  10  14
ENDBRANCH   4   7
ENDBRANCH   2   3
ENDBRANCH   1   2
BRANCH   1  25
ATOM     25  C   UNL A   1      36.263  21.760  24.225  1.00  0.00     0.023 C 
BRANCH  25  26
ATOM     26  C   UNL A   1      36.944  21.815  25.589  1.00  0.00     0.116 C 
BRANCH  26  27
ATOM     27  N   UNL A   1      37.979  20.805  25.752  1.00  0.00    -0.352 N 
ATOM     28  C   UNL A   1      39.276  20.980  26.173  1.00  0.00     0.251 C 
ATOM     29  H   UNL A   1      37.720  19.880  25.533  1.00  0.00     0.163 HD
ATOM     30  O   UNL A   1      40.070  20.044  26.151  1.00  0.00    -0.269 OA
BRANCH  28  31
ATOM     31  C   UNL A   1      39.708  22.320  26.621  1.00  0.00     0.039 A 
ATOM     32  C   UNL A   1      40.769  22.425  27.524  1.00  0.00     0.014 A 
ATOM     33  C   UNL A   1      39.100  23.467  26.105  1.00  0.00     0.014 A 
ATOM     34  C   UNL A   1      41.267  23.687  27.859  1.00  0.00     0.010 A 
ATOM     35  C   UNL A   1      39.639  24.716  26.389  1.00  0.00     0.010 A 
ATOM     36  C   UNL A   1      40.728  24.840  27.266  1.00  0.00    -0.014 A 
BRANCH  36  37
ATOM     37  C   UNL A   1      41.278  26.192  27.537  1.00  0.00     0.031 A 
ATOM     38  C   UNL A   1      42.695  26.510  27.144  1.00  0.00     0.074 A 
ATOM     39  C   UNL A   1      40.549  27.085  28.236  1.00  0.00     0.049 A 
ATOM     40  N   UNL A   1      43.412  27.566  27.426  1.00  0.00    -0.248 NA
ATOM     41  C   UNL A   1      43.411  25.492  26.356  1.00  0.00     0.031 C 
ATOM     42  C   UNL A   1      39.187  26.869  28.730  1.00  0.00     0.029 A 
ATOM     43  N   UNL A   1      40.870  28.341  28.690  1.00  0.00    -0.354 N 
ATOM     44  C   UNL A   1      44.671  27.322  26.891  1.00  0.00     0.074 A 
ATOM     45  C   UNL A   1      44.629  26.008  26.289  1.00  0.00     0.031 C 
ATOM     46  C   UNL A   1      38.796  27.947  29.429  1.00  0.00     0.029 A 
ATOM     47  C   UNL A   1      39.886  28.917  29.460  1.00  0.00     0.049 A 
ATOM     48  H   UNL A   1      41.724  28.787  28.483  1.00  0.00     0.167 HD
ATOM     49  C   UNL A   1      45.756  28.132  26.877  1.00  0.00     0.034 A 
ATOM     50  C   UNL A   1      39.872  30.086  30.131  1.00  0.00     0.034 A 
ATOM     51  C   UNL A   1      45.776  29.458  27.427  1.00  0.00     0.049 A 
ATOM     52  C   UNL A   1      41.076  30.988  30.053  1.00  0.00     0.074 A 
ATOM     53  C   UNL A   1      46.806  30.383  27.405  1.00  0.00     0.029 A 
ATOM     54  N   UNL A   1      44.715  30.056  28.089  1.00  0.00    -0.354 N 
ATOM     55  N   UNL A   1      42.211  30.794  29.428  1.00  0.00    -0.248 NA
ATOM     56  C   UNL A   1      40.984  32.285  30.741  1.00  0.00     0.031 C 
ATOM     57  C   UNL A   1      46.368  31.540  28.057  1.00  0.00     0.029 A 
ATOM     58  C   UNL A   1      45.060  31.339  28.470  1.00  0.00     0.049 A 
ATOM     59  H   UNL A   1      43.845  29.630  28.262  1.00  0.00     0.167 HD
ATOM     60  C   UNL A   1      42.948  31.960  29.605  1.00  0.00     0.074 A 
ATOM     61  C   UNL A   1      42.126  32.860  30.387  1.00  0.00     0.031 C 
ATOM     62  C   UNL A   1      44.198  32.254  29.174  1.00  0.00     0.034 A 
BRANCH  49  63
ATOM     63  C   UNL A   1      46.994  27.634  26.182  1.00  0.00     0.023 A 
ATOM     64  C   UNL A   1      47.908  26.830  26.895  1.00  0.00     0.012 A 
ATOM     65  C   UNL A   1      47.219  27.892  24.816  1.00  0.00     0.148 A 
ATOM     66  C   UNL A   1      49.040  26.314  26.267  1.00  0.00     0.002 A 
ATOM     67  C   UNL A   1      48.328  27.339  24.186  1.00  0.00     0.091 A 
ATOM     68  F   UNL A   1      46.350  28.675  24.161  1.00  0.00    -0.205 F 
ATOM     69  C   UNL A   1      49.243  26.557  24.912  1.00  0.00     0.022 A 
BRANCH  67  70
ATOM     70  S   UNL A   1      48.641  27.529  22.427  1.00  0.00     0.127 S 
ATOM     71  O   UNL A   1      49.939  28.202  22.431  1.00  0.00    -0.237 OA
ATOM     72  O   UNL A   1      48.676  26.140  21.969  1.00  0.00    -0.237 OA
ATOM     73  O   UNL A   1      47.532  28.313  21.904  1.00  0.00    -0.744 OA
ENDBRANCH  67  70
ENDBRANCH  49  63
BRANCH  50  74
ATOM     74  C   UNL A   1      38.653  30.506  30.882  1.00  0.00     0.023 A 
ATOM     75  C   UNL A   1      38.554  30.209  32.255  1.00  0.00     0.012 A 
ATOM     76  C   UNL A   1      37.603  31.201  30.253  1.00  0.00     0.148 A 
ATOM     77  C   UNL A   1      37.415  30.563  32.979  1.00  0.00     0.002 A 
ATOM     78  C   UNL A   1      36.494  31.599  30.993  1.00  0.00     0.091 A 
ATOM     79  F   UNL A   1      37.705  31.461  28.941  1.00  0.00    -0.205 F 
ATOM     80  C   UNL A   1      36.391  31.266  32.352  1.00  0.00     0.022 A 
BRANCH  78  81
ATOM     81  S   UNL A   1      35.195  32.619  30.289  1.00  0.00     0.127 S 
ATOM     82  O   UNL A   1      35.943  33.785  29.830  1.00  0.00    -0.237 OA
ATOM     83  O   UNL A   1      34.673  31.762  29.223  1.00  0.00    -0.237 OA
ATOM     84  O   UNL A   1      34.255  32.849  31.378  1.00  0.00    -0.744 OA
ENDBRANCH  78  81
ENDBRANCH  50  74
BRANCH  62  85
ATOM     85  C   UNL A   1      44.745  33.623  29.470  1.00  0.00     0.023 A 
ATOM     86  C   UNL A   1      45.471  33.847  30.655  1.00  0.00     0.012 A 
ATOM     87  C   UNL A   1      44.628  34.657  28.521  1.00  0.00     0.148 A 
ATOM     88  C   UNL A   1      46.056  35.089  30.901  1.00  0.00     0.002 A 
ATOM     89  C   UNL A   1      45.250  35.878  28.752  1.00  0.00     0.091 A 
ATOM     90  F   UNL A   1      43.915  34.427  27.408  1.00  0.00    -0.205 F 
ATOM     91  C   UNL A   1      45.957  36.098  29.945  1.00  0.00     0.022 A 
BRANCH  89  92
ATOM     92  S   UNL A   1      45.256  37.201  27.536  1.00  0.00     0.127 S 
ATOM     93  O   UNL A   1      45.980  38.254  28.246  1.00  0.00    -0.237 OA
ATOM     94  O   UNL A   1      45.992  36.597  26.424  1.00  0.00    -0.237 OA
ATOM     95  O   UNL A   1      43.857  37.489  27.249  1.00  0.00    -0.744 OA
ENDBRANCH  89  92
ENDBRANCH  62  85
ENDBRANCH  36  37
ENDBRANCH  28  31
ENDBRANCH  26  27
ENDBRANCH  25  26
ENDBRANCH   1  25
TORSDOF 18
ENDMDL
MODEL 3
REMARK VINA RESULT:     -11.8      5.790     10.655
REMARK SMILES CC[C@H]1SC[C@H](C(=O)NCCCCNC(=O)c2ccc(-c3c4nc(c(-c5cccc(S(=O)(=O)[O-])c5F)c5ccc([nH]5)c(-c5cccc(S(=O)(=O)[O-])c5F)c5nc(c(-c6cccc(S(=O)(=O)[O-])c6F)c6ccc3[nH]6)C=C5)C=C4)cc2)N1C(=O)Cc1ccc(F)c(F)c1
REMARK SMILES IDX 11 1 10 2 9 3 7 4 8 5 6 7 3 8 4 9 80 10 5 11 2 12 1 13 81 14
REMARK SMILES IDX 82 15 83 16 84 17 85 18 91 19 86 20 89 21 87 22 90 23 88 24
REMARK SMILES IDX 12 25 13 26 14 27 15 28 16 30 17 31 18 32 79 33 19 34 78 35
REMARK SMILES IDX 20 36 21 37 22 38 72 39 23 40 77 41 71 42 73 43 24 44 76 45
REMARK SMILES IDX 70 46 69 47 25 49 57 50 37 51 56 52 38 53 41 54 55 55 74 56
REMARK SMILES IDX 39 57 40 58 54 60 75 61 42 62 26 63 27 64 35 65 28 66 30 67
REMARK SMILES IDX 36 68 29 69 31 70 32 71 33 72 34 73 58 74 59 75 67 76 60 77
REMARK SMILES IDX 62 78 68 79 61 80 63 81 64 82 65 83 66 84 43 85 44 86 52 87
REMARK SMILES IDX 45 88 47 89 53 90 46 91 48 92 49 93 50 94 51 95
REMARK H PARENT 9 6 14 29 73 48 41 59
REMARK Flexibility Score: inf
ROOT
ATOM      1  C   UNL A   1      32.010  30.466  25.946  1.00  0.00     0.023 C 
ENDROOT
BRANCH   1   2
ATOM      2  C   UNL A   1      33.237  29.555  25.958  1.00  0.00     0.116 C 
BRANCH   2   3
ATOM      3  N   UNL A   1      33.832  29.422  24.638  1.00  0.00    -0.354 N 
ATOM      4  C   UNL A   1      33.633  28.454  23.689  1.00  0.00     0.243 C 
ATOM      5  O   UNL A   1      34.342  28.452  22.681  1.00  0.00    -0.273 OA
ATOM      6  H   UNL A   1      34.470  30.131  24.390  1.00  0.00     0.163 HD
BRANCH   4   7
ATOM      7  C   UNL A   1      32.476  27.459  23.873  1.00  0.00     0.185 C 
ATOM      8  C   UNL A   1      32.053  25.078  23.531  1.00  0.00     0.143 C 
ATOM      9  S   UNL A   1      31.591  25.808  21.937  1.00  0.00    -0.134 SA
ATOM     10  N   UNL A   1      32.895  26.080  24.155  1.00  0.00    -0.318 N 
ATOM     11  C   UNL A   1      31.651  27.499  22.576  1.00  0.00     0.107 C 
BRANCH   8  12
ATOM     12  C   UNL A   1      30.756  24.719  24.311  1.00  0.00     0.033 C 
ATOM     13  C   UNL A   1      30.831  23.642  25.388  1.00  0.00     0.007 C 
ENDBRANCH   8  12
BRANCH  10  14
ATOM     14  C   UNL A   1      33.765  25.845  25.204  1.00  0.00     0.228 C 
ATOM     15  O   UNL A   1      33.647  26.440  26.278  1.00  0.00    -0.274 OA
BRANCH  14  16
ATOM     16  C   UNL A   1      34.893  24.840  25.014  1.00  0.00     0.135 C 
BRANCH  16  17
ATOM     17  C   UNL A   1      34.503  23.430  25.388  1.00  0.00    -0.036 A 
ATOM     18  C   UNL A   1      34.439  23.043  26.738  1.00  0.00     0.007 A 
ATOM     19  C   UNL A   1      34.159  22.501  24.396  1.00  0.00     0.046 A 
ATOM     20  C   UNL A   1      33.965  21.777  27.091  1.00  0.00     0.043 A 
ATOM     21  C   UNL A   1      33.684  21.244  24.757  1.00  0.00     0.159 A 
ATOM     22  C   UNL A   1      33.574  20.889  26.096  1.00  0.00     0.158 A 
ATOM     23  F   UNL A   1      33.296  20.391  23.798  1.00  0.00    -0.204 F 
ATOM     24  F   UNL A   1      33.080  19.692  26.438  1.00  0.00    -0.204 F 
ENDBRANCH  16  17
ENDBRANCH  14  16
ENDBRANCH  10  14
ENDBRANCH   4   7
ENDBRANCH   2   3
ENDBRANCH   1   2
BRANCH   1  25
ATOM     25  C   UNL A   1      31.911  31.405  27.151  1.00  0.00     0.023 C 
BRANCH  25  26
ATOM     26  C   UNL A   1      33.068  32.386  27.297  1.00  0.00     0.116 C 
BRANCH  26  27
ATOM     27  N   UNL A   1      32.632  33.745  27.586  1.00  0.00    -0.352 N 
ATOM     28  C   UNL A   1      33.108  34.600  28.551  1.00  0.00     0.251 C 
ATOM     29  H   UNL A   1      31.906  34.095  27.021  1.00  0.00     0.163 HD
ATOM     30  O   UNL A   1      32.560  35.680  28.751  1.00  0.00    -0.269 OA
BRANCH  28  31
ATOM     31  C   UNL A   1      34.268  34.186  29.367  1.00  0.00     0.039 A 
ATOM     32  C   UNL A   1      34.058  33.372  30.482  1.00  0.00     0.014 A 
ATOM     33  C   UNL A   1      35.562  34.559  28.993  1.00  0.00     0.014 A 
ATOM     34  C   UNL A   1      35.156  32.873  31.187  1.00  0.00     0.010 A 
ATOM     35  C   UNL A   1      36.652  34.008  29.656  1.00  0.00     0.010 A 
ATOM     36  C   UNL A   1      36.462  33.159  30.758  1.00  0.00    -0.014 A 
BRANCH  36  37
ATOM     37  C   UNL A   1      37.654  32.587  31.433  1.00  0.00     0.031 A 
ATOM     38  C   UNL A   1      38.385  31.435  30.800  1.00  0.00     0.074 A 
ATOM     39  C   UNL A   1      38.003  33.022  32.661  1.00  0.00     0.049 A 
ATOM     40  N   UNL A   1      39.343  30.695  31.293  1.00  0.00    -0.248 NA
ATOM     41  C   UNL A   1      37.960  31.042  29.445  1.00  0.00     0.031 C 
ATOM     42  C   UNL A   1      37.331  34.088  33.407  1.00  0.00     0.029 A 
ATOM     43  N   UNL A   1      38.986  32.589  33.516  1.00  0.00    -0.354 N 
ATOM     44  C   UNL A   1      39.606  29.727  30.332  1.00  0.00     0.074 A 
ATOM     45  C   UNL A   1      38.690  29.956  29.237  1.00  0.00     0.031 C 
ATOM     46  C   UNL A   1      37.911  34.215  34.611  1.00  0.00     0.029 A 
ATOM     47  C   UNL A   1      38.974  33.224  34.737  1.00  0.00     0.049 A 
ATOM     48  H   UNL A   1      39.639  31.891  33.278  1.00  0.00     0.167 HD
ATOM     49  C   UNL A   1      40.545  28.752  30.347  1.00  0.00     0.034 A 
ATOM     50  C   UNL A   1      39.722  33.016  35.840  1.00  0.00     0.034 A 
ATOM     51  C   UNL A   1      41.491  28.563  31.411  1.00  0.00     0.049 A 
ATOM     52  C   UNL A   1      40.794  31.958  35.807  1.00  0.00     0.074 A 
ATOM     53  C   UNL A   1      42.524  27.645  31.491  1.00  0.00     0.029 A 
ATOM     54  N   UNL A   1      41.528  29.310  32.578  1.00  0.00    -0.354 N 
ATOM     55  N   UNL A   1      41.114  31.139  34.834  1.00  0.00    -0.248 NA
ATOM     56  C   UNL A   1      41.632  31.820  37.007  1.00  0.00     0.031 C 
ATOM     57  C   UNL A   1      43.184  27.837  32.709  1.00  0.00     0.029 A 
ATOM     58  C   UNL A   1      42.571  28.883  33.378  1.00  0.00     0.049 A 
ATOM     59  H   UNL A   1      40.903  30.037  32.803  1.00  0.00     0.167 HD
ATOM     60  C   UNL A   1      42.217  30.424  35.285  1.00  0.00     0.074 A 
ATOM     61  C   UNL A   1      42.519  30.914  36.614  1.00  0.00     0.031 C 
ATOM     62  C   UNL A   1      42.910  29.440  34.662  1.00  0.00     0.034 A 
BRANCH  49  63
ATOM     63  C   UNL A   1      40.646  27.855  29.142  1.00  0.00     0.023 A 
ATOM     64  C   UNL A   1      39.761  26.765  29.019  1.00  0.00     0.012 A 
ATOM     65  C   UNL A   1      41.555  28.130  28.102  1.00  0.00     0.148 A 
ATOM     66  C   UNL A   1      39.797  25.945  27.893  1.00  0.00     0.002 A 
ATOM     67  C   UNL A   1      41.556  27.333  26.963  1.00  0.00     0.091 A 
ATOM     68  F   UNL A   1      42.402  29.159  28.246  1.00  0.00    -0.205 F 
ATOM     69  C   UNL A   1      40.685  26.235  26.861  1.00  0.00     0.022 A 
BRANCH  67  70
ATOM     70  S   UNL A   1      42.607  27.667  25.544  1.00  0.00     0.127 S 
ATOM     71  O   UNL A   1      43.925  27.763  26.170  1.00  0.00    -0.237 OA
ATOM     72  O   UNL A   1      42.407  26.472  24.725  1.00  0.00    -0.237 OA
ATOM     73  O   UNL A   1      42.105  28.899  24.954  1.00  0.00    -0.744 OA
ENDBRANCH  67  70
ENDBRANCH  49  63
BRANCH  50  74
ATOM     74  C   UNL A   1      39.532  33.870  37.047  1.00  0.00     0.023 A 
ATOM     75  C   UNL A   1      40.010  35.196  37.035  1.00  0.00     0.012 A 
ATOM     76  C   UNL A   1      38.877  33.389  38.196  1.00  0.00     0.148 A 
ATOM     77  C   UNL A   1      39.873  36.012  38.158  1.00  0.00     0.002 A 
ATOM     78  C   UNL A   1      38.696  34.225  39.292  1.00  0.00     0.091 A 
ATOM     79  F   UNL A   1      38.442  32.120  38.197  1.00  0.00    -0.205 F 
ATOM     80  C   UNL A   1      39.208  35.532  39.282  1.00  0.00     0.022 A 
BRANCH  78  81
ATOM     81  S   UNL A   1      37.736  33.724  40.725  1.00  0.00     0.127 S 
ATOM     82  O   UNL A   1      36.528  33.189  40.106  1.00  0.00    -0.237 OA
ATOM     83  O   UNL A   1      38.607  32.723  41.345  1.00  0.00    -0.237 OA
ATOM     84  O   UNL A   1      37.568  34.935  41.518  1.00  0.00    -0.744 OA
ENDBRANCH  78  81
ENDBRANCH  50  74
BRANCH  62  85
ATOM     85  C   UNL A   1      44.106  28.862  35.368  1.00  0.00     0.023 A 
ATOM     86  C   UNL A   1      45.381  29.419  35.158  1.00  0.00     0.012 A 
ATOM     87  C   UNL A   1      43.943  27.835  36.319  1.00  0.00     0.148 A 
ATOM     88  C   UNL A   1      46.483  28.948  35.871  1.00  0.00     0.002 A 
ATOM     89  C   UNL A   1      45.037  27.400  37.056  1.00  0.00     0.091 A 
ATOM     90  F   UNL A   1      42.722  27.306  36.488  1.00  0.00    -0.205 F 
ATOM     91  C   UNL A   1      46.310  27.950  36.828  1.00  0.00     0.022 A 
BRANCH  89  92
ATOM     92  S   UNL A   1      44.890  26.189  38.375  1.00  0.00     0.127 S 
ATOM     93  O   UNL A   1      46.119  26.422  39.132  1.00  0.00    -0.237 OA
ATOM     94  O   UNL A   1      43.665  26.616  39.053  1.00  0.00    -0.237 OA
ATOM     95  O   UNL A   1      44.796  24.891  37.720  1.00  0.00    -0.744 OA
ENDBRANCH  89  92
ENDBRANCH  62  85
ENDBRANCH  36  37
ENDBRANCH  28  31
ENDBRANCH  26  27
ENDBRANCH  25  26
ENDBRANCH   1  25
TORSDOF 18
ENDMDL
