MODEL 1
REMARK VINA RESULT:     -11.6      0.000      0.000
REMARK SMILES COc1ccc2c(c1)c(Cc1nc(-c3ccc(C(=O)NCCCCNC(=O)c4ccc(-c5c6nc(c(-c7cccc(S(=O)(=O)[O-])c7F)c7ccc([nH]7)c(-c7cccc(S(=O)(=O)[O-])c7F)c7nc(c(-c8cccc(S(=O)(=O)[O-])c8F)c8ccc5[nH]8)C=C7)C=C6)cc4)cc3)cs1)c(C)n2C(=O)c1ccc(Cl)cc1
REMARK SMILES IDX 21 1 20 2 18 3 19 4 17 6 14 7 15 8 92 9 16 10 91 11 13 12
REMARK SMILES IDX 11 13 12 14 94 15 93 16 10 17 9 18 3 19 4 20 8 21 5 22 7 23
REMARK SMILES IDX 6 24 97 25 95 26 96 27 2 28 1 29 98 30 99 31 100 32 101 33
REMARK SMILES IDX 106 34 102 35 105 36 103 37 104 38 22 39 23 40 24 41 25 42
REMARK SMILES IDX 26 43 27 45 28 46 29 47 90 48 30 49 89 50 31 51 32 52 33 53
REMARK SMILES IDX 83 54 34 55 88 56 82 57 84 58 35 59 87 60 81 61 80 62 36 64
REMARK SMILES IDX 68 65 48 66 67 67 49 68 52 69 66 70 85 71 50 72 51 73 65 75
REMARK SMILES IDX 86 76 53 77 37 78 38 79 46 80 39 81 41 82 47 83 40 84 42 85
REMARK SMILES IDX 43 86 44 87 45 88 69 89 70 90 78 91 71 92 73 93 79 94 72 95
REMARK SMILES IDX 74 96 75 97 76 98 77 99 54 100 55 101 63 102 56 103 58 104
REMARK SMILES IDX 64 105 57 106 59 107 60 108 61 109 62 110
REMARK H PARENT 20 5 25 44 84 63 52 74
REMARK Flexibility Score: inf
ROOT
ATOM      1  C   UNL A   1      39.782  29.970  28.481  1.00  0.00     0.116 C 
ENDROOT
BRANCH   1   2
ATOM      2  N   UNL A   1      40.993  29.383  29.028  1.00  0.00    -0.352 N 
ATOM      3  C   UNL A   1      41.488  28.103  28.926  1.00  0.00     0.251 C 
ATOM      4  O   UNL A   1      42.568  27.836  29.450  1.00  0.00    -0.269 OA
ATOM      5  H   UNL A   1      41.550  30.001  29.556  1.00  0.00     0.163 HD
BRANCH   3   6
ATOM      6  C   UNL A   1      40.709  27.017  28.273  1.00  0.00     0.039 A 
ATOM      7  C   UNL A   1      39.581  24.768  27.020  1.00  0.00     0.001 A 
ATOM      8  C   UNL A   1      40.423  25.625  26.303  1.00  0.00     0.011 A 
ATOM      9  C   UNL A   1      39.210  25.122  28.325  1.00  0.00     0.011 A 
ATOM     10  C   UNL A   1      40.988  26.740  26.929  1.00  0.00     0.014 A 
ATOM     11  C   UNL A   1      39.744  26.259  28.935  1.00  0.00     0.014 A 
BRANCH   7  12
ATOM     12  C   UNL A   1      39.058  23.540  26.444  1.00  0.00     0.081 A 
ATOM     13  C   UNL A   1      37.715  22.393  25.111  1.00  0.00     0.098 A 
ATOM     14  N   UNL A   1      37.947  23.578  25.632  1.00  0.00    -0.241 NA
ATOM     15  S   UNL A   1      38.695  21.125  25.726  1.00  0.00    -0.126 S 
ATOM     16  C   UNL A   1      39.562  22.274  26.666  1.00  0.00     0.095 A 
BRANCH  13  17
ATOM     17  C   UNL A   1      36.708  22.158  24.026  1.00  0.00     0.105 C 
BRANCH  17  18
ATOM     18  C   UNL A   1      35.318  21.997  24.597  1.00  0.00    -0.012 A 
ATOM     19  C   UNL A   1      34.143  18.364  24.833  1.00  0.00     0.119 A 
ATOM     20  C   UNL A   1      32.874  18.646  25.306  1.00  0.00     0.048 A 
ATOM     21  C   UNL A   1      35.020  19.412  24.565  1.00  0.00     0.057 A 
ATOM     22  C   UNL A   1      32.470  19.971  25.513  1.00  0.00     0.031 A 
ATOM     23  C   UNL A   1      34.646  20.757  24.795  1.00  0.00     0.008 A 
ATOM     24  C   UNL A   1      33.379  21.034  25.311  1.00  0.00     0.057 A 
ATOM     25  N   UNL A   1      33.291  22.423  25.535  1.00  0.00    -0.280 N 
ATOM     26  C   UNL A   1      34.469  23.006  25.034  1.00  0.00     0.028 A 
ATOM     27  C   UNL A   1      34.787  24.469  25.009  1.00  0.00     0.065 C 
BRANCH  19  28
ATOM     28  O   UNL A   1      34.641  17.105  24.637  1.00  0.00    -0.497 OA
ATOM     29  C   UNL A   1      33.914  16.067  25.285  1.00  0.00     0.278 C 
ENDBRANCH  19  28
BRANCH  25  30
ATOM     30  C   UNL A   1      32.199  23.104  26.152  1.00  0.00     0.262 C 
ATOM     31  O   UNL A   1      31.954  22.909  27.342  1.00  0.00    -0.268 OA
BRANCH  30  32
ATOM     32  C   UNL A   1      31.323  24.086  25.491  1.00  0.00     0.040 A 
ATOM     33  C   UNL A   1      30.870  23.888  24.181  1.00  0.00     0.015 A 
ATOM     34  C   UNL A   1      30.985  25.246  26.198  1.00  0.00     0.015 A 
ATOM     35  C   UNL A   1      30.150  24.905  23.548  1.00  0.00     0.021 A 
ATOM     36  C   UNL A   1      30.258  26.253  25.564  1.00  0.00     0.021 A 
ATOM     37  C   UNL A   1      29.862  26.086  24.236  1.00  0.00     0.041 A 
ATOM     38  Cl  UNL A   1      29.030  27.361  23.433  1.00  0.00    -0.084 Cl
ENDBRANCH  30  32
ENDBRANCH  25  30
ENDBRANCH  17  18
ENDBRANCH  13  17
ENDBRANCH   7  12
ENDBRANCH   3   6
ENDBRANCH   1   2
BRANCH   1  39
ATOM     39  C   UNL A   1      38.521  29.697  29.288  1.00  0.00     0.023 C 
BRANCH  39  40
ATOM     40  C   UNL A   1      37.264  29.332  28.503  1.00  0.00     0.023 C 
BRANCH  40  41
ATOM     41  C   UNL A   1      36.707  30.409  27.569  1.00  0.00     0.116 C 
BRANCH  41  42
ATOM     42  N   UNL A   1      35.481  31.044  28.006  1.00  0.00    -0.352 N 
ATOM     43  C   UNL A   1      35.156  31.901  29.024  1.00  0.00     0.251 C 
ATOM     44  H   UNL A   1      34.708  30.806  27.445  1.00  0.00     0.163 HD
ATOM     45  O   UNL A   1      34.056  32.452  28.931  1.00  0.00    -0.269 OA
BRANCH  43  46
ATOM     46  C   UNL A   1      35.978  32.126  30.241  1.00  0.00     0.039 A 
ATOM     47  C   UNL A   1      37.007  33.059  30.344  1.00  0.00     0.014 A 
ATOM     48  C   UNL A   1      35.771  31.231  31.309  1.00  0.00     0.014 A 
ATOM     49  C   UNL A   1      37.919  32.982  31.385  1.00  0.00     0.010 A 
ATOM     50  C   UNL A   1      36.656  31.181  32.380  1.00  0.00     0.010 A 
ATOM     51  C   UNL A   1      37.778  32.001  32.365  1.00  0.00    -0.014 A 
BRANCH  51  52
ATOM     52  C   UNL A   1      38.850  31.888  33.345  1.00  0.00     0.031 A 
ATOM     53  C   UNL A   1      38.723  32.765  34.544  1.00  0.00     0.074 A 
ATOM     54  C   UNL A   1      39.885  31.037  33.202  1.00  0.00     0.049 A 
ATOM     55  N   UNL A   1      39.483  33.754  34.898  1.00  0.00    -0.248 NA
ATOM     56  C   UNL A   1      37.533  32.582  35.385  1.00  0.00     0.031 C 
ATOM     57  C   UNL A   1      40.047  29.948  32.236  1.00  0.00     0.029 A 
ATOM     58  N   UNL A   1      40.976  30.902  34.003  1.00  0.00    -0.354 N 
ATOM     59  C   UNL A   1      38.978  34.194  36.119  1.00  0.00     0.074 A 
ATOM     60  C   UNL A   1      37.710  33.532  36.305  1.00  0.00     0.031 C 
ATOM     61  C   UNL A   1      41.018  29.114  32.670  1.00  0.00     0.029 A 
ATOM     62  C   UNL A   1      41.636  29.688  33.849  1.00  0.00     0.049 A 
ATOM     63  H   UNL A   1      41.271  31.598  34.633  1.00  0.00     0.167 HD
ATOM     64  C   UNL A   1      39.710  34.923  37.005  1.00  0.00     0.034 A 
ATOM     65  C   UNL A   1      42.549  29.174  34.708  1.00  0.00     0.034 A 
ATOM     66  C   UNL A   1      40.888  35.499  36.428  1.00  0.00     0.049 A 
ATOM     67  C   UNL A   1      43.108  30.317  35.471  1.00  0.00     0.074 A 
ATOM     68  C   UNL A   1      41.145  36.415  35.429  1.00  0.00     0.029 A 
ATOM     69  N   UNL A   1      42.081  34.867  36.670  1.00  0.00    -0.354 N 
ATOM     70  N   UNL A   1      43.823  31.268  34.939  1.00  0.00    -0.248 NA
ATOM     71  C   UNL A   1      42.546  30.610  36.780  1.00  0.00     0.031 C 
ATOM     72  C   UNL A   1      42.333  35.944  34.796  1.00  0.00     0.029 A 
ATOM     73  C   UNL A   1      42.733  34.786  35.467  1.00  0.00     0.049 A 
ATOM     74  H   UNL A   1      42.406  34.535  37.538  1.00  0.00     0.167 HD
ATOM     75  C   UNL A   1      43.457  32.411  35.633  1.00  0.00     0.074 A 
ATOM     76  C   UNL A   1      42.755  31.928  36.819  1.00  0.00     0.031 C 
ATOM     77  C   UNL A   1      43.510  33.643  35.046  1.00  0.00     0.034 A 
BRANCH  64  78
ATOM     78  C   UNL A   1      39.510  34.850  38.493  1.00  0.00     0.023 A 
ATOM     79  C   UNL A   1      39.301  36.041  39.215  1.00  0.00     0.012 A 
ATOM     80  C   UNL A   1      39.768  33.673  39.232  1.00  0.00     0.148 A 
ATOM     81  C   UNL A   1      39.338  36.057  40.614  1.00  0.00     0.002 A 
ATOM     82  C   UNL A   1      39.731  33.680  40.621  1.00  0.00     0.091 A 
ATOM     83  F   UNL A   1      40.176  32.571  38.592  1.00  0.00    -0.205 F 
ATOM     84  C   UNL A   1      39.536  34.873  41.318  1.00  0.00     0.022 A 
BRANCH  82  85
ATOM     85  S   UNL A   1      39.937  32.166  41.562  1.00  0.00     0.127 S 
ATOM     86  O   UNL A   1      41.274  31.746  41.152  1.00  0.00    -0.237 OA
ATOM     87  O   UNL A   1      39.834  32.651  42.940  1.00  0.00    -0.237 OA
ATOM     88  O   UNL A   1      38.833  31.309  41.150  1.00  0.00    -0.744 OA
ENDBRANCH  82  85
ENDBRANCH  64  78
BRANCH  65  89
ATOM     89  C   UNL A   1      42.716  27.772  35.169  1.00  0.00     0.023 A 
ATOM     90  C   UNL A   1      41.637  27.145  35.827  1.00  0.00     0.012 A 
ATOM     91  C   UNL A   1      43.771  26.955  34.704  1.00  0.00     0.148 A 
ATOM     92  C   UNL A   1      41.573  25.752  35.951  1.00  0.00     0.002 A 
ATOM     93  C   UNL A   1      43.710  25.571  34.843  1.00  0.00     0.091 A 
ATOM     94  F   UNL A   1      44.786  27.514  34.033  1.00  0.00    -0.205 F 
ATOM     95  C   UNL A   1      42.602  24.964  35.446  1.00  0.00     0.022 A 
BRANCH  93  96
ATOM     96  S   UNL A   1      45.007  24.497  34.211  1.00  0.00     0.127 S 
ATOM     97  O   UNL A   1      46.149  24.867  35.050  1.00  0.00    -0.237 OA
ATOM     98  O   UNL A   1      44.460  23.170  34.474  1.00  0.00    -0.237 OA
ATOM     99  O   UNL A   1      45.164  24.856  32.807  1.00  0.00    -0.744 OA
ENDBRANCH  93  96
ENDBRANCH  65  89
BRANCH  77 100
ATOM    100  C   UNL A   1      44.174  33.751  33.698  1.00  0.00     0.023 A 
ATOM    101  C   UNL A   1      45.568  33.945  33.578  1.00  0.00     0.012 A 
ATOM    102  C   UNL A   1      43.424  33.467  32.546  1.00  0.00     0.148 A 
ATOM    103  C   UNL A   1      46.197  33.872  32.333  1.00  0.00     0.002 A 
ATOM    104  C   UNL A   1      44.058  33.363  31.312  1.00  0.00     0.091 A 
ATOM    105  F   UNL A   1      42.106  33.262  32.685  1.00  0.00    -0.205 F 
ATOM    106  C   UNL A   1      45.444  33.570  31.201  1.00  0.00     0.022 A 
BRANCH 104 107
ATOM    107  S   UNL A   1      43.175  32.872  29.830  1.00  0.00     0.127 S 
ATOM    108  O   UNL A   1      44.271  32.664  28.878  1.00  0.00    -0.237 OA
ATOM    109  O   UNL A   1      42.508  31.640  30.262  1.00  0.00    -0.237 OA
ATOM    110  O   UNL A   1      42.275  33.962  29.509  1.00  0.00    -0.744 OA
ENDBRANCH 104 107
ENDBRANCH  77 100
ENDBRANCH  51  52
ENDBRANCH  43  46
ENDBRANCH  41  42
ENDBRANCH  40  41
ENDBRANCH  39  40
ENDBRANCH   1  39
TORSDOF 20
ENDMDL
MODEL 2
REMARK VINA RESULT:     -11.4      3.367      6.882
REMARK SMILES COc1ccc2c(c1)c(Cc1nc(-c3ccc(C(=O)NCCCCNC(=O)c4ccc(-c5c6nc(c(-c7cccc(S(=O)(=O)[O-])c7F)c7ccc([nH]7)c(-c7cccc(S(=O)(=O)[O-])c7F)c7nc(c(-c8cccc(S(=O)(=O)[O-])c8F)c8ccc5[nH]8)C=C7)C=C6)cc4)cc3)cs1)c(C)n2C(=O)c1ccc(Cl)cc1
REMARK SMILES IDX 21 1 20 2 18 3 19 4 17 6 14 7 15 8 92 9 16 10 91 11 13 12
REMARK SMILES IDX 11 13 12 14 94 15 93 16 10 17 9 18 3 19 4 20 8 21 5 22 7 23
REMARK SMILES IDX 6 24 97 25 95 26 96 27 2 28 1 29 98 30 99 31 100 32 101 33
REMARK SMILES IDX 106 34 102 35 105 36 103 37 104 38 22 39 23 40 24 41 25 42
REMARK SMILES IDX 26 43 27 45 28 46 29 47 90 48 30 49 89 50 31 51 32 52 33 53
REMARK SMILES IDX 83 54 34 55 88 56 82 57 84 58 35 59 87 60 81 61 80 62 36 64
REMARK SMILES IDX 68 65 48 66 67 67 49 68 52 69 66 70 85 71 50 72 51 73 65 75
REMARK SMILES IDX 86 76 53 77 37 78 38 79 46 80 39 81 41 82 47 83 40 84 42 85
REMARK SMILES IDX 43 86 44 87 45 88 69 89 70 90 78 91 71 92 73 93 79 94 72 95
REMARK SMILES IDX 74 96 75 97 76 98 77 99 54 100 55 101 63 102 56 103 58 104
REMARK SMILES IDX 64 105 57 106 59 107 60 108 61 109 62 110
REMARK H PARENT 20 5 25 44 84 63 52 74
REMARK Flexibility Score: inf
ROOT
ATOM      1  C   UNL A   1      37.003  21.158  25.414  1.00  0.00     0.116 C 
ENDROOT
BRANCH   1   2
ATOM      2  N   UNL A   1      36.508  19.861  24.985  1.00  0.00    -0.352 N 
ATOM      3  C   UNL A   1      35.218  19.416  24.803  1.00  0.00     0.251 C 
ATOM      4  O   UNL A   1      35.034  18.271  24.394  1.00  0.00    -0.269 OA
ATOM      5  H   UNL A   1      37.207  19.194  24.793  1.00  0.00     0.163 HD
BRANCH   3   6
ATOM      6  C   UNL A   1      34.046  20.253  25.170  1.00  0.00     0.039 A 
ATOM      7  C   UNL A   1      32.083  22.139  25.871  1.00  0.00     0.001 A 
ATOM      8  C   UNL A   1      33.046  21.744  26.806  1.00  0.00     0.011 A 
ATOM      9  C   UNL A   1      32.037  21.485  24.632  1.00  0.00     0.011 A 
ATOM     10  C   UNL A   1      34.025  20.810  26.454  1.00  0.00     0.014 A 
ATOM     11  C   UNL A   1      32.992  20.523  24.297  1.00  0.00     0.014 A 
BRANCH   7  12
ATOM     12  C   UNL A   1      31.114  23.184  26.157  1.00  0.00     0.081 A 
ATOM     13  C   UNL A   1      30.283  25.224  25.951  1.00  0.00     0.098 A 
ATOM     14  N   UNL A   1      31.328  24.466  25.703  1.00  0.00    -0.241 NA
ATOM     15  S   UNL A   1      29.070  24.494  26.923  1.00  0.00    -0.126 S 
ATOM     16  C   UNL A   1      29.964  23.026  26.905  1.00  0.00     0.095 A 
BRANCH  13  17
ATOM     17  C   UNL A   1      30.123  26.607  25.395  1.00  0.00     0.105 C 
BRANCH  17  18
ATOM     18  C   UNL A   1      31.436  27.355  25.408  1.00  0.00    -0.012 A 
ATOM     19  C   UNL A   1      33.269  27.345  22.049  1.00  0.00     0.119 A 
ATOM     20  C   UNL A   1      34.388  28.029  22.486  1.00  0.00     0.048 A 
ATOM     21  C   UNL A   1      32.241  27.072  22.949  1.00  0.00     0.057 A 
ATOM     22  C   UNL A   1      34.495  28.443  23.820  1.00  0.00     0.031 A 
ATOM     23  C   UNL A   1      32.311  27.507  24.294  1.00  0.00     0.008 A 
ATOM     24  C   UNL A   1      33.426  28.231  24.720  1.00  0.00     0.057 A 
ATOM     25  N   UNL A   1      33.208  28.623  26.057  1.00  0.00    -0.280 N 
ATOM     26  C   UNL A   1      32.009  28.024  26.482  1.00  0.00     0.028 A 
ATOM     27  C   UNL A   1      31.415  28.120  27.853  1.00  0.00     0.065 C 
BRANCH  19  28
ATOM     28  O   UNL A   1      33.056  26.936  20.761  1.00  0.00    -0.497 OA
ATOM     29  C   UNL A   1      32.646  25.580  20.625  1.00  0.00     0.278 C 
ENDBRANCH  19  28
BRANCH  25  30
ATOM     30  C   UNL A   1      34.061  29.468  26.830  1.00  0.00     0.262 C 
ATOM     31  O   UNL A   1      35.199  29.092  27.108  1.00  0.00    -0.268 OA
BRANCH  30  32
ATOM     32  C   UNL A   1      33.715  30.815  27.314  1.00  0.00     0.040 A 
ATOM     33  C   UNL A   1      32.549  31.460  26.888  1.00  0.00     0.015 A 
ATOM     34  C   UNL A   1      34.608  31.449  28.186  1.00  0.00     0.015 A 
ATOM     35  C   UNL A   1      32.326  32.786  27.269  1.00  0.00     0.021 A 
ATOM     36  C   UNL A   1      34.375  32.768  28.571  1.00  0.00     0.021 A 
ATOM     37  C   UNL A   1      33.246  33.437  28.095  1.00  0.00     0.041 A 
ATOM     38  Cl  UNL A   1      33.001  35.089  28.511  1.00  0.00    -0.084 Cl
ENDBRANCH  30  32
ENDBRANCH  25  30
ENDBRANCH  17  18
ENDBRANCH  13  17
ENDBRANCH   7  12
ENDBRANCH   3   6
ENDBRANCH   1   2
BRANCH   1  39
ATOM     39  C   UNL A   1      36.862  22.267  24.382  1.00  0.00     0.023 C 
BRANCH  39  40
ATOM     40  C   UNL A   1      36.667  23.684  24.914  1.00  0.00     0.023 C 
BRANCH  40  41
ATOM     41  C   UNL A   1      37.529  24.087  26.114  1.00  0.00     0.116 C 
BRANCH  41  42
ATOM     42  N   UNL A   1      38.959  24.091  25.884  1.00  0.00    -0.352 N 
ATOM     43  C   UNL A   1      40.019  24.746  26.453  1.00  0.00     0.251 C 
ATOM     44  H   UNL A   1      39.230  23.489  25.155  1.00  0.00     0.163 HD
ATOM     45  O   UNL A   1      41.136  24.300  26.179  1.00  0.00    -0.269 OA
BRANCH  43  46
ATOM     46  C   UNL A   1      39.913  25.980  27.275  1.00  0.00     0.039 A 
ATOM     47  C   UNL A   1      40.345  27.242  26.873  1.00  0.00     0.014 A 
ATOM     48  C   UNL A   1      39.462  25.813  28.598  1.00  0.00     0.014 A 
ATOM     49  C   UNL A   1      40.504  28.256  27.804  1.00  0.00     0.010 A 
ATOM     50  C   UNL A   1      39.575  26.841  29.527  1.00  0.00     0.010 A 
ATOM     51  C   UNL A   1      40.180  28.032  29.142  1.00  0.00    -0.014 A 
BRANCH  51  52
ATOM     52  C   UNL A   1      40.506  29.092  30.087  1.00  0.00     0.031 A 
ATOM     53  C   UNL A   1      39.362  29.935  30.532  1.00  0.00     0.074 A 
ATOM     54  C   UNL A   1      41.754  29.297  30.552  1.00  0.00     0.049 A 
ATOM     55  N   UNL A   1      39.155  31.194  30.303  1.00  0.00    -0.248 NA
ATOM     56  C   UNL A   1      38.257  29.255  31.222  1.00  0.00     0.031 C 
ATOM     57  C   UNL A   1      42.932  28.436  30.421  1.00  0.00     0.029 A 
ATOM     58  N   UNL A   1      42.192  30.295  31.367  1.00  0.00    -0.354 N 
ATOM     59  C   UNL A   1      37.987  31.513  30.991  1.00  0.00     0.074 A 
ATOM     60  C   UNL A   1      37.408  30.264  31.425  1.00  0.00     0.031 C 
ATOM     61  C   UNL A   1      43.854  28.807  31.337  1.00  0.00     0.029 A 
ATOM     62  C   UNL A   1      43.393  30.009  32.005  1.00  0.00     0.049 A 
ATOM     63  H   UNL A   1      41.704  31.140  31.493  1.00  0.00     0.167 HD
ATOM     64  C   UNL A   1      37.656  32.786  31.340  1.00  0.00     0.034 A 
ATOM     65  C   UNL A   1      43.895  30.674  33.073  1.00  0.00     0.034 A 
ATOM     66  C   UNL A   1      38.406  33.781  30.633  1.00  0.00     0.049 A 
ATOM     67  C   UNL A   1      43.273  32.021  33.068  1.00  0.00     0.074 A 
ATOM     68  C   UNL A   1      38.541  34.156  29.313  1.00  0.00     0.029 A 
ATOM     69  N   UNL A   1      39.457  34.364  31.296  1.00  0.00    -0.354 N 
ATOM     70  N   UNL A   1      43.478  32.914  32.140  1.00  0.00    -0.248 NA
ATOM     71  C   UNL A   1      42.107  32.243  33.907  1.00  0.00     0.031 C 
ATOM     72  C   UNL A   1      39.912  34.523  29.174  1.00  0.00     0.029 A 
ATOM     73  C   UNL A   1      40.514  34.371  30.424  1.00  0.00     0.049 A 
ATOM     74  H   UNL A   1      39.452  34.711  32.216  1.00  0.00     0.167 HD
ATOM     75  C   UNL A   1      42.259  33.563  32.004  1.00  0.00     0.074 A 
ATOM     76  C   UNL A   1      41.491  33.183  33.187  1.00  0.00     0.031 C 
ATOM     77  C   UNL A   1      41.882  34.118  30.815  1.00  0.00     0.034 A 
BRANCH  64  78
ATOM     78  C   UNL A   1      36.856  33.119  32.569  1.00  0.00     0.023 A 
ATOM     79  C   UNL A   1      35.654  33.840  32.428  1.00  0.00     0.012 A 
ATOM     80  C   UNL A   1      37.376  32.962  33.873  1.00  0.00     0.148 A 
ATOM     81  C   UNL A   1      34.993  34.372  33.542  1.00  0.00     0.002 A 
ATOM     82  C   UNL A   1      36.679  33.428  34.981  1.00  0.00     0.091 A 
ATOM     83  F   UNL A   1      38.611  32.471  34.035  1.00  0.00    -0.205 F 
ATOM     84  C   UNL A   1      35.497  34.152  34.820  1.00  0.00     0.022 A 
BRANCH  82  85
ATOM     85  S   UNL A   1      37.272  33.124  36.647  1.00  0.00     0.127 S 
ATOM     86  O   UNL A   1      36.092  33.452  37.441  1.00  0.00    -0.237 OA
ATOM     87  O   UNL A   1      37.610  31.700  36.593  1.00  0.00    -0.237 OA
ATOM     88  O   UNL A   1      38.425  34.002  36.805  1.00  0.00    -0.744 OA
ENDBRANCH  82  85
ENDBRANCH  64  78
BRANCH  65  89
ATOM     89  C   UNL A   1      44.576  30.135  34.278  1.00  0.00     0.023 A 
ATOM     90  C   UNL A   1      45.506  30.955  34.951  1.00  0.00     0.012 A 
ATOM     91  C   UNL A   1      44.108  28.981  34.945  1.00  0.00     0.148 A 
ATOM     92  C   UNL A   1      45.897  30.680  36.267  1.00  0.00     0.002 A 
ATOM     93  C   UNL A   1      44.511  28.704  36.249  1.00  0.00     0.091 A 
ATOM     94  F   UNL A   1      43.189  28.209  34.352  1.00  0.00    -0.205 F 
ATOM     95  C   UNL A   1      45.389  29.563  36.921  1.00  0.00     0.022 A 
BRANCH  93  96
ATOM     96  S   UNL A   1      43.890  27.275  37.149  1.00  0.00     0.127 S 
ATOM     97  O   UNL A   1      42.441  27.469  37.073  1.00  0.00    -0.237 OA
ATOM     98  O   UNL A   1      44.402  26.166  36.352  1.00  0.00    -0.237 OA
ATOM     99  O   UNL A   1      44.433  27.396  38.497  1.00  0.00    -0.744 OA
ENDBRANCH  93  96
ENDBRANCH  65  89
BRANCH  77 100
ATOM    100  C   UNL A   1      42.912  34.193  29.717  1.00  0.00     0.023 A 
ATOM    101  C   UNL A   1      43.727  35.334  29.549  1.00  0.00     0.012 A 
ATOM    102  C   UNL A   1      43.192  33.039  28.968  1.00  0.00     0.148 A 
ATOM    103  C   UNL A   1      44.791  35.327  28.644  1.00  0.00     0.002 A 
ATOM    104  C   UNL A   1      44.272  33.025  28.092  1.00  0.00     0.091 A 
ATOM    105  F   UNL A   1      42.421  31.959  29.160  1.00  0.00    -0.205 F 
ATOM    106  C   UNL A   1      45.070  34.169  27.923  1.00  0.00     0.022 A 
BRANCH 104 107
ATOM    107  S   UNL A   1      44.760  31.540  27.210  1.00  0.00     0.127 S 
ATOM    108  O   UNL A   1      46.086  31.909  26.705  1.00  0.00    -0.237 OA
ATOM    109  O   UNL A   1      44.777  30.538  28.280  1.00  0.00    -0.237 OA
ATOM    110  O   UNL A   1      43.750  31.317  26.194  1.00  0.00    -0.744 OA
ENDBRANCH 104 107
ENDBRANCH  77 100
ENDBRANCH  51  52
ENDBRANCH  43  46
ENDBRANCH  41  42
ENDBRANCH  40  41
ENDBRANCH  39  40
ENDBRANCH   1  39
TORSDOF 20
ENDMDL
MODEL 3
REMARK VINA RESULT:     -11.3      5.551     12.205
REMARK SMILES COc1ccc2c(c1)c(Cc1nc(-c3ccc(C(=O)NCCCCNC(=O)c4ccc(-c5c6nc(c(-c7cccc(S(=O)(=O)[O-])c7F)c7ccc([nH]7)c(-c7cccc(S(=O)(=O)[O-])c7F)c7nc(c(-c8cccc(S(=O)(=O)[O-])c8F)c8ccc5[nH]8)C=C7)C=C6)cc4)cc3)cs1)c(C)n2C(=O)c1ccc(Cl)cc1
REMARK SMILES IDX 21 1 20 2 18 3 19 4 17 6 14 7 15 8 92 9 16 10 91 11 13 12
REMARK SMILES IDX 11 13 12 14 94 15 93 16 10 17 9 18 3 19 4 20 8 21 5 22 7 23
REMARK SMILES IDX 6 24 97 25 95 26 96 27 2 28 1 29 98 30 99 31 100 32 101 33
REMARK SMILES IDX 106 34 102 35 105 36 103 37 104 38 22 39 23 40 24 41 25 42
REMARK SMILES IDX 26 43 27 45 28 46 29 47 90 48 30 49 89 50 31 51 32 52 33 53
REMARK SMILES IDX 83 54 34 55 88 56 82 57 84 58 35 59 87 60 81 61 80 62 36 64
REMARK SMILES IDX 68 65 48 66 67 67 49 68 52 69 66 70 85 71 50 72 51 73 65 75
REMARK SMILES IDX 86 76 53 77 37 78 38 79 46 80 39 81 41 82 47 83 40 84 42 85
REMARK SMILES IDX 43 86 44 87 45 88 69 89 70 90 78 91 71 92 73 93 79 94 72 95
REMARK SMILES IDX 74 96 75 97 76 98 77 99 54 100 55 101 63 102 56 103 58 104
REMARK SMILES IDX 64 105 57 106 59 107 60 108 61 109 62 110
REMARK H PARENT 20 5 25 44 84 63 52 74
REMARK Flexibility Score: inf
ROOT
ATOM      1  C   UNL A   1      37.138  31.908  33.319  1.00  0.00     0.116 C 
ENDROOT
BRANCH   1   2
ATOM      2  N   UNL A   1      37.367  33.089  34.134  1.00  0.00    -0.352 N 
ATOM      3  C   UNL A   1      38.335  34.062  34.041  1.00  0.00     0.251 C 
ATOM      4  O   UNL A   1      38.314  35.005  34.831  1.00  0.00    -0.269 OA
ATOM      5  H   UNL A   1      36.725  33.213  34.871  1.00  0.00     0.163 HD
BRANCH   3   6
ATOM      6  C   UNL A   1      39.453  33.958  33.066  1.00  0.00     0.039 A 
ATOM      7  C   UNL A   1      41.596  34.153  31.257  1.00  0.00     0.001 A 
ATOM      8  C   UNL A   1      40.326  34.618  30.897  1.00  0.00     0.011 A 
ATOM      9  C   UNL A   1      41.747  33.476  32.475  1.00  0.00     0.011 A 
ATOM     10  C   UNL A   1      39.262  34.525  31.800  1.00  0.00     0.014 A 
ATOM     11  C   UNL A   1      40.673  33.349  33.359  1.00  0.00     0.014 A 
BRANCH   7  12
ATOM     12  C   UNL A   1      42.753  34.326  30.394  1.00  0.00     0.081 A 
ATOM     13  C   UNL A   1      43.733  34.777  28.463  1.00  0.00     0.098 A 
ATOM     14  N   UNL A   1      42.583  34.511  29.041  1.00  0.00    -0.241 NA
ATOM     15  S   UNL A   1      45.110  34.618  29.477  1.00  0.00    -0.126 S 
ATOM     16  C   UNL A   1      44.071  34.285  30.806  1.00  0.00     0.095 A 
BRANCH  13  17
ATOM     17  C   UNL A   1      43.849  35.233  27.040  1.00  0.00     0.105 C 
BRANCH  17  18
ATOM     18  C   UNL A   1      44.263  36.684  26.964  1.00  0.00    -0.012 A 
ATOM     19  C   UNL A   1      47.975  37.209  26.199  1.00  0.00     0.119 A 
ATOM     20  C   UNL A   1      47.953  38.589  26.287  1.00  0.00     0.048 A 
ATOM     21  C   UNL A   1      46.800  36.493  26.413  1.00  0.00     0.057 A 
ATOM     22  C   UNL A   1      46.765  39.265  26.590  1.00  0.00     0.031 A 
ATOM     23  C   UNL A   1      45.579  37.154  26.691  1.00  0.00     0.008 A 
ATOM     24  C   UNL A   1      45.555  38.549  26.739  1.00  0.00     0.057 A 
ATOM     25  N   UNL A   1      44.220  38.957  26.934  1.00  0.00    -0.280 N 
ATOM     26  C   UNL A   1      43.449  37.798  27.130  1.00  0.00     0.028 A 
ATOM     27  C   UNL A   1      41.982  37.755  27.429  1.00  0.00     0.065 C 
BRANCH  19  28
ATOM     28  O   UNL A   1      49.074  36.464  25.871  1.00  0.00    -0.497 OA
ATOM     29  C   UNL A   1      49.481  36.567  24.511  1.00  0.00     0.278 C 
ENDBRANCH  19  28
BRANCH  25  30
ATOM     30  C   UNL A   1      43.749  40.305  26.936  1.00  0.00     0.262 C 
ATOM     31  O   UNL A   1      43.622  40.903  28.004  1.00  0.00    -0.268 OA
BRANCH  30  32
ATOM     32  C   UNL A   1      43.425  41.097  25.738  1.00  0.00     0.040 A 
ATOM     33  C   UNL A   1      44.377  41.932  25.142  1.00  0.00     0.015 A 
ATOM     34  C   UNL A   1      42.122  41.020  25.231  1.00  0.00     0.015 A 
ATOM     35  C   UNL A   1      43.990  42.764  24.087  1.00  0.00     0.021 A 
ATOM     36  C   UNL A   1      41.745  41.844  24.172  1.00  0.00     0.021 A 
ATOM     37  C   UNL A   1      42.675  42.726  23.619  1.00  0.00     0.041 A 
ATOM     38  Cl  UNL A   1      42.185  43.795  22.362  1.00  0.00    -0.084 Cl
ENDBRANCH  30  32
ENDBRANCH  25  30
ENDBRANCH  17  18
ENDBRANCH  13  17
ENDBRANCH   7  12
ENDBRANCH   3   6
ENDBRANCH   1   2
BRANCH   1  39
ATOM     39  C   UNL A   1      35.859  31.940  32.496  1.00  0.00     0.023 C 
BRANCH  39  40
ATOM     40  C   UNL A   1      35.538  33.242  31.768  1.00  0.00     0.023 C 
BRANCH  40  41
ATOM     41  C   UNL A   1      34.384  33.196  30.763  1.00  0.00     0.116 C 
BRANCH  41  42
ATOM     42  N   UNL A   1      34.766  33.263  29.367  1.00  0.00    -0.352 N 
ATOM     43  C   UNL A   1      35.638  32.562  28.577  1.00  0.00     0.251 C 
ATOM     44  H   UNL A   1      34.293  33.973  28.876  1.00  0.00     0.163 HD
ATOM     45  O   UNL A   1      35.507  32.720  27.361  1.00  0.00    -0.269 OA
BRANCH  43  46
ATOM     46  C   UNL A   1      36.758  31.725  29.082  1.00  0.00     0.039 A 
ATOM     47  C   UNL A   1      38.002  32.214  29.473  1.00  0.00     0.014 A 
ATOM     48  C   UNL A   1      36.568  30.330  29.031  1.00  0.00     0.014 A 
ATOM     49  C   UNL A   1      39.077  31.352  29.620  1.00  0.00     0.010 A 
ATOM     50  C   UNL A   1      37.633  29.458  29.225  1.00  0.00     0.010 A 
ATOM     51  C   UNL A   1      38.904  29.981  29.432  1.00  0.00    -0.014 A 
BRANCH  51  52
ATOM     52  C   UNL A   1      40.103  29.154  29.462  1.00  0.00     0.031 A 
ATOM     53  C   UNL A   1      40.667  28.884  30.814  1.00  0.00     0.074 A 
ATOM     54  C   UNL A   1      40.665  28.642  28.349  1.00  0.00     0.049 A 
ATOM     55  N   UNL A   1      41.802  29.277  31.302  1.00  0.00    -0.248 NA
ATOM     56  C   UNL A   1      39.802  28.186  31.774  1.00  0.00     0.031 C 
ATOM     57  C   UNL A   1      40.124  28.597  26.989  1.00  0.00     0.029 A 
ATOM     58  N   UNL A   1      41.819  27.929  28.245  1.00  0.00    -0.354 N 
ATOM     59  C   UNL A   1      41.881  28.704  32.570  1.00  0.00     0.074 A 
ATOM     60  C   UNL A   1      40.577  28.158  32.859  1.00  0.00     0.031 C 
ATOM     61  C   UNL A   1      40.810  27.678  26.272  1.00  0.00     0.029 A 
ATOM     62  C   UNL A   1      41.916  27.190  27.072  1.00  0.00     0.049 A 
ATOM     63  H   UNL A   1      42.520  27.936  28.936  1.00  0.00     0.167 HD
ATOM     64  C   UNL A   1      43.056  28.532  33.234  1.00  0.00     0.034 A 
ATOM     65  C   UNL A   1      42.792  26.182  26.847  1.00  0.00     0.034 A 
ATOM     66  C   UNL A   1      44.132  29.308  32.692  1.00  0.00     0.049 A 
ATOM     67  C   UNL A   1      43.929  26.388  27.779  1.00  0.00     0.074 A 
ATOM     68  C   UNL A   1      44.392  30.654  32.537  1.00  0.00     0.029 A 
ATOM     69  N   UNL A   1      45.028  28.659  31.881  1.00  0.00    -0.354 N 
ATOM     70  N   UNL A   1      44.745  27.403  27.719  1.00  0.00    -0.248 NA
ATOM     71  C   UNL A   1      43.930  25.654  29.034  1.00  0.00     0.031 C 
ATOM     72  C   UNL A   1      45.080  30.753  31.292  1.00  0.00     0.029 A 
ATOM     73  C   UNL A   1      45.215  29.459  30.785  1.00  0.00     0.049 A 
ATOM     74  H   UNL A   1      45.455  27.789  32.053  1.00  0.00     0.167 HD
ATOM     75  C   UNL A   1      45.044  27.690  29.042  1.00  0.00     0.074 A 
ATOM     76  C   UNL A   1      44.604  26.519  29.796  1.00  0.00     0.031 C 
ATOM     77  C   UNL A   1      45.361  28.959  29.437  1.00  0.00     0.034 A 
BRANCH  64  78
ATOM     78  C   UNL A   1      43.298  27.404  34.198  1.00  0.00     0.023 A 
ATOM     79  C   UNL A   1      43.350  27.682  35.578  1.00  0.00     0.012 A 
ATOM     80  C   UNL A   1      43.722  26.126  33.771  1.00  0.00     0.148 A 
ATOM     81  C   UNL A   1      43.795  26.722  36.494  1.00  0.00     0.002 A 
ATOM     82  C   UNL A   1      44.094  25.153  34.690  1.00  0.00     0.091 A 
ATOM     83  F   UNL A   1      43.888  25.890  32.464  1.00  0.00    -0.205 F 
ATOM     84  C   UNL A   1      44.152  25.451  36.052  1.00  0.00     0.022 A 
BRANCH  82  85
ATOM     85  S   UNL A   1      44.516  23.490  34.164  1.00  0.00     0.127 S 
ATOM     86  O   UNL A   1      43.341  23.125  33.378  1.00  0.00    -0.237 OA
ATOM     87  O   UNL A   1      45.736  23.719  33.387  1.00  0.00    -0.237 OA
ATOM     88  O   UNL A   1      44.728  22.744  35.397  1.00  0.00    -0.744 OA
ENDBRANCH  82  85
ENDBRANCH  64  78
BRANCH  65  89
ATOM     89  C   UNL A   1      42.570  24.882  26.164  1.00  0.00     0.023 A 
ATOM     90  C   UNL A   1      43.521  24.446  25.217  1.00  0.00     0.012 A 
ATOM     91  C   UNL A   1      41.634  23.938  26.643  1.00  0.00     0.148 A 
ATOM     92  C   UNL A   1      43.588  23.105  24.820  1.00  0.00     0.002 A 
ATOM     93  C   UNL A   1      41.695  22.608  26.233  1.00  0.00     0.091 A 
ATOM     94  F   UNL A   1      40.750  24.309  27.577  1.00  0.00    -0.205 F 
ATOM     95  C   UNL A   1      42.685  22.184  25.339  1.00  0.00     0.022 A 
BRANCH  93  96
ATOM     96  S   UNL A   1      40.556  21.368  26.867  1.00  0.00     0.127 S 
ATOM     97  O   UNL A   1      39.260  21.886  26.425  1.00  0.00    -0.237 OA
ATOM     98  O   UNL A   1      41.002  20.163  26.176  1.00  0.00    -0.237 OA
ATOM     99  O   UNL A   1      40.734  21.377  28.314  1.00  0.00    -0.744 OA
ENDBRANCH  93  96
ENDBRANCH  65  89
BRANCH  77 100
ATOM    100  C   UNL A   1      45.583  29.993  28.364  1.00  0.00     0.023 A 
ATOM    101  C   UNL A   1      44.499  30.636  27.727  1.00  0.00     0.012 A 
ATOM    102  C   UNL A   1      46.886  30.458  28.127  1.00  0.00     0.148 A 
ATOM    103  C   UNL A   1      44.712  31.712  26.861  1.00  0.00     0.002 A 
ATOM    104  C   UNL A   1      47.092  31.549  27.289  1.00  0.00     0.091 A 
ATOM    105  F   UNL A   1      47.899  29.848  28.760  1.00  0.00    -0.205 F 
ATOM    106  C   UNL A   1      46.009  32.175  26.651  1.00  0.00     0.022 A 
BRANCH 104 107
ATOM    107  S   UNL A   1      48.719  32.271  27.054  1.00  0.00     0.127 S 
ATOM    108  O   UNL A   1      48.482  33.200  25.945  1.00  0.00    -0.237 OA
ATOM    109  O   UNL A   1      48.957  32.921  28.347  1.00  0.00    -0.237 OA
ATOM    110  O   UNL A   1      49.616  31.170  26.761  1.00  0.00    -0.744 OA
ENDBRANCH 104 107
ENDBRANCH  77 100
ENDBRANCH  51  52
ENDBRANCH  43  46
ENDBRANCH  41  42
ENDBRANCH  40  41
ENDBRANCH  39  40
ENDBRANCH   1  39
TORSDOF 20
ENDMDL
