MODEL 1
REMARK VINA RESULT:     -14.1      0.000      0.000
REMARK SMILES Nc1oc2ccc(F)cc2c(=O)c1[C@@H]1[NH2+][C@H](C(=O)NCCCCNC(=O)c2ccc(-c3c4nc(c(-c5cccc(S(=O)(=O)[O-])c5F)c5ccc([nH]5)c(-c5cccc(S(=O)(=O)[O-])c5F)c5nc(c(-c6cccc(S(=O)(=O)[O-])c6F)c6ccc3[nH]6)C=C5)C=C4)cc2)CS1
REMARK SMILES IDX 22 1 21 2 20 3 19 4 17 5 18 6 16 8 14 9 15 10 91 11 90 14
REMARK SMILES IDX 13 15 2 16 3 17 4 18 11 19 5 20 10 21 12 22 6 23 9 24 7 25
REMARK SMILES IDX 8 26 1 27 23 30 24 31 25 32 26 34 27 35 28 36 89 37 29 38
REMARK SMILES IDX 88 39 30 40 31 41 32 42 82 43 33 44 87 45 81 46 83 47 34 48
REMARK SMILES IDX 86 49 80 50 79 51 35 53 67 54 47 55 66 56 48 57 51 58 65 59
REMARK SMILES IDX 84 60 49 61 50 62 64 64 85 65 52 66 36 67 37 68 45 69 38 70
REMARK SMILES IDX 40 71 46 72 39 73 41 74 42 75 43 76 44 77 68 78 69 79 77 80
REMARK SMILES IDX 70 81 72 82 78 83 71 84 73 85 74 86 75 87 76 88 53 89 54 90
REMARK SMILES IDX 62 91 55 92 57 93 63 94 56 95 58 96 59 97 60 98 61 99
REMARK H PARENT 19 7 15 12 15 13 1 28 1 29 24 33 83 52 51 63
REMARK Flexibility Score: inf
ROOT
ATOM      1  C   UNL A   1      36.174  23.413  23.880  1.00  0.00     0.023 C 
ENDROOT
BRANCH   1   2
ATOM      2  C   UNL A   1      34.815  23.551  23.181  1.00  0.00     0.023 C 
BRANCH   2   3
ATOM      3  C   UNL A   1      34.064  24.863  23.240  1.00  0.00     0.116 C 
BRANCH   3   4
ATOM      4  N   UNL A   1      34.357  25.802  24.295  1.00  0.00    -0.351 N 
ATOM      5  C   UNL A   1      33.618  26.933  24.577  1.00  0.00     0.279 C 
ATOM      6  O   UNL A   1      33.910  27.561  25.601  1.00  0.00    -0.268 OA
ATOM      7  H   UNL A   1      35.145  25.623  24.857  1.00  0.00     0.163 HD
BRANCH   5   8
ATOM      8  C   UNL A   1      32.552  27.479  23.576  1.00  0.00     0.283 C 
ATOM      9  C   UNL A   1      30.539  26.137  23.588  1.00  0.00     0.283 C 
ATOM     10  N   UNL A   1      31.779  26.435  22.852  1.00  0.00    -0.320 N 
ATOM     11  S   UNL A   1      29.909  27.778  24.020  1.00  0.00    -0.087 SA
ATOM     12  H   UNL A   1      31.546  26.772  21.918  1.00  0.00     0.348 HD
ATOM     13  H   UNL A   1      32.341  25.587  22.778  1.00  0.00     0.348 HD
ATOM     14  C   UNL A   1      31.578  28.497  24.187  1.00  0.00     0.151 C 
BRANCH   9  15
ATOM     15  C   UNL A   1      30.653  25.101  24.714  1.00  0.00     0.128 A 
ATOM     16  C   UNL A   1      30.756  25.338  26.053  1.00  0.00     0.205 A 
ATOM     17  O   UNL A   1      30.786  24.375  27.052  1.00  0.00    -0.440 OA
ATOM     18  C   UNL A   1      31.491  23.250  26.753  1.00  0.00     0.140 A 
ATOM     19  C   UNL A   1      30.720  23.667  24.185  1.00  0.00     0.205 A 
ATOM     20  C   UNL A   1      32.671  22.573  27.918  1.00  0.00     0.051 A 
ATOM     21  C   UNL A   1      31.433  22.712  25.042  1.00  0.00     0.068 A 
ATOM     22  O   UNL A   1      30.390  23.337  23.055  1.00  0.00    -0.288 OA
ATOM     23  C   UNL A   1      33.891  21.351  27.333  1.00  0.00     0.043 A 
ATOM     24  C   UNL A   1      32.545  21.409  24.478  1.00  0.00     0.055 A 
ATOM     25  C   UNL A   1      33.769  20.708  25.632  1.00  0.00     0.124 A 
ATOM     26  F   UNL A   1      34.636  19.774  25.213  1.00  0.00    -0.207 F 
BRANCH  16  27
ATOM     27  N   UNL A   1      30.897  26.586  26.604  1.00  0.00    -0.369 N 
ATOM     28  H   UNL A   1      30.658  27.385  26.080  1.00  0.00     0.159 HD
ATOM     29  H   UNL A   1      31.236  26.683  27.523  1.00  0.00     0.159 HD
ENDBRANCH  16  27
ENDBRANCH   9  15
ENDBRANCH   5   8
ENDBRANCH   3   4
ENDBRANCH   2   3
ENDBRANCH   1   2
BRANCH   1  30
ATOM     30  C   UNL A   1      36.868  21.840  24.087  1.00  0.00     0.116 C 
BRANCH  30  31
ATOM     31  N   UNL A   1      38.525  21.144  25.157  1.00  0.00    -0.352 N 
ATOM     32  C   UNL A   1      39.612  21.300  26.143  1.00  0.00     0.251 C 
ATOM     33  H   UNL A   1      38.641  20.223  24.829  1.00  0.00     0.163 HD
ATOM     34  O   UNL A   1      40.390  20.345  26.231  1.00  0.00    -0.269 OA
BRANCH  32  35
ATOM     35  C   UNL A   1      39.864  22.463  27.050  1.00  0.00     0.039 A 
ATOM     36  C   UNL A   1      39.048  23.573  26.903  1.00  0.00     0.014 A 
ATOM     37  C   UNL A   1      40.994  22.548  27.875  1.00  0.00     0.014 A 
ATOM     38  C   UNL A   1      39.588  24.820  27.211  1.00  0.00     0.010 A 
ATOM     39  C   UNL A   1      41.424  23.807  28.356  1.00  0.00     0.010 A 
ATOM     40  C   UNL A   1      40.789  24.986  27.939  1.00  0.00    -0.014 A 
BRANCH  40  41
ATOM     41  C   UNL A   1      41.307  26.385  28.197  1.00  0.00     0.031 A 
ATOM     42  C   UNL A   1      40.533  27.447  28.974  1.00  0.00     0.074 A 
ATOM     43  C   UNL A   1      42.570  26.694  27.815  1.00  0.00     0.049 A 
ATOM     44  N   UNL A   1      40.891  28.683  29.249  1.00  0.00    -0.248 NA
ATOM     45  C   UNL A   1      39.205  27.102  29.507  1.00  0.00     0.031 C 
ATOM     46  C   UNL A   1      43.456  25.811  27.052  1.00  0.00     0.029 A 
ATOM     47  N   UNL A   1      43.355  27.799  28.052  1.00  0.00    -0.354 N 
ATOM     48  C   UNL A   1      39.818  29.277  29.914  1.00  0.00     0.074 A 
ATOM     49  C   UNL A   1      38.798  28.257  30.028  1.00  0.00     0.031 C 
ATOM     50  C   UNL A   1      44.685  26.330  27.014  1.00  0.00     0.029 A 
ATOM     51  C   UNL A   1      44.641  27.672  27.575  1.00  0.00     0.049 A 
ATOM     52  H   UNL A   1      43.030  28.603  28.519  1.00  0.00     0.167 HD
ATOM     53  C   UNL A   1      39.691  30.544  30.387  1.00  0.00     0.034 A 
ATOM     54  C   UNL A   1      45.675  28.534  27.513  1.00  0.00     0.034 A 
ATOM     55  C   UNL A   1      40.726  31.549  30.344  1.00  0.00     0.049 A 
ATOM     56  C   UNL A   1      45.501  29.929  28.013  1.00  0.00     0.074 A 
ATOM     57  C   UNL A   1      40.678  32.847  30.831  1.00  0.00     0.029 A 
ATOM     58  N   UNL A   1      41.988  31.380  29.801  1.00  0.00    -0.354 N 
ATOM     59  N   UNL A   1      44.472  30.452  28.629  1.00  0.00    -0.248 NA
ATOM     60  C   UNL A   1      46.618  30.860  27.796  1.00  0.00     0.031 C 
ATOM     61  C   UNL A   1      41.899  33.470  30.557  1.00  0.00     0.029 A 
ATOM     62  C   UNL A   1      42.720  32.550  29.928  1.00  0.00     0.049 A 
ATOM     63  H   UNL A   1      42.317  30.550  29.385  1.00  0.00     0.167 HD
ATOM     64  C   UNL A   1      44.816  31.773  28.877  1.00  0.00     0.074 A 
ATOM     65  C   UNL A   1      46.157  31.966  28.367  1.00  0.00     0.031 C 
ATOM     66  C   UNL A   1      44.068  32.738  29.461  1.00  0.00     0.034 A 
BRANCH  53  67
ATOM     67  C   UNL A   1      38.387  30.962  31.030  1.00  0.00     0.023 A 
ATOM     68  C   UNL A   1      38.244  30.894  32.430  1.00  0.00     0.012 A 
ATOM     69  C   UNL A   1      37.377  31.585  30.264  1.00  0.00     0.148 A 
ATOM     70  C   UNL A   1      37.115  31.429  33.056  1.00  0.00     0.002 A 
ATOM     71  C   UNL A   1      36.268  32.138  30.897  1.00  0.00     0.091 A 
ATOM     72  F   UNL A   1      37.539  31.655  28.936  1.00  0.00    -0.205 F 
ATOM     73  C   UNL A   1      36.135  32.059  32.293  1.00  0.00     0.022 A 
BRANCH  71  74
ATOM     74  S   UNL A   1      34.973  33.021  30.014  1.00  0.00     0.127 S 
ATOM     75  O   UNL A   1      34.070  33.386  31.106  1.00  0.00    -0.237 OA
ATOM     76  O   UNL A   1      35.708  34.144  29.431  1.00  0.00    -0.237 OA
ATOM     77  O   UNL A   1      34.425  32.078  29.049  1.00  0.00    -0.744 OA
ENDBRANCH  71  74
ENDBRANCH  53  67
BRANCH  54  78
ATOM     78  C   UNL A   1      46.953  28.082  26.895  1.00  0.00     0.023 A 
ATOM     79  C   UNL A   1      47.940  27.486  27.699  1.00  0.00     0.012 A 
ATOM     80  C   UNL A   1      47.135  28.140  25.498  1.00  0.00     0.148 A 
ATOM     81  C   UNL A   1      49.086  26.941  27.118  1.00  0.00     0.002 A 
ATOM     82  C   UNL A   1      48.248  27.546  24.923  1.00  0.00     0.091 A 
ATOM     83  F   UNL A   1      46.178  28.719  24.760  1.00  0.00    -0.205 F 
ATOM     84  C   UNL A   1      49.231  26.953  25.731  1.00  0.00     0.022 A 
BRANCH  82  85
ATOM     85  S   UNL A   1      48.450  27.395  23.145  1.00  0.00     0.127 S 
ATOM     86  O   UNL A   1      49.800  27.920  22.954  1.00  0.00    -0.237 OA
ATOM     87  O   UNL A   1      48.316  25.951  22.951  1.00  0.00    -0.237 OA
ATOM     88  O   UNL A   1      47.380  28.186  22.554  1.00  0.00    -0.744 OA
ENDBRANCH  82  85
ENDBRANCH  54  78
BRANCH  66  89
ATOM     89  C   UNL A   1      44.677  34.102  29.619  1.00  0.00     0.023 A 
ATOM     90  C   UNL A   1      45.415  34.404  30.779  1.00  0.00     0.012 A 
ATOM     91  C   UNL A   1      44.605  35.041  28.573  1.00  0.00     0.148 A 
ATOM     92  C   UNL A   1      46.070  35.629  30.899  1.00  0.00     0.002 A 
ATOM     93  C   UNL A   1      45.288  36.246  28.685  1.00  0.00     0.091 A 
ATOM     94  F   UNL A   1      43.885  34.730  27.486  1.00  0.00    -0.205 F 
ATOM     95  C   UNL A   1      46.018  36.543  29.848  1.00  0.00     0.022 A 
BRANCH  93  96
ATOM     96  S   UNL A   1      45.329  37.462  27.364  1.00  0.00     0.127 S 
ATOM     97  O   UNL A   1      45.994  38.589  28.016  1.00  0.00    -0.237 OA
ATOM     98  O   UNL A   1      46.133  36.784  26.347  1.00  0.00    -0.237 OA
ATOM     99  O   UNL A   1      43.942  37.700  26.987  1.00  0.00    -0.744 OA
ENDBRANCH  93  96
ENDBRANCH  66  89
ENDBRANCH  40  41
ENDBRANCH  32  35
ENDBRANCH  30  31
ENDBRANCH   1  30
TORSDOF 16
ENDMDL
MODEL 2
REMARK VINA RESULT:     -14.1      4.945      9.922
REMARK SMILES Nc1oc2ccc(F)cc2c(=O)c1[C@@H]1[NH2+][C@H](C(=O)NCCCCNC(=O)c2ccc(-c3c4nc(c(-c5cccc(S(=O)(=O)[O-])c5F)c5ccc([nH]5)c(-c5cccc(S(=O)(=O)[O-])c5F)c5nc(c(-c6cccc(S(=O)(=O)[O-])c6F)c6ccc3[nH]6)C=C5)C=C4)cc2)CS1
REMARK SMILES IDX 22 1 21 2 20 3 19 4 17 5 18 6 16 8 14 9 15 10 91 11 90 14
REMARK SMILES IDX 13 15 2 16 3 17 4 18 11 19 5 20 10 21 12 22 6 23 9 24 7 25
REMARK SMILES IDX 8 26 1 27 23 30 24 31 25 32 26 34 27 35 28 36 89 37 29 38
REMARK SMILES IDX 88 39 30 40 31 41 32 42 82 43 33 44 87 45 81 46 83 47 34 48
REMARK SMILES IDX 86 49 80 50 79 51 35 53 67 54 47 55 66 56 48 57 51 58 65 59
REMARK SMILES IDX 84 60 49 61 50 62 64 64 85 65 52 66 36 67 37 68 45 69 38 70
REMARK SMILES IDX 40 71 46 72 39 73 41 74 42 75 43 76 44 77 68 78 69 79 77 80
REMARK SMILES IDX 70 81 72 82 78 83 71 84 73 85 74 86 75 87 76 88 53 89 54 90
REMARK SMILES IDX 62 91 55 92 57 93 63 94 56 95 58 96 59 97 60 98 61 99
REMARK H PARENT 19 7 15 12 15 13 1 28 1 29 24 33 83 52 51 63
REMARK Flexibility Score: inf
ROOT
ATOM      1  C   UNL A   1      31.386  30.666  26.004  1.00  0.00     0.023 C 
ENDROOT
BRANCH   1   2
ATOM      2  C   UNL A   1      32.384  29.729  26.698  1.00  0.00     0.023 C 
BRANCH   2   3
ATOM      3  C   UNL A   1      33.579  29.199  25.936  1.00  0.00     0.116 C 
BRANCH   3   4
ATOM      4  N   UNL A   1      33.801  27.776  25.863  1.00  0.00    -0.351 N 
ATOM      5  C   UNL A   1      33.769  27.027  24.704  1.00  0.00     0.279 C 
ATOM      6  O   UNL A   1      34.120  25.844  24.782  1.00  0.00    -0.268 OA
ATOM      7  H   UNL A   1      33.988  27.301  26.705  1.00  0.00     0.163 HD
BRANCH   5   8
ATOM      8  C   UNL A   1      33.182  27.605  23.377  1.00  0.00     0.283 C 
ATOM      9  C   UNL A   1      32.049  25.905  22.081  1.00  0.00     0.283 C 
ATOM     10  N   UNL A   1      33.283  26.700  22.201  1.00  0.00    -0.320 N 
ATOM     11  S   UNL A   1      30.741  27.129  22.337  1.00  0.00    -0.087 SA
ATOM     12  H   UNL A   1      33.411  27.257  21.356  1.00  0.00     0.348 HD
ATOM     13  H   UNL A   1      34.079  26.074  22.321  1.00  0.00     0.348 HD
ATOM     14  C   UNL A   1      31.741  28.120  23.499  1.00  0.00     0.151 C 
BRANCH   9  15
ATOM     15  C   UNL A   1      31.991  24.618  22.914  1.00  0.00     0.128 A 
ATOM     16  C   UNL A   1      31.119  24.319  23.920  1.00  0.00     0.205 A 
ATOM     17  O   UNL A   1      31.048  23.114  24.605  1.00  0.00    -0.440 OA
ATOM     18  C   UNL A   1      32.246  22.530  24.879  1.00  0.00     0.140 A 
ATOM     19  C   UNL A   1      33.113  23.640  22.559  1.00  0.00     0.205 A 
ATOM     20  C   UNL A   1      32.608  21.906  26.519  1.00  0.00     0.051 A 
ATOM     21  C   UNL A   1      33.529  22.739  23.642  1.00  0.00     0.068 A 
ATOM     22  O   UNL A   1      33.773  23.698  21.532  1.00  0.00    -0.288 OA
ATOM     23  C   UNL A   1      34.336  21.536  26.964  1.00  0.00     0.043 A 
ATOM     24  C   UNL A   1      35.224  22.254  24.021  1.00  0.00     0.055 A 
ATOM     25  C   UNL A   1      35.630  21.630  25.685  1.00  0.00     0.124 A 
ATOM     26  F   UNL A   1      36.895  21.313  25.997  1.00  0.00    -0.207 F 
BRANCH  16  27
ATOM     27  N   UNL A   1      30.207  25.203  24.435  1.00  0.00    -0.369 N 
ATOM     28  H   UNL A   1      30.138  26.112  24.061  1.00  0.00     0.159 HD
ATOM     29  H   UNL A   1      29.621  24.930  25.177  1.00  0.00     0.159 HD
ENDBRANCH  16  27
ENDBRANCH   9  15
ENDBRANCH   5   8
ENDBRANCH   3   4
ENDBRANCH   2   3
ENDBRANCH   1   2
BRANCH   1  30
ATOM     30  C   UNL A   1      31.290  32.323  26.496  1.00  0.00     0.116 C 
BRANCH  30  31
ATOM     31  N   UNL A   1      32.542  33.542  27.646  1.00  0.00    -0.352 N 
ATOM     32  C   UNL A   1      33.816  33.847  28.324  1.00  0.00     0.251 C 
ATOM     33  H   UNL A   1      31.985  34.331  27.835  1.00  0.00     0.163 HD
ATOM     34  O   UNL A   1      33.829  34.890  28.985  1.00  0.00    -0.269 OA
BRANCH  32  35
ATOM     35  C   UNL A   1      35.085  33.055  28.286  1.00  0.00     0.039 A 
ATOM     36  C   UNL A   1      34.993  31.694  28.530  1.00  0.00     0.014 A 
ATOM     37  C   UNL A   1      36.350  33.654  28.220  1.00  0.00     0.014 A 
ATOM     38  C   UNL A   1      36.089  31.065  29.117  1.00  0.00     0.010 A 
ATOM     39  C   UNL A   1      37.496  32.934  28.631  1.00  0.00     0.010 A 
ATOM     40  C   UNL A   1      37.371  31.656  29.195  1.00  0.00    -0.014 A 
BRANCH  40  41
ATOM     41  C   UNL A   1      38.490  30.901  29.881  1.00  0.00     0.031 A 
ATOM     42  C   UNL A   1      39.364  29.860  29.184  1.00  0.00     0.074 A 
ATOM     43  C   UNL A   1      38.816  31.231  31.154  1.00  0.00     0.049 A 
ATOM     44  N   UNL A   1      40.352  29.153  29.688  1.00  0.00    -0.248 NA
ATOM     45  C   UNL A   1      39.111  29.565  27.765  1.00  0.00     0.031 C 
ATOM     46  C   UNL A   1      38.088  32.195  31.984  1.00  0.00     0.029 A 
ATOM     47  N   UNL A   1      39.863  30.848  31.962  1.00  0.00    -0.354 N 
ATOM     48  C   UNL A   1      40.785  28.289  28.681  1.00  0.00     0.074 A 
ATOM     49  C   UNL A   1      39.969  28.578  27.521  1.00  0.00     0.031 C 
ATOM     50  C   UNL A   1      38.778  32.438  33.101  1.00  0.00     0.029 A 
ATOM     51  C   UNL A   1      39.895  31.510  33.169  1.00  0.00     0.049 A 
ATOM     52  H   UNL A   1      40.525  30.167  31.701  1.00  0.00     0.167 HD
ATOM     53  C   UNL A   1      41.767  27.351  28.714  1.00  0.00     0.034 A 
ATOM     54  C   UNL A   1      40.674  31.369  34.260  1.00  0.00     0.034 A 
ATOM     55  C   UNL A   1      42.635  27.102  29.839  1.00  0.00     0.049 A 
ATOM     56  C   UNL A   1      41.727  30.310  34.281  1.00  0.00     0.074 A 
ATOM     57  C   UNL A   1      43.672  26.185  29.933  1.00  0.00     0.029 A 
ATOM     58  N   UNL A   1      42.587  27.766  31.053  1.00  0.00    -0.354 N 
ATOM     59  N   UNL A   1      42.101  29.514  33.314  1.00  0.00    -0.248 NA
ATOM     60  C   UNL A   1      42.452  30.116  35.545  1.00  0.00     0.031 C 
ATOM     61  C   UNL A   1      44.231  26.275  31.211  1.00  0.00     0.029 A 
ATOM     62  C   UNL A   1      43.562  27.270  31.904  1.00  0.00     0.049 A 
ATOM     63  H   UNL A   1      41.951  28.483  31.279  1.00  0.00     0.167 HD
ATOM     64  C   UNL A   1      43.108  28.723  33.848  1.00  0.00     0.074 A 
ATOM     65  C   UNL A   1      43.303  29.152  35.217  1.00  0.00     0.031 C 
ATOM     66  C   UNL A   1      43.791  27.719  33.251  1.00  0.00     0.034 A 
BRANCH  53  67
ATOM     67  C   UNL A   1      42.007  26.495  27.489  1.00  0.00     0.023 A 
ATOM     68  C   UNL A   1      42.766  27.005  26.417  1.00  0.00     0.012 A 
ATOM     69  C   UNL A   1      41.633  25.133  27.480  1.00  0.00     0.148 A 
ATOM     70  C   UNL A   1      43.139  26.180  25.353  1.00  0.00     0.002 A 
ATOM     71  C   UNL A   1      42.031  24.311  26.430  1.00  0.00     0.091 A 
ATOM     72  F   UNL A   1      40.926  24.662  28.517  1.00  0.00    -0.205 F 
ATOM     73  C   UNL A   1      42.781  24.833  25.365  1.00  0.00     0.022 A 
BRANCH  71  74
ATOM     74  S   UNL A   1      41.672  22.549  26.374  1.00  0.00     0.127 S 
ATOM     75  O   UNL A   1      42.356  22.149  25.144  1.00  0.00    -0.237 OA
ATOM     76  O   UNL A   1      42.300  22.066  27.604  1.00  0.00    -0.237 OA
ATOM     77  O   UNL A   1      40.221  22.432  26.338  1.00  0.00    -0.744 OA
ENDBRANCH  71  74
ENDBRANCH  53  67
BRANCH  54  78
ATOM     78  C   UNL A   1      40.427  32.244  35.440  1.00  0.00     0.023 A 
ATOM     79  C   UNL A   1      41.168  33.428  35.594  1.00  0.00     0.012 A 
ATOM     80  C   UNL A   1      39.378  31.957  36.339  1.00  0.00     0.148 A 
ATOM     81  C   UNL A   1      40.860  34.322  36.621  1.00  0.00     0.002 A 
ATOM     82  C   UNL A   1      39.041  32.877  37.320  1.00  0.00     0.091 A 
ATOM     83  F   UNL A   1      38.693  30.818  36.168  1.00  0.00    -0.205 F 
ATOM     84  C   UNL A   1      39.786  34.057  37.470  1.00  0.00     0.022 A 
BRANCH  82  85
ATOM     85  S   UNL A   1      37.595  32.684  38.367  1.00  0.00     0.127 S 
ATOM     86  O   UNL A   1      36.523  33.126  37.478  1.00  0.00    -0.237 OA
ATOM     87  O   UNL A   1      37.616  31.248  38.643  1.00  0.00    -0.237 OA
ATOM     88  O   UNL A   1      37.831  33.526  39.531  1.00  0.00    -0.744 OA
ENDBRANCH  82  85
ENDBRANCH  54  78
BRANCH  66  89
ATOM     89  C   UNL A   1      44.848  27.013  34.052  1.00  0.00     0.023 A 
ATOM     90  C   UNL A   1      46.150  27.544  34.106  1.00  0.00     0.012 A 
ATOM     91  C   UNL A   1      44.520  25.887  34.831  1.00  0.00     0.148 A 
ATOM     92  C   UNL A   1      47.117  26.958  34.924  1.00  0.00     0.002 A 
ATOM     93  C   UNL A   1      45.478  25.328  35.668  1.00  0.00     0.091 A 
ATOM     94  F   UNL A   1      43.274  25.396  34.749  1.00  0.00    -0.205 F 
ATOM     95  C   UNL A   1      46.778  25.861  35.713  1.00  0.00     0.022 A 
BRANCH  93  96
ATOM     96  S   UNL A   1      45.123  23.951  36.765  1.00  0.00     0.127 S 
ATOM     97  O   UNL A   1      46.455  23.617  37.264  1.00  0.00    -0.237 OA
ATOM     98  O   UNL A   1      44.236  24.566  37.752  1.00  0.00    -0.237 OA
ATOM     99  O   UNL A   1      44.499  22.925  35.939  1.00  0.00    -0.744 OA
ENDBRANCH  93  96
ENDBRANCH  66  89
ENDBRANCH  40  41
ENDBRANCH  32  35
ENDBRANCH  30  31
ENDBRANCH   1  30
TORSDOF 16
ENDMDL
MODEL 3
REMARK VINA RESULT:     -14.0      5.095      7.852
REMARK SMILES Nc1oc2ccc(F)cc2c(=O)c1[C@@H]1[NH2+][C@H](C(=O)NCCCCNC(=O)c2ccc(-c3c4nc(c(-c5cccc(S(=O)(=O)[O-])c5F)c5ccc([nH]5)c(-c5cccc(S(=O)(=O)[O-])c5F)c5nc(c(-c6cccc(S(=O)(=O)[O-])c6F)c6ccc3[nH]6)C=C5)C=C4)cc2)CS1
REMARK SMILES IDX 22 1 21 2 20 3 19 4 17 5 18 6 16 8 14 9 15 10 91 11 90 14
REMARK SMILES IDX 13 15 2 16 3 17 4 18 11 19 5 20 10 21 12 22 6 23 9 24 7 25
REMARK SMILES IDX 8 26 1 27 23 30 24 31 25 32 26 34 27 35 28 36 89 37 29 38
REMARK SMILES IDX 88 39 30 40 31 41 32 42 82 43 33 44 87 45 81 46 83 47 34 48
REMARK SMILES IDX 86 49 80 50 79 51 35 53 67 54 47 55 66 56 48 57 51 58 65 59
REMARK SMILES IDX 84 60 49 61 50 62 64 64 85 65 52 66 36 67 37 68 45 69 38 70
REMARK SMILES IDX 40 71 46 72 39 73 41 74 42 75 43 76 44 77 68 78 69 79 77 80
REMARK SMILES IDX 70 81 72 82 78 83 71 84 73 85 74 86 75 87 76 88 53 89 54 90
REMARK SMILES IDX 62 91 55 92 57 93 63 94 56 95 58 96 59 97 60 98 61 99
REMARK H PARENT 19 7 15 12 15 13 1 28 1 29 24 33 83 52 51 63
REMARK Flexibility Score: inf
ROOT
ATOM      1  C   UNL A   1      31.290  30.513  25.809  1.00  0.00     0.023 C 
ENDROOT
BRANCH   1   2
ATOM      2  C   UNL A   1      32.412  29.696  26.465  1.00  0.00     0.023 C 
BRANCH   2   3
ATOM      3  C   UNL A   1      33.572  29.199  25.632  1.00  0.00     0.116 C 
BRANCH   3   4
ATOM      4  N   UNL A   1      33.857  27.786  25.583  1.00  0.00    -0.351 N 
ATOM      5  C   UNL A   1      33.841  27.012  24.440  1.00  0.00     0.279 C 
ATOM      6  O   UNL A   1      34.247  25.849  24.535  1.00  0.00    -0.268 OA
ATOM      7  H   UNL A   1      34.079  27.338  26.430  1.00  0.00     0.163 HD
BRANCH   5   8
ATOM      8  C   UNL A   1      33.206  27.536  23.112  1.00  0.00     0.283 C 
ATOM      9  C   UNL A   1      31.967  25.804  21.965  1.00  0.00     0.283 C 
ATOM     10  N   UNL A   1      33.226  26.568  21.983  1.00  0.00    -0.320 N 
ATOM     11  S   UNL A   1      30.706  27.077  22.214  1.00  0.00    -0.087 SA
ATOM     12  H   UNL A   1      33.328  27.074  21.104  1.00  0.00     0.348 HD
ATOM     13  H   UNL A   1      34.009  25.925  22.101  1.00  0.00     0.348 HD
ATOM     14  C   UNL A   1      31.787  28.099  23.272  1.00  0.00     0.151 C 
BRANCH   9  15
ATOM     15  C   UNL A   1      31.914  24.565  22.869  1.00  0.00     0.128 A 
ATOM     16  C   UNL A   1      31.062  24.331  23.908  1.00  0.00     0.205 A 
ATOM     17  O   UNL A   1      30.994  23.167  24.661  1.00  0.00    -0.440 OA
ATOM     18  C   UNL A   1      32.192  22.586  24.941  1.00  0.00     0.140 A 
ATOM     19  C   UNL A   1      33.018  23.557  22.545  1.00  0.00     0.205 A 
ATOM     20  C   UNL A   1      32.583  22.049  26.604  1.00  0.00     0.051 A 
ATOM     21  C   UNL A   1      33.449  22.712  23.666  1.00  0.00     0.068 A 
ATOM     22  O   UNL A   1      33.656  23.550  21.502  1.00  0.00    -0.288 OA
ATOM     23  C   UNL A   1      34.317  21.685  27.033  1.00  0.00     0.043 A 
ATOM     24  C   UNL A   1      35.147  22.230  24.036  1.00  0.00     0.055 A 
ATOM     25  C   UNL A   1      35.584  21.695  25.723  1.00  0.00     0.124 A 
ATOM     26  F   UNL A   1      36.852  21.381  26.025  1.00  0.00    -0.207 F 
BRANCH  16  27
ATOM     27  N   UNL A   1      30.170  25.253  24.393  1.00  0.00    -0.369 N 
ATOM     28  H   UNL A   1      30.006  25.317  25.361  1.00  0.00     0.159 HD
ATOM     29  H   UNL A   1      29.693  25.850  23.772  1.00  0.00     0.159 HD
ENDBRANCH  16  27
ENDBRANCH   9  15
ENDBRANCH   5   8
ENDBRANCH   3   4
ENDBRANCH   2   3
ENDBRANCH   1   2
BRANCH   1  30
ATOM     30  C   UNL A   1      31.103  32.185  26.218  1.00  0.00     0.116 C 
BRANCH  30  31
ATOM     31  N   UNL A   1      32.259  33.512  27.348  1.00  0.00    -0.352 N 
ATOM     32  C   UNL A   1      33.490  33.903  28.060  1.00  0.00     0.251 C 
ATOM     33  H   UNL A   1      31.666  34.290  27.468  1.00  0.00     0.163 HD
ATOM     34  O   UNL A   1      33.437  34.981  28.661  1.00  0.00    -0.269 OA
BRANCH  32  35
ATOM     35  C   UNL A   1      34.787  33.159  28.120  1.00  0.00     0.039 A 
ATOM     36  C   UNL A   1      34.735  31.816  28.454  1.00  0.00     0.014 A 
ATOM     37  C   UNL A   1      36.032  33.801  28.057  1.00  0.00     0.014 A 
ATOM     38  C   UNL A   1      35.829  31.270  29.120  1.00  0.00     0.010 A 
ATOM     39  C   UNL A   1      37.186  33.154  28.556  1.00  0.00     0.010 A 
ATOM     40  C   UNL A   1      37.086  31.913  29.202  1.00  0.00    -0.014 A 
BRANCH  40  41
ATOM     41  C   UNL A   1      38.205  31.248  29.977  1.00  0.00     0.031 A 
ATOM     42  C   UNL A   1      38.464  31.483  31.463  1.00  0.00     0.074 A 
ATOM     43  C   UNL A   1      38.960  30.310  29.357  1.00  0.00     0.049 A 
ATOM     44  N   UNL A   1      39.403  30.960  32.222  1.00  0.00    -0.248 NA
ATOM     45  C   UNL A   1      37.584  32.408  32.195  1.00  0.00     0.031 C 
ATOM     46  C   UNL A   1      38.865  29.959  27.937  1.00  0.00     0.029 A 
ATOM     47  N   UNL A   1      39.915  29.440  29.832  1.00  0.00    -0.354 N 
ATOM     48  C   UNL A   1      39.273  31.540  33.484  1.00  0.00     0.074 A 
ATOM     49  C   UNL A   1      38.143  32.440  33.401  1.00  0.00     0.031 C 
ATOM     50  C   UNL A   1      39.598  28.870  27.692  1.00  0.00     0.029 A 
ATOM     51  C   UNL A   1      40.373  28.555  28.881  1.00  0.00     0.049 A 
ATOM     52  H   UNL A   1      40.238  29.449  30.762  1.00  0.00     0.167 HD
ATOM     53  C   UNL A   1      40.016  31.343  34.604  1.00  0.00     0.034 A 
ATOM     54  C   UNL A   1      41.351  27.627  28.903  1.00  0.00     0.034 A 
ATOM     55  C   UNL A   1      41.099  30.397  34.722  1.00  0.00     0.049 A 
ATOM     56  C   UNL A   1      42.172  27.451  30.137  1.00  0.00     0.074 A 
ATOM     57  C   UNL A   1      41.878  30.123  35.836  1.00  0.00     0.029 A 
ATOM     58  N   UNL A   1      41.553  29.567  33.711  1.00  0.00    -0.354 N 
ATOM     59  N   UNL A   1      42.020  28.020  31.305  1.00  0.00    -0.248 NA
ATOM     60  C   UNL A   1      43.307  26.521  30.055  1.00  0.00     0.031 C 
ATOM     61  C   UNL A   1      42.820  29.149  35.492  1.00  0.00     0.029 A 
ATOM     62  C   UNL A   1      42.607  28.793  34.171  1.00  0.00     0.049 A 
ATOM     63  H   UNL A   1      41.183  29.533  32.800  1.00  0.00     0.167 HD
ATOM     64  C   UNL A   1      43.039  27.517  32.101  1.00  0.00     0.074 A 
ATOM     65  C   UNL A   1      43.788  26.579  31.291  1.00  0.00     0.031 C 
ATOM     66  C   UNL A   1      43.330  27.829  33.385  1.00  0.00     0.034 A 
BRANCH  53  67
ATOM     67  C   UNL A   1      39.699  32.147  35.847  1.00  0.00     0.023 A 
ATOM     68  C   UNL A   1      40.241  33.438  36.001  1.00  0.00     0.012 A 
ATOM     69  C   UNL A   1      38.730  31.693  36.768  1.00  0.00     0.148 A 
ATOM     70  C   UNL A   1      39.833  34.259  37.055  1.00  0.00     0.002 A 
ATOM     71  C   UNL A   1      38.308  32.526  37.799  1.00  0.00     0.091 A 
ATOM     72  F   UNL A   1      38.213  30.468  36.594  1.00  0.00    -0.205 F 
ATOM     73  C   UNL A   1      38.861  33.809  37.946  1.00  0.00     0.022 A 
BRANCH  71  74
ATOM     74  S   UNL A   1      37.021  32.066  38.969  1.00  0.00     0.127 S 
ATOM     75  O   UNL A   1      35.869  32.796  38.439  1.00  0.00    -0.237 OA
ATOM     76  O   UNL A   1      36.953  30.615  38.797  1.00  0.00    -0.237 OA
ATOM     77  O   UNL A   1      37.484  32.509  40.276  1.00  0.00    -0.744 OA
ENDBRANCH  71  74
ENDBRANCH  53  67
BRANCH  54  78
ATOM     78  C   UNL A   1      41.620  26.837  27.669  1.00  0.00     0.023 A 
ATOM     79  C   UNL A   1      42.285  27.440  26.588  1.00  0.00     0.012 A 
ATOM     80  C   UNL A   1      41.320  25.459  27.620  1.00  0.00     0.148 A 
ATOM     81  C   UNL A   1      42.659  26.680  25.478  1.00  0.00     0.002 A 
ATOM     82  C   UNL A   1      41.746  24.699  26.541  1.00  0.00     0.091 A 
ATOM     83  F   UNL A   1      40.682  24.914  28.664  1.00  0.00    -0.205 F 
ATOM     84  C   UNL A   1      42.408  25.309  25.464  1.00  0.00     0.022 A 
BRANCH  82  85
ATOM     85  S   UNL A   1      41.587  22.911  26.498  1.00  0.00     0.127 S 
ATOM     86  O   UNL A   1      40.136  22.742  26.472  1.00  0.00    -0.237 OA
ATOM     87  O   UNL A   1      42.271  22.581  25.248  1.00  0.00    -0.237 OA
ATOM     88  O   UNL A   1      42.253  22.424  27.698  1.00  0.00    -0.744 OA
ENDBRANCH  82  85
ENDBRANCH  54  78
BRANCH  66  89
ATOM     89  C   UNL A   1      44.495  27.134  34.031  1.00  0.00     0.023 A 
ATOM     90  C   UNL A   1      45.783  27.691  33.924  1.00  0.00     0.012 A 
ATOM     91  C   UNL A   1      44.292  25.991  34.828  1.00  0.00     0.148 A 
ATOM     92  C   UNL A   1      46.859  27.115  34.600  1.00  0.00     0.002 A 
ATOM     93  C   UNL A   1      45.362  25.442  35.525  1.00  0.00     0.091 A 
ATOM     94  F   UNL A   1      43.057  25.476  34.901  1.00  0.00    -0.205 F 
ATOM     95  C   UNL A   1      46.646  26.001  35.409  1.00  0.00     0.022 A 
BRANCH  93  96
ATOM     96  S   UNL A   1      45.178  24.044  36.637  1.00  0.00     0.127 S 
ATOM     97  O   UNL A   1      46.563  23.795  37.033  1.00  0.00    -0.237 OA
ATOM     98  O   UNL A   1      44.331  24.600  37.692  1.00  0.00    -0.237 OA
ATOM     99  O   UNL A   1      44.561  22.981  35.854  1.00  0.00    -0.744 OA
ENDBRANCH  93  96
ENDBRANCH  66  89
ENDBRANCH  40  41
ENDBRANCH  32  35
ENDBRANCH  30  31
ENDBRANCH   1  30
TORSDOF 16
ENDMDL
