MODEL 1
REMARK VINA RESULT:     -12.1      0.000      0.000
REMARK SMILES O=C(NCCCCNC(=O)c1c(F)cccc1NC(=O)c1ccc[nH]c1=O)c1ccc(-c2c3nc(c(-c4cccc(S(=O)(=O)[O-])c4F)c4ccc([nH]4)c(-c4cccc(S(=O)(=O)[O-])c4F)c4nc(c(-c5cccc(S(=O)(=O)[O-])c5F)c5ccc2[nH]5)C=C4)C=C3)cc1
REMARK SMILES IDX 5 1 4 2 3 3 1 4 2 5 28 7 29 8 90 9 30 10 89 11 31 12 32 13
REMARK SMILES IDX 33 14 83 15 34 16 88 17 82 18 84 19 35 20 87 21 81 22 80 23
REMARK SMILES IDX 36 25 68 26 48 27 67 28 49 29 52 30 66 31 85 32 50 33 51 34
REMARK SMILES IDX 65 36 86 37 53 38 37 39 38 40 46 41 39 42 41 43 47 44 40 45
REMARK SMILES IDX 42 46 43 47 44 48 45 49 69 50 70 51 78 52 71 53 73 54 79 55
REMARK SMILES IDX 72 56 74 57 75 58 76 59 77 60 54 61 55 62 63 63 56 64 58 65
REMARK SMILES IDX 64 66 57 67 59 68 60 69 61 70 62 71 6 72 7 73 8 74 9 75
REMARK SMILES IDX 10 77 11 78 12 79 17 80 13 81 14 82 16 83 15 84 18 85 19 86
REMARK SMILES IDX 20 88 21 89 22 90 26 91 23 92 25 93 27 94 24 95
REMARK H PARENT 3 6 84 24 52 35 8 76 18 87 25 96
REMARK Flexibility Score: inf
ROOT
ATOM      1  C   UNL A   1      33.854  28.720  24.678  1.00  0.00     0.023 C 
ENDROOT
BRANCH   1   2
ATOM      2  C   UNL A   1      32.762  28.858  25.732  1.00  0.00     0.116 C 
BRANCH   2   3
ATOM      3  N   UNL A   1      32.394  30.244  25.978  1.00  0.00    -0.352 N 
ATOM      4  O   UNL A   1      32.395  32.232  27.030  1.00  0.00    -0.269 OA
ATOM      5  C   UNL A   1      32.960  31.162  26.831  1.00  0.00     0.251 C 
ATOM      6  H   UNL A   1      31.626  30.573  25.456  1.00  0.00     0.163 HD
BRANCH   5   7
ATOM      7  C   UNL A   1      34.228  30.843  27.523  1.00  0.00     0.039 A 
ATOM      8  C   UNL A   1      34.453  29.572  28.058  1.00  0.00     0.014 A 
ATOM      9  C   UNL A   1      35.210  31.831  27.626  1.00  0.00     0.014 A 
ATOM     10  C   UNL A   1      35.598  29.328  28.812  1.00  0.00     0.010 A 
ATOM     11  C   UNL A   1      36.394  31.560  28.319  1.00  0.00     0.010 A 
ATOM     12  C   UNL A   1      36.587  30.315  28.939  1.00  0.00    -0.014 A 
BRANCH  12  13
ATOM     13  C   UNL A   1      37.852  30.025  29.660  1.00  0.00     0.031 A 
ATOM     14  C   UNL A   1      38.874  29.086  29.079  1.00  0.00     0.074 A 
ATOM     15  C   UNL A   1      38.056  30.583  30.871  1.00  0.00     0.049 A 
ATOM     16  N   UNL A   1      39.973  28.629  29.622  1.00  0.00    -0.248 NA
ATOM     17  C   UNL A   1      38.635  28.594  27.712  1.00  0.00     0.031 C 
ATOM     18  C   UNL A   1      37.136  31.505  31.541  1.00  0.00     0.029 A 
ATOM     19  N   UNL A   1      39.088  30.438  31.763  1.00  0.00    -0.354 N 
ATOM     20  C   UNL A   1      40.539  27.773  28.684  1.00  0.00     0.074 A 
ATOM     21  C   UNL A   1      39.661  27.770  27.534  1.00  0.00     0.031 C 
ATOM     22  C   UNL A   1      37.642  31.842  32.736  1.00  0.00     0.029 A 
ATOM     23  C   UNL A   1      38.887  31.114  32.945  1.00  0.00     0.049 A 
ATOM     24  H   UNL A   1      39.893  29.904  31.577  1.00  0.00     0.167 HD
ATOM     25  C   UNL A   1      41.692  27.067  28.772  1.00  0.00     0.034 A 
ATOM     26  C   UNL A   1      39.603  31.118  34.086  1.00  0.00     0.034 A 
ATOM     27  C   UNL A   1      42.576  27.097  29.909  1.00  0.00     0.049 A 
ATOM     28  C   UNL A   1      40.859  30.296  34.158  1.00  0.00     0.074 A 
ATOM     29  C   UNL A   1      43.780  26.434  30.076  1.00  0.00     0.029 A 
ATOM     30  N   UNL A   1      42.357  27.822  31.070  1.00  0.00    -0.354 N 
ATOM     31  N   UNL A   1      41.420  29.558  33.232  1.00  0.00    -0.248 NA
ATOM     32  C   UNL A   1      41.599  30.329  35.429  1.00  0.00     0.031 C 
ATOM     33  C   UNL A   1      44.277  26.738  31.346  1.00  0.00     0.029 A 
ATOM     34  C   UNL A   1      43.402  27.619  31.957  1.00  0.00     0.049 A 
ATOM     35  H   UNL A   1      41.575  28.395  31.239  1.00  0.00     0.167 HD
ATOM     36  C   UNL A   1      42.593  29.067  33.795  1.00  0.00     0.074 A 
ATOM     37  C   UNL A   1      42.679  29.620  35.129  1.00  0.00     0.031 C 
ATOM     38  C   UNL A   1      43.506  28.217  33.263  1.00  0.00     0.034 A 
BRANCH  25  39
ATOM     39  C   UNL A   1      42.115  26.228  27.594  1.00  0.00     0.023 A 
ATOM     40  C   UNL A   1      43.041  26.751  26.670  1.00  0.00     0.012 A 
ATOM     41  C   UNL A   1      41.719  24.878  27.490  1.00  0.00     0.148 A 
ATOM     42  C   UNL A   1      43.564  25.946  25.657  1.00  0.00     0.002 A 
ATOM     43  C   UNL A   1      42.278  24.071  26.505  1.00  0.00     0.091 A 
ATOM     44  F   UNL A   1      40.830  24.406  28.374  1.00  0.00    -0.205 F 
ATOM     45  C   UNL A   1      43.196  24.606  25.585  1.00  0.00     0.022 A 
BRANCH  43  46
ATOM     46  S   UNL A   1      41.940  22.312  26.377  1.00  0.00     0.127 S 
ATOM     47  O   UNL A   1      42.696  21.952  25.177  1.00  0.00    -0.237 OA
ATOM     48  O   UNL A   1      42.501  21.801  27.627  1.00  0.00    -0.237 OA
ATOM     49  O   UNL A   1      40.495  22.184  26.253  1.00  0.00    -0.744 OA
ENDBRANCH  43  46
ENDBRANCH  25  39
BRANCH  26  50
ATOM     50  C   UNL A   1      39.166  31.948  35.245  1.00  0.00     0.023 A 
ATOM     51  C   UNL A   1      38.237  31.416  36.160  1.00  0.00     0.012 A 
ATOM     52  C   UNL A   1      39.661  33.251  35.449  1.00  0.00     0.148 A 
ATOM     53  C   UNL A   1      37.779  32.179  37.234  1.00  0.00     0.002 A 
ATOM     54  C   UNL A   1      39.250  33.982  36.557  1.00  0.00     0.091 A 
ATOM     55  F   UNL A   1      40.532  33.747  34.559  1.00  0.00    -0.205 F 
ATOM     56  C   UNL A   1      38.292  33.458  37.438  1.00  0.00     0.022 A 
BRANCH  54  57
ATOM     57  S   UNL A   1      39.961  35.577  36.976  1.00  0.00     0.127 S 
ATOM     58  O   UNL A   1      39.282  35.888  38.230  1.00  0.00    -0.237 OA
ATOM     59  O   UNL A   1      41.381  35.248  37.108  1.00  0.00    -0.237 OA
ATOM     60  O   UNL A   1      39.653  36.451  35.852  1.00  0.00    -0.744 OA
ENDBRANCH  54  57
ENDBRANCH  26  50
BRANCH  38  61
ATOM     61  C   UNL A   1      44.700  27.858  34.109  1.00  0.00     0.023 A 
ATOM     62  C   UNL A   1      45.860  28.656  34.061  1.00  0.00     0.012 A 
ATOM     63  C   UNL A   1      44.652  26.764  34.997  1.00  0.00     0.148 A 
ATOM     64  C   UNL A   1      46.969  28.347  34.846  1.00  0.00     0.002 A 
ATOM     65  C   UNL A   1      45.740  26.496  35.820  1.00  0.00     0.091 A 
ATOM     66  F   UNL A   1      43.548  26.004  35.019  1.00  0.00    -0.205 F 
ATOM     67  C   UNL A   1      46.905  27.275  35.734  1.00  0.00     0.022 A 
BRANCH  65  68
ATOM     68  S   UNL A   1      45.707  25.204  37.067  1.00  0.00     0.127 S 
ATOM     69  O   UNL A   1      47.041  25.322  37.654  1.00  0.00    -0.237 OA
ATOM     70  O   UNL A   1      44.616  25.641  37.939  1.00  0.00    -0.237 OA
ATOM     71  O   UNL A   1      45.447  23.962  36.351  1.00  0.00    -0.744 OA
ENDBRANCH  65  68
ENDBRANCH  38  61
ENDBRANCH  12  13
ENDBRANCH   5   7
ENDBRANCH   2   3
ENDBRANCH   1   2
BRANCH   1  72
ATOM     72  C   UNL A   1      33.399  28.969  23.242  1.00  0.00     0.023 C 
BRANCH  72  73
ATOM     73  C   UNL A   1      31.984  28.498  22.922  1.00  0.00     0.116 C 
BRANCH  73  74
ATOM     74  N   UNL A   1      31.957  27.363  22.009  1.00  0.00    -0.352 N 
ATOM     75  C   UNL A   1      31.924  26.022  22.316  1.00  0.00     0.256 C 
ATOM     76  H   UNL A   1      31.961  27.584  21.049  1.00  0.00     0.163 HD
ATOM     77  O   UNL A   1      32.051  25.176  21.437  1.00  0.00    -0.269 OA
BRANCH  75  78
ATOM     78  C   UNL A   1      31.859  25.611  23.730  1.00  0.00     0.099 A 
ATOM     79  C   UNL A   1      30.666  25.801  24.434  1.00  0.00     0.138 A 
ATOM     80  C   UNL A   1      32.998  25.116  24.387  1.00  0.00     0.057 A 
ATOM     81  F   UNL A   1      29.547  26.180  23.800  1.00  0.00    -0.206 F 
ATOM     82  C   UNL A   1      30.625  25.662  25.814  1.00  0.00     0.040 A 
ATOM     83  C   UNL A   1      32.972  25.101  25.788  1.00  0.00     0.027 A 
ATOM     84  C   UNL A   1      31.795  25.360  26.498  1.00  0.00     0.005 A 
BRANCH  80  85
ATOM     85  N   UNL A   1      34.109  24.668  23.628  1.00  0.00    -0.321 N 
ATOM     86  C   UNL A   1      34.705  23.439  23.507  1.00  0.00     0.261 C 
ATOM     87  H   UNL A   1      34.532  25.372  23.084  1.00  0.00     0.170 HD
ATOM     88  O   UNL A   1      35.763  23.324  22.882  1.00  0.00    -0.269 OA
BRANCH  86  89
ATOM     89  C   UNL A   1      34.102  22.246  24.137  1.00  0.00     0.105 A 
ATOM     90  C   UNL A   1      33.060  21.670  23.508  1.00  0.00     0.021 A 
ATOM     91  C   UNL A   1      34.636  21.620  25.384  1.00  0.00     0.260 A 
ATOM     92  C   UNL A   1      32.530  20.403  23.960  1.00  0.00     0.019 A 
ATOM     93  N   UNL A   1      34.111  20.380  25.696  1.00  0.00    -0.328 N 
ATOM     94  O   UNL A   1      35.502  22.130  26.078  1.00  0.00    -0.269 OA
ATOM     95  C   UNL A   1      33.087  19.784  25.007  1.00  0.00     0.086 A 
ATOM     96  H   UNL A   1      34.498  19.894  26.459  1.00  0.00     0.169 HD
ENDBRANCH  86  89
ENDBRANCH  80  85
ENDBRANCH  75  78
ENDBRANCH  73  74
ENDBRANCH  72  73
ENDBRANCH   1  72
TORSDOF 16
ENDMDL
MODEL 2
REMARK VINA RESULT:     -12.0      5.189      8.340
REMARK SMILES O=C(NCCCCNC(=O)c1c(F)cccc1NC(=O)c1ccc[nH]c1=O)c1ccc(-c2c3nc(c(-c4cccc(S(=O)(=O)[O-])c4F)c4ccc([nH]4)c(-c4cccc(S(=O)(=O)[O-])c4F)c4nc(c(-c5cccc(S(=O)(=O)[O-])c5F)c5ccc2[nH]5)C=C4)C=C3)cc1
REMARK SMILES IDX 5 1 4 2 3 3 1 4 2 5 28 7 29 8 90 9 30 10 89 11 31 12 32 13
REMARK SMILES IDX 33 14 83 15 34 16 88 17 82 18 84 19 35 20 87 21 81 22 80 23
REMARK SMILES IDX 36 25 68 26 48 27 67 28 49 29 52 30 66 31 85 32 50 33 51 34
REMARK SMILES IDX 65 36 86 37 53 38 37 39 38 40 46 41 39 42 41 43 47 44 40 45
REMARK SMILES IDX 42 46 43 47 44 48 45 49 69 50 70 51 78 52 71 53 73 54 79 55
REMARK SMILES IDX 72 56 74 57 75 58 76 59 77 60 54 61 55 62 63 63 56 64 58 65
REMARK SMILES IDX 64 66 57 67 59 68 60 69 61 70 62 71 6 72 7 73 8 74 9 75
REMARK SMILES IDX 10 77 11 78 12 79 17 80 13 81 14 82 16 83 15 84 18 85 19 86
REMARK SMILES IDX 20 88 21 89 22 90 26 91 23 92 25 93 27 94 24 95
REMARK H PARENT 3 6 84 24 52 35 8 76 18 87 25 96
REMARK Flexibility Score: inf
ROOT
ATOM      1  C   UNL A   1      37.867  19.715  24.913  1.00  0.00     0.023 C 
ENDROOT
BRANCH   1   2
ATOM      2  C   UNL A   1      38.936  20.433  25.728  1.00  0.00     0.116 C 
BRANCH   2   3
ATOM      3  N   UNL A   1      39.997  19.541  26.167  1.00  0.00    -0.352 N 
ATOM      4  O   UNL A   1      42.085  18.931  26.741  1.00  0.00    -0.269 OA
ATOM      5  C   UNL A   1      41.276  19.838  26.578  1.00  0.00     0.251 C 
ATOM      6  H   UNL A   1      39.767  18.583  26.171  1.00  0.00     0.163 HD
BRANCH   5   7
ATOM      7  C   UNL A   1      41.673  21.246  26.794  1.00  0.00     0.039 A 
ATOM      8  C   UNL A   1      41.828  21.758  28.086  1.00  0.00     0.014 A 
ATOM      9  C   UNL A   1      41.903  22.063  25.684  1.00  0.00     0.014 A 
ATOM     10  C   UNL A   1      42.081  23.115  28.269  1.00  0.00     0.010 A 
ATOM     11  C   UNL A   1      42.232  23.408  25.872  1.00  0.00     0.010 A 
ATOM     12  C   UNL A   1      42.298  23.952  27.165  1.00  0.00    -0.014 A 
BRANCH  12  13
ATOM     13  C   UNL A   1      42.664  25.378  27.361  1.00  0.00     0.031 A 
ATOM     14  C   UNL A   1      44.021  25.889  26.962  1.00  0.00     0.074 A 
ATOM     15  C   UNL A   1      41.773  26.205  27.946  1.00  0.00     0.049 A 
ATOM     16  N   UNL A   1      44.549  27.068  27.168  1.00  0.00    -0.248 NA
ATOM     17  C   UNL A   1      44.904  24.959  26.238  1.00  0.00     0.031 C 
ATOM     18  C   UNL A   1      40.427  25.825  28.381  1.00  0.00     0.029 A 
ATOM     19  N   UNL A   1      41.873  27.527  28.297  1.00  0.00    -0.354 N 
ATOM     20  C   UNL A   1      45.831  27.016  26.634  1.00  0.00     0.074 A 
ATOM     21  C   UNL A   1      46.007  25.685  26.094  1.00  0.00     0.031 C 
ATOM     22  C   UNL A   1      39.828  26.886  28.941  1.00  0.00     0.029 A 
ATOM     23  C   UNL A   1      40.766  28.001  28.963  1.00  0.00     0.049 A 
ATOM     24  H   UNL A   1      42.659  28.083  28.093  1.00  0.00     0.167 HD
ATOM     25  C   UNL A   1      46.768  27.994  26.588  1.00  0.00     0.034 A 
ATOM     26  C   UNL A   1      40.543  29.188  29.560  1.00  0.00     0.034 A 
ATOM     27  C   UNL A   1      46.575  29.325  27.103  1.00  0.00     0.049 A 
ATOM     28  C   UNL A   1      41.618  30.237  29.518  1.00  0.00     0.074 A 
ATOM     29  C   UNL A   1      47.460  30.390  27.076  1.00  0.00     0.029 A 
ATOM     30  N   UNL A   1      45.428  29.777  27.736  1.00  0.00    -0.354 N 
ATOM     31  N   UNL A   1      42.792  30.195  28.937  1.00  0.00    -0.248 NA
ATOM     32  C   UNL A   1      41.327  31.511  30.192  1.00  0.00     0.031 C 
ATOM     33  C   UNL A   1      46.858  31.478  27.714  1.00  0.00     0.029 A 
ATOM     34  C   UNL A   1      45.585  31.103  28.106  1.00  0.00     0.049 A 
ATOM     35  H   UNL A   1      44.622  29.236  27.898  1.00  0.00     0.167 HD
ATOM     36  C   UNL A   1      43.364  31.445  29.145  1.00  0.00     0.074 A 
ATOM     37  C   UNL A   1      42.393  32.232  29.875  1.00  0.00     0.031 C 
ATOM     38  C   UNL A   1      44.591  31.895  28.785  1.00  0.00     0.034 A 
BRANCH  25  39
ATOM     39  C   UNL A   1      48.084  27.699  25.916  1.00  0.00     0.023 A 
ATOM     40  C   UNL A   1      49.150  27.188  26.682  1.00  0.00     0.012 A 
ATOM     41  C   UNL A   1      48.214  27.781  24.514  1.00  0.00     0.148 A 
ATOM     42  C   UNL A   1      50.328  26.765  26.065  1.00  0.00     0.002 A 
ATOM     43  C   UNL A   1      49.374  27.317  23.903  1.00  0.00     0.091 A 
ATOM     44  F   UNL A   1      47.191  28.280  23.808  1.00  0.00    -0.205 F 
ATOM     45  C   UNL A   1      50.433  26.815  24.677  1.00  0.00     0.022 A 
BRANCH  43  46
ATOM     46  S   UNL A   1      49.579  27.255  22.119  1.00  0.00     0.127 S 
ATOM     47  O   UNL A   1      51.001  26.936  21.996  1.00  0.00    -0.237 OA
ATOM     48  O   UNL A   1      48.676  26.167  21.746  1.00  0.00    -0.237 OA
ATOM     49  O   UNL A   1      49.199  28.569  21.621  1.00  0.00    -0.744 OA
ENDBRANCH  43  46
ENDBRANCH  25  39
BRANCH  26  50
ATOM     50  C   UNL A   1      39.237  29.459  30.227  1.00  0.00     0.023 A 
ATOM     51  C   UNL A   1      38.979  28.893  31.491  1.00  0.00     0.012 A 
ATOM     52  C   UNL A   1      38.256  30.271  29.626  1.00  0.00     0.148 A 
ATOM     53  C   UNL A   1      37.754  29.096  32.125  1.00  0.00     0.002 A 
ATOM     54  C   UNL A   1      37.062  30.523  30.293  1.00  0.00     0.091 A 
ATOM     55  F   UNL A   1      38.511  30.789  28.417  1.00  0.00    -0.205 F 
ATOM     56  C   UNL A   1      36.800  29.919  31.532  1.00  0.00     0.022 A 
BRANCH  54  57
ATOM     57  S   UNL A   1      35.837  31.680  29.670  1.00  0.00     0.127 S 
ATOM     58  O   UNL A   1      35.176  30.888  28.638  1.00  0.00    -0.237 OA
ATOM     59  O   UNL A   1      35.030  31.935  30.864  1.00  0.00    -0.237 OA
ATOM     60  O   UNL A   1      36.591  32.834  29.200  1.00  0.00    -0.744 OA
ENDBRANCH  54  57
ENDBRANCH  26  50
BRANCH  38  61
ATOM     61  C   UNL A   1      44.946  33.316  29.140  1.00  0.00     0.023 A 
ATOM     62  C   UNL A   1      45.500  33.606  30.403  1.00  0.00     0.012 A 
ATOM     63  C   UNL A   1      44.786  34.356  28.202  1.00  0.00     0.148 A 
ATOM     64  C   UNL A   1      45.846  34.912  30.744  1.00  0.00     0.002 A 
ATOM     65  C   UNL A   1      45.188  35.645  28.527  1.00  0.00     0.091 A 
ATOM     66  F   UNL A   1      44.242  34.067  27.011  1.00  0.00    -0.205 F 
ATOM     67  C   UNL A   1      45.702  35.929  29.803  1.00  0.00     0.022 A 
BRANCH  65  68
ATOM     68  S   UNL A   1      45.139  36.996  27.344  1.00  0.00     0.127 S 
ATOM     69  O   UNL A   1      46.056  36.521  26.310  1.00  0.00    -0.237 OA
ATOM     70  O   UNL A   1      43.729  37.011  26.949  1.00  0.00    -0.237 OA
ATOM     71  O   UNL A   1      45.574  38.181  28.071  1.00  0.00    -0.744 OA
ENDBRANCH  65  68
ENDBRANCH  38  61
ENDBRANCH  12  13
ENDBRANCH   5   7
ENDBRANCH   2   3
ENDBRANCH   1   2
BRANCH   1  72
ATOM     72  C   UNL A   1      36.467  20.315  25.015  1.00  0.00     0.023 C 
BRANCH  72  73
ATOM     73  C   UNL A   1      36.416  21.756  25.513  1.00  0.00     0.116 C 
BRANCH  73  74
ATOM     74  N   UNL A   1      35.454  21.950  26.590  1.00  0.00    -0.352 N 
ATOM     75  C   UNL A   1      34.140  22.348  26.498  1.00  0.00     0.256 C 
ATOM     76  H   UNL A   1      35.787  21.773  27.500  1.00  0.00     0.163 HD
ATOM     77  O   UNL A   1      33.493  22.607  27.508  1.00  0.00    -0.269 OA
BRANCH  75  78
ATOM     78  C   UNL A   1      33.551  22.578  25.166  1.00  0.00     0.099 A 
ATOM     79  C   UNL A   1      32.947  21.507  24.501  1.00  0.00     0.138 A 
ATOM     80  C   UNL A   1      33.669  23.828  24.536  1.00  0.00     0.057 A 
ATOM     81  F   UNL A   1      32.742  20.338  25.125  1.00  0.00    -0.206 F 
ATOM     82  C   UNL A   1      32.601  21.606  23.161  1.00  0.00     0.040 A 
ATOM     83  C   UNL A   1      33.429  23.873  23.157  1.00  0.00     0.027 A 
ATOM     84  C   UNL A   1      32.889  22.777  22.474  1.00  0.00     0.005 A 
BRANCH  80  85
ATOM     85  N   UNL A   1      34.024  24.970  25.299  1.00  0.00    -0.321 N 
ATOM     86  C   UNL A   1      33.332  26.106  25.632  1.00  0.00     0.261 C 
ATOM     87  H   UNL A   1      34.941  24.941  25.658  1.00  0.00     0.170 HD
ATOM     88  O   UNL A   1      33.910  27.037  26.198  1.00  0.00    -0.269 OA
BRANCH  86  89
ATOM     89  C   UNL A   1      31.897  26.236  25.301  1.00  0.00     0.105 A 
ATOM     90  C   UNL A   1      31.561  27.089  24.316  1.00  0.00     0.021 A 
ATOM     91  C   UNL A   1      30.830  25.420  25.954  1.00  0.00     0.260 A 
ATOM     92  C   UNL A   1      30.207  27.142  23.812  1.00  0.00     0.019 A 
ATOM     93  N   UNL A   1      29.585  25.488  25.358  1.00  0.00    -0.328 N 
ATOM     94  O   UNL A   1      31.025  24.704  26.926  1.00  0.00    -0.269 OA
ATOM     95  C   UNL A   1      29.276  26.323  24.317  1.00  0.00     0.086 A 
ATOM     96  H   UNL A   1      28.875  24.899  25.703  1.00  0.00     0.169 HD
ENDBRANCH  86  89
ENDBRANCH  80  85
ENDBRANCH  75  78
ENDBRANCH  73  74
ENDBRANCH  72  73
ENDBRANCH   1  72
TORSDOF 16
ENDMDL
MODEL 3
REMARK VINA RESULT:     -11.9      5.426     10.119
REMARK SMILES O=C(NCCCCNC(=O)c1c(F)cccc1NC(=O)c1ccc[nH]c1=O)c1ccc(-c2c3nc(c(-c4cccc(S(=O)(=O)[O-])c4F)c4ccc([nH]4)c(-c4cccc(S(=O)(=O)[O-])c4F)c4nc(c(-c5cccc(S(=O)(=O)[O-])c5F)c5ccc2[nH]5)C=C4)C=C3)cc1
REMARK SMILES IDX 5 1 4 2 3 3 1 4 2 5 28 7 29 8 90 9 30 10 89 11 31 12 32 13
REMARK SMILES IDX 33 14 83 15 34 16 88 17 82 18 84 19 35 20 87 21 81 22 80 23
REMARK SMILES IDX 36 25 68 26 48 27 67 28 49 29 52 30 66 31 85 32 50 33 51 34
REMARK SMILES IDX 65 36 86 37 53 38 37 39 38 40 46 41 39 42 41 43 47 44 40 45
REMARK SMILES IDX 42 46 43 47 44 48 45 49 69 50 70 51 78 52 71 53 73 54 79 55
REMARK SMILES IDX 72 56 74 57 75 58 76 59 77 60 54 61 55 62 63 63 56 64 58 65
REMARK SMILES IDX 64 66 57 67 59 68 60 69 61 70 62 71 6 72 7 73 8 74 9 75
REMARK SMILES IDX 10 77 11 78 12 79 17 80 13 81 14 82 16 83 15 84 18 85 19 86
REMARK SMILES IDX 20 88 21 89 22 90 26 91 23 92 25 93 27 94 24 95
REMARK H PARENT 3 6 84 24 52 35 8 76 18 87 25 96
REMARK Flexibility Score: inf
ROOT
ATOM      1  C   UNL A   1      37.783  19.852  24.734  1.00  0.00     0.023 C 
ENDROOT
BRANCH   1   2
ATOM      2  C   UNL A   1      38.815  20.225  25.791  1.00  0.00     0.116 C 
BRANCH   2   3
ATOM      3  N   UNL A   1      39.924  19.287  25.847  1.00  0.00    -0.352 N 
ATOM      4  O   UNL A   1      42.072  18.619  25.910  1.00  0.00    -0.269 OA
ATOM      5  C   UNL A   1      41.259  19.522  26.079  1.00  0.00     0.251 C 
ATOM      6  H   UNL A   1      39.684  18.343  25.695  1.00  0.00     0.163 HD
BRANCH   5   7
ATOM      7  C   UNL A   1      41.708  20.866  26.506  1.00  0.00     0.039 A 
ATOM      8  C   UNL A   1      41.897  21.163  27.858  1.00  0.00     0.014 A 
ATOM      9  C   UNL A   1      41.952  21.838  25.533  1.00  0.00     0.014 A 
ATOM     10  C   UNL A   1      42.199  22.466  28.247  1.00  0.00     0.010 A 
ATOM     11  C   UNL A   1      42.330  23.126  25.922  1.00  0.00     0.010 A 
ATOM     12  C   UNL A   1      42.432  23.458  27.283  1.00  0.00    -0.014 A 
BRANCH  12  13
ATOM     13  C   UNL A   1      42.849  24.823  27.693  1.00  0.00     0.031 A 
ATOM     14  C   UNL A   1      41.845  25.815  28.213  1.00  0.00     0.074 A 
ATOM     15  C   UNL A   1      44.142  25.180  27.551  1.00  0.00     0.049 A 
ATOM     16  N   UNL A   1      42.012  27.079  28.503  1.00  0.00    -0.248 NA
ATOM     17  C   UNL A   1      40.473  25.327  28.438  1.00  0.00     0.031 C 
ATOM     18  C   UNL A   1      45.209  24.308  27.053  1.00  0.00     0.029 A 
ATOM     19  N   UNL A   1      44.775  26.373  27.789  1.00  0.00    -0.354 N 
ATOM     20  C   UNL A   1      40.768  27.549  28.910  1.00  0.00     0.074 A 
ATOM     21  C   UNL A   1      39.850  26.433  28.828  1.00  0.00     0.031 C 
ATOM     22  C   UNL A   1      46.360  24.994  27.021  1.00  0.00     0.029 A 
ATOM     23  C   UNL A   1      46.104  26.368  27.433  1.00  0.00     0.049 A 
ATOM     24  H   UNL A   1      44.323  27.157  28.176  1.00  0.00     0.167 HD
ATOM     25  C   UNL A   1      40.430  28.793  29.327  1.00  0.00     0.034 A 
ATOM     26  C   UNL A   1      47.009  27.365  27.404  1.00  0.00     0.034 A 
ATOM     27  C   UNL A   1      41.356  29.891  29.432  1.00  0.00     0.049 A 
ATOM     28  C   UNL A   1      46.588  28.740  27.841  1.00  0.00     0.074 A 
ATOM     29  C   UNL A   1      41.108  31.181  29.869  1.00  0.00     0.029 A 
ATOM     30  N   UNL A   1      42.700  29.837  29.099  1.00  0.00    -0.354 N 
ATOM     31  N   UNL A   1      45.429  29.145  28.300  1.00  0.00    -0.248 NA
ATOM     32  C   UNL A   1      47.612  29.795  27.782  1.00  0.00     0.031 C 
ATOM     33  C   UNL A   1      42.294  31.913  29.778  1.00  0.00     0.029 A 
ATOM     34  C   UNL A   1      43.292  31.070  29.318  1.00  0.00     0.049 A 
ATOM     35  H   UNL A   1      43.165  29.039  28.757  1.00  0.00     0.167 HD
ATOM     36  C   UNL A   1      45.593  30.489  28.616  1.00  0.00     0.074 A 
ATOM     37  C   UNL A   1      46.973  30.820  28.329  1.00  0.00     0.031 C 
ATOM     38  C   UNL A   1      44.679  31.375  29.081  1.00  0.00     0.034 A 
BRANCH  25  39
ATOM     39  C   UNL A   1      39.008  29.048  29.754  1.00  0.00     0.023 A 
ATOM     40  C   UNL A   1      38.614  28.728  31.068  1.00  0.00     0.012 A 
ATOM     41  C   UNL A   1      38.115  29.742  28.912  1.00  0.00     0.148 A 
ATOM     42  C   UNL A   1      37.351  29.090  31.538  1.00  0.00     0.002 A 
ATOM     43  C   UNL A   1      36.874  30.138  29.401  1.00  0.00     0.091 A 
ATOM     44  F   UNL A   1      38.508  30.027  27.663  1.00  0.00    -0.205 F 
ATOM     45  C   UNL A   1      36.489  29.807  30.712  1.00  0.00     0.022 A 
BRANCH  43  46
ATOM     46  S   UNL A   1      35.724  31.139  28.452  1.00  0.00     0.127 S 
ATOM     47  O   UNL A   1      36.602  32.192  27.941  1.00  0.00    -0.237 OA
ATOM     48  O   UNL A   1      35.257  30.191  27.441  1.00  0.00    -0.237 OA
ATOM     49  O   UNL A   1      34.707  31.590  29.391  1.00  0.00    -0.744 OA
ENDBRANCH  43  46
ENDBRANCH  25  39
BRANCH  26  50
ATOM     50  C   UNL A   1      48.410  27.097  26.970  1.00  0.00     0.023 A 
ATOM     51  C   UNL A   1      49.309  26.503  27.876  1.00  0.00     0.012 A 
ATOM     52  C   UNL A   1      48.856  27.421  25.674  1.00  0.00     0.148 A 
ATOM     53  C   UNL A   1      50.637  26.274  27.515  1.00  0.00     0.002 A 
ATOM     54  C   UNL A   1      50.162  27.130  25.298  1.00  0.00     0.091 A 
ATOM     55  F   UNL A   1      47.991  28.000  24.830  1.00  0.00    -0.205 F 
ATOM     56  C   UNL A   1      51.060  26.577  26.224  1.00  0.00     0.022 A 
BRANCH  54  57
ATOM     57  S   UNL A   1      50.753  27.356  23.618  1.00  0.00     0.127 S 
ATOM     58  O   UNL A   1      52.043  26.673  23.659  1.00  0.00    -0.237 OA
ATOM     59  O   UNL A   1      49.718  26.673  22.840  1.00  0.00    -0.237 OA
ATOM     60  O   UNL A   1      50.804  28.797  23.410  1.00  0.00    -0.744 OA
ENDBRANCH  54  57
ENDBRANCH  26  50
BRANCH  38  61
ATOM     61  C   UNL A   1      45.145  32.784  29.345  1.00  0.00     0.023 A 
ATOM     62  C   UNL A   1      45.790  33.094  30.559  1.00  0.00     0.012 A 
ATOM     63  C   UNL A   1      44.997  33.788  28.367  1.00  0.00     0.148 A 
ATOM     64  C   UNL A   1      46.239  34.388  30.815  1.00  0.00     0.002 A 
ATOM     65  C   UNL A   1      45.500  35.062  28.605  1.00  0.00     0.091 A 
ATOM     66  F   UNL A   1      44.366  33.482  27.224  1.00  0.00    -0.205 F 
ATOM     67  C   UNL A   1      46.106  35.368  29.834  1.00  0.00     0.022 A 
BRANCH  65  68
ATOM     68  S   UNL A   1      45.468  36.357  27.361  1.00  0.00     0.127 S 
ATOM     69  O   UNL A   1      46.165  35.718  26.246  1.00  0.00    -0.237 OA
ATOM     70  O   UNL A   1      44.032  36.551  27.151  1.00  0.00    -0.237 OA
ATOM     71  O   UNL A   1      46.150  37.499  27.954  1.00  0.00    -0.744 OA
ENDBRANCH  65  68
ENDBRANCH  38  61
ENDBRANCH  12  13
ENDBRANCH   5   7
ENDBRANCH   2   3
ENDBRANCH   1   2
BRANCH   1  72
ATOM     72  C   UNL A   1      36.373  20.376  24.994  1.00  0.00     0.023 C 
BRANCH  72  73
ATOM     73  C   UNL A   1      36.304  21.801  25.535  1.00  0.00     0.116 C 
BRANCH  73  74
ATOM     74  N   UNL A   1      35.309  21.959  26.588  1.00  0.00    -0.352 N 
ATOM     75  C   UNL A   1      34.001  22.370  26.470  1.00  0.00     0.256 C 
ATOM     76  H   UNL A   1      35.612  21.744  27.500  1.00  0.00     0.163 HD
ATOM     77  O   UNL A   1      33.324  22.594  27.469  1.00  0.00    -0.269 OA
BRANCH  75  78
ATOM     78  C   UNL A   1      33.456  22.656  25.131  1.00  0.00     0.099 A 
ATOM     79  C   UNL A   1      32.906  21.608  24.388  1.00  0.00     0.138 A 
ATOM     80  C   UNL A   1      33.564  23.941  24.572  1.00  0.00     0.057 A 
ATOM     81  F   UNL A   1      32.709  20.403  24.941  1.00  0.00    -0.206 F 
ATOM     82  C   UNL A   1      32.607  21.770  23.043  1.00  0.00     0.040 A 
ATOM     83  C   UNL A   1      33.374  24.054  23.189  1.00  0.00     0.027 A 
ATOM     84  C   UNL A   1      32.889  22.984  22.429  1.00  0.00     0.005 A 
BRANCH  80  85
ATOM     85  N   UNL A   1      33.859  25.049  25.408  1.00  0.00    -0.321 N 
ATOM     86  C   UNL A   1      33.134  26.160  25.755  1.00  0.00     0.261 C 
ATOM     87  H   UNL A   1      34.755  25.014  25.815  1.00  0.00     0.170 HD
ATOM     88  O   UNL A   1      33.666  27.069  26.396  1.00  0.00    -0.269 OA
BRANCH  86  89
ATOM     89  C   UNL A   1      31.718  26.288  25.351  1.00  0.00     0.105 A 
ATOM     90  C   UNL A   1      31.420  27.202  24.408  1.00  0.00     0.021 A 
ATOM     91  C   UNL A   1      30.632  25.412  25.884  1.00  0.00     0.260 A 
ATOM     92  C   UNL A   1      30.096  27.267  23.831  1.00  0.00     0.019 A 
ATOM     93  N   UNL A   1      29.421  25.500  25.223  1.00  0.00    -0.328 N 
ATOM     94  O   UNL A   1      30.786  24.634  26.815  1.00  0.00    -0.269 OA
ATOM     95  C   UNL A   1      29.155  26.400  24.224  1.00  0.00     0.086 A 
ATOM     96  H   UNL A   1      28.705  24.877  25.485  1.00  0.00     0.169 HD
ENDBRANCH  86  89
ENDBRANCH  80  85
ENDBRANCH  75  78
ENDBRANCH  73  74
ENDBRANCH  72  73
ENDBRANCH   1  72
TORSDOF 16
ENDMDL
