MODEL 1
REMARK VINA RESULT:     -12.6      0.000      0.000
REMARK SMILES CCOc1ccc(-c2csc3ncn([C@H](C)C(=O)NCCCCNC(=O)c4ccc(-c5c6nc(c(-c7cccc(S(=O)(=O)[O-])c7F)c7ccc([nH]7)c(-c7cccc(S(=O)(=O)[O-])c7F)c7nc(c(-c8cccc(S(=O)(=O)[O-])c8F)c8ccc5[nH]8)C=C7)C=C6)cc4)c(=O)c23)cc1
REMARK SMILES IDX 21 1 20 2 19 3 17 4 18 5 15 7 16 8 14 9 8 10 9 11 92 12
REMARK SMILES IDX 10 13 11 14 90 15 12 16 91 17 13 18 7 19 4 20 5 21 94 22
REMARK SMILES IDX 6 23 93 24 3 25 2 26 1 27 22 28 23 29 24 30 25 31 26 33
REMARK SMILES IDX 27 34 28 35 89 36 29 37 88 38 30 39 31 40 32 41 82 42 33 43
REMARK SMILES IDX 87 44 81 45 83 46 34 47 86 48 80 49 79 50 35 52 67 53 47 54
REMARK SMILES IDX 66 55 48 56 51 57 65 58 84 59 49 60 50 61 64 63 85 64 52 65
REMARK SMILES IDX 36 66 37 67 45 68 38 69 40 70 46 71 39 72 41 73 42 74 43 75
REMARK SMILES IDX 44 76 68 77 69 78 77 79 70 80 72 81 78 82 71 83 73 84 74 85
REMARK SMILES IDX 75 86 76 87 53 88 54 89 62 90 55 91 57 92 63 93 56 94 58 95
REMARK SMILES IDX 59 96 60 97 61 98
REMARK H PARENT 19 6 24 32 83 51 51 62
REMARK Flexibility Score: inf
ROOT
ATOM      1  C   UNL A   1      35.145  21.510  26.094  1.00  0.00     0.023 C 
ENDROOT
BRANCH   1   2
ATOM      2  C   UNL A   1      34.886  22.818  26.841  1.00  0.00     0.116 C 
BRANCH   2   3
ATOM      3  N   UNL A   1      33.541  22.898  27.389  1.00  0.00    -0.354 N 
ATOM      4  C   UNL A   1      32.357  23.290  26.821  1.00  0.00     0.242 C 
ATOM      5  O   UNL A   1      31.381  23.368  27.571  1.00  0.00    -0.273 OA
ATOM      6  H   UNL A   1      33.469  22.622  28.331  1.00  0.00     0.163 HD
BRANCH   4   7
ATOM      7  C   UNL A   1      32.257  23.720  25.341  1.00  0.00     0.177 C 
ATOM      8  C   UNL A   1      31.782  22.546  24.466  1.00  0.00     0.042 C 
BRANCH   7   9
ATOM      9  N   UNL A   1      31.565  24.987  25.032  1.00  0.00    -0.286 N 
ATOM     10  C   UNL A   1      31.880  28.752  24.892  1.00  0.00     0.007 A 
ATOM     11  C   UNL A   1      31.009  29.543  24.160  1.00  0.00     0.076 A 
ATOM     12  C   UNL A   1      31.618  27.361  24.680  1.00  0.00     0.085 A 
ATOM     13  S   UNL A   1      29.875  28.624  23.276  1.00  0.00    -0.123 S 
ATOM     14  C   UNL A   1      30.475  27.173  23.933  1.00  0.00     0.131 A 
ATOM     15  C   UNL A   1      32.292  26.173  25.186  1.00  0.00     0.263 A 
ATOM     16  N   UNL A   1      29.811  26.009  23.763  1.00  0.00    -0.227 NA
ATOM     17  O   UNL A   1      33.455  26.201  25.585  1.00  0.00    -0.268 OA
ATOM     18  C   UNL A   1      30.341  25.013  24.398  1.00  0.00     0.204 A 
BRANCH  10  19
ATOM     19  C   UNL A   1      32.771  29.370  25.860  1.00  0.00    -0.016 A 
ATOM     20  C   UNL A   1      34.404  30.628  27.751  1.00  0.00     0.119 A 
ATOM     21  C   UNL A   1      34.887  29.538  27.024  1.00  0.00     0.047 A 
ATOM     22  C   UNL A   1      33.119  31.104  27.519  1.00  0.00     0.047 A 
ATOM     23  C   UNL A   1      34.069  28.906  26.080  1.00  0.00     0.012 A 
ATOM     24  C   UNL A   1      32.297  30.464  26.597  1.00  0.00     0.012 A 
BRANCH  20  25
ATOM     25  O   UNL A   1      35.262  31.268  28.602  1.00  0.00    -0.494 OA
BRANCH  25  26
ATOM     26  C   UNL A   1      35.948  32.373  27.997  1.00  0.00     0.226 C 
ATOM     27  C   UNL A   1      35.786  33.664  28.786  1.00  0.00     0.049 C 
ENDBRANCH  25  26
ENDBRANCH  20  25
ENDBRANCH  10  19
ENDBRANCH   7   9
ENDBRANCH   4   7
ENDBRANCH   2   3
ENDBRANCH   1   2
BRANCH   1  28
ATOM     28  C   UNL A   1      35.484  21.648  24.603  1.00  0.00     0.023 C 
BRANCH  28  29
ATOM     29  C   UNL A   1      36.967  21.556  24.277  1.00  0.00     0.116 C 
BRANCH  29  30
ATOM     30  N   UNL A   1      37.623  20.365  24.834  1.00  0.00    -0.352 N 
ATOM     31  C   UNL A   1      38.871  20.289  25.451  1.00  0.00     0.251 C 
ATOM     32  H   UNL A   1      37.123  19.520  24.762  1.00  0.00     0.163 HD
ATOM     33  O   UNL A   1      39.471  19.237  25.554  1.00  0.00    -0.269 OA
BRANCH  31  34
ATOM     34  C   UNL A   1      39.422  21.537  26.014  1.00  0.00     0.039 A 
ATOM     35  C   UNL A   1      38.649  22.653  26.354  1.00  0.00     0.014 A 
ATOM     36  C   UNL A   1      40.786  21.516  26.255  1.00  0.00     0.014 A 
ATOM     37  C   UNL A   1      39.282  23.728  26.979  1.00  0.00     0.010 A 
ATOM     38  C   UNL A   1      41.312  22.404  27.135  1.00  0.00     0.010 A 
ATOM     39  C   UNL A   1      40.622  23.584  27.355  1.00  0.00    -0.014 A 
BRANCH  39  40
ATOM     40  C   UNL A   1      41.399  24.607  28.035  1.00  0.00     0.031 A 
ATOM     41  C   UNL A   1      40.676  25.889  28.210  1.00  0.00     0.074 A 
ATOM     42  C   UNL A   1      42.505  24.258  28.737  1.00  0.00     0.049 A 
ATOM     43  N   UNL A   1      40.936  27.025  27.651  1.00  0.00    -0.248 NA
ATOM     44  C   UNL A   1      39.403  25.872  28.952  1.00  0.00     0.031 C 
ATOM     45  C   UNL A   1      43.074  22.909  28.923  1.00  0.00     0.029 A 
ATOM     46  N   UNL A   1      43.246  25.000  29.597  1.00  0.00    -0.354 N 
ATOM     47  C   UNL A   1      40.024  27.917  28.208  1.00  0.00     0.074 A 
ATOM     48  C   UNL A   1      38.962  27.115  28.750  1.00  0.00     0.031 C 
ATOM     49  C   UNL A   1      43.863  22.895  30.019  1.00  0.00     0.029 A 
ATOM     50  C   UNL A   1      43.997  24.253  30.505  1.00  0.00     0.049 A 
ATOM     51  H   UNL A   1      43.255  25.985  29.581  1.00  0.00     0.167 HD
ATOM     52  C   UNL A   1      40.377  29.205  28.477  1.00  0.00     0.034 A 
ATOM     53  C   UNL A   1      44.625  24.720  31.614  1.00  0.00     0.034 A 
ATOM     54  C   UNL A   1      41.627  29.543  27.838  1.00  0.00     0.049 A 
ATOM     55  C   UNL A   1      44.772  26.184  31.436  1.00  0.00     0.074 A 
ATOM     56  C   UNL A   1      42.103  29.525  26.542  1.00  0.00     0.029 A 
ATOM     57  N   UNL A   1      42.740  29.575  28.645  1.00  0.00    -0.354 N 
ATOM     58  N   UNL A   1      45.495  26.720  30.491  1.00  0.00    -0.248 NA
ATOM     59  C   UNL A   1      43.735  27.036  31.993  1.00  0.00     0.031 C 
ATOM     60  C   UNL A   1      43.443  29.050  26.653  1.00  0.00     0.029 A 
ATOM     61  C   UNL A   1      43.738  28.889  28.009  1.00  0.00     0.049 A 
ATOM     62  H   UNL A   1      42.807  30.013  29.524  1.00  0.00     0.167 HD
ATOM     63  C   UNL A   1      44.712  27.763  30.013  1.00  0.00     0.074 A 
ATOM     64  C   UNL A   1      43.695  27.977  31.044  1.00  0.00     0.031 C 
ATOM     65  C   UNL A   1      44.767  28.141  28.700  1.00  0.00     0.034 A 
BRANCH  52  66
ATOM     66  C   UNL A   1      39.852  30.032  29.634  1.00  0.00     0.023 A 
ATOM     67  C   UNL A   1      39.361  31.320  29.320  1.00  0.00     0.012 A 
ATOM     68  C   UNL A   1      40.072  29.753  31.003  1.00  0.00     0.148 A 
ATOM     69  C   UNL A   1      39.174  32.298  30.303  1.00  0.00     0.002 A 
ATOM     70  C   UNL A   1      39.811  30.702  31.985  1.00  0.00     0.091 A 
ATOM     71  F   UNL A   1      40.666  28.617  31.375  1.00  0.00    -0.205 F 
ATOM     72  C   UNL A   1      39.397  31.987  31.638  1.00  0.00     0.022 A 
BRANCH  70  73
ATOM     73  S   UNL A   1      40.048  30.338  33.730  1.00  0.00     0.127 S 
ATOM     74  O   UNL A   1      41.463  29.983  33.761  1.00  0.00    -0.237 OA
ATOM     75  O   UNL A   1      39.714  31.620  34.349  1.00  0.00    -0.237 OA
ATOM     76  O   UNL A   1      39.109  29.266  34.037  1.00  0.00    -0.744 OA
ENDBRANCH  70  73
ENDBRANCH  52  66
BRANCH  53  77
ATOM     77  C   UNL A   1      44.833  24.059  32.925  1.00  0.00     0.023 A 
ATOM     78  C   UNL A   1      43.857  23.178  33.436  1.00  0.00     0.012 A 
ATOM     79  C   UNL A   1      46.104  24.070  33.543  1.00  0.00     0.148 A 
ATOM     80  C   UNL A   1      44.147  22.319  34.506  1.00  0.00     0.002 A 
ATOM     81  C   UNL A   1      46.384  23.224  34.614  1.00  0.00     0.091 A 
ATOM     82  F   UNL A   1      47.068  24.840  33.021  1.00  0.00    -0.205 F 
ATOM     83  C   UNL A   1      45.411  22.335  35.089  1.00  0.00     0.022 A 
BRANCH  81  84
ATOM     84  S   UNL A   1      47.999  23.189  35.406  1.00  0.00     0.127 S 
ATOM     85  O   UNL A   1      47.854  22.066  36.334  1.00  0.00    -0.237 OA
ATOM     86  O   UNL A   1      48.883  22.937  34.272  1.00  0.00    -0.237 OA
ATOM     87  O   UNL A   1      48.152  24.485  36.059  1.00  0.00    -0.744 OA
ENDBRANCH  81  84
ENDBRANCH  53  77
BRANCH  65  88
ATOM     88  C   UNL A   1      45.849  27.542  27.833  1.00  0.00     0.023 A 
ATOM     89  C   UNL A   1      47.203  27.930  27.928  1.00  0.00     0.012 A 
ATOM     90  C   UNL A   1      45.520  26.434  27.039  1.00  0.00     0.148 A 
ATOM     91  C   UNL A   1      48.203  27.240  27.235  1.00  0.00     0.002 A 
ATOM     92  C   UNL A   1      46.519  25.724  26.383  1.00  0.00     0.091 A 
ATOM     93  F   UNL A   1      44.232  26.068  26.967  1.00  0.00    -0.205 F 
ATOM     94  C   UNL A   1      47.861  26.128  26.470  1.00  0.00     0.022 A 
BRANCH  92  95
ATOM     95  S   UNL A   1      46.162  24.215  25.484  1.00  0.00     0.127 S 
ATOM     96  O   UNL A   1      46.853  24.443  24.218  1.00  0.00    -0.237 OA
ATOM     97  O   UNL A   1      46.766  23.190  26.337  1.00  0.00    -0.237 OA
ATOM     98  O   UNL A   1      44.708  24.132  25.397  1.00  0.00    -0.744 OA
ENDBRANCH  92  95
ENDBRANCH  65  88
ENDBRANCH  39  40
ENDBRANCH  31  34
ENDBRANCH  29  30
ENDBRANCH  28  29
ENDBRANCH   1  28
TORSDOF 18
ENDMDL
MODEL 2
REMARK VINA RESULT:     -12.2      3.487      7.856
REMARK SMILES CCOc1ccc(-c2csc3ncn([C@H](C)C(=O)NCCCCNC(=O)c4ccc(-c5c6nc(c(-c7cccc(S(=O)(=O)[O-])c7F)c7ccc([nH]7)c(-c7cccc(S(=O)(=O)[O-])c7F)c7nc(c(-c8cccc(S(=O)(=O)[O-])c8F)c8ccc5[nH]8)C=C7)C=C6)cc4)c(=O)c23)cc1
REMARK SMILES IDX 21 1 20 2 19 3 17 4 18 5 15 7 16 8 14 9 8 10 9 11 92 12
REMARK SMILES IDX 10 13 11 14 90 15 12 16 91 17 13 18 7 19 4 20 5 21 94 22
REMARK SMILES IDX 6 23 93 24 3 25 2 26 1 27 22 28 23 29 24 30 25 31 26 33
REMARK SMILES IDX 27 34 28 35 89 36 29 37 88 38 30 39 31 40 32 41 82 42 33 43
REMARK SMILES IDX 87 44 81 45 83 46 34 47 86 48 80 49 79 50 35 52 67 53 47 54
REMARK SMILES IDX 66 55 48 56 51 57 65 58 84 59 49 60 50 61 64 63 85 64 52 65
REMARK SMILES IDX 36 66 37 67 45 68 38 69 40 70 46 71 39 72 41 73 42 74 43 75
REMARK SMILES IDX 44 76 68 77 69 78 77 79 70 80 72 81 78 82 71 83 73 84 74 85
REMARK SMILES IDX 75 86 76 87 53 88 54 89 62 90 55 91 57 92 63 93 56 94 58 95
REMARK SMILES IDX 59 96 60 97 61 98
REMARK H PARENT 19 6 24 32 83 51 51 62
REMARK Flexibility Score: inf
ROOT
ATOM      1  C   UNL A   1      34.934  21.586  25.867  1.00  0.00     0.023 C 
ENDROOT
BRANCH   1   2
ATOM      2  C   UNL A   1      33.426  21.811  25.970  1.00  0.00     0.116 C 
BRANCH   2   3
ATOM      3  N   UNL A   1      32.783  21.930  24.670  1.00  0.00    -0.354 N 
ATOM      4  C   UNL A   1      31.838  22.808  24.208  1.00  0.00     0.242 C 
ATOM      5  O   UNL A   1      31.386  22.594  23.080  1.00  0.00    -0.273 OA
ATOM      6  H   UNL A   1      33.080  21.266  24.007  1.00  0.00     0.163 HD
BRANCH   4   7
ATOM      7  C   UNL A   1      31.277  23.949  25.084  1.00  0.00     0.177 C 
ATOM      8  C   UNL A   1      30.892  23.423  26.479  1.00  0.00     0.042 C 
BRANCH   7   9
ATOM      9  N   UNL A   1      32.028  25.219  25.135  1.00  0.00    -0.286 N 
ATOM     10  C   UNL A   1      31.773  28.991  25.078  1.00  0.00     0.007 A 
ATOM     11  C   UNL A   1      32.794  29.811  25.531  1.00  0.00     0.076 A 
ATOM     12  C   UNL A   1      32.070  27.612  25.321  1.00  0.00     0.085 A 
ATOM     13  S   UNL A   1      34.098  28.929  26.190  1.00  0.00    -0.123 S 
ATOM     14  C   UNL A   1      33.354  27.450  25.794  1.00  0.00     0.131 A 
ATOM     15  C   UNL A   1      31.291  26.407  25.070  1.00  0.00     0.263 A 
ATOM     16  N   UNL A   1      34.034  26.287  25.887  1.00  0.00    -0.227 NA
ATOM     17  O   UNL A   1      30.067  26.433  24.951  1.00  0.00    -0.268 OA
ATOM     18  C   UNL A   1      33.366  25.262  25.464  1.00  0.00     0.204 A 
BRANCH  10  19
ATOM     19  C   UNL A   1      30.684  29.561  24.302  1.00  0.00    -0.016 A 
ATOM     20  C   UNL A   1      28.592  30.567  22.741  1.00  0.00     0.119 A 
ATOM     21  C   UNL A   1      29.040  31.280  23.854  1.00  0.00     0.047 A 
ATOM     22  C   UNL A   1      29.201  29.367  22.393  1.00  0.00     0.047 A 
ATOM     23  C   UNL A   1      30.085  30.776  24.638  1.00  0.00     0.012 A 
ATOM     24  C   UNL A   1      30.225  28.853  23.182  1.00  0.00     0.012 A 
BRANCH  20  25
ATOM     25  O   UNL A   1      27.627  31.134  21.956  1.00  0.00    -0.494 OA
BRANCH  25  26
ATOM     26  C   UNL A   1      28.086  31.470  20.638  1.00  0.00     0.226 C 
ATOM     27  C   UNL A   1      27.711  32.887  20.232  1.00  0.00     0.049 C 
ENDBRANCH  25  26
ENDBRANCH  20  25
ENDBRANCH  10  19
ENDBRANCH   7   9
ENDBRANCH   4   7
ENDBRANCH   2   3
ENDBRANCH   1   2
BRANCH   1  28
ATOM     28  C   UNL A   1      35.814  22.805  26.179  1.00  0.00     0.023 C 
BRANCH  28  29
ATOM     29  C   UNL A   1      37.170  22.803  25.490  1.00  0.00     0.116 C 
BRANCH  29  30
ATOM     30  N   UNL A   1      38.103  21.800  26.020  1.00  0.00    -0.352 N 
ATOM     31  C   UNL A   1      39.406  22.003  26.474  1.00  0.00     0.251 C 
ATOM     32  H   UNL A   1      37.770  20.874  26.059  1.00  0.00     0.163 HD
ATOM     33  O   UNL A   1      40.204  21.090  26.555  1.00  0.00    -0.269 OA
BRANCH  31  34
ATOM     34  C   UNL A   1      39.768  23.370  26.894  1.00  0.00     0.039 A 
ATOM     35  C   UNL A   1      38.932  24.483  26.750  1.00  0.00     0.014 A 
ATOM     36  C   UNL A   1      41.000  23.482  27.518  1.00  0.00     0.014 A 
ATOM     37  C   UNL A   1      39.354  25.699  27.288  1.00  0.00     0.010 A 
ATOM     38  C   UNL A   1      41.244  24.560  28.302  1.00  0.00     0.010 A 
ATOM     39  C   UNL A   1      40.523  25.717  28.058  1.00  0.00    -0.014 A 
BRANCH  39  40
ATOM     40  C   UNL A   1      41.066  26.902  28.700  1.00  0.00     0.031 A 
ATOM     41  C   UNL A   1      42.346  27.366  28.113  1.00  0.00     0.074 A 
ATOM     42  C   UNL A   1      40.270  27.667  29.486  1.00  0.00     0.049 A 
ATOM     43  N   UNL A   1      43.515  27.362  28.663  1.00  0.00    -0.248 NA
ATOM     44  C   UNL A   1      42.367  27.709  26.680  1.00  0.00     0.031 C 
ATOM     45  C   UNL A   1      38.844  27.461  29.808  1.00  0.00     0.029 A 
ATOM     46  N   UNL A   1      40.504  28.897  30.006  1.00  0.00    -0.354 N 
ATOM     47  C   UNL A   1      44.352  27.973  27.734  1.00  0.00     0.074 A 
ATOM     48  C   UNL A   1      43.673  27.892  26.471  1.00  0.00     0.031 C 
ATOM     49  C   UNL A   1      38.296  28.628  30.213  1.00  0.00     0.029 A 
ATOM     50  C   UNL A   1      39.354  29.608  30.347  1.00  0.00     0.049 A 
ATOM     51  H   UNL A   1      41.411  29.259  30.134  1.00  0.00     0.167 HD
ATOM     52  C   UNL A   1      45.368  28.788  28.135  1.00  0.00     0.034 A 
ATOM     53  C   UNL A   1      39.278  30.929  30.652  1.00  0.00     0.034 A 
ATOM     54  C   UNL A   1      45.612  28.653  29.552  1.00  0.00     0.049 A 
ATOM     55  C   UNL A   1      40.648  31.362  31.015  1.00  0.00     0.074 A 
ATOM     56  C   UNL A   1      45.917  27.606  30.399  1.00  0.00     0.029 A 
ATOM     57  N   UNL A   1      45.130  29.659  30.356  1.00  0.00    -0.354 N 
ATOM     58  N   UNL A   1      41.291  30.900  32.053  1.00  0.00    -0.248 NA
ATOM     59  C   UNL A   1      41.477  31.927  29.964  1.00  0.00     0.031 C 
ATOM     60  C   UNL A   1      45.148  27.855  31.575  1.00  0.00     0.029 A 
ATOM     61  C   UNL A   1      44.488  29.076  31.414  1.00  0.00     0.049 A 
ATOM     62  H   UNL A   1      45.228  30.626  30.198  1.00  0.00     0.167 HD
ATOM     63  C   UNL A   1      42.579  30.676  31.583  1.00  0.00     0.074 A 
ATOM     64  C   UNL A   1      42.661  31.427  30.329  1.00  0.00     0.031 C 
ATOM     65  C   UNL A   1      43.347  29.661  32.085  1.00  0.00     0.034 A 
BRANCH  52  66
ATOM     66  C   UNL A   1      45.863  30.006  27.378  1.00  0.00     0.023 A 
ATOM     67  C   UNL A   1      47.262  30.207  27.348  1.00  0.00     0.012 A 
ATOM     68  C   UNL A   1      45.055  31.088  26.957  1.00  0.00     0.148 A 
ATOM     69  C   UNL A   1      47.821  31.440  26.995  1.00  0.00     0.002 A 
ATOM     70  C   UNL A   1      45.618  32.286  26.532  1.00  0.00     0.091 A 
ATOM     71  F   UNL A   1      43.729  31.035  27.088  1.00  0.00    -0.205 F 
ATOM     72  C   UNL A   1      46.998  32.480  26.583  1.00  0.00     0.022 A 
BRANCH  70  73
ATOM     73  S   UNL A   1      44.600  33.651  25.955  1.00  0.00     0.127 S 
ATOM     74  O   UNL A   1      43.886  33.029  24.845  1.00  0.00    -0.237 OA
ATOM     75  O   UNL A   1      43.786  33.934  27.138  1.00  0.00    -0.237 OA
ATOM     76  O   UNL A   1      45.532  34.715  25.605  1.00  0.00    -0.744 OA
ENDBRANCH  70  73
ENDBRANCH  52  66
BRANCH  53  77
ATOM     77  C   UNL A   1      38.194  31.900  30.365  1.00  0.00     0.023 A 
ATOM     78  C   UNL A   1      37.689  32.031  29.054  1.00  0.00     0.012 A 
ATOM     79  C   UNL A   1      37.462  32.492  31.419  1.00  0.00     0.148 A 
ATOM     80  C   UNL A   1      36.484  32.703  28.807  1.00  0.00     0.002 A 
ATOM     81  C   UNL A   1      36.272  33.171  31.167  1.00  0.00     0.091 A 
ATOM     82  F   UNL A   1      37.881  32.310  32.678  1.00  0.00    -0.205 F 
ATOM     83  C   UNL A   1      35.772  33.266  29.862  1.00  0.00     0.022 A 
BRANCH  81  84
ATOM     84  S   UNL A   1      35.298  33.912  32.486  1.00  0.00     0.127 S 
ATOM     85  O   UNL A   1      35.137  32.787  33.408  1.00  0.00    -0.237 OA
ATOM     86  O   UNL A   1      36.188  34.969  32.958  1.00  0.00    -0.237 OA
ATOM     87  O   UNL A   1      34.055  34.355  31.864  1.00  0.00    -0.744 OA
ENDBRANCH  81  84
ENDBRANCH  53  77
BRANCH  65  88
ATOM     88  C   UNL A   1      42.843  28.926  33.305  1.00  0.00     0.023 A 
ATOM     89  C   UNL A   1      41.812  27.965  33.243  1.00  0.00     0.012 A 
ATOM     90  C   UNL A   1      43.554  29.074  34.505  1.00  0.00     0.148 A 
ATOM     91  C   UNL A   1      41.485  27.182  34.355  1.00  0.00     0.002 A 
ATOM     92  C   UNL A   1      43.257  28.267  35.597  1.00  0.00     0.091 A 
ATOM     93  F   UNL A   1      44.541  29.982  34.546  1.00  0.00    -0.205 F 
ATOM     94  C   UNL A   1      42.217  27.326  35.530  1.00  0.00     0.022 A 
BRANCH  92  95
ATOM     95  S   UNL A   1      44.239  28.318  37.095  1.00  0.00     0.127 S 
ATOM     96  O   UNL A   1      43.638  27.250  37.890  1.00  0.00    -0.237 OA
ATOM     97  O   UNL A   1      45.586  28.029  36.598  1.00  0.00    -0.237 OA
ATOM     98  O   UNL A   1      44.082  29.663  37.635  1.00  0.00    -0.744 OA
ENDBRANCH  92  95
ENDBRANCH  65  88
ENDBRANCH  39  40
ENDBRANCH  31  34
ENDBRANCH  29  30
ENDBRANCH  28  29
ENDBRANCH   1  28
TORSDOF 18
ENDMDL
MODEL 3
REMARK VINA RESULT:     -11.9      3.430      7.600
REMARK SMILES CCOc1ccc(-c2csc3ncn([C@H](C)C(=O)NCCCCNC(=O)c4ccc(-c5c6nc(c(-c7cccc(S(=O)(=O)[O-])c7F)c7ccc([nH]7)c(-c7cccc(S(=O)(=O)[O-])c7F)c7nc(c(-c8cccc(S(=O)(=O)[O-])c8F)c8ccc5[nH]8)C=C7)C=C6)cc4)c(=O)c23)cc1
REMARK SMILES IDX 21 1 20 2 19 3 17 4 18 5 15 7 16 8 14 9 8 10 9 11 92 12
REMARK SMILES IDX 10 13 11 14 90 15 12 16 91 17 13 18 7 19 4 20 5 21 94 22
REMARK SMILES IDX 6 23 93 24 3 25 2 26 1 27 22 28 23 29 24 30 25 31 26 33
REMARK SMILES IDX 27 34 28 35 89 36 29 37 88 38 30 39 31 40 32 41 82 42 33 43
REMARK SMILES IDX 87 44 81 45 83 46 34 47 86 48 80 49 79 50 35 52 67 53 47 54
REMARK SMILES IDX 66 55 48 56 51 57 65 58 84 59 49 60 50 61 64 63 85 64 52 65
REMARK SMILES IDX 36 66 37 67 45 68 38 69 40 70 46 71 39 72 41 73 42 74 43 75
REMARK SMILES IDX 44 76 68 77 69 78 77 79 70 80 72 81 78 82 71 83 73 84 74 85
REMARK SMILES IDX 75 86 76 87 53 88 54 89 62 90 55 91 57 92 63 93 56 94 58 95
REMARK SMILES IDX 59 96 60 97 61 98
REMARK H PARENT 19 6 24 32 83 51 51 62
REMARK Flexibility Score: inf
ROOT
ATOM      1  C   UNL A   1      32.620  30.516  26.552  1.00  0.00     0.023 C 
ENDROOT
BRANCH   1   2
ATOM      2  C   UNL A   1      31.977  29.381  25.757  1.00  0.00     0.116 C 
BRANCH   2   3
ATOM      3  N   UNL A   1      31.050  29.858  24.742  1.00  0.00    -0.354 N 
ATOM      4  C   UNL A   1      30.699  29.338  23.523  1.00  0.00     0.242 C 
ATOM      5  O   UNL A   1      29.964  30.030  22.815  1.00  0.00    -0.273 OA
ATOM      6  H   UNL A   1      30.594  30.700  24.971  1.00  0.00     0.163 HD
BRANCH   4   7
ATOM      7  C   UNL A   1      31.274  28.002  23.003  1.00  0.00     0.177 C 
ATOM      8  C   UNL A   1      32.764  28.155  22.647  1.00  0.00     0.042 C 
BRANCH   7   9
ATOM      9  N   UNL A   1      30.989  26.776  23.776  1.00  0.00    -0.286 N 
ATOM     10  C   UNL A   1      32.490  23.928  25.759  1.00  0.00     0.007 A 
ATOM     11  C   UNL A   1      31.743  23.163  26.640  1.00  0.00     0.076 A 
ATOM     12  C   UNL A   1      31.717  25.012  25.231  1.00  0.00     0.085 A 
ATOM     13  S   UNL A   1      30.135  23.716  26.787  1.00  0.00    -0.123 S 
ATOM     14  C   UNL A   1      30.396  24.919  25.612  1.00  0.00     0.131 A 
ATOM     15  C   UNL A   1      32.080  26.092  24.324  1.00  0.00     0.263 A 
ATOM     16  N   UNL A   1      29.363  25.620  25.097  1.00  0.00    -0.227 NA
ATOM     17  O   UNL A   1      33.246  26.453  24.170  1.00  0.00    -0.268 OA
ATOM     18  C   UNL A   1      29.708  26.432  24.150  1.00  0.00     0.204 A 
BRANCH  10  19
ATOM     19  C   UNL A   1      33.812  23.476  25.356  1.00  0.00    -0.016 A 
ATOM     20  C   UNL A   1      36.308  22.555  24.494  1.00  0.00     0.119 A 
ATOM     21  C   UNL A   1      36.215  23.373  25.621  1.00  0.00     0.047 A 
ATOM     22  C   UNL A   1      35.157  22.178  23.812  1.00  0.00     0.047 A 
ATOM     23  C   UNL A   1      34.967  23.837  26.052  1.00  0.00     0.012 A 
ATOM     24  C   UNL A   1      33.917  22.655  24.225  1.00  0.00     0.012 A 
BRANCH  20  25
ATOM     25  O   UNL A   1      37.536  22.056  24.157  1.00  0.00    -0.494 OA
BRANCH  25  26
ATOM     26  C   UNL A   1      38.095  21.192  25.156  1.00  0.00     0.226 C 
ATOM     27  C   UNL A   1      37.763  19.727  24.915  1.00  0.00     0.049 C 
ENDBRANCH  25  26
ENDBRANCH  20  25
ENDBRANCH  10  19
ENDBRANCH   7   9
ENDBRANCH   4   7
ENDBRANCH   2   3
ENDBRANCH   1   2
BRANCH   1  28
ATOM     28  C   UNL A   1      33.924  30.164  27.283  1.00  0.00     0.023 C 
BRANCH  28  29
ATOM     29  C   UNL A   1      34.865  31.338  27.504  1.00  0.00     0.116 C 
BRANCH  29  30
ATOM     30  N   UNL A   1      34.579  32.106  28.724  1.00  0.00    -0.352 N 
ATOM     31  C   UNL A   1      35.101  31.903  30.001  1.00  0.00     0.251 C 
ATOM     32  H   UNL A   1      33.943  32.851  28.629  1.00  0.00     0.163 HD
ATOM     33  O   UNL A   1      34.554  32.343  30.993  1.00  0.00    -0.269 OA
BRANCH  31  34
ATOM     34  C   UNL A   1      36.375  31.165  30.099  1.00  0.00     0.039 A 
ATOM     35  C   UNL A   1      36.483  29.771  30.026  1.00  0.00     0.014 A 
ATOM     36  C   UNL A   1      37.504  31.961  30.206  1.00  0.00     0.014 A 
ATOM     37  C   UNL A   1      37.759  29.208  30.023  1.00  0.00     0.010 A 
ATOM     38  C   UNL A   1      38.711  31.438  29.880  1.00  0.00     0.010 A 
ATOM     39  C   UNL A   1      38.865  30.064  29.958  1.00  0.00    -0.014 A 
BRANCH  39  40
ATOM     40  C   UNL A   1      40.248  29.619  29.922  1.00  0.00     0.031 A 
ATOM     41  C   UNL A   1      40.839  29.393  31.263  1.00  0.00     0.074 A 
ATOM     42  C   UNL A   1      40.766  29.124  28.771  1.00  0.00     0.049 A 
ATOM     43  N   UNL A   1      41.781  30.067  31.833  1.00  0.00    -0.248 NA
ATOM     44  C   UNL A   1      40.185  28.418  32.153  1.00  0.00     0.031 C 
ATOM     45  C   UNL A   1      40.093  28.961  27.468  1.00  0.00     0.029 A 
ATOM     46  N   UNL A   1      41.940  28.477  28.567  1.00  0.00    -0.354 N 
ATOM     47  C   UNL A   1      42.021  29.404  33.034  1.00  0.00     0.074 A 
ATOM     48  C   UNL A   1      40.850  28.614  33.293  1.00  0.00     0.031 C 
ATOM     49  C   UNL A   1      40.750  28.042  26.728  1.00  0.00     0.029 A 
ATOM     50  C   UNL A   1      41.971  27.684  27.419  1.00  0.00     0.049 A 
ATOM     51  H   UNL A   1      42.709  28.560  29.177  1.00  0.00     0.167 HD
ATOM     52  C   UNL A   1      43.283  29.296  33.537  1.00  0.00     0.034 A 
ATOM     53  C   UNL A   1      42.906  26.753  27.103  1.00  0.00     0.034 A 
ATOM     54  C   UNL A   1      44.190  30.188  32.853  1.00  0.00     0.049 A 
ATOM     55  C   UNL A   1      44.103  27.053  27.925  1.00  0.00     0.074 A 
ATOM     56  C   UNL A   1      44.238  31.548  32.617  1.00  0.00     0.029 A 
ATOM     57  N   UNL A   1      45.027  29.617  31.924  1.00  0.00    -0.354 N 
ATOM     58  N   UNL A   1      44.792  28.155  27.805  1.00  0.00    -0.248 NA
ATOM     59  C   UNL A   1      44.235  26.364  29.197  1.00  0.00     0.031 C 
ATOM     60  C   UNL A   1      44.699  31.668  31.272  1.00  0.00     0.029 A 
ATOM     61  C   UNL A   1      44.986  30.388  30.794  1.00  0.00     0.049 A 
ATOM     62  H   UNL A   1      45.561  28.799  32.048  1.00  0.00     0.167 HD
ATOM     63  C   UNL A   1      45.047  28.541  29.115  1.00  0.00     0.074 A 
ATOM     64  C   UNL A   1      44.778  27.348  29.921  1.00  0.00     0.031 C 
ATOM     65  C   UNL A   1      45.146  29.861  29.455  1.00  0.00     0.034 A 
BRANCH  52  66
ATOM     66  C   UNL A   1      43.810  28.117  34.331  1.00  0.00     0.023 A 
ATOM     67  C   UNL A   1      44.574  28.420  35.482  1.00  0.00     0.012 A 
ATOM     68  C   UNL A   1      43.851  26.779  33.875  1.00  0.00     0.148 A 
ATOM     69  C   UNL A   1      45.392  27.465  36.095  1.00  0.00     0.002 A 
ATOM     70  C   UNL A   1      44.604  25.814  34.534  1.00  0.00     0.091 A 
ATOM     71  F   UNL A   1      43.277  26.440  32.720  1.00  0.00    -0.205 F 
ATOM     72  C   UNL A   1      45.405  26.159  35.623  1.00  0.00     0.022 A 
BRANCH  70  73
ATOM     73  S   UNL A   1      44.626  24.103  33.985  1.00  0.00     0.127 S 
ATOM     74  O   UNL A   1      45.021  24.253  32.588  1.00  0.00    -0.237 OA
ATOM     75  O   UNL A   1      45.645  23.522  34.860  1.00  0.00    -0.237 OA
ATOM     76  O   UNL A   1      43.280  23.598  34.223  1.00  0.00    -0.744 OA
ENDBRANCH  70  73
ENDBRANCH  52  66
BRANCH  53  77
ATOM     77  C   UNL A   1      42.745  25.465  26.384  1.00  0.00     0.023 A 
ATOM     78  C   UNL A   1      43.435  25.238  25.175  1.00  0.00     0.012 A 
ATOM     79  C   UNL A   1      42.142  24.357  27.021  1.00  0.00     0.148 A 
ATOM     80  C   UNL A   1      43.544  23.948  24.636  1.00  0.00     0.002 A 
ATOM     81  C   UNL A   1      42.241  23.080  26.474  1.00  0.00     0.091 A 
ATOM     82  F   UNL A   1      41.552  24.538  28.210  1.00  0.00    -0.205 F 
ATOM     83  C   UNL A   1      42.955  22.869  25.288  1.00  0.00     0.022 A 
BRANCH  81  84
ATOM     84  S   UNL A   1      41.512  21.641  27.271  1.00  0.00     0.127 S 
ATOM     85  O   UNL A   1      42.437  21.412  28.383  1.00  0.00    -0.237 OA
ATOM     86  O   UNL A   1      40.200  22.147  27.662  1.00  0.00    -0.237 OA
ATOM     87  O   UNL A   1      41.515  20.583  26.267  1.00  0.00    -0.744 OA
ENDBRANCH  81  84
ENDBRANCH  53  77
BRANCH  65  88
ATOM     88  C   UNL A   1      45.184  30.880  28.340  1.00  0.00     0.023 A 
ATOM     89  C   UNL A   1      44.016  31.452  27.791  1.00  0.00     0.012 A 
ATOM     90  C   UNL A   1      46.430  31.409  27.971  1.00  0.00     0.148 A 
ATOM     91  C   UNL A   1      44.089  32.513  26.882  1.00  0.00     0.002 A 
ATOM     92  C   UNL A   1      46.500  32.489  27.100  1.00  0.00     0.091 A 
ATOM     93  F   UNL A   1      47.531  30.865  28.510  1.00  0.00    -0.205 F 
ATOM     94  C   UNL A   1      45.333  33.039  26.545  1.00  0.00     0.022 A 
BRANCH  92  95
ATOM     95  S   UNL A   1      48.058  33.290  26.721  1.00  0.00     0.127 S 
ATOM     96  O   UNL A   1      48.904  32.155  26.362  1.00  0.00    -0.237 OA
ATOM     97  O   UNL A   1      47.699  34.166  25.605  1.00  0.00    -0.237 OA
ATOM     98  O   UNL A   1      48.449  34.003  27.932  1.00  0.00    -0.744 OA
ENDBRANCH  92  95
ENDBRANCH  65  88
ENDBRANCH  39  40
ENDBRANCH  31  34
ENDBRANCH  29  30
ENDBRANCH  28  29
ENDBRANCH   1  28
TORSDOF 18
ENDMDL
