MODEL 1
REMARK VINA RESULT:     -11.9      0.000      0.000
REMARK SMILES CO[C@@H]1C[C@H](C(=O)NCCCCNC(=O)c2ccc(-c3c4nc(c(-c5cccc(S(=O)(=O)[O-])c5F)c5ccc([nH]5)c(-c5cccc(S(=O)(=O)[O-])c5F)c5nc(c(-c6cccc(S(=O)(=O)[O-])c6F)c6ccc3[nH]6)C=C5)C=C4)cc2)N(C(=O)c2ccn(C)c(=O)c2)C1
REMARK SMILES IDX 11 1 10 2 9 3 8 4 6 5 7 6 5 8 3 9 4 10 90 11 79 12 2 13 1 14
REMARK SMILES IDX 80 15 81 16 82 17 83 18 89 19 84 20 87 21 85 22 88 23 86 24
REMARK SMILES IDX 12 25 13 26 14 27 15 29 16 30 17 31 78 32 18 33 77 34 19 35
REMARK SMILES IDX 20 36 21 37 71 38 22 39 76 40 70 41 72 42 23 43 75 44 69 45
REMARK SMILES IDX 68 46 24 48 56 49 36 50 55 51 37 52 40 53 54 54 73 55 38 56
REMARK SMILES IDX 39 57 53 59 74 60 41 61 25 62 26 63 34 64 27 65 29 66 35 67
REMARK SMILES IDX 28 68 30 69 31 70 32 71 33 72 57 73 58 74 66 75 59 76 61 77
REMARK SMILES IDX 67 78 60 79 62 80 63 81 64 82 65 83 42 84 43 85 51 86 44 87
REMARK SMILES IDX 46 88 52 89 45 90 47 91 48 92 49 93 50 94
REMARK H PARENT 8 7 13 28 72 47 40 58
REMARK Flexibility Score: inf
ROOT
ATOM      1  C   UNL A   1      38.070  20.405  24.997  1.00  0.00     0.023 C 
ENDROOT
BRANCH   1   2
ATOM      2  C   UNL A   1      37.410  21.698  24.537  1.00  0.00     0.023 C 
BRANCH   2   3
ATOM      3  C   UNL A   1      36.962  22.645  25.655  1.00  0.00     0.116 C 
BRANCH   3   4
ATOM      4  N   UNL A   1      36.000  22.010  26.537  1.00  0.00    -0.354 N 
ATOM      5  C   UNL A   1      34.648  21.995  26.592  1.00  0.00     0.242 C 
ATOM      6  O   UNL A   1      34.166  21.457  27.601  1.00  0.00    -0.273 OA
ATOM      7  H   UNL A   1      36.423  21.477  27.248  1.00  0.00     0.163 HD
BRANCH   5   8
ATOM      8  C   UNL A   1      33.665  22.662  25.594  1.00  0.00     0.177 C 
ATOM      9  C   UNL A   1      32.160  21.054  24.651  1.00  0.00     0.139 C 
ATOM     10  C   UNL A   1      33.427  21.842  24.329  1.00  0.00     0.069 C 
ATOM     11  C   UNL A   1      31.337  22.059  25.492  1.00  0.00     0.152 C 
ATOM     12  N   UNL A   1      32.308  23.048  25.971  1.00  0.00    -0.324 N 
BRANCH   9  13
ATOM     13  O   UNL A   1      32.409  19.870  25.400  1.00  0.00    -0.380 OA
ATOM     14  C   UNL A   1      33.210  18.899  24.730  1.00  0.00     0.195 C 
ENDBRANCH   9  13
BRANCH  12  15
ATOM     15  C   UNL A   1      31.881  24.323  26.309  1.00  0.00     0.254 C 
ATOM     16  O   UNL A   1      31.082  24.553  27.211  1.00  0.00    -0.269 OA
BRANCH  15  17
ATOM     17  C   UNL A   1      32.302  25.419  25.388  1.00  0.00     0.046 A 
ATOM     18  C   UNL A   1      33.355  26.349  25.709  1.00  0.00     0.032 A 
ATOM     19  C   UNL A   1      31.654  25.493  24.214  1.00  0.00     0.085 A 
ATOM     20  C   UNL A   1      33.758  27.231  24.784  1.00  0.00     0.089 A 
ATOM     21  C   UNL A   1      32.109  26.448  23.174  1.00  0.00     0.251 A 
ATOM     22  N   UNL A   1      33.175  27.272  23.526  1.00  0.00    -0.319 N 
ATOM     23  O   UNL A   1      31.549  26.438  22.082  1.00  0.00    -0.269 OA
ATOM     24  C   UNL A   1      33.691  28.213  22.545  1.00  0.00     0.153 C 
ENDBRANCH  15  17
ENDBRANCH  12  15
ENDBRANCH   5   8
ENDBRANCH   3   4
ENDBRANCH   2   3
ENDBRANCH   1   2
BRANCH   1  25
ATOM     25  C   UNL A   1      39.265  20.609  25.908  1.00  0.00     0.116 C 
BRANCH  25  26
ATOM     26  N   UNL A   1      40.127  19.436  25.991  1.00  0.00    -0.352 N 
ATOM     27  C   UNL A   1      41.497  19.384  26.134  1.00  0.00     0.251 C 
ATOM     28  H   UNL A   1      39.669  18.565  25.936  1.00  0.00     0.163 HD
ATOM     29  O   UNL A   1      42.099  18.327  26.045  1.00  0.00    -0.269 OA
BRANCH  27  30
ATOM     30  C   UNL A   1      42.219  20.650  26.372  1.00  0.00     0.039 A 
ATOM     31  C   UNL A   1      42.577  21.453  25.287  1.00  0.00     0.014 A 
ATOM     32  C   UNL A   1      42.454  21.075  27.681  1.00  0.00     0.014 A 
ATOM     33  C   UNL A   1      43.106  22.723  25.525  1.00  0.00     0.010 A 
ATOM     34  C   UNL A   1      42.863  22.377  27.911  1.00  0.00     0.010 A 
ATOM     35  C   UNL A   1      43.216  23.207  26.838  1.00  0.00    -0.014 A 
BRANCH  35  36
ATOM     36  C   UNL A   1      43.727  24.569  27.132  1.00  0.00     0.031 A 
ATOM     37  C   UNL A   1      42.776  25.616  27.649  1.00  0.00     0.074 A 
ATOM     38  C   UNL A   1      45.002  24.887  26.835  1.00  0.00     0.049 A 
ATOM     39  N   UNL A   1      42.989  26.886  27.872  1.00  0.00    -0.248 NA
ATOM     40  C   UNL A   1      41.387  25.192  27.901  1.00  0.00     0.031 C 
ATOM     41  C   UNL A   1      45.988  23.983  26.237  1.00  0.00     0.029 A 
ATOM     42  N   UNL A   1      45.682  26.071  26.972  1.00  0.00    -0.354 N 
ATOM     43  C   UNL A   1      41.758  27.415  28.238  1.00  0.00     0.074 A 
ATOM     44  C   UNL A   1      40.791  26.346  28.154  1.00  0.00     0.031 C 
ATOM     45  C   UNL A   1      47.148  24.640  26.073  1.00  0.00     0.029 A 
ATOM     46  C   UNL A   1      46.983  26.017  26.527  1.00  0.00     0.049 A 
ATOM     47  H   UNL A   1      45.277  26.883  27.352  1.00  0.00     0.167 HD
ATOM     48  C   UNL A   1      41.464  28.671  28.651  1.00  0.00     0.034 A 
ATOM     49  C   UNL A   1      47.932  26.973  26.493  1.00  0.00     0.034 A 
ATOM     50  C   UNL A   1      42.447  29.705  28.805  1.00  0.00     0.049 A 
ATOM     51  C   UNL A   1      47.601  28.338  27.034  1.00  0.00     0.074 A 
ATOM     52  C   UNL A   1      42.283  30.979  29.315  1.00  0.00     0.029 A 
ATOM     53  N   UNL A   1      43.784  29.579  28.455  1.00  0.00    -0.354 N 
ATOM     54  N   UNL A   1      46.469  28.776  27.530  1.00  0.00    -0.248 NA
ATOM     55  C   UNL A   1      48.687  29.328  27.051  1.00  0.00     0.031 C 
ATOM     56  C   UNL A   1      43.521  31.629  29.260  1.00  0.00     0.029 A 
ATOM     57  C   UNL A   1      44.458  30.751  28.736  1.00  0.00     0.049 A 
ATOM     58  H   UNL A   1      44.190  28.772  28.063  1.00  0.00     0.167 HD
ATOM     59  C   UNL A   1      46.714  30.077  27.951  1.00  0.00     0.074 A 
ATOM     60  C   UNL A   1      48.111  30.348  27.672  1.00  0.00     0.031 C 
ATOM     61  C   UNL A   1      45.861  30.975  28.504  1.00  0.00     0.034 A 
BRANCH  48  62
ATOM     62  C   UNL A   1      40.037  28.965  29.032  1.00  0.00     0.023 A 
ATOM     63  C   UNL A   1      39.078  29.189  28.021  1.00  0.00     0.012 A 
ATOM     64  C   UNL A   1      39.633  28.983  30.380  1.00  0.00     0.148 A 
ATOM     65  C   UNL A   1      37.752  29.467  28.346  1.00  0.00     0.002 A 
ATOM     66  C   UNL A   1      38.299  29.213  30.695  1.00  0.00     0.091 A 
ATOM     67  F   UNL A   1      40.561  28.793  31.329  1.00  0.00    -0.205 F 
ATOM     68  C   UNL A   1      37.360  29.469  29.680  1.00  0.00     0.022 A 
BRANCH  66  69
ATOM     69  S   UNL A   1      37.675  29.156  32.379  1.00  0.00     0.127 S 
ATOM     70  O   UNL A   1      38.575  30.085  33.059  1.00  0.00    -0.237 OA
ATOM     71  O   UNL A   1      36.305  29.645  32.215  1.00  0.00    -0.237 OA
ATOM     72  O   UNL A   1      37.778  27.766  32.799  1.00  0.00    -0.744 OA
ENDBRANCH  66  69
ENDBRANCH  48  62
BRANCH  49  73
ATOM     73  C   UNL A   1      49.306  26.648  26.010  1.00  0.00     0.023 A 
ATOM     74  C   UNL A   1      50.149  25.856  26.814  1.00  0.00     0.012 A 
ATOM     75  C   UNL A   1      49.771  27.092  24.758  1.00  0.00     0.148 A 
ATOM     76  C   UNL A   1      51.443  25.541  26.396  1.00  0.00     0.002 A 
ATOM     77  C   UNL A   1      51.042  26.729  24.323  1.00  0.00     0.091 A 
ATOM     78  F   UNL A   1      48.960  27.853  24.010  1.00  0.00    -0.205 F 
ATOM     79  C   UNL A   1      51.887  25.969  25.148  1.00  0.00     0.022 A 
BRANCH  77  80
ATOM     80  S   UNL A   1      51.648  27.125  22.679  1.00  0.00     0.127 S 
ATOM     81  O   UNL A   1      51.885  28.561  22.785  1.00  0.00    -0.237 OA
ATOM     82  O   UNL A   1      52.856  26.305  22.594  1.00  0.00    -0.237 OA
ATOM     83  O   UNL A   1      50.587  26.722  21.765  1.00  0.00    -0.744 OA
ENDBRANCH  77  80
ENDBRANCH  49  73
BRANCH  61  84
ATOM     84  C   UNL A   1      46.416  32.321  28.882  1.00  0.00     0.023 A 
ATOM     85  C   UNL A   1      46.985  32.511  30.157  1.00  0.00     0.012 A 
ATOM     86  C   UNL A   1      46.452  33.370  27.942  1.00  0.00     0.148 A 
ATOM     87  C   UNL A   1      47.552  33.736  30.503  1.00  0.00     0.002 A 
ATOM     88  C   UNL A   1      47.064  34.571  28.276  1.00  0.00     0.091 A 
ATOM     89  F   UNL A   1      45.889  33.172  26.742  1.00  0.00    -0.205 F 
ATOM     90  C   UNL A   1      47.603  34.761  29.559  1.00  0.00     0.022 A 
BRANCH  88  91
ATOM     91  S   UNL A   1      47.265  35.907  27.092  1.00  0.00     0.127 S 
ATOM     92  O   UNL A   1      45.886  36.361  26.919  1.00  0.00    -0.237 OA
ATOM     93  O   UNL A   1      48.128  36.839  27.819  1.00  0.00    -0.237 OA
ATOM     94  O   UNL A   1      47.881  35.309  25.915  1.00  0.00    -0.744 OA
ENDBRANCH  88  91
ENDBRANCH  61  84
ENDBRANCH  35  36
ENDBRANCH  27  30
ENDBRANCH  25  26
ENDBRANCH   1  25
TORSDOF 17
ENDMDL
MODEL 2
REMARK VINA RESULT:     -11.8      2.350      8.269
REMARK SMILES CO[C@@H]1C[C@H](C(=O)NCCCCNC(=O)c2ccc(-c3c4nc(c(-c5cccc(S(=O)(=O)[O-])c5F)c5ccc([nH]5)c(-c5cccc(S(=O)(=O)[O-])c5F)c5nc(c(-c6cccc(S(=O)(=O)[O-])c6F)c6ccc3[nH]6)C=C5)C=C4)cc2)N(C(=O)c2ccn(C)c(=O)c2)C1
REMARK SMILES IDX 11 1 10 2 9 3 8 4 6 5 7 6 5 8 3 9 4 10 90 11 79 12 2 13 1 14
REMARK SMILES IDX 80 15 81 16 82 17 83 18 89 19 84 20 87 21 85 22 88 23 86 24
REMARK SMILES IDX 12 25 13 26 14 27 15 29 16 30 17 31 78 32 18 33 77 34 19 35
REMARK SMILES IDX 20 36 21 37 71 38 22 39 76 40 70 41 72 42 23 43 75 44 69 45
REMARK SMILES IDX 68 46 24 48 56 49 36 50 55 51 37 52 40 53 54 54 73 55 38 56
REMARK SMILES IDX 39 57 53 59 74 60 41 61 25 62 26 63 34 64 27 65 29 66 35 67
REMARK SMILES IDX 28 68 30 69 31 70 32 71 33 72 57 73 58 74 66 75 59 76 61 77
REMARK SMILES IDX 67 78 60 79 62 80 63 81 64 82 65 83 42 84 43 85 51 86 44 87
REMARK SMILES IDX 46 88 52 89 45 90 47 91 48 92 49 93 50 94
REMARK H PARENT 8 7 13 28 72 47 40 58
REMARK Flexibility Score: inf
ROOT
ATOM      1  C   UNL A   1      36.757  21.804  23.943  1.00  0.00     0.023 C 
ENDROOT
BRANCH   1   2
ATOM      2  C   UNL A   1      36.215  23.166  23.534  1.00  0.00     0.023 C 
BRANCH   2   3
ATOM      3  C   UNL A   1      35.201  23.791  24.498  1.00  0.00     0.116 C 
BRANCH   3   4
ATOM      4  N   UNL A   1      34.418  24.826  23.851  1.00  0.00    -0.354 N 
ATOM      5  C   UNL A   1      33.366  25.585  24.239  1.00  0.00     0.242 C 
ATOM      6  O   UNL A   1      32.851  26.272  23.343  1.00  0.00    -0.273 OA
ATOM      7  H   UNL A   1      34.715  25.017  22.932  1.00  0.00     0.163 HD
BRANCH   5   8
ATOM      8  C   UNL A   1      32.691  25.601  25.636  1.00  0.00     0.177 C 
ATOM      9  C   UNL A   1      31.160  27.432  25.840  1.00  0.00     0.139 C 
ATOM     10  C   UNL A   1      32.567  26.997  26.240  1.00  0.00     0.069 C 
ATOM     11  C   UNL A   1      30.357  26.112  25.925  1.00  0.00     0.152 C 
ATOM     12  N   UNL A   1      31.361  25.045  25.868  1.00  0.00    -0.324 N 
BRANCH   9  13
ATOM     13  O   UNL A   1      31.091  27.970  24.525  1.00  0.00    -0.380 OA
ATOM     14  C   UNL A   1      31.017  29.393  24.466  1.00  0.00     0.195 C 
ENDBRANCH   9  13
BRANCH  12  15
ATOM     15  C   UNL A   1      31.074  23.803  26.411  1.00  0.00     0.254 C 
ATOM     16  O   UNL A   1      30.268  23.630  27.321  1.00  0.00    -0.269 OA
BRANCH  15  17
ATOM     17  C   UNL A   1      31.940  22.674  25.959  1.00  0.00     0.046 A 
ATOM     18  C   UNL A   1      32.943  22.073  26.801  1.00  0.00     0.032 A 
ATOM     19  C   UNL A   1      31.728  22.223  24.712  1.00  0.00     0.085 A 
ATOM     20  C   UNL A   1      33.599  20.987  26.368  1.00  0.00     0.089 A 
ATOM     21  C   UNL A   1      32.429  21.007  24.234  1.00  0.00     0.251 A 
ATOM     22  N   UNL A   1      33.337  20.437  25.123  1.00  0.00    -0.319 N 
ATOM     23  O   UNL A   1      32.157  20.571  23.119  1.00  0.00    -0.269 OA
ATOM     24  C   UNL A   1      34.040  19.226  24.730  1.00  0.00     0.153 C 
ENDBRANCH  15  17
ENDBRANCH  12  15
ENDBRANCH   5   8
ENDBRANCH   3   4
ENDBRANCH   2   3
ENDBRANCH   1   2
BRANCH   1  25
ATOM     25  C   UNL A   1      37.218  21.728  25.385  1.00  0.00     0.116 C 
BRANCH  25  26
ATOM     26  N   UNL A   1      38.214  20.687  25.613  1.00  0.00    -0.352 N 
ATOM     27  C   UNL A   1      39.488  20.813  26.123  1.00  0.00     0.251 C 
ATOM     28  H   UNL A   1      37.940  19.773  25.368  1.00  0.00     0.163 HD
ATOM     29  O   UNL A   1      40.262  19.871  26.123  1.00  0.00    -0.269 OA
BRANCH  27  30
ATOM     30  C   UNL A   1      39.900  22.132  26.647  1.00  0.00     0.039 A 
ATOM     31  C   UNL A   1      40.898  22.205  27.619  1.00  0.00     0.014 A 
ATOM     32  C   UNL A   1      39.353  23.293  26.098  1.00  0.00     0.014 A 
ATOM     33  C   UNL A   1      41.401  23.455  27.987  1.00  0.00     0.010 A 
ATOM     34  C   UNL A   1      39.937  24.517  26.374  1.00  0.00     0.010 A 
ATOM     35  C   UNL A   1      40.950  24.616  27.338  1.00  0.00    -0.014 A 
BRANCH  35  36
ATOM     36  C   UNL A   1      41.492  25.958  27.664  1.00  0.00     0.031 A 
ATOM     37  C   UNL A   1      42.913  26.289  27.288  1.00  0.00     0.074 A 
ATOM     38  C   UNL A   1      40.754  26.825  28.384  1.00  0.00     0.049 A 
ATOM     39  N   UNL A   1      43.612  27.357  27.565  1.00  0.00    -0.248 NA
ATOM     40  C   UNL A   1      43.663  25.262  26.542  1.00  0.00     0.031 C 
ATOM     41  C   UNL A   1      39.403  26.576  28.892  1.00  0.00     0.029 A 
ATOM     42  N   UNL A   1      41.048  28.085  28.839  1.00  0.00    -0.354 N 
ATOM     43  C   UNL A   1      44.889  27.108  27.077  1.00  0.00     0.074 A 
ATOM     44  C   UNL A   1      44.886  25.769  26.535  1.00  0.00     0.031 C 
ATOM     45  C   UNL A   1      38.980  27.653  29.573  1.00  0.00     0.029 A 
ATOM     46  C   UNL A   1      40.038  28.658  29.576  1.00  0.00     0.049 A 
ATOM     47  H   UNL A   1      41.903  28.537  28.656  1.00  0.00     0.167 HD
ATOM     48  C   UNL A   1      45.959  27.935  27.041  1.00  0.00     0.034 A 
ATOM     49  C   UNL A   1      39.976  29.860  30.183  1.00  0.00     0.034 A 
ATOM     50  C   UNL A   1      45.929  29.290  27.513  1.00  0.00     0.049 A 
ATOM     51  C   UNL A   1      41.151  30.793  30.058  1.00  0.00     0.074 A 
ATOM     52  C   UNL A   1      46.918  30.253  27.431  1.00  0.00     0.029 A 
ATOM     53  N   UNL A   1      44.846  29.878  28.150  1.00  0.00    -0.354 N 
ATOM     54  N   UNL A   1      42.296  30.600  29.448  1.00  0.00    -0.248 NA
ATOM     55  C   UNL A   1      41.011  32.123  30.666  1.00  0.00     0.031 C 
ATOM     56  C   UNL A   1      46.436  31.420  28.033  1.00  0.00     0.029 A 
ATOM     57  C   UNL A   1      45.141  31.190  28.469  1.00  0.00     0.049 A 
ATOM     58  H   UNL A   1      43.994  29.426  28.346  1.00  0.00     0.167 HD
ATOM     59  C   UNL A   1      42.998  31.793  29.567  1.00  0.00     0.074 A 
ATOM     60  C   UNL A   1      42.138  32.711  30.288  1.00  0.00     0.031 C 
ATOM     61  C   UNL A   1      44.246  32.100  29.134  1.00  0.00     0.034 A 
BRANCH  48  62
ATOM     62  C   UNL A   1      47.223  27.417  26.407  1.00  0.00     0.023 A 
ATOM     63  C   UNL A   1      47.508  27.732  25.061  1.00  0.00     0.012 A 
ATOM     64  C   UNL A   1      48.147  26.653  27.145  1.00  0.00     0.148 A 
ATOM     65  C   UNL A   1      48.668  27.261  24.449  1.00  0.00     0.002 A 
ATOM     66  C   UNL A   1      49.325  26.229  26.542  1.00  0.00     0.091 A 
ATOM     67  F   UNL A   1      47.850  26.342  28.415  1.00  0.00    -0.205 F 
ATOM     68  C   UNL A   1      49.581  26.520  25.192  1.00  0.00     0.022 A 
BRANCH  66  69
ATOM     69  S   UNL A   1      50.605  25.336  27.434  1.00  0.00     0.127 S 
ATOM     70  O   UNL A   1      49.858  24.194  27.959  1.00  0.00    -0.237 OA
ATOM     71  O   UNL A   1      51.549  25.006  26.365  1.00  0.00    -0.237 OA
ATOM     72  O   UNL A   1      51.117  26.260  28.435  1.00  0.00    -0.744 OA
ENDBRANCH  66  69
ENDBRANCH  48  62
BRANCH  49  73
ATOM     73  C   UNL A   1      38.729  30.282  30.884  1.00  0.00     0.023 A 
ATOM     74  C   UNL A   1      38.583  30.002  32.257  1.00  0.00     0.012 A 
ATOM     75  C   UNL A   1      37.705  30.978  30.214  1.00  0.00     0.148 A 
ATOM     76  C   UNL A   1      37.425  30.374  32.942  1.00  0.00     0.002 A 
ATOM     77  C   UNL A   1      36.577  31.395  30.915  1.00  0.00     0.091 A 
ATOM     78  F   UNL A   1      37.856  31.228  28.906  1.00  0.00    -0.205 F 
ATOM     79  C   UNL A   1      36.427  31.078  32.275  1.00  0.00     0.022 A 
BRANCH  77  80
ATOM     80  S   UNL A   1      35.303  32.418  30.169  1.00  0.00     0.127 S 
ATOM     81  O   UNL A   1      34.394  32.630  31.292  1.00  0.00    -0.237 OA
ATOM     82  O   UNL A   1      36.063  33.598  29.758  1.00  0.00    -0.237 OA
ATOM     83  O   UNL A   1      34.772  31.633  29.062  1.00  0.00    -0.744 OA
ENDBRANCH  77  80
ENDBRANCH  49  73
BRANCH  61  84
ATOM     84  C   UNL A   1      44.747  33.496  29.391  1.00  0.00     0.023 A 
ATOM     85  C   UNL A   1      45.418  33.788  30.594  1.00  0.00     0.012 A 
ATOM     86  C   UNL A   1      44.630  34.490  28.400  1.00  0.00     0.148 A 
ATOM     87  C   UNL A   1      45.936  35.062  30.822  1.00  0.00     0.002 A 
ATOM     88  C   UNL A   1      45.193  35.742  28.614  1.00  0.00     0.091 A 
ATOM     89  F   UNL A   1      43.972  34.194  27.271  1.00  0.00    -0.205 F 
ATOM     90  C   UNL A   1      45.836  36.034  29.828  1.00  0.00     0.022 A 
BRANCH  88  91
ATOM     91  S   UNL A   1      45.200  37.019  27.351  1.00  0.00     0.127 S 
ATOM     92  O   UNL A   1      43.770  37.204  27.106  1.00  0.00    -0.237 OA
ATOM     93  O   UNL A   1      45.850  38.134  28.040  1.00  0.00    -0.237 OA
ATOM     94  O   UNL A   1      45.961  36.474  26.234  1.00  0.00    -0.744 OA
ENDBRANCH  88  91
ENDBRANCH  61  84
ENDBRANCH  35  36
ENDBRANCH  27  30
ENDBRANCH  25  26
ENDBRANCH   1  25
TORSDOF 17
ENDMDL
MODEL 3
REMARK VINA RESULT:     -11.7      5.904      9.050
REMARK SMILES CO[C@@H]1C[C@H](C(=O)NCCCCNC(=O)c2ccc(-c3c4nc(c(-c5cccc(S(=O)(=O)[O-])c5F)c5ccc([nH]5)c(-c5cccc(S(=O)(=O)[O-])c5F)c5nc(c(-c6cccc(S(=O)(=O)[O-])c6F)c6ccc3[nH]6)C=C5)C=C4)cc2)N(C(=O)c2ccn(C)c(=O)c2)C1
REMARK SMILES IDX 11 1 10 2 9 3 8 4 6 5 7 6 5 8 3 9 4 10 90 11 79 12 2 13 1 14
REMARK SMILES IDX 80 15 81 16 82 17 83 18 89 19 84 20 87 21 85 22 88 23 86 24
REMARK SMILES IDX 12 25 13 26 14 27 15 29 16 30 17 31 78 32 18 33 77 34 19 35
REMARK SMILES IDX 20 36 21 37 71 38 22 39 76 40 70 41 72 42 23 43 75 44 69 45
REMARK SMILES IDX 68 46 24 48 56 49 36 50 55 51 37 52 40 53 54 54 73 55 38 56
REMARK SMILES IDX 39 57 53 59 74 60 41 61 25 62 26 63 34 64 27 65 29 66 35 67
REMARK SMILES IDX 28 68 30 69 31 70 32 71 33 72 57 73 58 74 66 75 59 76 61 77
REMARK SMILES IDX 67 78 60 79 62 80 63 81 64 82 65 83 42 84 43 85 51 86 44 87
REMARK SMILES IDX 46 88 52 89 45 90 47 91 48 92 49 93 50 94
REMARK H PARENT 8 7 13 28 72 47 40 58
REMARK Flexibility Score: inf
ROOT
ATOM      1  C   UNL A   1      31.714  30.957  26.525  1.00  0.00     0.023 C 
ENDROOT
BRANCH   1   2
ATOM      2  C   UNL A   1      31.636  29.494  26.109  1.00  0.00     0.023 C 
BRANCH   2   3
ATOM      3  C   UNL A   1      31.796  28.476  27.243  1.00  0.00     0.116 C 
BRANCH   3   4
ATOM      4  N   UNL A   1      30.921  27.334  27.061  1.00  0.00    -0.354 N 
ATOM      5  C   UNL A   1      30.797  26.392  26.096  1.00  0.00     0.242 C 
ATOM      6  O   UNL A   1      29.812  25.646  26.208  1.00  0.00    -0.273 OA
ATOM      7  H   UNL A   1      30.278  27.219  27.798  1.00  0.00     0.163 HD
BRANCH   5   8
ATOM      8  C   UNL A   1      31.687  26.225  24.835  1.00  0.00     0.177 C 
ATOM      9  C   UNL A   1      32.321  23.938  24.517  1.00  0.00     0.139 C 
ATOM     10  C   UNL A   1      32.858  25.269  25.036  1.00  0.00     0.069 C 
ATOM     11  C   UNL A   1      31.433  24.369  23.326  1.00  0.00     0.152 C 
ATOM     12  N   UNL A   1      31.148  25.790  23.550  1.00  0.00    -0.324 N 
BRANCH   9  13
ATOM     13  O   UNL A   1      31.549  23.230  25.479  1.00  0.00    -0.380 OA
ATOM     14  C   UNL A   1      32.223  22.969  26.709  1.00  0.00     0.195 C 
ENDBRANCH   9  13
BRANCH  12  15
ATOM     15  C   UNL A   1      30.827  26.604  22.476  1.00  0.00     0.254 C 
ATOM     16  O   UNL A   1      31.280  26.446  21.346  1.00  0.00    -0.269 OA
BRANCH  15  17
ATOM     17  C   UNL A   1      30.028  27.824  22.795  1.00  0.00     0.046 A 
ATOM     18  C   UNL A   1      30.585  29.153  22.763  1.00  0.00     0.032 A 
ATOM     19  C   UNL A   1      28.736  27.627  23.103  1.00  0.00     0.085 A 
ATOM     20  C   UNL A   1      29.778  30.207  22.944  1.00  0.00     0.089 A 
ATOM     21  C   UNL A   1      27.830  28.788  23.278  1.00  0.00     0.251 A 
ATOM     22  N   UNL A   1      28.420  30.044  23.169  1.00  0.00    -0.319 N 
ATOM     23  O   UNL A   1      26.637  28.577  23.481  1.00  0.00    -0.269 OA
ATOM     24  C   UNL A   1      27.584  31.227  23.303  1.00  0.00     0.153 C 
ENDBRANCH  15  17
ENDBRANCH  12  15
ENDBRANCH   5   8
ENDBRANCH   3   4
ENDBRANCH   2   3
ENDBRANCH   1   2
BRANCH   1  25
ATOM     25  C   UNL A   1      33.004  31.334  27.225  1.00  0.00     0.116 C 
BRANCH  25  26
ATOM     26  N   UNL A   1      33.134  32.770  27.447  1.00  0.00    -0.352 N 
ATOM     27  C   UNL A   1      34.147  33.452  28.087  1.00  0.00     0.251 C 
ATOM     28  H   UNL A   1      32.402  33.325  27.094  1.00  0.00     0.163 HD
ATOM     29  O   UNL A   1      34.050  34.644  28.323  1.00  0.00    -0.269 OA
BRANCH  27  30
ATOM     30  C   UNL A   1      35.343  32.691  28.504  1.00  0.00     0.039 A 
ATOM     31  C   UNL A   1      36.600  33.294  28.435  1.00  0.00     0.014 A 
ATOM     32  C   UNL A   1      35.193  31.415  29.049  1.00  0.00     0.014 A 
ATOM     33  C   UNL A   1      37.702  32.636  28.985  1.00  0.00     0.010 A 
ATOM     34  C   UNL A   1      36.261  30.823  29.700  1.00  0.00     0.010 A 
ATOM     35  C   UNL A   1      37.532  31.413  29.655  1.00  0.00    -0.014 A 
BRANCH  35  36
ATOM     36  C   UNL A   1      38.667  30.705  30.296  1.00  0.00     0.031 A 
ATOM     37  C   UNL A   1      39.066  31.075  31.701  1.00  0.00     0.074 A 
ATOM     38  C   UNL A   1      39.396  29.822  29.586  1.00  0.00     0.049 A 
ATOM     39  N   UNL A   1      40.082  30.656  32.407  1.00  0.00    -0.248 NA
ATOM     40  C   UNL A   1      38.241  32.085  32.386  1.00  0.00     0.031 C 
ATOM     41  C   UNL A   1      39.166  29.460  28.186  1.00  0.00     0.029 A 
ATOM     42  N   UNL A   1      40.498  29.086  29.939  1.00  0.00    -0.354 N 
ATOM     43  C   UNL A   1      40.047  31.387  33.588  1.00  0.00     0.074 A 
ATOM     44  C   UNL A   1      38.943  32.313  33.485  1.00  0.00     0.031 C 
ATOM     45  C   UNL A   1      40.088  28.560  27.804  1.00  0.00     0.029 A 
ATOM     46  C   UNL A   1      40.991  28.303  28.921  1.00  0.00     0.049 A 
ATOM     47  H   UNL A   1      40.901  29.117  30.837  1.00  0.00     0.167 HD
ATOM     48  C   UNL A   1      40.834  31.268  34.683  1.00  0.00     0.034 A 
ATOM     49  C   UNL A   1      42.050  27.470  28.897  1.00  0.00     0.034 A 
ATOM     50  C   UNL A   1      41.878  30.291  34.805  1.00  0.00     0.049 A 
ATOM     51  C   UNL A   1      42.860  27.297  30.154  1.00  0.00     0.074 A 
ATOM     52  C   UNL A   1      42.668  30.008  35.904  1.00  0.00     0.029 A 
ATOM     53  N   UNL A   1      42.274  29.430  33.792  1.00  0.00    -0.354 N 
ATOM     54  N   UNL A   1      42.710  27.879  31.319  1.00  0.00    -0.248 NA
ATOM     55  C   UNL A   1      43.958  26.321  30.107  1.00  0.00     0.031 C 
ATOM     56  C   UNL A   1      43.552  28.984  35.549  1.00  0.00     0.029 A 
ATOM     57  C   UNL A   1      43.297  28.615  34.237  1.00  0.00     0.049 A 
ATOM     58  H   UNL A   1      41.882  29.405  32.889  1.00  0.00     0.167 HD
ATOM     59  C   UNL A   1      43.667  27.317  32.154  1.00  0.00     0.074 A 
ATOM     60  C   UNL A   1      44.378  26.330  31.365  1.00  0.00     0.031 C 
ATOM     61  C   UNL A   1      43.947  27.599  33.450  1.00  0.00     0.034 A 
BRANCH  48  62
ATOM     62  C   UNL A   1      40.543  32.169  35.854  1.00  0.00     0.023 A 
ATOM     63  C   UNL A   1      41.387  33.271  36.112  1.00  0.00     0.012 A 
ATOM     64  C   UNL A   1      39.422  31.953  36.677  1.00  0.00     0.148 A 
ATOM     65  C   UNL A   1      41.143  34.117  37.191  1.00  0.00     0.002 A 
ATOM     66  C   UNL A   1      39.157  32.831  37.722  1.00  0.00     0.091 A 
ATOM     67  F   UNL A   1      38.645  30.888  36.433  1.00  0.00    -0.205 F 
ATOM     68  C   UNL A   1      40.024  33.904  37.989  1.00  0.00     0.022 A 
BRANCH  66  69
ATOM     69  S   UNL A   1      37.697  32.692  38.760  1.00  0.00     0.127 S 
ATOM     70  O   UNL A   1      36.634  33.057  37.825  1.00  0.00    -0.237 OA
ATOM     71  O   UNL A   1      37.720  31.277  39.134  1.00  0.00    -0.237 OA
ATOM     72  O   UNL A   1      37.901  33.616  39.866  1.00  0.00    -0.744 OA
ENDBRANCH  66  69
ENDBRANCH  48  62
BRANCH  49  73
ATOM     73  C   UNL A   1      42.351  26.675  27.671  1.00  0.00     0.023 A 
ATOM     74  C   UNL A   1      43.014  27.295  26.594  1.00  0.00     0.012 A 
ATOM     75  C   UNL A   1      42.012  25.312  27.574  1.00  0.00     0.148 A 
ATOM     76  C   UNL A   1      43.302  26.583  25.429  1.00  0.00     0.002 A 
ATOM     77  C   UNL A   1      42.351  24.594  26.432  1.00  0.00     0.091 A 
ATOM     78  F   UNL A   1      41.373  24.741  28.604  1.00  0.00    -0.205 F 
ATOM     79  C   UNL A   1      42.980  25.232  25.350  1.00  0.00     0.022 A 
BRANCH  77  80
ATOM     80  S   UNL A   1      42.092  22.821  26.296  1.00  0.00     0.127 S 
ATOM     81  O   UNL A   1      42.857  22.319  27.433  1.00  0.00    -0.237 OA
ATOM     82  O   UNL A   1      40.639  22.715  26.435  1.00  0.00    -0.237 OA
ATOM     83  O   UNL A   1      42.596  22.453  24.979  1.00  0.00    -0.744 OA
ENDBRANCH  77  80
ENDBRANCH  49  73
BRANCH  61  84
ATOM     84  C   UNL A   1      45.040  26.808  34.115  1.00  0.00     0.023 A 
ATOM     85  C   UNL A   1      46.372  27.262  34.052  1.00  0.00     0.012 A 
ATOM     86  C   UNL A   1      44.732  25.663  34.876  1.00  0.00     0.148 A 
ATOM     87  C   UNL A   1      47.387  26.569  34.708  1.00  0.00     0.002 A 
ATOM     88  C   UNL A   1      45.741  25.007  35.569  1.00  0.00     0.091 A 
ATOM     89  F   UNL A   1      43.461  25.239  34.908  1.00  0.00    -0.205 F 
ATOM     90  C   UNL A   1      47.070  25.450  35.477  1.00  0.00     0.022 A 
BRANCH  88  91
ATOM     91  S   UNL A   1      45.409  23.621  36.663  1.00  0.00     0.127 S 
ATOM     92  O   UNL A   1      46.760  23.216  37.048  1.00  0.00    -0.237 OA
ATOM     93  O   UNL A   1      44.632  24.249  37.732  1.00  0.00    -0.237 OA
ATOM     94  O   UNL A   1      44.667  22.652  35.867  1.00  0.00    -0.744 OA
ENDBRANCH  88  91
ENDBRANCH  61  84
ENDBRANCH  35  36
ENDBRANCH  27  30
ENDBRANCH  25  26
ENDBRANCH   1  25
TORSDOF 17
ENDMDL
