MODEL 1
REMARK VINA RESULT:     -10.8      0.000      0.000
REMARK SMILES CCn1ccc([C@@H](C)NC(=O)[C@H](C)n2ccc(C(=O)NCCCCNC(=O)c3ccc(-c4c5nc(c(-c6cccc(S(=O)(=O)[O-])c6F)c6ccc([nH]6)c(-c6cccc(S(=O)(=O)[O-])c6F)c6nc(c(-c7cccc(S(=O)(=O)[O-])c7F)c7ccc4[nH]7)C=C6)C=C5)cc3)n2)n1
REMARK SMILES IDX 21 1 20 2 18 3 19 4 17 6 14 7 15 8 91 9 16 10 12 11 13 12
REMARK SMILES IDX 10 13 9 14 11 16 7 17 8 18 6 19 3 20 4 21 92 22 5 23 2 24
REMARK SMILES IDX 1 25 22 26 23 27 24 28 25 29 26 30 27 32 28 33 29 34 90 35
REMARK SMILES IDX 30 36 89 37 31 38 32 39 33 40 83 41 34 42 88 43 82 44 84 45
REMARK SMILES IDX 35 46 87 47 81 48 80 49 36 51 68 52 48 53 67 54 49 55 52 56
REMARK SMILES IDX 66 57 85 58 50 59 51 60 65 62 86 63 53 64 37 65 38 66 46 67
REMARK SMILES IDX 39 68 41 69 47 70 40 71 42 72 43 73 44 74 45 75 69 76 70 77
REMARK SMILES IDX 78 78 71 79 73 80 79 81 72 82 74 83 75 84 76 85 77 86 54 87
REMARK SMILES IDX 55 88 63 89 56 90 58 91 64 92 57 93 59 94 60 95 61 96 62 97
REMARK H PARENT 20 5 9 15 25 31 84 50 52 61
REMARK Flexibility Score: inf
ROOT
ATOM      1  C   UNL A   1      36.829  21.231  24.898  1.00  0.00     0.116 C 
ENDROOT
BRANCH   1   2
ATOM      2  N   UNL A   1      36.254  19.919  24.667  1.00  0.00    -0.351 N 
ATOM      3  C   UNL A   1      34.967  19.454  24.824  1.00  0.00     0.271 C 
ATOM      4  O   UNL A   1      34.772  18.257  24.604  1.00  0.00    -0.267 OA
ATOM      5  H   UNL A   1      36.894  19.246  24.343  1.00  0.00     0.163 HD
BRANCH   3   6
ATOM      6  C   UNL A   1      33.857  20.339  25.225  1.00  0.00     0.150 A 
ATOM      7  N   UNL A   1      32.612  21.661  26.345  1.00  0.00    -0.260 N 
ATOM      8  C   UNL A   1      32.056  21.654  25.097  1.00  0.00     0.110 A 
ATOM      9  N   UNL A   1      33.663  20.830  26.463  1.00  0.00    -0.167 NA
ATOM     10  C   UNL A   1      32.839  20.815  24.345  1.00  0.00     0.056 A 
BRANCH   7  11
ATOM     11  C   UNL A   1      32.337  22.618  27.428  1.00  0.00     0.193 C 
ATOM     12  C   UNL A   1      33.666  22.960  28.098  1.00  0.00     0.044 C 
BRANCH  11  13
ATOM     13  C   UNL A   1      31.465  23.767  26.900  1.00  0.00     0.245 C 
ATOM     14  N   UNL A   1      31.963  24.966  26.495  1.00  0.00    -0.346 N 
ATOM     15  H   UNL A   1      31.280  25.668  26.402  1.00  0.00     0.164 HD
ATOM     16  O   UNL A   1      30.228  23.717  26.916  1.00  0.00    -0.273 OA
BRANCH  14  17
ATOM     17  C   UNL A   1      33.311  25.414  26.172  1.00  0.00     0.130 C 
ATOM     18  C   UNL A   1      33.368  26.938  26.138  1.00  0.00     0.038 C 
BRANCH  17  19
ATOM     19  C   UNL A   1      33.686  24.793  24.850  1.00  0.00     0.084 A 
ATOM     20  N   UNL A   1      33.549  24.313  22.781  1.00  0.00    -0.273 N 
ATOM     21  C   UNL A   1      34.754  23.808  23.173  1.00  0.00     0.109 A 
ATOM     22  N   UNL A   1      32.870  24.895  23.790  1.00  0.00    -0.176 NA
ATOM     23  C   UNL A   1      34.876  24.104  24.509  1.00  0.00     0.047 A 
BRANCH  20  24
ATOM     24  C   UNL A   1      32.970  24.344  21.448  1.00  0.00     0.141 C 
ATOM     25  C   UNL A   1      32.611  25.724  20.920  1.00  0.00     0.029 C 
ENDBRANCH  20  24
ENDBRANCH  17  19
ENDBRANCH  14  17
ENDBRANCH  11  13
ENDBRANCH   7  11
ENDBRANCH   3   6
ENDBRANCH   1   2
BRANCH   1  26
ATOM     26  C   UNL A   1      38.221  21.139  25.530  1.00  0.00     0.023 C 
BRANCH  26  27
ATOM     27  C   UNL A   1      38.947  19.801  25.317  1.00  0.00     0.023 C 
BRANCH  27  28
ATOM     28  C   UNL A   1      39.992  19.462  26.375  1.00  0.00     0.116 C 
BRANCH  28  29
ATOM     29  N   UNL A   1      41.238  18.954  25.801  1.00  0.00    -0.352 N 
ATOM     30  C   UNL A   1      42.400  19.655  25.533  1.00  0.00     0.251 C 
ATOM     31  H   UNL A   1      41.251  17.996  25.577  1.00  0.00     0.163 HD
ATOM     32  O   UNL A   1      43.202  19.245  24.709  1.00  0.00    -0.269 OA
BRANCH  30  33
ATOM     33  C   UNL A   1      42.661  20.906  26.271  1.00  0.00     0.039 A 
ATOM     34  C   UNL A   1      43.011  22.080  25.599  1.00  0.00     0.014 A 
ATOM     35  C   UNL A   1      42.533  20.890  27.659  1.00  0.00     0.014 A 
ATOM     36  C   UNL A   1      43.144  23.258  26.331  1.00  0.00     0.010 A 
ATOM     37  C   UNL A   1      42.539  22.071  28.361  1.00  0.00     0.010 A 
ATOM     38  C   UNL A   1      42.881  23.252  27.710  1.00  0.00    -0.014 A 
BRANCH  38  39
ATOM     39  C   UNL A   1      42.777  24.509  28.448  1.00  0.00     0.031 A 
ATOM     40  C   UNL A   1      41.541  25.276  28.132  1.00  0.00     0.074 A 
ATOM     41  C   UNL A   1      43.587  24.835  29.480  1.00  0.00     0.049 A 
ATOM     42  N   UNL A   1      41.451  26.381  27.468  1.00  0.00    -0.248 NA
ATOM     43  C   UNL A   1      40.240  24.650  28.418  1.00  0.00     0.031 C 
ATOM     44  C   UNL A   1      44.634  24.002  30.085  1.00  0.00     0.029 A 
ATOM     45  N   UNL A   1      43.552  25.917  30.310  1.00  0.00    -0.354 N 
ATOM     46  C   UNL A   1      40.102  26.729  27.519  1.00  0.00     0.074 A 
ATOM     47  C   UNL A   1      39.397  25.525  27.864  1.00  0.00     0.031 C 
ATOM     48  C   UNL A   1      44.938  24.478  31.312  1.00  0.00     0.029 A 
ATOM     49  C   UNL A   1      44.240  25.734  31.511  1.00  0.00     0.049 A 
ATOM     50  H   UNL A   1      43.083  26.753  30.083  1.00  0.00     0.167 HD
ATOM     51  C   UNL A   1      39.729  28.037  27.610  1.00  0.00     0.034 A 
ATOM     52  C   UNL A   1      44.203  26.530  32.608  1.00  0.00     0.034 A 
ATOM     53  C   UNL A   1      40.833  28.907  27.272  1.00  0.00     0.049 A 
ATOM     54  C   UNL A   1      43.725  27.855  32.161  1.00  0.00     0.074 A 
ATOM     55  C   UNL A   1      41.675  29.067  26.191  1.00  0.00     0.029 A 
ATOM     56  N   UNL A   1      41.448  29.527  28.332  1.00  0.00    -0.354 N 
ATOM     57  N   UNL A   1      44.405  28.638  31.375  1.00  0.00    -0.248 NA
ATOM     58  C   UNL A   1      42.307  28.144  32.266  1.00  0.00     0.031 C 
ATOM     59  C   UNL A   1      42.946  29.390  26.756  1.00  0.00     0.029 A 
ATOM     60  C   UNL A   1      42.799  29.489  28.140  1.00  0.00     0.049 A 
ATOM     61  H   UNL A   1      40.989  29.932  29.103  1.00  0.00     0.167 HD
ATOM     62  C   UNL A   1      43.447  29.174  30.527  1.00  0.00     0.074 A 
ATOM     63  C   UNL A   1      42.174  28.953  31.212  1.00  0.00     0.031 C 
ATOM     64  C   UNL A   1      43.752  29.459  29.228  1.00  0.00     0.034 A 
BRANCH  51  65
ATOM     65  C   UNL A   1      38.564  28.561  28.442  1.00  0.00     0.023 A 
ATOM     66  C   UNL A   1      37.584  29.316  27.751  1.00  0.00     0.012 A 
ATOM     67  C   UNL A   1      38.532  28.634  29.853  1.00  0.00     0.148 A 
ATOM     68  C   UNL A   1      36.703  30.174  28.418  1.00  0.00     0.002 A 
ATOM     69  C   UNL A   1      37.605  29.432  30.517  1.00  0.00     0.091 A 
ATOM     70  F   UNL A   1      39.468  28.032  30.586  1.00  0.00    -0.205 F 
ATOM     71  C   UNL A   1      36.715  30.235  29.803  1.00  0.00     0.022 A 
BRANCH  69  72
ATOM     72  S   UNL A   1      37.544  29.517  32.313  1.00  0.00     0.127 S 
ATOM     73  O   UNL A   1      38.794  30.209  32.612  1.00  0.00    -0.237 OA
ATOM     74  O   UNL A   1      36.329  30.304  32.529  1.00  0.00    -0.237 OA
ATOM     75  O   UNL A   1      37.453  28.138  32.773  1.00  0.00    -0.744 OA
ENDBRANCH  69  72
ENDBRANCH  51  65
BRANCH  52  76
ATOM     76  C   UNL A   1      44.336  26.209  34.050  1.00  0.00     0.023 A 
ATOM     77  C   UNL A   1      43.209  25.755  34.768  1.00  0.00     0.012 A 
ATOM     78  C   UNL A   1      45.607  26.054  34.644  1.00  0.00     0.148 A 
ATOM     79  C   UNL A   1      43.346  25.120  36.008  1.00  0.00     0.002 A 
ATOM     80  C   UNL A   1      45.738  25.427  35.881  1.00  0.00     0.091 A 
ATOM     81  F   UNL A   1      46.691  26.432  33.955  1.00  0.00    -0.205 F 
ATOM     82  C   UNL A   1      44.612  24.944  36.558  1.00  0.00     0.022 A 
BRANCH  80  83
ATOM     83  S   UNL A   1      47.341  25.141  36.644  1.00  0.00     0.127 S 
ATOM     84  O   UNL A   1      48.003  24.296  35.649  1.00  0.00    -0.237 OA
ATOM     85  O   UNL A   1      47.873  26.498  36.746  1.00  0.00    -0.237 OA
ATOM     86  O   UNL A   1      47.065  24.471  37.909  1.00  0.00    -0.744 OA
ENDBRANCH  80  83
ENDBRANCH  52  76
BRANCH  64  87
ATOM     87  C   UNL A   1      45.205  29.531  28.839  1.00  0.00     0.023 A 
ATOM     88  C   UNL A   1      46.010  30.666  29.067  1.00  0.00     0.012 A 
ATOM     89  C   UNL A   1      45.808  28.352  28.371  1.00  0.00     0.148 A 
ATOM     90  C   UNL A   1      47.385  30.628  28.812  1.00  0.00     0.002 A 
ATOM     91  C   UNL A   1      47.180  28.301  28.167  1.00  0.00     0.091 A 
ATOM     92  F   UNL A   1      45.025  27.283  28.156  1.00  0.00    -0.205 F 
ATOM     93  C   UNL A   1      47.972  29.441  28.377  1.00  0.00     0.022 A 
BRANCH  91  94
ATOM     94  S   UNL A   1      48.000  26.768  27.732  1.00  0.00     0.127 S 
ATOM     95  O   UNL A   1      47.476  26.511  26.393  1.00  0.00    -0.237 OA
ATOM     96  O   UNL A   1      49.414  27.144  27.775  1.00  0.00    -0.237 OA
ATOM     97  O   UNL A   1      47.613  25.801  28.753  1.00  0.00    -0.744 OA
ENDBRANCH  91  94
ENDBRANCH  64  87
ENDBRANCH  38  39
ENDBRANCH  30  33
ENDBRANCH  28  29
ENDBRANCH  27  28
ENDBRANCH  26  27
ENDBRANCH   1  26
TORSDOF 19
ENDMDL
MODEL 2
REMARK VINA RESULT:     -10.5      5.503     11.264
REMARK SMILES CCn1ccc([C@@H](C)NC(=O)[C@H](C)n2ccc(C(=O)NCCCCNC(=O)c3ccc(-c4c5nc(c(-c6cccc(S(=O)(=O)[O-])c6F)c6ccc([nH]6)c(-c6cccc(S(=O)(=O)[O-])c6F)c6nc(c(-c7cccc(S(=O)(=O)[O-])c7F)c7ccc4[nH]7)C=C6)C=C5)cc3)n2)n1
REMARK SMILES IDX 21 1 20 2 18 3 19 4 17 6 14 7 15 8 91 9 16 10 12 11 13 12
REMARK SMILES IDX 10 13 9 14 11 16 7 17 8 18 6 19 3 20 4 21 92 22 5 23 2 24
REMARK SMILES IDX 1 25 22 26 23 27 24 28 25 29 26 30 27 32 28 33 29 34 90 35
REMARK SMILES IDX 30 36 89 37 31 38 32 39 33 40 83 41 34 42 88 43 82 44 84 45
REMARK SMILES IDX 35 46 87 47 81 48 80 49 36 51 68 52 48 53 67 54 49 55 52 56
REMARK SMILES IDX 66 57 85 58 50 59 51 60 65 62 86 63 53 64 37 65 38 66 46 67
REMARK SMILES IDX 39 68 41 69 47 70 40 71 42 72 43 73 44 74 45 75 69 76 70 77
REMARK SMILES IDX 78 78 71 79 73 80 79 81 72 82 74 83 75 84 76 85 77 86 54 87
REMARK SMILES IDX 55 88 63 89 56 90 58 91 64 92 57 93 59 94 60 95 61 96 62 97
REMARK H PARENT 20 5 9 15 25 31 84 50 52 61
REMARK Flexibility Score: inf
ROOT
ATOM      1  C   UNL A   1      44.838  27.017  25.353  1.00  0.00     0.116 C 
ENDROOT
BRANCH   1   2
ATOM      2  N   UNL A   1      45.397  27.822  24.284  1.00  0.00    -0.351 N 
ATOM      3  C   UNL A   1      46.703  28.120  23.962  1.00  0.00     0.271 C 
ATOM      4  O   UNL A   1      46.887  28.890  23.017  1.00  0.00    -0.267 OA
ATOM      5  H   UNL A   1      44.728  28.224  23.685  1.00  0.00     0.163 HD
BRANCH   3   6
ATOM      6  C   UNL A   1      47.843  27.542  24.698  1.00  0.00     0.150 A 
ATOM      7  N   UNL A   1      49.134  26.897  26.270  1.00  0.00    -0.260 N 
ATOM      8  C   UNL A   1      49.689  26.363  25.141  1.00  0.00     0.110 A 
ATOM      9  N   UNL A   1      48.055  27.661  26.022  1.00  0.00    -0.167 NA
ATOM     10  C   UNL A   1      48.876  26.755  24.107  1.00  0.00     0.056 A 
BRANCH   7  11
ATOM     11  C   UNL A   1      49.442  26.534  27.662  1.00  0.00     0.193 C 
ATOM     12  C   UNL A   1      48.628  27.447  28.575  1.00  0.00     0.044 C 
BRANCH  11  13
ATOM     13  C   UNL A   1      49.316  25.014  27.844  1.00  0.00     0.245 C 
ATOM     14  N   UNL A   1      48.137  24.340  27.761  1.00  0.00    -0.346 N 
ATOM     15  H   UNL A   1      48.178  23.425  28.120  1.00  0.00     0.164 HD
ATOM     16  O   UNL A   1      50.272  24.310  28.194  1.00  0.00    -0.273 OA
BRANCH  14  17
ATOM     17  C   UNL A   1      46.826  24.711  27.246  1.00  0.00     0.130 C 
ATOM     18  C   UNL A   1      45.787  24.665  28.361  1.00  0.00     0.038 C 
BRANCH  17  19
ATOM     19  C   UNL A   1      46.503  23.763  26.118  1.00  0.00     0.084 A 
ATOM     20  N   UNL A   1      45.754  22.020  25.152  1.00  0.00    -0.273 N 
ATOM     21  C   UNL A   1      46.130  22.845  24.132  1.00  0.00     0.109 A 
ATOM     22  N   UNL A   1      45.994  22.548  26.370  1.00  0.00    -0.176 NA
ATOM     23  C   UNL A   1      46.618  23.986  24.723  1.00  0.00     0.047 A 
BRANCH  20  24
ATOM     24  C   UNL A   1      45.099  20.725  25.075  1.00  0.00     0.141 C 
ATOM     25  C   UNL A   1      43.661  20.685  25.566  1.00  0.00     0.029 C 
ENDBRANCH  20  24
ENDBRANCH  17  19
ENDBRANCH  14  17
ENDBRANCH  11  13
ENDBRANCH   7  11
ENDBRANCH   3   6
ENDBRANCH   1   2
BRANCH   1  26
ATOM     26  C   UNL A   1      43.315  27.157  25.435  1.00  0.00     0.023 C 
BRANCH  26  27
ATOM     27  C   UNL A   1      42.519  25.986  24.837  1.00  0.00     0.023 C 
BRANCH  27  28
ATOM     28  C   UNL A   1      42.962  24.603  25.306  1.00  0.00     0.116 C 
BRANCH  28  29
ATOM     29  N   UNL A   1      41.839  23.751  25.700  1.00  0.00    -0.352 N 
ATOM     30  C   UNL A   1      41.099  23.803  26.866  1.00  0.00     0.251 C 
ATOM     31  H   UNL A   1      41.580  23.054  25.055  1.00  0.00     0.163 HD
ATOM     32  O   UNL A   1      40.480  22.826  27.258  1.00  0.00    -0.269 OA
BRANCH  30  33
ATOM     33  C   UNL A   1      41.058  25.068  27.626  1.00  0.00     0.039 A 
ATOM     34  C   UNL A   1      42.058  25.386  28.548  1.00  0.00     0.014 A 
ATOM     35  C   UNL A   1      40.003  25.947  27.386  1.00  0.00     0.014 A 
ATOM     36  C   UNL A   1      42.031  26.637  29.162  1.00  0.00     0.010 A 
ATOM     37  C   UNL A   1      40.046  27.222  27.892  1.00  0.00     0.010 A 
ATOM     38  C   UNL A   1      41.035  27.562  28.809  1.00  0.00    -0.014 A 
BRANCH  38  39
ATOM     39  C   UNL A   1      41.127  28.952  29.252  1.00  0.00     0.031 A 
ATOM     40  C   UNL A   1      42.350  29.645  28.763  1.00  0.00     0.074 A 
ATOM     41  C   UNL A   1      40.106  29.614  29.841  1.00  0.00     0.049 A 
ATOM     42  N   UNL A   1      43.377  30.009  29.458  1.00  0.00    -0.248 NA
ATOM     43  C   UNL A   1      42.542  29.779  27.309  1.00  0.00     0.031 C 
ATOM     44  C   UNL A   1      38.744  29.119  30.075  1.00  0.00     0.029 A 
ATOM     45  N   UNL A   1      40.016  30.921  30.221  1.00  0.00    -0.354 N 
ATOM     46  C   UNL A   1      44.205  30.683  28.561  1.00  0.00     0.074 A 
ATOM     47  C   UNL A   1      43.779  30.276  27.250  1.00  0.00     0.031 C 
ATOM     48  C   UNL A   1      37.916  30.162  30.298  1.00  0.00     0.029 A 
ATOM     49  C   UNL A   1      38.707  31.374  30.391  1.00  0.00     0.049 A 
ATOM     50  H   UNL A   1      40.805  31.494  30.362  1.00  0.00     0.167 HD
ATOM     51  C   UNL A   1      44.927  31.765  28.967  1.00  0.00     0.034 A 
ATOM     52  C   UNL A   1      38.296  32.657  30.548  1.00  0.00     0.034 A 
ATOM     53  C   UNL A   1      44.987  31.827  30.410  1.00  0.00     0.049 A 
ATOM     54  C   UNL A   1      39.469  33.431  31.004  1.00  0.00     0.074 A 
ATOM     55  C   UNL A   1      45.398  30.985  31.423  1.00  0.00     0.029 A 
ATOM     56  N   UNL A   1      44.181  32.770  31.000  1.00  0.00    -0.354 N 
ATOM     57  N   UNL A   1      40.035  33.264  32.165  1.00  0.00    -0.248 NA
ATOM     58  C   UNL A   1      40.267  34.119  30.007  1.00  0.00     0.031 C 
ATOM     59  C   UNL A   1      44.472  31.204  32.486  1.00  0.00     0.029 A 
ATOM     60  C   UNL A   1      43.595  32.220  32.103  1.00  0.00     0.049 A 
ATOM     61  H   UNL A   1      44.049  33.691  30.679  1.00  0.00     0.167 HD
ATOM     62  C   UNL A   1      41.391  33.367  31.892  1.00  0.00     0.074 A 
ATOM     63  C   UNL A   1      41.464  34.035  30.593  1.00  0.00     0.031 C 
ATOM     64  C   UNL A   1      42.297  32.627  32.595  1.00  0.00     0.034 A 
BRANCH  51  65
ATOM     65  C   UNL A   1      45.175  33.018  28.134  1.00  0.00     0.023 A 
ATOM     66  C   UNL A   1      44.055  33.554  27.452  1.00  0.00     0.012 A 
ATOM     67  C   UNL A   1      46.443  33.499  27.733  1.00  0.00     0.148 A 
ATOM     68  C   UNL A   1      44.195  34.427  26.367  1.00  0.00     0.002 A 
ATOM     69  C   UNL A   1      46.575  34.424  26.703  1.00  0.00     0.091 A 
ATOM     70  F   UNL A   1      47.558  32.988  28.253  1.00  0.00    -0.205 F 
ATOM     71  C   UNL A   1      45.458  34.860  25.989  1.00  0.00     0.022 A 
BRANCH  69  72
ATOM     72  S   UNL A   1      48.182  35.056  26.198  1.00  0.00     0.127 S 
ATOM     73  O   UNL A   1      48.911  35.034  27.462  1.00  0.00    -0.237 OA
ATOM     74  O   UNL A   1      48.599  34.050  25.220  1.00  0.00    -0.237 OA
ATOM     75  O   UNL A   1      47.929  36.374  25.630  1.00  0.00    -0.744 OA
ENDBRANCH  69  72
ENDBRANCH  51  65
BRANCH  52  76
ATOM     76  C   UNL A   1      37.041  33.335  30.142  1.00  0.00     0.023 A 
ATOM     77  C   UNL A   1      36.539  33.145  28.836  1.00  0.00     0.012 A 
ATOM     78  C   UNL A   1      36.183  33.911  31.104  1.00  0.00     0.148 A 
ATOM     79  C   UNL A   1      35.215  33.466  28.514  1.00  0.00     0.002 A 
ATOM     80  C   UNL A   1      34.868  34.234  30.777  1.00  0.00     0.091 A 
ATOM     81  F   UNL A   1      36.626  34.050  32.360  1.00  0.00    -0.205 F 
ATOM     82  C   UNL A   1      34.376  33.998  29.488  1.00  0.00     0.022 A 
BRANCH  80  83
ATOM     83  S   UNL A   1      33.717  34.901  31.987  1.00  0.00     0.127 S 
ATOM     84  O   UNL A   1      33.594  33.790  32.932  1.00  0.00    -0.237 OA
ATOM     85  O   UNL A   1      34.452  36.057  32.497  1.00  0.00    -0.237 OA
ATOM     86  O   UNL A   1      32.496  35.200  31.251  1.00  0.00    -0.744 OA
ENDBRANCH  80  83
ENDBRANCH  52  76
BRANCH  64  87
ATOM     87  C   UNL A   1      41.849  31.996  33.887  1.00  0.00     0.023 A 
ATOM     88  C   UNL A   1      41.261  30.715  33.957  1.00  0.00     0.012 A 
ATOM     89  C   UNL A   1      42.178  32.660  35.080  1.00  0.00     0.148 A 
ATOM     90  C   UNL A   1      40.990  30.123  35.195  1.00  0.00     0.002 A 
ATOM     91  C   UNL A   1      41.955  32.048  36.305  1.00  0.00     0.091 A 
ATOM     92  F   UNL A   1      42.732  33.879  34.992  1.00  0.00    -0.205 F 
ATOM     93  C   UNL A   1      41.351  30.782  36.368  1.00  0.00     0.022 A 
BRANCH  91  94
ATOM     94  S   UNL A   1      42.516  32.796  37.835  1.00  0.00     0.127 S 
ATOM     95  O   UNL A   1      41.732  34.028  37.877  1.00  0.00    -0.237 OA
ATOM     96  O   UNL A   1      42.138  31.794  38.832  1.00  0.00    -0.237 OA
ATOM     97  O   UNL A   1      43.956  32.974  37.690  1.00  0.00    -0.744 OA
ENDBRANCH  91  94
ENDBRANCH  64  87
ENDBRANCH  38  39
ENDBRANCH  30  33
ENDBRANCH  28  29
ENDBRANCH  27  28
ENDBRANCH  26  27
ENDBRANCH   1  26
TORSDOF 19
ENDMDL
MODEL 3
REMARK VINA RESULT:     -10.2      3.710      7.502
REMARK SMILES CCn1ccc([C@@H](C)NC(=O)[C@H](C)n2ccc(C(=O)NCCCCNC(=O)c3ccc(-c4c5nc(c(-c6cccc(S(=O)(=O)[O-])c6F)c6ccc([nH]6)c(-c6cccc(S(=O)(=O)[O-])c6F)c6nc(c(-c7cccc(S(=O)(=O)[O-])c7F)c7ccc4[nH]7)C=C6)C=C5)cc3)n2)n1
REMARK SMILES IDX 21 1 20 2 18 3 19 4 17 6 14 7 15 8 91 9 16 10 12 11 13 12
REMARK SMILES IDX 10 13 9 14 11 16 7 17 8 18 6 19 3 20 4 21 92 22 5 23 2 24
REMARK SMILES IDX 1 25 22 26 23 27 24 28 25 29 26 30 27 32 28 33 29 34 90 35
REMARK SMILES IDX 30 36 89 37 31 38 32 39 33 40 83 41 34 42 88 43 82 44 84 45
REMARK SMILES IDX 35 46 87 47 81 48 80 49 36 51 68 52 48 53 67 54 49 55 52 56
REMARK SMILES IDX 66 57 85 58 50 59 51 60 65 62 86 63 53 64 37 65 38 66 46 67
REMARK SMILES IDX 39 68 41 69 47 70 40 71 42 72 43 73 44 74 45 75 69 76 70 77
REMARK SMILES IDX 78 78 71 79 73 80 79 81 72 82 74 83 75 84 76 85 77 86 54 87
REMARK SMILES IDX 55 88 63 89 56 90 58 91 64 92 57 93 59 94 60 95 61 96 62 97
REMARK H PARENT 20 5 9 15 25 31 84 50 52 61
REMARK Flexibility Score: inf
ROOT
ATOM      1  C   UNL A   1      36.117  21.263  25.668  1.00  0.00     0.116 C 
ENDROOT
BRANCH   1   2
ATOM      2  N   UNL A   1      35.141  21.428  26.727  1.00  0.00    -0.351 N 
ATOM      3  C   UNL A   1      33.815  21.800  26.688  1.00  0.00     0.271 C 
ATOM      4  O   UNL A   1      33.232  21.918  27.767  1.00  0.00    -0.267 OA
ATOM      5  H   UNL A   1      35.485  21.244  27.630  1.00  0.00     0.163 HD
BRANCH   3   6
ATOM      6  C   UNL A   1      33.105  22.039  25.417  1.00  0.00     0.150 A 
ATOM      7  N   UNL A   1      32.091  22.995  23.801  1.00  0.00    -0.260 N 
ATOM      8  C   UNL A   1      32.311  21.724  23.352  1.00  0.00     0.110 A 
ATOM      9  N   UNL A   1      32.507  23.192  25.065  1.00  0.00    -0.167 NA
ATOM     10  C   UNL A   1      32.971  21.080  24.369  1.00  0.00     0.056 A 
BRANCH   7  11
ATOM     11  C   UNL A   1      31.692  24.160  22.994  1.00  0.00     0.193 C 
ATOM     12  C   UNL A   1      30.356  24.665  23.533  1.00  0.00     0.044 C 
BRANCH  11  13
ATOM     13  C   UNL A   1      32.863  25.148  22.892  1.00  0.00     0.245 C 
ATOM     14  N   UNL A   1      32.735  26.490  23.076  1.00  0.00    -0.346 N 
ATOM     15  H   UNL A   1      33.508  27.008  22.758  1.00  0.00     0.164 HD
ATOM     16  O   UNL A   1      33.990  24.799  22.520  1.00  0.00    -0.273 OA
BRANCH  14  17
ATOM     17  C   UNL A   1      31.675  27.308  23.650  1.00  0.00     0.130 C 
ATOM     18  C   UNL A   1      31.361  28.486  22.733  1.00  0.00     0.038 C 
BRANCH  17  19
ATOM     19  C   UNL A   1      32.138  27.748  25.016  1.00  0.00     0.084 A 
ATOM     20  N   UNL A   1      33.224  28.854  26.475  1.00  0.00    -0.273 N 
ATOM     21  C   UNL A   1      32.335  28.111  27.196  1.00  0.00     0.109 A 
ATOM     22  N   UNL A   1      33.139  28.631  25.148  1.00  0.00    -0.176 NA
ATOM     23  C   UNL A   1      31.613  27.384  26.281  1.00  0.00     0.047 A 
BRANCH  20  24
ATOM     24  C   UNL A   1      34.165  29.854  26.951  1.00  0.00     0.141 C 
ATOM     25  C   UNL A   1      35.351  29.319  27.738  1.00  0.00     0.029 C 
ENDBRANCH  20  24
ENDBRANCH  17  19
ENDBRANCH  14  17
ENDBRANCH  11  13
ENDBRANCH   7  11
ENDBRANCH   3   6
ENDBRANCH   1   2
BRANCH   1  26
ATOM     26  C   UNL A   1      36.410  22.584  24.951  1.00  0.00     0.023 C 
BRANCH  26  27
ATOM     27  C   UNL A   1      37.806  23.172  25.212  1.00  0.00     0.023 C 
BRANCH  27  28
ATOM     28  C   UNL A   1      38.491  22.663  26.477  1.00  0.00     0.116 C 
BRANCH  28  29
ATOM     29  N   UNL A   1      39.873  22.243  26.245  1.00  0.00    -0.352 N 
ATOM     30  C   UNL A   1      41.025  22.999  26.367  1.00  0.00     0.251 C 
ATOM     31  H   UNL A   1      39.998  21.307  25.968  1.00  0.00     0.163 HD
ATOM     32  O   UNL A   1      42.045  22.682  25.777  1.00  0.00    -0.269 OA
BRANCH  30  33
ATOM     33  C   UNL A   1      41.002  24.192  27.235  1.00  0.00     0.039 A 
ATOM     34  C   UNL A   1      42.066  24.477  28.096  1.00  0.00     0.014 A 
ATOM     35  C   UNL A   1      39.897  25.039  27.162  1.00  0.00     0.014 A 
ATOM     36  C   UNL A   1      42.045  25.669  28.816  1.00  0.00     0.010 A 
ATOM     37  C   UNL A   1      39.935  26.268  27.773  1.00  0.00     0.010 A 
ATOM     38  C   UNL A   1      40.987  26.575  28.630  1.00  0.00    -0.014 A 
BRANCH  38  39
ATOM     39  C   UNL A   1      41.064  27.925  29.184  1.00  0.00     0.031 A 
ATOM     40  C   UNL A   1      41.998  28.813  28.440  1.00  0.00     0.074 A 
ATOM     41  C   UNL A   1      40.210  28.395  30.120  1.00  0.00     0.049 A 
ATOM     42  N   UNL A   1      43.145  29.256  28.839  1.00  0.00    -0.248 NA
ATOM     43  C   UNL A   1      41.720  29.085  27.020  1.00  0.00     0.031 C 
ATOM     44  C   UNL A   1      39.044  27.704  30.687  1.00  0.00     0.029 A 
ATOM     45  N   UNL A   1      40.104  29.644  30.658  1.00  0.00    -0.354 N 
ATOM     46  C   UNL A   1      43.582  30.104  27.822  1.00  0.00     0.074 A 
ATOM     47  C   UNL A   1      42.820  29.748  26.657  1.00  0.00     0.031 C 
ATOM     48  C   UNL A   1      38.220  28.605  31.263  1.00  0.00     0.029 A 
ATOM     49  C   UNL A   1      38.870  29.901  31.258  1.00  0.00     0.049 A 
ATOM     50  H   UNL A   1      40.833  30.305  30.626  1.00  0.00     0.167 HD
ATOM     51  C   UNL A   1      44.277  31.239  28.120  1.00  0.00     0.034 A 
ATOM     52  C   UNL A   1      38.395  31.100  31.676  1.00  0.00     0.034 A 
ATOM     53  C   UNL A   1      44.769  31.194  29.478  1.00  0.00     0.049 A 
ATOM     54  C   UNL A   1      39.563  31.988  31.853  1.00  0.00     0.074 A 
ATOM     55  C   UNL A   1      45.557  30.338  30.219  1.00  0.00     0.029 A 
ATOM     56  N   UNL A   1      44.089  31.971  30.383  1.00  0.00    -0.354 N 
ATOM     57  N   UNL A   1      40.472  31.807  32.768  1.00  0.00    -0.248 NA
ATOM     58  C   UNL A   1      39.940  32.853  30.751  1.00  0.00     0.031 C 
ATOM     59  C   UNL A   1      44.984  30.347  31.527  1.00  0.00     0.029 A 
ATOM     60  C   UNL A   1      43.930  31.262  31.539  1.00  0.00     0.049 A 
ATOM     61  H   UNL A   1      43.769  32.888  30.225  1.00  0.00     0.167 HD
ATOM     62  C   UNL A   1      41.661  32.114  32.121  1.00  0.00     0.074 A 
ATOM     63  C   UNL A   1      41.261  32.886  30.945  1.00  0.00     0.031 C 
ATOM     64  C   UNL A   1      42.811  31.451  32.436  1.00  0.00     0.034 A 
BRANCH  51  65
ATOM     65  C   UNL A   1      44.124  32.575  27.401  1.00  0.00     0.023 A 
ATOM     66  C   UNL A   1      45.009  32.816  26.321  1.00  0.00     0.012 A 
ATOM     67  C   UNL A   1      43.417  33.696  27.895  1.00  0.00     0.148 A 
ATOM     68  C   UNL A   1      45.258  34.106  25.840  1.00  0.00     0.002 A 
ATOM     69  C   UNL A   1      43.611  34.967  27.363  1.00  0.00     0.091 A 
ATOM     70  F   UNL A   1      42.631  33.585  28.965  1.00  0.00    -0.205 F 
ATOM     71  C   UNL A   1      44.560  35.184  26.364  1.00  0.00     0.022 A 
BRANCH  69  72
ATOM     72  S   UNL A   1      42.703  36.396  27.972  1.00  0.00     0.127 S 
ATOM     73  O   UNL A   1      43.018  37.393  26.953  1.00  0.00    -0.237 OA
ATOM     74  O   UNL A   1      41.327  35.899  27.953  1.00  0.00    -0.237 OA
ATOM     75  O   UNL A   1      43.225  36.659  29.306  1.00  0.00    -0.744 OA
ENDBRANCH  69  72
ENDBRANCH  51  65
BRANCH  52  76
ATOM     76  C   UNL A   1      37.012  31.632  31.739  1.00  0.00     0.023 A 
ATOM     77  C   UNL A   1      36.410  31.858  32.996  1.00  0.00     0.012 A 
ATOM     78  C   UNL A   1      36.401  32.200  30.600  1.00  0.00     0.148 A 
ATOM     79  C   UNL A   1      35.273  32.665  33.121  1.00  0.00     0.002 A 
ATOM     80  C   UNL A   1      35.265  32.997  30.730  1.00  0.00     0.091 A 
ATOM     81  F   UNL A   1      36.987  32.040  29.407  1.00  0.00    -0.205 F 
ATOM     82  C   UNL A   1      34.708  33.245  31.989  1.00  0.00     0.022 A 
BRANCH  80  83
ATOM     83  S   UNL A   1      34.495  33.801  29.317  1.00  0.00     0.127 S 
ATOM     84  O   UNL A   1      33.448  34.600  29.958  1.00  0.00    -0.237 OA
ATOM     85  O   UNL A   1      35.605  34.576  28.769  1.00  0.00    -0.237 OA
ATOM     86  O   UNL A   1      33.994  32.724  28.473  1.00  0.00    -0.744 OA
ENDBRANCH  80  83
ENDBRANCH  52  76
BRANCH  64  87
ATOM     87  C   UNL A   1      42.849  30.665  33.720  1.00  0.00     0.023 A 
ATOM     88  C   UNL A   1      43.116  31.249  34.976  1.00  0.00     0.012 A 
ATOM     89  C   UNL A   1      42.448  29.320  33.666  1.00  0.00     0.148 A 
ATOM     90  C   UNL A   1      43.003  30.497  36.150  1.00  0.00     0.002 A 
ATOM     91  C   UNL A   1      42.287  28.591  34.837  1.00  0.00     0.091 A 
ATOM     92  F   UNL A   1      42.203  28.780  32.462  1.00  0.00    -0.205 F 
ATOM     93  C   UNL A   1      42.574  29.173  36.081  1.00  0.00     0.022 A 
BRANCH  91  94
ATOM     94  S   UNL A   1      41.617  26.929  34.813  1.00  0.00     0.127 S 
ATOM     95  O   UNL A   1      40.476  27.072  33.913  1.00  0.00    -0.237 OA
ATOM     96  O   UNL A   1      42.731  26.148  34.272  1.00  0.00    -0.237 OA
ATOM     97  O   UNL A   1      41.287  26.609  36.198  1.00  0.00    -0.744 OA
ENDBRANCH  91  94
ENDBRANCH  64  87
ENDBRANCH  38  39
ENDBRANCH  30  33
ENDBRANCH  28  29
ENDBRANCH  27  28
ENDBRANCH  26  27
ENDBRANCH   1  26
TORSDOF 19
ENDMDL
