MODEL 1
REMARK VINA RESULT:     -12.6      0.000      0.000
REMARK SMILES Cc1nc(C(=O)NCCCCNC(=O)c2ccc(-c3c4nc(c(-c5cccc(S(=O)(=O)[O-])c5F)c5ccc([nH]5)c(-c5cccc(S(=O)(=O)[O-])c5F)c5nc(c(-c6cccc(S(=O)(=O)[O-])c6F)c6ccc3[nH]6)C=C5)C=C4)cc2)nn1-c1cccc(C(F)(F)F)c1
REMARK SMILES IDX 10 1 9 2 8 3 7 4 5 5 6 6 4 8 1 9 2 10 3 11 79 12 78 13 80 14
REMARK SMILES IDX 81 15 89 16 82 17 84 18 83 19 85 20 86 21 87 22 88 23 11 24
REMARK SMILES IDX 12 25 13 26 14 28 15 29 16 30 77 31 17 32 76 33 18 34 19 35
REMARK SMILES IDX 20 36 70 37 21 38 75 39 69 40 71 41 22 42 74 43 68 44 67 45
REMARK SMILES IDX 23 47 55 48 35 49 54 50 36 51 39 52 53 53 72 54 37 55 38 56
REMARK SMILES IDX 52 58 73 59 40 60 24 61 25 62 33 63 26 64 28 65 34 66 27 67
REMARK SMILES IDX 29 68 30 69 31 70 32 71 56 72 57 73 65 74 58 75 60 76 66 77
REMARK SMILES IDX 59 78 61 79 62 80 63 81 64 82 41 83 42 84 50 85 43 86 45 87
REMARK SMILES IDX 51 88 44 89 46 90 47 91 48 92 49 93
REMARK H PARENT 7 7 12 27 71 46 39 57
REMARK Flexibility Score: inf
ROOT
ATOM      1  C   UNL A   1      37.745  19.690  24.707  1.00  0.00     0.023 C 
ENDROOT
BRANCH   1   2
ATOM      2  C   UNL A   1      36.411  20.401  24.973  1.00  0.00     0.023 C 
BRANCH   2   3
ATOM      3  C   UNL A   1      36.486  21.709  25.772  1.00  0.00     0.116 C 
BRANCH   3   4
ATOM      4  N   UNL A   1      35.503  21.769  26.842  1.00  0.00    -0.349 N 
ATOM      5  C   UNL A   1      34.370  22.554  26.994  1.00  0.00     0.290 C 
ATOM      6  O   UNL A   1      33.818  22.529  28.098  1.00  0.00    -0.266 OA
ATOM      7  H   UNL A   1      35.670  21.144  27.584  1.00  0.00     0.163 HD
BRANCH   5   8
ATOM      8  C   UNL A   1      33.894  23.436  25.902  1.00  0.00     0.239 A 
ATOM      9  C   UNL A   1      32.015  24.184  22.953  1.00  0.00     0.090 C 
ATOM     10  C   UNL A   1      32.734  24.125  24.247  1.00  0.00     0.130 A 
ATOM     11  N   UNL A   1      32.943  23.044  24.970  1.00  0.00    -0.207 NA
ATOM     12  N   UNL A   1      33.430  25.171  24.810  1.00  0.00    -0.217 N 
ATOM     13  N   UNL A   1      34.323  24.693  25.694  1.00  0.00    -0.140 NA
BRANCH  12  14
ATOM     14  C   UNL A   1      33.218  26.568  24.744  1.00  0.00     0.067 A 
ATOM     15  C   UNL A   1      33.697  27.272  23.633  1.00  0.00     0.028 A 
ATOM     16  C   UNL A   1      32.686  27.258  25.842  1.00  0.00     0.041 A 
ATOM     17  C   UNL A   1      33.597  28.661  23.593  1.00  0.00     0.003 A 
ATOM     18  C   UNL A   1      32.639  28.663  25.829  1.00  0.00     0.058 A 
ATOM     19  C   UNL A   1      33.074  29.352  24.685  1.00  0.00     0.013 A 
BRANCH  18  20
ATOM     20  C   UNL A   1      32.178  29.441  27.038  1.00  0.00     0.416 C 
ATOM     21  F   UNL A   1      31.497  28.668  27.930  1.00  0.00    -0.166 F 
ATOM     22  F   UNL A   1      33.214  29.987  27.734  1.00  0.00    -0.166 F 
ATOM     23  F   UNL A   1      31.346  30.477  26.736  1.00  0.00    -0.166 F 
ENDBRANCH  18  20
ENDBRANCH  12  14
ENDBRANCH   5   8
ENDBRANCH   3   4
ENDBRANCH   2   3
ENDBRANCH   1   2
BRANCH   1  24
ATOM     24  C   UNL A   1      38.901  20.160  25.578  1.00  0.00     0.116 C 
BRANCH  24  25
ATOM     25  N   UNL A   1      39.944  19.144  25.775  1.00  0.00    -0.352 N 
ATOM     26  C   UNL A   1      41.299  19.338  26.013  1.00  0.00     0.251 C 
ATOM     27  H   UNL A   1      39.644  18.207  25.731  1.00  0.00     0.163 HD
ATOM     28  O   UNL A   1      42.110  18.456  25.793  1.00  0.00    -0.269 OA
BRANCH  26  29
ATOM     29  C   UNL A   1      41.730  20.637  26.565  1.00  0.00     0.039 A 
ATOM     30  C   UNL A   1      42.356  21.620  25.789  1.00  0.00     0.014 A 
ATOM     31  C   UNL A   1      41.458  20.865  27.908  1.00  0.00     0.014 A 
ATOM     32  C   UNL A   1      42.632  22.855  26.374  1.00  0.00     0.010 A 
ATOM     33  C   UNL A   1      41.512  22.134  28.403  1.00  0.00     0.010 A 
ATOM     34  C   UNL A   1      42.194  23.102  27.683  1.00  0.00    -0.014 A 
BRANCH  34  35
ATOM     35  C   UNL A   1      42.333  24.401  28.324  1.00  0.00     0.031 A 
ATOM     36  C   UNL A   1      41.155  25.286  28.136  1.00  0.00     0.074 A 
ATOM     37  C   UNL A   1      43.313  24.645  29.226  1.00  0.00     0.049 A 
ATOM     38  N   UNL A   1      41.092  26.370  27.436  1.00  0.00    -0.248 NA
ATOM     39  C   UNL A   1      39.847  24.823  28.628  1.00  0.00     0.031 C 
ATOM     40  C   UNL A   1      44.311  23.703  29.756  1.00  0.00     0.029 A 
ATOM     41  N   UNL A   1      43.518  25.744  29.997  1.00  0.00    -0.354 N 
ATOM     42  C   UNL A   1      39.804  26.862  27.636  1.00  0.00     0.074 A 
ATOM     43  C   UNL A   1      39.032  25.760  28.138  1.00  0.00     0.031 C 
ATOM     44  C   UNL A   1      44.798  24.173  30.926  1.00  0.00     0.029 A 
ATOM     45  C   UNL A   1      44.280  25.509  31.142  1.00  0.00     0.049 A 
ATOM     46  H   UNL A   1      43.158  26.632  29.768  1.00  0.00     0.167 HD
ATOM     47  C   UNL A   1      39.566  28.205  27.662  1.00  0.00     0.034 A 
ATOM     48  C   UNL A   1      44.407  26.333  32.215  1.00  0.00     0.034 A 
ATOM     49  C   UNL A   1      40.699  28.938  27.147  1.00  0.00     0.049 A 
ATOM     50  C   UNL A   1      43.978  27.681  31.777  1.00  0.00     0.074 A 
ATOM     51  C   UNL A   1      41.427  28.909  25.973  1.00  0.00     0.029 A 
ATOM     52  N   UNL A   1      41.502  29.566  28.071  1.00  0.00    -0.354 N 
ATOM     53  N   UNL A   1      44.627  28.389  30.895  1.00  0.00    -0.248 NA
ATOM     54  C   UNL A   1      42.577  28.030  31.959  1.00  0.00     0.031 C 
ATOM     55  C   UNL A   1      42.785  29.048  26.387  1.00  0.00     0.029 A 
ATOM     56  C   UNL A   1      42.800  29.254  27.767  1.00  0.00     0.049 A 
ATOM     57  H   UNL A   1      41.199  30.135  28.815  1.00  0.00     0.167 HD
ATOM     58  C   UNL A   1      43.628  28.917  30.086  1.00  0.00     0.074 A 
ATOM     59  C   UNL A   1      42.389  28.747  30.847  1.00  0.00     0.031 C 
ATOM     60  C   UNL A   1      43.846  29.150  28.758  1.00  0.00     0.034 A 
BRANCH  47  61
ATOM     61  C   UNL A   1      38.514  28.896  28.507  1.00  0.00     0.023 A 
ATOM     62  C   UNL A   1      37.707  29.858  27.855  1.00  0.00     0.012 A 
ATOM     63  C   UNL A   1      38.455  28.874  29.920  1.00  0.00     0.148 A 
ATOM     64  C   UNL A   1      36.953  30.797  28.569  1.00  0.00     0.002 A 
ATOM     65  C   UNL A   1      37.643  29.757  30.623  1.00  0.00     0.091 A 
ATOM     66  F   UNL A   1      39.277  28.090  30.619  1.00  0.00    -0.205 F 
ATOM     67  C   UNL A   1      36.919  30.746  29.955  1.00  0.00     0.022 A 
BRANCH  65  68
ATOM     68  S   UNL A   1      37.523  29.705  32.417  1.00  0.00     0.127 S 
ATOM     69  O   UNL A   1      38.770  30.354  32.811  1.00  0.00    -0.237 OA
ATOM     70  O   UNL A   1      36.311  30.489  32.656  1.00  0.00    -0.237 OA
ATOM     71  O   UNL A   1      37.399  28.294  32.763  1.00  0.00    -0.744 OA
ENDBRANCH  65  68
ENDBRANCH  47  61
BRANCH  48  72
ATOM     72  C   UNL A   1      44.608  26.018  33.653  1.00  0.00     0.023 A 
ATOM     73  C   UNL A   1      45.916  25.973  34.181  1.00  0.00     0.012 A 
ATOM     74  C   UNL A   1      43.530  26.058  34.564  1.00  0.00     0.148 A 
ATOM     75  C   UNL A   1      46.144  26.012  35.562  1.00  0.00     0.002 A 
ATOM     76  C   UNL A   1      43.761  26.090  35.938  1.00  0.00     0.091 A 
ATOM     77  F   UNL A   1      42.284  26.164  34.084  1.00  0.00    -0.205 F 
ATOM     78  C   UNL A   1      45.067  26.082  36.441  1.00  0.00     0.022 A 
BRANCH  76  79
ATOM     79  S   UNL A   1      42.417  26.215  37.127  1.00  0.00     0.127 S 
ATOM     80  O   UNL A   1      43.141  26.261  38.398  1.00  0.00    -0.237 OA
ATOM     81  O   UNL A   1      41.786  27.471  36.733  1.00  0.00    -0.237 OA
ATOM     82  O   UNL A   1      41.615  25.013  36.937  1.00  0.00    -0.744 OA
ENDBRANCH  76  79
ENDBRANCH  48  72
BRANCH  60  83
ATOM     83  C   UNL A   1      45.257  29.069  28.232  1.00  0.00     0.023 A 
ATOM     84  C   UNL A   1      45.833  27.875  27.750  1.00  0.00     0.012 A 
ATOM     85  C   UNL A   1      45.957  30.274  28.064  1.00  0.00     0.148 A 
ATOM     86  C   UNL A   1      47.090  27.884  27.134  1.00  0.00     0.002 A 
ATOM     87  C   UNL A   1      47.180  30.288  27.409  1.00  0.00     0.091 A 
ATOM     88  F   UNL A   1      45.397  31.403  28.529  1.00  0.00    -0.205 F 
ATOM     89  C   UNL A   1      47.756  29.094  26.951  1.00  0.00     0.022 A 
BRANCH  87  90
ATOM     90  S   UNL A   1      48.013  31.832  27.041  1.00  0.00     0.127 S 
ATOM     91  O   UNL A   1      47.079  32.467  26.114  1.00  0.00    -0.237 OA
ATOM     92  O   UNL A   1      48.098  32.470  28.356  1.00  0.00    -0.237 OA
ATOM     93  O   UNL A   1      49.306  31.461  26.480  1.00  0.00    -0.744 OA
ENDBRANCH  87  90
ENDBRANCH  60  83
ENDBRANCH  34  35
ENDBRANCH  26  29
ENDBRANCH  24  25
ENDBRANCH   1  24
TORSDOF 16
ENDMDL
MODEL 2
REMARK VINA RESULT:     -12.6      1.515      1.866
REMARK SMILES Cc1nc(C(=O)NCCCCNC(=O)c2ccc(-c3c4nc(c(-c5cccc(S(=O)(=O)[O-])c5F)c5ccc([nH]5)c(-c5cccc(S(=O)(=O)[O-])c5F)c5nc(c(-c6cccc(S(=O)(=O)[O-])c6F)c6ccc3[nH]6)C=C5)C=C4)cc2)nn1-c1cccc(C(F)(F)F)c1
REMARK SMILES IDX 10 1 9 2 8 3 7 4 5 5 6 6 4 8 1 9 2 10 3 11 79 12 78 13 80 14
REMARK SMILES IDX 81 15 89 16 82 17 84 18 83 19 85 20 86 21 87 22 88 23 11 24
REMARK SMILES IDX 12 25 13 26 14 28 15 29 16 30 77 31 17 32 76 33 18 34 19 35
REMARK SMILES IDX 20 36 70 37 21 38 75 39 69 40 71 41 22 42 74 43 68 44 67 45
REMARK SMILES IDX 23 47 55 48 35 49 54 50 36 51 39 52 53 53 72 54 37 55 38 56
REMARK SMILES IDX 52 58 73 59 40 60 24 61 25 62 33 63 26 64 28 65 34 66 27 67
REMARK SMILES IDX 29 68 30 69 31 70 32 71 56 72 57 73 65 74 58 75 60 76 66 77
REMARK SMILES IDX 59 78 61 79 62 80 63 81 64 82 41 83 42 84 50 85 43 86 45 87
REMARK SMILES IDX 51 88 44 89 46 90 47 91 48 92 49 93
REMARK H PARENT 7 7 12 27 71 46 39 57
REMARK Flexibility Score: inf
ROOT
ATOM      1  C   UNL A   1      37.522  19.836  24.826  1.00  0.00     0.023 C 
ENDROOT
BRANCH   1   2
ATOM      2  C   UNL A   1      36.382  20.862  24.751  1.00  0.00     0.023 C 
BRANCH   2   3
ATOM      3  C   UNL A   1      34.962  20.315  24.952  1.00  0.00     0.116 C 
BRANCH   3   4
ATOM      4  N   UNL A   1      34.415  20.647  26.257  1.00  0.00    -0.349 N 
ATOM      5  C   UNL A   1      33.669  21.737  26.681  1.00  0.00     0.290 C 
ATOM      6  O   UNL A   1      33.496  21.855  27.897  1.00  0.00    -0.266 OA
ATOM      7  H   UNL A   1      34.604  19.984  26.960  1.00  0.00     0.163 HD
BRANCH   5   8
ATOM      8  C   UNL A   1      33.170  22.747  25.718  1.00  0.00     0.239 A 
ATOM      9  C   UNL A   1      30.814  24.085  23.385  1.00  0.00     0.090 C 
ATOM     10  C   UNL A   1      31.828  23.786  24.423  1.00  0.00     0.130 A 
ATOM     11  N   UNL A   1      31.919  22.672  25.120  1.00  0.00    -0.207 NA
ATOM     12  N   UNL A   1      32.925  24.570  24.701  1.00  0.00    -0.217 N 
ATOM     13  N   UNL A   1      33.860  23.831  25.323  1.00  0.00    -0.140 NA
BRANCH  12  14
ATOM     14  C   UNL A   1      33.110  25.970  24.615  1.00  0.00     0.067 A 
ATOM     15  C   UNL A   1      33.465  26.530  23.382  1.00  0.00     0.028 A 
ATOM     16  C   UNL A   1      33.099  26.761  25.773  1.00  0.00     0.041 A 
ATOM     17  C   UNL A   1      33.758  27.888  23.293  1.00  0.00     0.003 A 
ATOM     18  C   UNL A   1      33.452  28.119  25.696  1.00  0.00     0.058 A 
ATOM     19  C   UNL A   1      33.755  28.677  24.443  1.00  0.00     0.013 A 
BRANCH  18  20
ATOM     20  C   UNL A   1      33.561  28.970  26.938  1.00  0.00     0.416 C 
ATOM     21  F   UNL A   1      33.653  30.300  26.655  1.00  0.00    -0.166 F 
ATOM     22  F   UNL A   1      32.481  28.837  27.758  1.00  0.00    -0.166 F 
ATOM     23  F   UNL A   1      34.649  28.680  27.705  1.00  0.00    -0.166 F 
ENDBRANCH  18  20
ENDBRANCH  12  14
ENDBRANCH   5   8
ENDBRANCH   3   4
ENDBRANCH   2   3
ENDBRANCH   1   2
BRANCH   1  24
ATOM     24  C   UNL A   1      38.755  20.309  25.584  1.00  0.00     0.116 C 
BRANCH  24  25
ATOM     25  N   UNL A   1      39.775  19.266  25.761  1.00  0.00    -0.352 N 
ATOM     26  C   UNL A   1      41.136  19.426  25.991  1.00  0.00     0.251 C 
ATOM     27  H   UNL A   1      39.453  18.337  25.710  1.00  0.00     0.163 HD
ATOM     28  O   UNL A   1      41.925  18.529  25.754  1.00  0.00    -0.269 OA
BRANCH  26  29
ATOM     29  C   UNL A   1      41.602  20.710  26.552  1.00  0.00     0.039 A 
ATOM     30  C   UNL A   1      42.311  21.653  25.801  1.00  0.00     0.014 A 
ATOM     31  C   UNL A   1      41.275  20.964  27.878  1.00  0.00     0.014 A 
ATOM     32  C   UNL A   1      42.618  22.880  26.389  1.00  0.00     0.010 A 
ATOM     33  C   UNL A   1      41.366  22.233  28.365  1.00  0.00     0.010 A 
ATOM     34  C   UNL A   1      42.128  23.160  27.673  1.00  0.00    -0.014 A 
BRANCH  34  35
ATOM     35  C   UNL A   1      42.298  24.458  28.309  1.00  0.00     0.031 A 
ATOM     36  C   UNL A   1      41.135  25.365  28.132  1.00  0.00     0.074 A 
ATOM     37  C   UNL A   1      43.292  24.686  29.199  1.00  0.00     0.049 A 
ATOM     38  N   UNL A   1      41.084  26.448  27.430  1.00  0.00    -0.248 NA
ATOM     39  C   UNL A   1      39.824  24.926  28.639  1.00  0.00     0.031 C 
ATOM     40  C   UNL A   1      44.278  23.727  29.720  1.00  0.00     0.029 A 
ATOM     41  N   UNL A   1      43.526  25.783  29.966  1.00  0.00    -0.354 N 
ATOM     42  C   UNL A   1      39.808  26.965  27.643  1.00  0.00     0.074 A 
ATOM     43  C   UNL A   1      39.021  25.877  28.156  1.00  0.00     0.031 C 
ATOM     44  C   UNL A   1      44.787  24.190  30.884  1.00  0.00     0.029 A 
ATOM     45  C   UNL A   1      44.296  25.536  31.103  1.00  0.00     0.049 A 
ATOM     46  H   UNL A   1      43.180  26.676  29.739  1.00  0.00     0.167 HD
ATOM     47  C   UNL A   1      39.595  28.311  27.668  1.00  0.00     0.034 A 
ATOM     48  C   UNL A   1      44.450  26.359  32.173  1.00  0.00     0.034 A 
ATOM     49  C   UNL A   1      40.736  29.023  27.140  1.00  0.00     0.049 A 
ATOM     50  C   UNL A   1      44.041  27.714  31.736  1.00  0.00     0.074 A 
ATOM     51  C   UNL A   1      41.451  28.978  25.958  1.00  0.00     0.029 A 
ATOM     52  N   UNL A   1      41.560  29.637  28.053  1.00  0.00    -0.354 N 
ATOM     53  N   UNL A   1      44.693  28.408  30.846  1.00  0.00    -0.248 NA
ATOM     54  C   UNL A   1      42.649  28.090  31.933  1.00  0.00     0.031 C 
ATOM     55  C   UNL A   1      42.815  29.092  26.357  1.00  0.00     0.029 A 
ATOM     56  C   UNL A   1      42.848  29.301  27.736  1.00  0.00     0.049 A 
ATOM     57  H   UNL A   1      41.276  30.213  28.800  1.00  0.00     0.167 HD
ATOM     58  C   UNL A   1      43.696  28.953  30.047  1.00  0.00     0.074 A 
ATOM     59  C   UNL A   1      42.462  28.807  30.821  1.00  0.00     0.031 C 
ATOM     60  C   UNL A   1      43.903  29.180  28.716  1.00  0.00     0.034 A 
BRANCH  47  61
ATOM     61  C   UNL A   1      38.565  29.023  28.524  1.00  0.00     0.023 A 
ATOM     62  C   UNL A   1      37.747  29.977  27.871  1.00  0.00     0.012 A 
ATOM     63  C   UNL A   1      38.538  29.029  29.938  1.00  0.00     0.148 A 
ATOM     64  C   UNL A   1      37.014  30.932  28.583  1.00  0.00     0.002 A 
ATOM     65  C   UNL A   1      37.745  29.930  30.641  1.00  0.00     0.091 A 
ATOM     66  F   UNL A   1      39.372  28.256  30.633  1.00  0.00    -0.205 F 
ATOM     67  C   UNL A   1      37.011  30.908  29.970  1.00  0.00     0.022 A 
BRANCH  65  68
ATOM     68  S   UNL A   1      37.666  29.913  32.438  1.00  0.00     0.127 S 
ATOM     69  O   UNL A   1      37.176  28.562  32.695  1.00  0.00    -0.237 OA
ATOM     70  O   UNL A   1      39.065  30.146  32.798  1.00  0.00    -0.237 OA
ATOM     71  O   UNL A   1      36.767  31.001  32.804  1.00  0.00    -0.744 OA
ENDBRANCH  65  68
ENDBRANCH  47  61
BRANCH  48  72
ATOM     72  C   UNL A   1      44.660  26.043  33.609  1.00  0.00     0.023 A 
ATOM     73  C   UNL A   1      45.974  25.964  34.120  1.00  0.00     0.012 A 
ATOM     74  C   UNL A   1      43.596  26.116  34.534  1.00  0.00     0.148 A 
ATOM     75  C   UNL A   1      46.220  26.001  35.499  1.00  0.00     0.002 A 
ATOM     76  C   UNL A   1      43.845  26.147  35.904  1.00  0.00     0.091 A 
ATOM     77  F   UNL A   1      42.347  26.255  34.070  1.00  0.00    -0.205 F 
ATOM     78  C   UNL A   1      45.157  26.103  36.391  1.00  0.00     0.022 A 
BRANCH  76  79
ATOM     79  S   UNL A   1      42.521  26.313  37.110  1.00  0.00     0.127 S 
ATOM     80  O   UNL A   1      41.902  27.576  36.708  1.00  0.00    -0.237 OA
ATOM     81  O   UNL A   1      41.720  25.123  36.840  1.00  0.00    -0.237 OA
ATOM     82  O   UNL A   1      43.180  26.355  38.410  1.00  0.00    -0.744 OA
ENDBRANCH  76  79
ENDBRANCH  48  72
BRANCH  60  83
ATOM     83  C   UNL A   1      45.307  29.071  28.175  1.00  0.00     0.023 A 
ATOM     84  C   UNL A   1      46.258  30.107  28.285  1.00  0.00     0.012 A 
ATOM     85  C   UNL A   1      45.721  27.819  27.694  1.00  0.00     0.148 A 
ATOM     86  C   UNL A   1      47.588  29.900  27.902  1.00  0.00     0.002 A 
ATOM     87  C   UNL A   1      47.051  27.603  27.361  1.00  0.00     0.091 A 
ATOM     88  F   UNL A   1      44.805  26.843  27.592  1.00  0.00    -0.205 F 
ATOM     89  C   UNL A   1      47.988  28.643  27.454  1.00  0.00     0.022 A 
BRANCH  87  90
ATOM     90  S   UNL A   1      47.633  25.971  26.900  1.00  0.00     0.127 S 
ATOM     91  O   UNL A   1      47.213  25.165  28.043  1.00  0.00    -0.237 OA
ATOM     92  O   UNL A   1      46.897  25.709  25.662  1.00  0.00    -0.237 OA
ATOM     93  O   UNL A   1      49.073  26.102  26.714  1.00  0.00    -0.744 OA
ENDBRANCH  87  90
ENDBRANCH  60  83
ENDBRANCH  34  35
ENDBRANCH  26  29
ENDBRANCH  24  25
ENDBRANCH   1  24
TORSDOF 16
ENDMDL
MODEL 3
REMARK VINA RESULT:     -12.4      3.862      9.139
REMARK SMILES Cc1nc(C(=O)NCCCCNC(=O)c2ccc(-c3c4nc(c(-c5cccc(S(=O)(=O)[O-])c5F)c5ccc([nH]5)c(-c5cccc(S(=O)(=O)[O-])c5F)c5nc(c(-c6cccc(S(=O)(=O)[O-])c6F)c6ccc3[nH]6)C=C5)C=C4)cc2)nn1-c1cccc(C(F)(F)F)c1
REMARK SMILES IDX 10 1 9 2 8 3 7 4 5 5 6 6 4 8 1 9 2 10 3 11 79 12 78 13 80 14
REMARK SMILES IDX 81 15 89 16 82 17 84 18 83 19 85 20 86 21 87 22 88 23 11 24
REMARK SMILES IDX 12 25 13 26 14 28 15 29 16 30 77 31 17 32 76 33 18 34 19 35
REMARK SMILES IDX 20 36 70 37 21 38 75 39 69 40 71 41 22 42 74 43 68 44 67 45
REMARK SMILES IDX 23 47 55 48 35 49 54 50 36 51 39 52 53 53 72 54 37 55 38 56
REMARK SMILES IDX 52 58 73 59 40 60 24 61 25 62 33 63 26 64 28 65 34 66 27 67
REMARK SMILES IDX 29 68 30 69 31 70 32 71 56 72 57 73 65 74 58 75 60 76 66 77
REMARK SMILES IDX 59 78 61 79 62 80 63 81 64 82 41 83 42 84 50 85 43 86 45 87
REMARK SMILES IDX 51 88 44 89 46 90 47 91 48 92 49 93
REMARK H PARENT 7 7 12 27 71 46 39 57
REMARK Flexibility Score: inf
ROOT
ATOM      1  C   UNL A   1      41.287  19.438  26.754  1.00  0.00     0.023 C 
ENDROOT
BRANCH   1   2
ATOM      2  C   UNL A   1      42.312  18.669  25.909  1.00  0.00     0.023 C 
BRANCH   2   3
ATOM      3  C   UNL A   1      43.693  18.457  26.545  1.00  0.00     0.116 C 
BRANCH   3   4
ATOM      4  N   UNL A   1      44.751  18.329  25.555  1.00  0.00    -0.349 N 
ATOM      5  C   UNL A   1      45.407  19.286  24.796  1.00  0.00     0.290 C 
ATOM      6  O   UNL A   1      46.139  18.874  23.891  1.00  0.00    -0.266 OA
ATOM      7  H   UNL A   1      45.054  17.405  25.399  1.00  0.00     0.163 HD
BRANCH   5   8
ATOM      8  C   UNL A   1      45.178  20.734  25.019  1.00  0.00     0.239 A 
ATOM      9  C   UNL A   1      43.402  23.812  24.626  1.00  0.00     0.090 C 
ATOM     10  C   UNL A   1      44.184  22.623  25.037  1.00  0.00     0.130 A 
ATOM     11  N   UNL A   1      44.052  21.403  24.558  1.00  0.00    -0.207 NA
ATOM     12  N   UNL A   1      45.278  22.651  25.873  1.00  0.00    -0.217 N 
ATOM     13  N   UNL A   1      46.019  21.546  25.681  1.00  0.00    -0.140 NA
BRANCH  12  14
ATOM     14  C   UNL A   1      45.597  23.506  26.955  1.00  0.00     0.067 A 
ATOM     15  C   UNL A   1      46.812  24.199  26.932  1.00  0.00     0.028 A 
ATOM     16  C   UNL A   1      44.790  23.531  28.101  1.00  0.00     0.041 A 
ATOM     17  C   UNL A   1      47.199  24.962  28.031  1.00  0.00     0.003 A 
ATOM     18  C   UNL A   1      45.207  24.251  29.234  1.00  0.00     0.058 A 
ATOM     19  C   UNL A   1      46.403  24.985  29.176  1.00  0.00     0.013 A 
BRANCH  18  20
ATOM     20  C   UNL A   1      44.420  24.208  30.521  1.00  0.00     0.416 C 
ATOM     21  F   UNL A   1      43.718  23.050  30.667  1.00  0.00    -0.166 F 
ATOM     22  F   UNL A   1      45.216  24.302  31.623  1.00  0.00    -0.166 F 
ATOM     23  F   UNL A   1      43.505  25.211  30.636  1.00  0.00    -0.166 F 
ENDBRANCH  18  20
ENDBRANCH  12  14
ENDBRANCH   5   8
ENDBRANCH   3   4
ENDBRANCH   2   3
ENDBRANCH   1   2
BRANCH   1  24
ATOM     24  C   UNL A   1      41.216  20.932  26.465  1.00  0.00     0.116 C 
BRANCH  24  25
ATOM     25  N   UNL A   1      39.979  21.344  25.788  1.00  0.00    -0.352 N 
ATOM     26  C   UNL A   1      39.116  22.378  26.130  1.00  0.00     0.251 C 
ATOM     27  H   UNL A   1      39.729  20.820  24.992  1.00  0.00     0.163 HD
ATOM     28  O   UNL A   1      37.963  22.393  25.738  1.00  0.00    -0.269 OA
BRANCH  26  29
ATOM     29  C   UNL A   1      39.642  23.476  26.966  1.00  0.00     0.039 A 
ATOM     30  C   UNL A   1      40.841  23.377  27.681  1.00  0.00     0.014 A 
ATOM     31  C   UNL A   1      38.898  24.648  26.993  1.00  0.00     0.014 A 
ATOM     32  C   UNL A   1      41.307  24.502  28.359  1.00  0.00     0.010 A 
ATOM     33  C   UNL A   1      39.467  25.799  27.453  1.00  0.00     0.010 A 
ATOM     34  C   UNL A   1      40.613  25.713  28.227  1.00  0.00    -0.014 A 
BRANCH  34  35
ATOM     35  C   UNL A   1      41.096  26.960  28.800  1.00  0.00     0.031 A 
ATOM     36  C   UNL A   1      42.373  27.433  28.205  1.00  0.00     0.074 A 
ATOM     37  C   UNL A   1      40.309  27.733  29.584  1.00  0.00     0.049 A 
ATOM     38  N   UNL A   1      43.532  27.484  28.773  1.00  0.00    -0.248 NA
ATOM     39  C   UNL A   1      42.410  27.707  26.759  1.00  0.00     0.031 C 
ATOM     40  C   UNL A   1      38.893  27.526  29.929  1.00  0.00     0.029 A 
ATOM     41  N   UNL A   1      40.552  28.966  30.099  1.00  0.00    -0.354 N 
ATOM     42  C   UNL A   1      44.379  28.061  27.829  1.00  0.00     0.074 A 
ATOM     43  C   UNL A   1      43.713  27.924  26.564  1.00  0.00     0.031 C 
ATOM     44  C   UNL A   1      38.351  28.697  30.330  1.00  0.00     0.029 A 
ATOM     45  C   UNL A   1      39.405  29.687  30.431  1.00  0.00     0.049 A 
ATOM     46  H   UNL A   1      41.461  29.321  30.227  1.00  0.00     0.167 HD
ATOM     47  C   UNL A   1      45.406  28.870  28.215  1.00  0.00     0.034 A 
ATOM     48  C   UNL A   1      39.331  31.018  30.695  1.00  0.00     0.034 A 
ATOM     49  C   UNL A   1      45.652  28.749  29.634  1.00  0.00     0.049 A 
ATOM     50  C   UNL A   1      40.706  31.471  31.010  1.00  0.00     0.074 A 
ATOM     51  C   UNL A   1      45.921  27.699  30.490  1.00  0.00     0.029 A 
ATOM     52  N   UNL A   1      45.201  29.776  30.430  1.00  0.00    -0.354 N 
ATOM     53  N   UNL A   1      41.364  31.086  32.068  1.00  0.00    -0.248 NA
ATOM     54  C   UNL A   1      41.517  31.964  29.908  1.00  0.00     0.031 C 
ATOM     55  C   UNL A   1      45.144  27.974  31.654  1.00  0.00     0.029 A 
ATOM     56  C   UNL A   1      44.531  29.216  31.484  1.00  0.00     0.049 A 
ATOM     57  H   UNL A   1      45.335  30.738  30.271  1.00  0.00     0.167 HD
ATOM     58  C   UNL A   1      42.644  30.831  31.593  1.00  0.00     0.074 A 
ATOM     59  C   UNL A   1      42.705  31.483  30.285  1.00  0.00     0.031 C 
ATOM     60  C   UNL A   1      43.422  29.857  32.152  1.00  0.00     0.034 A 
BRANCH  47  61
ATOM     61  C   UNL A   1      45.928  30.062  27.437  1.00  0.00     0.023 A 
ATOM     62  C   UNL A   1      47.323  30.297  27.494  1.00  0.00     0.012 A 
ATOM     63  C   UNL A   1      45.133  31.103  26.903  1.00  0.00     0.148 A 
ATOM     64  C   UNL A   1      47.881  31.525  27.122  1.00  0.00     0.002 A 
ATOM     65  C   UNL A   1      45.702  32.293  26.461  1.00  0.00     0.091 A 
ATOM     66  F   UNL A   1      43.802  31.020  26.933  1.00  0.00    -0.205 F 
ATOM     67  C   UNL A   1      47.070  32.524  26.603  1.00  0.00     0.022 A 
BRANCH  65  68
ATOM     68  S   UNL A   1      44.705  33.602  25.736  1.00  0.00     0.127 S 
ATOM     69  O   UNL A   1      43.835  32.845  24.842  1.00  0.00    -0.237 OA
ATOM     70  O   UNL A   1      44.047  34.162  26.917  1.00  0.00    -0.237 OA
ATOM     71  O   UNL A   1      45.650  34.508  25.094  1.00  0.00    -0.744 OA
ENDBRANCH  65  68
ENDBRANCH  47  61
BRANCH  48  72
ATOM     72  C   UNL A   1      38.238  31.991  30.443  1.00  0.00     0.023 A 
ATOM     73  C   UNL A   1      37.763  32.181  29.127  1.00  0.00     0.012 A 
ATOM     74  C   UNL A   1      37.462  32.505  31.504  1.00  0.00     0.148 A 
ATOM     75  C   UNL A   1      36.541  32.819  28.880  1.00  0.00     0.002 A 
ATOM     76  C   UNL A   1      36.249  33.144  31.254  1.00  0.00     0.091 A 
ATOM     77  F   UNL A   1      37.861  32.281  32.763  1.00  0.00    -0.205 F 
ATOM     78  C   UNL A   1      35.778  33.291  29.944  1.00  0.00     0.022 A 
BRANCH  76  79
ATOM     79  S   UNL A   1      35.197  33.747  32.583  1.00  0.00     0.127 S 
ATOM     80  O   UNL A   1      35.825  35.028  32.908  1.00  0.00    -0.237 OA
ATOM     81  O   UNL A   1      33.903  33.849  31.917  1.00  0.00    -0.237 OA
ATOM     82  O   UNL A   1      35.293  32.748  33.640  1.00  0.00    -0.744 OA
ENDBRANCH  76  79
ENDBRANCH  48  72
BRANCH  60  83
ATOM     83  C   UNL A   1      42.977  29.234  33.452  1.00  0.00     0.023 A 
ATOM     84  C   UNL A   1      42.010  28.210  33.526  1.00  0.00     0.012 A 
ATOM     85  C   UNL A   1      43.686  29.581  34.613  1.00  0.00     0.148 A 
ATOM     86  C   UNL A   1      41.744  27.563  34.738  1.00  0.00     0.002 A 
ATOM     87  C   UNL A   1      43.455  28.904  35.802  1.00  0.00     0.091 A 
ATOM     88  F   UNL A   1      44.603  30.559  34.528  1.00  0.00    -0.205 F 
ATOM     89  C   UNL A   1      42.478  27.901  35.873  1.00  0.00     0.022 A 
BRANCH  87  90
ATOM     90  S   UNL A   1      44.460  29.219  37.253  1.00  0.00     0.127 S 
ATOM     91  O   UNL A   1      44.158  28.059  38.089  1.00  0.00    -0.237 OA
ATOM     92  O   UNL A   1      45.817  29.239  36.703  1.00  0.00    -0.237 OA
ATOM     93  O   UNL A   1      44.014  30.506  37.773  1.00  0.00    -0.744 OA
ENDBRANCH  87  90
ENDBRANCH  60  83
ENDBRANCH  34  35
ENDBRANCH  26  29
ENDBRANCH  24  25
ENDBRANCH   1  24
TORSDOF 16
ENDMDL
