MODEL 1
REMARK VINA RESULT:     -12.8      0.000      0.000
REMARK SMILES Cc1ccc(C(=O)N2CCC(CC(=O)NCCCCNC(=O)c3ccc(-c4c5nc(c(-c6cccc(S(=O)(=O)[O-])c6F)c6ccc([nH]6)c(-c6cccc(S(=O)(=O)[O-])c6F)c6nc(c(-c7cccc(S(=O)(=O)[O-])c7F)c7ccc4[nH]7)C=C6)C=C5)cc3)CC2)cn1
REMARK SMILES IDX 18 1 17 2 16 3 15 4 13 5 14 6 12 8 11 9 6 10 7 11 8 12 9 13
REMARK SMILES IDX 87 14 10 15 86 16 5 17 1 18 2 19 3 20 89 21 4 22 88 23 19 24
REMARK SMILES IDX 20 25 21 26 22 28 23 29 24 30 85 31 25 32 84 33 26 34 27 35
REMARK SMILES IDX 28 36 78 37 29 38 83 39 77 40 79 41 30 42 82 43 76 44 75 45
REMARK SMILES IDX 31 47 63 48 43 49 62 50 44 51 47 52 61 53 80 54 45 55 46 56
REMARK SMILES IDX 60 58 81 59 48 60 32 61 33 62 41 63 34 64 36 65 42 66 35 67
REMARK SMILES IDX 37 68 38 69 39 70 40 71 64 72 65 73 73 74 66 75 68 76 74 77
REMARK SMILES IDX 67 78 69 79 70 80 71 81 72 82 49 83 50 84 58 85 51 86 53 87
REMARK SMILES IDX 59 88 52 89 54 90 55 91 56 92 57 93
REMARK H PARENT 15 7 20 27 79 46 47 57
REMARK Flexibility Score: inf
ROOT
ATOM      1  C   UNL A   1      31.709  29.128  25.929  1.00  0.00     0.023 C 
ENDROOT
BRANCH   1   2
ATOM      2  C   UNL A   1      31.302  28.741  24.519  1.00  0.00     0.023 C 
BRANCH   2   3
ATOM      3  C   UNL A   1      31.443  27.255  24.177  1.00  0.00     0.116 C 
BRANCH   3   4
ATOM      4  N   UNL A   1      32.008  27.055  22.851  1.00  0.00    -0.356 N 
ATOM      5  C   UNL A   1      33.061  26.287  22.446  1.00  0.00     0.220 C 
ATOM      6  O   UNL A   1      33.394  26.313  21.260  1.00  0.00    -0.275 OA
ATOM      7  H   UNL A   1      31.559  27.553  22.131  1.00  0.00     0.163 HD
BRANCH   5   8
ATOM      8  C   UNL A   1      33.822  25.424  23.439  1.00  0.00     0.103 C 
BRANCH   8   9
ATOM      9  C   UNL A   1      33.099  24.113  23.811  1.00  0.00     0.002 C 
ATOM     10  C   UNL A   1      34.361  20.423  24.772  1.00  0.00     0.255 C 
ATOM     11  O   UNL A   1      35.528  20.770  24.899  1.00  0.00    -0.269 OA
ATOM     12  N   UNL A   1      33.320  21.309  24.560  1.00  0.00    -0.339 N 
ATOM     13  C   UNL A   1      32.914  21.617  23.206  1.00  0.00     0.120 C 
ATOM     14  C   UNL A   1      32.979  22.288  25.572  1.00  0.00     0.120 C 
ATOM     15  C   UNL A   1      33.398  22.999  22.804  1.00  0.00     0.026 C 
ATOM     16  C   UNL A   1      33.507  23.675  25.228  1.00  0.00     0.026 C 
BRANCH  10  17
ATOM     17  C   UNL A   1      33.949  19.006  24.931  1.00  0.00     0.058 A 
ATOM     18  C   UNL A   1      32.468  15.039  25.321  1.00  0.00     0.066 C 
ATOM     19  C   UNL A   1      33.009  16.427  25.172  1.00  0.00     0.037 A 
ATOM     20  C   UNL A   1      34.140  16.661  24.398  1.00  0.00     0.024 A 
ATOM     21  N   UNL A   1      32.353  17.419  25.825  1.00  0.00    -0.261 NA
ATOM     22  C   UNL A   1      34.611  17.965  24.276  1.00  0.00     0.017 A 
ATOM     23  C   UNL A   1      32.835  18.684  25.692  1.00  0.00     0.125 A 
ENDBRANCH  10  17
ENDBRANCH   8   9
ENDBRANCH   5   8
ENDBRANCH   3   4
ENDBRANCH   2   3
ENDBRANCH   1   2
BRANCH   1  24
ATOM     24  C   UNL A   1      32.937  30.014  25.997  1.00  0.00     0.116 C 
BRANCH  24  25
ATOM     25  N   UNL A   1      32.672  31.338  26.550  1.00  0.00    -0.352 N 
ATOM     26  C   UNL A   1      33.448  32.072  27.421  1.00  0.00     0.251 C 
ATOM     27  H   UNL A   1      31.831  31.763  26.264  1.00  0.00     0.163 HD
ATOM     28  O   UNL A   1      33.051  33.136  27.872  1.00  0.00    -0.269 OA
BRANCH  26  29
ATOM     29  C   UNL A   1      34.754  31.517  27.831  1.00  0.00     0.039 A 
ATOM     30  C   UNL A   1      35.846  32.374  27.972  1.00  0.00     0.014 A 
ATOM     31  C   UNL A   1      34.852  30.170  28.185  1.00  0.00     0.014 A 
ATOM     32  C   UNL A   1      37.017  31.894  28.559  1.00  0.00     0.010 A 
ATOM     33  C   UNL A   1      35.971  29.729  28.872  1.00  0.00     0.010 A 
ATOM     34  C   UNL A   1      37.070  30.581  29.057  1.00  0.00    -0.014 A 
BRANCH  34  35
ATOM     35  C   UNL A   1      38.265  30.055  29.763  1.00  0.00     0.031 A 
ATOM     36  C   UNL A   1      38.573  30.542  31.153  1.00  0.00     0.074 A 
ATOM     37  C   UNL A   1      39.125  29.242  29.119  1.00  0.00     0.049 A 
ATOM     38  N   UNL A   1      39.621  30.306  31.897  1.00  0.00    -0.248 NA
ATOM     39  C   UNL A   1      37.595  31.456  31.772  1.00  0.00     0.031 C 
ATOM     40  C   UNL A   1      38.985  28.778  27.736  1.00  0.00     0.029 A 
ATOM     41  N   UNL A   1      40.308  28.685  29.535  1.00  0.00    -0.354 N 
ATOM     42  C   UNL A   1      39.452  31.079  33.039  1.00  0.00     0.074 A 
ATOM     43  C   UNL A   1      38.229  31.828  32.871  1.00  0.00     0.031 C 
ATOM     44  C   UNL A   1      40.032  27.996  27.425  1.00  0.00     0.029 A 
ATOM     45  C   UNL A   1      40.930  27.924  28.572  1.00  0.00     0.049 A 
ATOM     46  H   UNL A   1      40.677  28.816  30.438  1.00  0.00     0.167 HD
ATOM     47  C   UNL A   1      40.223  31.127  34.151  1.00  0.00     0.034 A 
ATOM     48  C   UNL A   1      42.094  27.245  28.614  1.00  0.00     0.034 A 
ATOM     49  C   UNL A   1      41.392  30.317  34.346  1.00  0.00     0.049 A 
ATOM     50  C   UNL A   1      42.891  27.251  29.891  1.00  0.00     0.074 A 
ATOM     51  C   UNL A   1      42.184  30.207  35.472  1.00  0.00     0.029 A 
ATOM     52  N   UNL A   1      41.926  29.466  33.391  1.00  0.00    -0.354 N 
ATOM     53  N   UNL A   1      42.632  27.864  31.021  1.00  0.00    -0.248 NA
ATOM     54  C   UNL A   1      44.119  26.444  29.914  1.00  0.00     0.031 C 
ATOM     55  C   UNL A   1      43.205  29.290  35.197  1.00  0.00     0.029 A 
ATOM     56  C   UNL A   1      43.039  28.824  33.902  1.00  0.00     0.049 A 
ATOM     57  H   UNL A   1      41.567  29.339  32.483  1.00  0.00     0.167 HD
ATOM     58  C   UNL A   1      43.642  27.488  31.899  1.00  0.00     0.074 A 
ATOM     59  C   UNL A   1      44.507  26.580  31.174  1.00  0.00     0.031 C 
ATOM     60  C   UNL A   1      43.847  27.873  33.183  1.00  0.00     0.034 A 
BRANCH  47  61
ATOM     61  C   UNL A   1      39.774  32.032  35.268  1.00  0.00     0.023 A 
ATOM     62  C   UNL A   1      40.162  33.387  35.259  1.00  0.00     0.012 A 
ATOM     63  C   UNL A   1      38.949  31.556  36.305  1.00  0.00     0.148 A 
ATOM     64  C   UNL A   1      39.772  34.246  36.285  1.00  0.00     0.002 A 
ATOM     65  C   UNL A   1      38.526  32.431  37.301  1.00  0.00     0.091 A 
ATOM     66  F   UNL A   1      38.611  30.259  36.314  1.00  0.00    -0.205 F 
ATOM     67  C   UNL A   1      38.946  33.771  37.299  1.00  0.00     0.022 A 
BRANCH  65  68
ATOM     68  S   UNL A   1      37.399  31.933  38.608  1.00  0.00     0.127 S 
ATOM     69  O   UNL A   1      38.203  32.182  39.803  1.00  0.00    -0.237 OA
ATOM     70  O   UNL A   1      36.281  32.858  38.422  1.00  0.00    -0.237 OA
ATOM     71  O   UNL A   1      37.078  30.536  38.347  1.00  0.00    -0.744 OA
ENDBRANCH  65  68
ENDBRANCH  47  61
BRANCH  48  72
ATOM     72  C   UNL A   1      42.522  26.424  27.445  1.00  0.00     0.023 A 
ATOM     73  C   UNL A   1      43.304  27.026  26.438  1.00  0.00     0.012 A 
ATOM     74  C   UNL A   1      42.195  25.059  27.335  1.00  0.00     0.148 A 
ATOM     75  C   UNL A   1      43.727  26.291  25.330  1.00  0.00     0.002 A 
ATOM     76  C   UNL A   1      42.664  24.320  26.253  1.00  0.00     0.091 A 
ATOM     77  F   UNL A   1      41.441  24.507  28.296  1.00  0.00    -0.205 F 
ATOM     78  C   UNL A   1      43.416  24.938  25.242  1.00  0.00     0.022 A 
BRANCH  76  79
ATOM     79  S   UNL A   1      42.420  22.544  26.125  1.00  0.00     0.127 S 
ATOM     80  O   UNL A   1      43.031  22.067  27.362  1.00  0.00    -0.237 OA
ATOM     81  O   UNL A   1      40.961  22.439  26.077  1.00  0.00    -0.237 OA
ATOM     82  O   UNL A   1      43.087  22.149  24.891  1.00  0.00    -0.744 OA
ENDBRANCH  76  79
ENDBRANCH  48  72
BRANCH  60  83
ATOM     83  C   UNL A   1      45.031  27.292  33.907  1.00  0.00     0.023 A 
ATOM     84  C   UNL A   1      46.258  27.984  33.902  1.00  0.00     0.012 A 
ATOM     85  C   UNL A   1      44.900  26.114  34.668  1.00  0.00     0.148 A 
ATOM     86  C   UNL A   1      47.346  27.499  34.626  1.00  0.00     0.002 A 
ATOM     87  C   UNL A   1      45.975  25.662  35.423  1.00  0.00     0.091 A 
ATOM     88  F   UNL A   1      43.729  25.461  34.641  1.00  0.00    -0.205 F 
ATOM     89  C   UNL A   1      47.201  26.346  35.396  1.00  0.00     0.022 A 
BRANCH  87  90
ATOM     90  S   UNL A   1      45.848  24.242  36.517  1.00  0.00     0.127 S 
ATOM     91  O   UNL A   1      46.122  23.135  35.604  1.00  0.00    -0.237 OA
ATOM     92  O   UNL A   1      46.907  24.506  37.494  1.00  0.00    -0.237 OA
ATOM     93  O   UNL A   1      44.500  24.283  37.068  1.00  0.00    -0.744 OA
ENDBRANCH  87  90
ENDBRANCH  60  83
ENDBRANCH  34  35
ENDBRANCH  26  29
ENDBRANCH  24  25
ENDBRANCH   1  24
TORSDOF 16
ENDMDL
MODEL 2
REMARK VINA RESULT:     -12.7      5.107     10.730
REMARK SMILES Cc1ccc(C(=O)N2CCC(CC(=O)NCCCCNC(=O)c3ccc(-c4c5nc(c(-c6cccc(S(=O)(=O)[O-])c6F)c6ccc([nH]6)c(-c6cccc(S(=O)(=O)[O-])c6F)c6nc(c(-c7cccc(S(=O)(=O)[O-])c7F)c7ccc4[nH]7)C=C6)C=C5)cc3)CC2)cn1
REMARK SMILES IDX 18 1 17 2 16 3 15 4 13 5 14 6 12 8 11 9 6 10 7 11 8 12 9 13
REMARK SMILES IDX 87 14 10 15 86 16 5 17 1 18 2 19 3 20 89 21 4 22 88 23 19 24
REMARK SMILES IDX 20 25 21 26 22 28 23 29 24 30 85 31 25 32 84 33 26 34 27 35
REMARK SMILES IDX 28 36 78 37 29 38 83 39 77 40 79 41 30 42 82 43 76 44 75 45
REMARK SMILES IDX 31 47 63 48 43 49 62 50 44 51 47 52 61 53 80 54 45 55 46 56
REMARK SMILES IDX 60 58 81 59 48 60 32 61 33 62 41 63 34 64 36 65 42 66 35 67
REMARK SMILES IDX 37 68 38 69 39 70 40 71 64 72 65 73 73 74 66 75 68 76 74 77
REMARK SMILES IDX 67 78 69 79 70 80 71 81 72 82 49 83 50 84 58 85 51 86 53 87
REMARK SMILES IDX 59 88 52 89 54 90 55 91 56 92 57 93
REMARK H PARENT 15 7 20 27 79 46 47 57
REMARK Flexibility Score: inf
ROOT
ATOM      1  C   UNL A   1      35.705  21.521  25.982  1.00  0.00     0.023 C 
ENDROOT
BRANCH   1   2
ATOM      2  C   UNL A   1      34.684  20.793  25.128  1.00  0.00     0.023 C 
BRANCH   2   3
ATOM      3  C   UNL A   1      33.442  21.605  24.749  1.00  0.00     0.116 C 
BRANCH   3   4
ATOM      4  N   UNL A   1      32.587  21.858  25.899  1.00  0.00    -0.356 N 
ATOM      5  C   UNL A   1      32.398  22.996  26.627  1.00  0.00     0.220 C 
ATOM      6  O   UNL A   1      31.649  22.960  27.605  1.00  0.00    -0.275 OA
ATOM      7  H   UNL A   1      32.060  21.083  26.200  1.00  0.00     0.163 HD
BRANCH   5   8
ATOM      8  C   UNL A   1      33.107  24.287  26.251  1.00  0.00     0.103 C 
BRANCH   8   9
ATOM      9  C   UNL A   1      32.486  25.011  25.038  1.00  0.00     0.002 C 
ATOM     10  C   UNL A   1      31.166  28.752  24.416  1.00  0.00     0.255 C 
ATOM     11  O   UNL A   1      31.652  29.181  25.454  1.00  0.00    -0.269 OA
ATOM     12  N   UNL A   1      31.387  27.473  23.941  1.00  0.00    -0.339 N 
ATOM     13  C   UNL A   1      30.462  26.416  24.290  1.00  0.00     0.120 C 
ATOM     14  C   UNL A   1      32.721  27.058  23.555  1.00  0.00     0.120 C 
ATOM     15  C   UNL A   1      31.067  25.501  25.340  1.00  0.00     0.026 C 
ATOM     16  C   UNL A   1      33.380  26.190  24.619  1.00  0.00     0.026 C 
BRANCH  10  17
ATOM     17  C   UNL A   1      30.361  29.619  23.518  1.00  0.00     0.058 A 
ATOM     18  C   UNL A   1      27.938  31.833  20.815  1.00  0.00     0.066 C 
ATOM     19  C   UNL A   1      28.786  31.069  21.785  1.00  0.00     0.037 A 
ATOM     20  C   UNL A   1      28.784  31.403  23.135  1.00  0.00     0.024 A 
ATOM     21  N   UNL A   1      29.544  30.062  21.282  1.00  0.00    -0.261 NA
ATOM     22  C   UNL A   1      29.578  30.667  24.008  1.00  0.00     0.017 A 
ATOM     23  C   UNL A   1      30.313  29.361  22.157  1.00  0.00     0.125 A 
ENDBRANCH  10  17
ENDBRANCH   8   9
ENDBRANCH   5   8
ENDBRANCH   3   4
ENDBRANCH   2   3
ENDBRANCH   1   2
BRANCH   1  24
ATOM     24  C   UNL A   1      37.009  21.816  25.267  1.00  0.00     0.116 C 
BRANCH  24  25
ATOM     25  N   UNL A   1      38.025  20.786  25.456  1.00  0.00    -0.352 N 
ATOM     26  C   UNL A   1      39.272  20.909  26.029  1.00  0.00     0.251 C 
ATOM     27  H   UNL A   1      37.788  19.886  25.133  1.00  0.00     0.163 HD
ATOM     28  O   UNL A   1      40.056  19.971  26.036  1.00  0.00    -0.269 OA
BRANCH  26  29
ATOM     29  C   UNL A   1      39.655  22.219  26.594  1.00  0.00     0.039 A 
ATOM     30  C   UNL A   1      40.664  22.279  27.556  1.00  0.00     0.014 A 
ATOM     31  C   UNL A   1      39.090  23.386  26.077  1.00  0.00     0.014 A 
ATOM     32  C   UNL A   1      41.172  23.522  27.933  1.00  0.00     0.010 A 
ATOM     33  C   UNL A   1      39.675  24.608  26.366  1.00  0.00     0.010 A 
ATOM     34  C   UNL A   1      40.715  24.692  27.305  1.00  0.00    -0.014 A 
BRANCH  34  35
ATOM     35  C   UNL A   1      41.285  26.026  27.615  1.00  0.00     0.031 A 
ATOM     36  C   UNL A   1      42.707  26.328  27.226  1.00  0.00     0.074 A 
ATOM     37  C   UNL A   1      40.574  26.912  28.340  1.00  0.00     0.049 A 
ATOM     38  N   UNL A   1      43.434  27.377  27.506  1.00  0.00    -0.248 NA
ATOM     39  C   UNL A   1      43.424  25.291  26.463  1.00  0.00     0.031 C 
ATOM     40  C   UNL A   1      39.220  26.696  28.859  1.00  0.00     0.029 A 
ATOM     41  N   UNL A   1      40.904  28.164  28.795  1.00  0.00    -0.354 N 
ATOM     42  C   UNL A   1      44.699  27.102  27.001  1.00  0.00     0.074 A 
ATOM     43  C   UNL A   1      44.656  25.771  26.443  1.00  0.00     0.031 C 
ATOM     44  C   UNL A   1      38.832  27.783  29.545  1.00  0.00     0.029 A 
ATOM     45  C   UNL A   1      39.915  28.761  29.541  1.00  0.00     0.049 A 
ATOM     46  H   UNL A   1      41.768  28.594  28.604  1.00  0.00     0.167 HD
ATOM     47  C   UNL A   1      45.789  27.904  26.964  1.00  0.00     0.034 A 
ATOM     48  C   UNL A   1      39.887  29.963  30.151  1.00  0.00     0.034 A 
ATOM     49  C   UNL A   1      45.800  29.256  27.445  1.00  0.00     0.049 A 
ATOM     50  C   UNL A   1      41.084  30.867  30.025  1.00  0.00     0.074 A 
ATOM     51  C   UNL A   1      46.814  30.191  27.361  1.00  0.00     0.029 A 
ATOM     52  N   UNL A   1      44.738  29.869  28.091  1.00  0.00    -0.354 N 
ATOM     53  N   UNL A   1      42.219  30.651  29.404  1.00  0.00    -0.248 NA
ATOM     54  C   UNL A   1      40.986  32.194  30.650  1.00  0.00     0.031 C 
ATOM     55  C   UNL A   1      46.366  31.373  27.961  1.00  0.00     0.029 A 
ATOM     56  C   UNL A   1      45.069  31.173  28.410  1.00  0.00     0.049 A 
ATOM     57  H   UNL A   1      43.876  29.439  28.292  1.00  0.00     0.167 HD
ATOM     58  C   UNL A   1      42.953  31.825  29.531  1.00  0.00     0.074 A 
ATOM     59  C   UNL A   1      42.126  32.755  30.272  1.00  0.00     0.031 C 
ATOM     60  C   UNL A   1      44.205  32.103  29.090  1.00  0.00     0.034 A 
BRANCH  47  61
ATOM     61  C   UNL A   1      47.031  27.358  26.309  1.00  0.00     0.023 A 
ATOM     62  C   UNL A   1      47.236  27.570  24.930  1.00  0.00     0.012 A 
ATOM     63  C   UNL A   1      48.005  26.666  27.054  1.00  0.00     0.148 A 
ATOM     64  C   UNL A   1      48.369  27.068  24.294  1.00  0.00     0.002 A 
ATOM     65  C   UNL A   1      49.155  26.208  26.420  1.00  0.00     0.091 A 
ATOM     66  F   UNL A   1      47.782  26.449  28.358  1.00  0.00    -0.205 F 
ATOM     67  C   UNL A   1      49.332  26.397  25.040  1.00  0.00     0.022 A 
BRANCH  65  68
ATOM     68  S   UNL A   1      50.490  25.399  27.309  1.00  0.00     0.127 S 
ATOM     69  O   UNL A   1      49.804  24.245  27.886  1.00  0.00    -0.237 OA
ATOM     70  O   UNL A   1      51.427  25.075  26.232  1.00  0.00    -0.237 OA
ATOM     71  O   UNL A   1      50.984  26.380  28.266  1.00  0.00    -0.744 OA
ENDBRANCH  65  68
ENDBRANCH  47  61
BRANCH  48  72
ATOM     72  C   UNL A   1      38.650  30.418  30.848  1.00  0.00     0.023 A 
ATOM     73  C   UNL A   1      38.519  30.179  32.231  1.00  0.00     0.012 A 
ATOM     74  C   UNL A   1      37.626  31.107  30.171  1.00  0.00     0.148 A 
ATOM     75  C   UNL A   1      37.378  30.592  32.921  1.00  0.00     0.002 A 
ATOM     76  C   UNL A   1      36.515  31.562  30.875  1.00  0.00     0.091 A 
ATOM     77  F   UNL A   1      37.763  31.315  28.855  1.00  0.00    -0.205 F 
ATOM     78  C   UNL A   1      36.382  31.291  32.246  1.00  0.00     0.022 A 
BRANCH  76  79
ATOM     79  S   UNL A   1      35.245  32.580  30.114  1.00  0.00     0.127 S 
ATOM     80  O   UNL A   1      34.753  31.704  29.055  1.00  0.00    -0.237 OA
ATOM     81  O   UNL A   1      34.315  32.789  31.224  1.00  0.00    -0.237 OA
ATOM     82  O   UNL A   1      35.929  33.789  29.673  1.00  0.00    -0.744 OA
ENDBRANCH  76  79
ENDBRANCH  48  72
BRANCH  60  83
ATOM     83  C   UNL A   1      44.753  33.477  29.363  1.00  0.00     0.023 A 
ATOM     84  C   UNL A   1      45.521  33.702  30.522  1.00  0.00     0.012 A 
ATOM     85  C   UNL A   1      44.587  34.515  28.426  1.00  0.00     0.148 A 
ATOM     86  C   UNL A   1      46.098  34.950  30.755  1.00  0.00     0.002 A 
ATOM     87  C   UNL A   1      45.203  35.741  28.643  1.00  0.00     0.091 A 
ATOM     88  F   UNL A   1      43.834  34.284  27.340  1.00  0.00    -0.205 F 
ATOM     89  C   UNL A   1      45.949  35.964  29.811  1.00  0.00     0.022 A 
BRANCH  87  90
ATOM     90  S   UNL A   1      45.145  37.071  27.437  1.00  0.00     0.127 S 
ATOM     91  O   UNL A   1      43.756  37.008  26.988  1.00  0.00    -0.237 OA
ATOM     92  O   UNL A   1      45.472  38.244  28.249  1.00  0.00    -0.237 OA
ATOM     93  O   UNL A   1      46.144  36.740  26.430  1.00  0.00    -0.744 OA
ENDBRANCH  87  90
ENDBRANCH  60  83
ENDBRANCH  34  35
ENDBRANCH  26  29
ENDBRANCH  24  25
ENDBRANCH   1  24
TORSDOF 16
ENDMDL
MODEL 3
REMARK VINA RESULT:     -12.5      1.368      1.682
REMARK SMILES Cc1ccc(C(=O)N2CCC(CC(=O)NCCCCNC(=O)c3ccc(-c4c5nc(c(-c6cccc(S(=O)(=O)[O-])c6F)c6ccc([nH]6)c(-c6cccc(S(=O)(=O)[O-])c6F)c6nc(c(-c7cccc(S(=O)(=O)[O-])c7F)c7ccc4[nH]7)C=C6)C=C5)cc3)CC2)cn1
REMARK SMILES IDX 18 1 17 2 16 3 15 4 13 5 14 6 12 8 11 9 6 10 7 11 8 12 9 13
REMARK SMILES IDX 87 14 10 15 86 16 5 17 1 18 2 19 3 20 89 21 4 22 88 23 19 24
REMARK SMILES IDX 20 25 21 26 22 28 23 29 24 30 85 31 25 32 84 33 26 34 27 35
REMARK SMILES IDX 28 36 78 37 29 38 83 39 77 40 79 41 30 42 82 43 76 44 75 45
REMARK SMILES IDX 31 47 63 48 43 49 62 50 44 51 47 52 61 53 80 54 45 55 46 56
REMARK SMILES IDX 60 58 81 59 48 60 32 61 33 62 41 63 34 64 36 65 42 66 35 67
REMARK SMILES IDX 37 68 38 69 39 70 40 71 64 72 65 73 73 74 66 75 68 76 74 77
REMARK SMILES IDX 67 78 69 79 70 80 71 81 72 82 49 83 50 84 58 85 51 86 53 87
REMARK SMILES IDX 59 88 52 89 54 90 55 91 56 92 57 93
REMARK H PARENT 15 7 20 27 79 46 47 57
REMARK Flexibility Score: inf
ROOT
ATOM      1  C   UNL A   1      31.650  29.018  26.765  1.00  0.00     0.023 C 
ENDROOT
BRANCH   1   2
ATOM      2  C   UNL A   1      32.066  27.560  26.718  1.00  0.00     0.023 C 
BRANCH   2   3
ATOM      3  C   UNL A   1      31.837  26.852  25.380  1.00  0.00     0.116 C 
BRANCH   3   4
ATOM      4  N   UNL A   1      33.076  26.333  24.821  1.00  0.00    -0.356 N 
ATOM      5  C   UNL A   1      33.286  25.478  23.779  1.00  0.00     0.220 C 
ATOM      6  O   UNL A   1      34.440  25.136  23.514  1.00  0.00    -0.275 OA
ATOM      7  H   UNL A   1      33.894  26.650  25.267  1.00  0.00     0.163 HD
BRANCH   5   8
ATOM      8  C   UNL A   1      32.120  24.943  22.964  1.00  0.00     0.103 C 
BRANCH   8   9
ATOM      9  C   UNL A   1      31.691  23.512  23.349  1.00  0.00     0.002 C 
ATOM     10  C   UNL A   1      33.677  20.278  24.662  1.00  0.00     0.255 C 
ATOM     11  O   UNL A   1      34.708  20.901  24.878  1.00  0.00    -0.269 OA
ATOM     12  N   UNL A   1      32.486  20.876  24.294  1.00  0.00    -0.339 N 
ATOM     13  C   UNL A   1      32.168  21.024  22.890  1.00  0.00     0.120 C 
ATOM     14  C   UNL A   1      31.815  21.783  25.204  1.00  0.00     0.120 C 
ATOM     15  C   UNL A   1      32.353  22.465  22.449  1.00  0.00     0.026 C 
ATOM     16  C   UNL A   1      32.034  23.242  24.823  1.00  0.00     0.026 C 
BRANCH  10  17
ATOM     17  C   UNL A   1      33.597  18.810  24.872  1.00  0.00     0.058 A 
ATOM     18  C   UNL A   1      33.055  14.625  25.399  1.00  0.00     0.066 C 
ATOM     19  C   UNL A   1      33.267  16.095  25.203  1.00  0.00     0.037 A 
ATOM     20  C   UNL A   1      34.331  16.555  24.434  1.00  0.00     0.024 A 
ATOM     21  N   UNL A   1      32.388  16.932  25.807  1.00  0.00    -0.261 NA
ATOM     22  C   UNL A   1      34.493  17.926  24.267  1.00  0.00     0.017 A 
ATOM     23  C   UNL A   1      32.571  18.268  25.630  1.00  0.00     0.125 A 
ENDBRANCH  10  17
ENDBRANCH   8   9
ENDBRANCH   5   8
ENDBRANCH   3   4
ENDBRANCH   2   3
ENDBRANCH   1   2
BRANCH   1  24
ATOM     24  C   UNL A   1      32.666  29.970  26.166  1.00  0.00     0.116 C 
BRANCH  24  25
ATOM     25  N   UNL A   1      32.472  31.360  26.567  1.00  0.00    -0.352 N 
ATOM     26  C   UNL A   1      33.301  32.154  27.329  1.00  0.00     0.251 C 
ATOM     27  H   UNL A   1      31.641  31.785  26.252  1.00  0.00     0.163 HD
ATOM     28  O   UNL A   1      32.961  33.279  27.662  1.00  0.00    -0.269 OA
BRANCH  26  29
ATOM     29  C   UNL A   1      34.593  31.591  27.772  1.00  0.00     0.039 A 
ATOM     30  C   UNL A   1      35.664  32.452  28.014  1.00  0.00     0.014 A 
ATOM     31  C   UNL A   1      34.693  30.228  28.056  1.00  0.00     0.014 A 
ATOM     32  C   UNL A   1      36.812  31.954  28.632  1.00  0.00     0.010 A 
ATOM     33  C   UNL A   1      35.783  29.763  28.772  1.00  0.00     0.010 A 
ATOM     34  C   UNL A   1      36.860  30.616  29.059  1.00  0.00    -0.014 A 
BRANCH  34  35
ATOM     35  C   UNL A   1      38.026  30.065  29.793  1.00  0.00     0.031 A 
ATOM     36  C   UNL A   1      38.286  30.514  31.205  1.00  0.00     0.074 A 
ATOM     37  C   UNL A   1      38.905  29.264  29.159  1.00  0.00     0.049 A 
ATOM     38  N   UNL A   1      39.306  30.253  31.979  1.00  0.00    -0.248 NA
ATOM     39  C   UNL A   1      37.291  31.417  31.811  1.00  0.00     0.031 C 
ATOM     40  C   UNL A   1      38.812  28.836  27.760  1.00  0.00     0.029 A 
ATOM     41  N   UNL A   1      40.069  28.689  29.602  1.00  0.00    -0.354 N 
ATOM     42  C   UNL A   1      39.100  30.997  33.134  1.00  0.00     0.074 A 
ATOM     43  C   UNL A   1      37.888  31.758  32.942  1.00  0.00     0.031 C 
ATOM     44  C   UNL A   1      39.865  28.056  27.466  1.00  0.00     0.029 A 
ATOM     45  C   UNL A   1      40.722  27.950  28.643  1.00  0.00     0.049 A 
ATOM     46  H   UNL A   1      40.406  28.795  30.521  1.00  0.00     0.167 HD
ATOM     47  C   UNL A   1      39.831  31.013  34.274  1.00  0.00     0.034 A 
ATOM     48  C   UNL A   1      41.880  27.263  28.709  1.00  0.00     0.034 A 
ATOM     49  C   UNL A   1      40.988  30.191  34.489  1.00  0.00     0.049 A 
ATOM     50  C   UNL A   1      42.630  27.232  30.013  1.00  0.00     0.074 A 
ATOM     51  C   UNL A   1      41.740  30.048  35.640  1.00  0.00     0.029 A 
ATOM     52  N   UNL A   1      41.553  29.362  33.532  1.00  0.00    -0.354 N 
ATOM     53  N   UNL A   1      42.335  27.817  31.149  1.00  0.00    -0.248 NA
ATOM     54  C   UNL A   1      43.854  26.418  30.058  1.00  0.00     0.031 C 
ATOM     55  C   UNL A   1      42.765  29.133  35.378  1.00  0.00     0.029 A 
ATOM     56  C   UNL A   1      42.643  28.701  34.066  1.00  0.00     0.049 A 
ATOM     57  H   UNL A   1      41.225  29.261  32.609  1.00  0.00     0.167 HD
ATOM     58  C   UNL A   1      43.311  27.413  32.051  1.00  0.00     0.074 A 
ATOM     59  C   UNL A   1      44.197  26.519  31.335  1.00  0.00     0.031 C 
ATOM     60  C   UNL A   1      43.472  27.764  33.352  1.00  0.00     0.034 A 
BRANCH  47  61
ATOM     61  C   UNL A   1      39.347  31.891  35.397  1.00  0.00     0.023 A 
ATOM     62  C   UNL A   1      38.424  31.374  36.330  1.00  0.00     0.012 A 
ATOM     63  C   UNL A   1      39.821  33.207  35.552  1.00  0.00     0.148 A 
ATOM     64  C   UNL A   1      37.948  32.165  37.374  1.00  0.00     0.002 A 
ATOM     65  C   UNL A   1      39.377  33.975  36.624  1.00  0.00     0.091 A 
ATOM     66  F   UNL A   1      40.678  33.692  34.642  1.00  0.00    -0.205 F 
ATOM     67  C   UNL A   1      38.432  33.460  37.526  1.00  0.00     0.022 A 
BRANCH  65  68
ATOM     68  S   UNL A   1      39.998  35.628  36.950  1.00  0.00     0.127 S 
ATOM     69  O   UNL A   1      41.436  35.387  37.060  1.00  0.00    -0.237 OA
ATOM     70  O   UNL A   1      39.592  36.354  35.746  1.00  0.00    -0.237 OA
ATOM     71  O   UNL A   1      39.339  36.068  38.172  1.00  0.00    -0.744 OA
ENDBRANCH  65  68
ENDBRANCH  47  61
BRANCH  48  72
ATOM     72  C   UNL A   1      42.346  26.470  27.535  1.00  0.00     0.023 A 
ATOM     73  C   UNL A   1      43.174  27.090  26.577  1.00  0.00     0.012 A 
ATOM     74  C   UNL A   1      42.008  25.113  27.373  1.00  0.00     0.148 A 
ATOM     75  C   UNL A   1      43.633  26.382  25.466  1.00  0.00     0.002 A 
ATOM     76  C   UNL A   1      42.512  24.398  26.290  1.00  0.00     0.091 A 
ATOM     77  F   UNL A   1      41.210  24.544  28.287  1.00  0.00    -0.205 F 
ATOM     78  C   UNL A   1      43.311  25.035  25.328  1.00  0.00     0.022 A 
BRANCH  76  79
ATOM     79  S   UNL A   1      42.254  22.630  26.102  1.00  0.00     0.127 S 
ATOM     80  O   UNL A   1      42.993  22.349  24.874  1.00  0.00    -0.237 OA
ATOM     81  O   UNL A   1      42.861  22.101  27.323  1.00  0.00    -0.237 OA
ATOM     82  O   UNL A   1      40.809  22.454  26.029  1.00  0.00    -0.744 OA
ENDBRANCH  76  79
ENDBRANCH  48  72
BRANCH  60  83
ATOM     83  C   UNL A   1      44.626  27.158  34.102  1.00  0.00     0.023 A 
ATOM     84  C   UNL A   1      45.831  27.877  34.224  1.00  0.00     0.012 A 
ATOM     85  C   UNL A   1      44.483  25.923  34.763  1.00  0.00     0.148 A 
ATOM     86  C   UNL A   1      46.887  27.364  34.976  1.00  0.00     0.002 A 
ATOM     87  C   UNL A   1      45.523  25.439  35.548  1.00  0.00     0.091 A 
ATOM     88  F   UNL A   1      43.335  25.246  34.616  1.00  0.00    -0.205 F 
ATOM     89  C   UNL A   1      46.729  26.152  35.647  1.00  0.00     0.022 A 
BRANCH  87  90
ATOM     90  S   UNL A   1      45.372  23.938  36.524  1.00  0.00     0.127 S 
ATOM     91  O   UNL A   1      44.749  24.438  37.747  1.00  0.00    -0.237 OA
ATOM     92  O   UNL A   1      44.500  23.110  35.688  1.00  0.00    -0.237 OA
ATOM     93  O   UNL A   1      46.726  23.423  36.674  1.00  0.00    -0.744 OA
ENDBRANCH  87  90
ENDBRANCH  60  83
ENDBRANCH  34  35
ENDBRANCH  26  29
ENDBRANCH  24  25
ENDBRANCH   1  24
TORSDOF 16
ENDMDL
