MODEL 1
REMARK VINA RESULT:     -12.8      0.000      0.000
REMARK SMILES O=C(NCCCCNC(=O)c1ccc(-c2c3nc(c(-c4cccc(S(=O)(=O)[O-])c4F)c4ccc([nH]4)c(-c4cccc(S(=O)(=O)[O-])c4F)c4nc(c(-c5cccc(S(=O)(=O)[O-])c5F)c5ccc2[nH]5)C=C4)C=C3)cc1)C1=Cc2cc(OC(F)(F)F)ccc2O[C@@H]1C(F)(F)F
REMARK SMILES IDX 6 1 5 2 4 3 3 4 1 5 2 6 74 8 75 9 88 10 76 11 87 12 77 13
REMARK SMILES IDX 86 14 78 15 85 16 84 17 89 18 90 19 91 20 92 21 79 22 80 23
REMARK SMILES IDX 81 24 82 25 83 26 7 27 8 28 9 29 10 31 11 32 12 33 73 34
REMARK SMILES IDX 13 35 72 36 14 37 15 38 16 39 66 40 17 41 71 42 65 43 67 44
REMARK SMILES IDX 18 45 70 46 64 47 63 48 19 50 51 51 31 52 50 53 32 54 35 55
REMARK SMILES IDX 49 56 68 57 33 58 34 59 48 61 69 62 36 63 20 64 21 65 29 66
REMARK SMILES IDX 22 67 24 68 30 69 23 70 25 71 26 72 27 73 28 74 52 75 53 76
REMARK SMILES IDX 61 77 54 78 56 79 62 80 55 81 57 82 58 83 59 84 60 85 37 86
REMARK SMILES IDX 38 87 46 88 39 89 41 90 47 91 40 92 42 93 43 94 44 95 45 96
REMARK H PARENT 3 7 8 30 67 49 35 60
REMARK Flexibility Score: inf
ROOT
ATOM      1  C   UNL A   1      36.568  22.585  23.688  1.00  0.00     0.023 C 
ENDROOT
BRANCH   1   2
ATOM      2  C   UNL A   1      35.113  22.919  23.364  1.00  0.00     0.023 C 
BRANCH   2   3
ATOM      3  C   UNL A   1      34.714  24.371  23.626  1.00  0.00     0.116 C 
BRANCH   3   4
ATOM      4  N   UNL A   1      33.751  24.909  22.661  1.00  0.00    -0.352 N 
ATOM      5  O   UNL A   1      31.747  25.736  21.973  1.00  0.00    -0.270 OA
ATOM      6  C   UNL A   1      32.387  25.069  22.775  1.00  0.00     0.251 C 
ATOM      7  H   UNL A   1      34.136  25.201  21.803  1.00  0.00     0.163 HD
BRANCH   6   8
ATOM      8  C   UNL A   1      31.728  24.490  23.963  1.00  0.00     0.067 C 
ATOM      9  C   UNL A   1      31.373  23.198  23.939  1.00  0.00     0.025 C 
ATOM     10  C   UNL A   1      31.828  25.264  25.243  1.00  0.00     0.314 C 
ATOM     11  C   UNL A   1      31.838  22.470  25.133  1.00  0.00     0.021 A 
ATOM     12  O   UNL A   1      32.577  24.532  26.243  1.00  0.00    -0.475 OA
ATOM     13  C   UNL A   1      31.979  21.080  25.033  1.00  0.00     0.058 A 
ATOM     14  C   UNL A   1      32.543  23.163  26.137  1.00  0.00     0.128 A 
ATOM     15  C   UNL A   1      32.902  20.411  25.841  1.00  0.00     0.130 A 
ATOM     16  C   UNL A   1      33.415  22.482  26.981  1.00  0.00     0.051 A 
ATOM     17  C   UNL A   1      33.614  21.110  26.818  1.00  0.00     0.050 A 
BRANCH  10  18
ATOM     18  C   UNL A   1      30.443  25.666  25.778  1.00  0.00     0.429 C 
ATOM     19  F   UNL A   1      30.524  26.755  26.582  1.00  0.00    -0.167 F 
ATOM     20  F   UNL A   1      29.586  25.985  24.779  1.00  0.00    -0.167 F 
ATOM     21  F   UNL A   1      29.858  24.683  26.503  1.00  0.00    -0.167 F 
ENDBRANCH  10  18
BRANCH  15  22
ATOM     22  O   UNL A   1      33.049  19.074  25.590  1.00  0.00    -0.406 OA
BRANCH  22  23
ATOM     23  C   UNL A   1      33.964  18.762  24.541  1.00  0.00     0.573 C 
ATOM     24  F   UNL A   1      33.300  18.538  23.387  1.00  0.00    -0.132 F 
ATOM     25  F   UNL A   1      34.865  19.751  24.387  1.00  0.00    -0.132 F 
ATOM     26  F   UNL A   1      34.625  17.634  24.881  1.00  0.00    -0.132 F 
ENDBRANCH  22  23
ENDBRANCH  15  22
ENDBRANCH   6   8
ENDBRANCH   3   4
ENDBRANCH   2   3
ENDBRANCH   1   2
BRANCH   1  27
ATOM     27  C   UNL A   1      36.888  22.235  25.140  1.00  0.00     0.116 C 
BRANCH  27  28
ATOM     28  N   UNL A   1      37.878  21.183  25.325  1.00  0.00    -0.352 N 
ATOM     29  C   UNL A   1      39.086  21.256  25.986  1.00  0.00     0.251 C 
ATOM     30  H   UNL A   1      37.658  20.310  24.925  1.00  0.00     0.163 HD
ATOM     31  O   UNL A   1      39.818  20.271  26.062  1.00  0.00    -0.269 OA
BRANCH  29  32
ATOM     32  C   UNL A   1      39.525  22.547  26.562  1.00  0.00     0.039 A 
ATOM     33  C   UNL A   1      40.561  22.546  27.501  1.00  0.00     0.014 A 
ATOM     34  C   UNL A   1      38.971  23.753  26.125  1.00  0.00     0.014 A 
ATOM     35  C   UNL A   1      41.100  23.760  27.935  1.00  0.00     0.010 A 
ATOM     36  C   UNL A   1      39.562  24.956  26.499  1.00  0.00     0.010 A 
ATOM     37  C   UNL A   1      40.633  24.974  27.406  1.00  0.00    -0.014 A 
BRANCH  37  38
ATOM     38  C   UNL A   1      41.251  26.270  27.790  1.00  0.00     0.031 A 
ATOM     39  C   UNL A   1      42.681  26.560  27.423  1.00  0.00     0.074 A 
ATOM     40  C   UNL A   1      40.552  27.154  28.533  1.00  0.00     0.049 A 
ATOM     41  N   UNL A   1      43.412  27.606  27.708  1.00  0.00    -0.248 NA
ATOM     42  C   UNL A   1      43.397  25.521  26.661  1.00  0.00     0.031 C 
ATOM     43  C   UNL A   1      39.191  26.951  29.036  1.00  0.00     0.029 A 
ATOM     44  N   UNL A   1      40.901  28.391  29.016  1.00  0.00    -0.354 N 
ATOM     45  C   UNL A   1      44.672  27.342  27.188  1.00  0.00     0.074 A 
ATOM     46  C   UNL A   1      44.625  26.016  26.614  1.00  0.00     0.031 C 
ATOM     47  C   UNL A   1      38.820  28.026  29.752  1.00  0.00     0.029 A 
ATOM     48  C   UNL A   1      39.916  28.988  29.771  1.00  0.00     0.049 A 
ATOM     49  H   UNL A   1      41.773  28.811  28.839  1.00  0.00     0.167 HD
ATOM     50  C   UNL A   1      45.762  28.146  27.149  1.00  0.00     0.034 A 
ATOM     51  C   UNL A   1      39.900  30.182  30.399  1.00  0.00     0.034 A 
ATOM     52  C   UNL A   1      45.793  29.483  27.673  1.00  0.00     0.049 A 
ATOM     53  C   UNL A   1      41.092  31.091  30.261  1.00  0.00     0.074 A 
ATOM     54  C   UNL A   1      46.832  30.396  27.649  1.00  0.00     0.029 A 
ATOM     55  N   UNL A   1      44.727  30.106  28.303  1.00  0.00    -0.354 N 
ATOM     56  N   UNL A   1      42.228  30.876  29.641  1.00  0.00    -0.248 NA
ATOM     57  C   UNL A   1      40.983  32.429  30.861  1.00  0.00     0.031 C 
ATOM     58  C   UNL A   1      46.389  31.577  28.257  1.00  0.00     0.029 A 
ATOM     59  C   UNL A   1      45.073  31.400  28.649  1.00  0.00     0.049 A 
ATOM     60  H   UNL A   1      43.853  29.689  28.478  1.00  0.00     0.167 HD
ATOM     61  C   UNL A   1      42.947  32.061  29.739  1.00  0.00     0.074 A 
ATOM     62  C   UNL A   1      42.109  32.999  30.458  1.00  0.00     0.031 C 
ATOM     63  C   UNL A   1      44.196  32.343  29.294  1.00  0.00     0.034 A 
BRANCH  50  64
ATOM     64  C   UNL A   1      46.982  27.624  26.435  1.00  0.00     0.023 A 
ATOM     65  C   UNL A   1      47.904  26.831  27.151  1.00  0.00     0.012 A 
ATOM     66  C   UNL A   1      47.201  27.872  25.068  1.00  0.00     0.148 A 
ATOM     67  C   UNL A   1      49.044  26.326  26.528  1.00  0.00     0.002 A 
ATOM     68  C   UNL A   1      48.319  27.330  24.442  1.00  0.00     0.091 A 
ATOM     69  F   UNL A   1      46.325  28.644  24.408  1.00  0.00    -0.205 F 
ATOM     70  C   UNL A   1      49.246  26.567  25.173  1.00  0.00     0.022 A 
BRANCH  68  71
ATOM     71  S   UNL A   1      48.637  27.519  22.684  1.00  0.00     0.127 S 
ATOM     72  O   UNL A   1      49.914  28.232  22.691  1.00  0.00    -0.237 OA
ATOM     73  O   UNL A   1      48.716  26.129  22.234  1.00  0.00    -0.237 OA
ATOM     74  O   UNL A   1      47.507  28.267  22.150  1.00  0.00    -0.744 OA
ENDBRANCH  68  71
ENDBRANCH  50  64
BRANCH  51  75
ATOM     75  C   UNL A   1      38.679  30.629  31.131  1.00  0.00     0.023 A 
ATOM     76  C   UNL A   1      38.582  30.398  32.517  1.00  0.00     0.012 A 
ATOM     77  C   UNL A   1      37.623  31.283  30.471  1.00  0.00     0.148 A 
ATOM     78  C   UNL A   1      37.438  30.771  33.225  1.00  0.00     0.002 A 
ATOM     79  C   UNL A   1      36.508  31.702  31.192  1.00  0.00     0.091 A 
ATOM     80  F   UNL A   1      37.722  31.483  29.149  1.00  0.00    -0.205 F 
ATOM     81  C   UNL A   1      36.406  31.431  32.565  1.00  0.00     0.022 A 
BRANCH  79  82
ATOM     82  S   UNL A   1      35.201  32.675  30.436  1.00  0.00     0.127 S 
ATOM     83  O   UNL A   1      34.237  32.785  31.527  1.00  0.00    -0.237 OA
ATOM     84  O   UNL A   1      35.896  33.920  30.099  1.00  0.00    -0.237 OA
ATOM     85  O   UNL A   1      34.774  31.903  29.276  1.00  0.00    -0.744 OA
ENDBRANCH  79  82
ENDBRANCH  51  75
BRANCH  63  86
ATOM     86  C   UNL A   1      44.718  33.736  29.521  1.00  0.00     0.023 A 
ATOM     87  C   UNL A   1      45.435  34.033  30.697  1.00  0.00     0.012 A 
ATOM     88  C   UNL A   1      44.550  34.734  28.542  1.00  0.00     0.148 A 
ATOM     89  C   UNL A   1      45.948  35.312  30.909  1.00  0.00     0.002 A 
ATOM     90  C   UNL A   1      45.102  35.994  28.741  1.00  0.00     0.091 A 
ATOM     91  F   UNL A   1      43.843  34.441  27.440  1.00  0.00    -0.205 F 
ATOM     92  C   UNL A   1      45.792  36.288  29.928  1.00  0.00     0.022 A 
BRANCH  90  93
ATOM     93  S   UNL A   1      45.022  37.273  27.481  1.00  0.00     0.127 S 
ATOM     94  O   UNL A   1      45.916  36.739  26.455  1.00  0.00    -0.237 OA
ATOM     95  O   UNL A   1      43.605  37.270  27.116  1.00  0.00    -0.237 OA
ATOM     96  O   UNL A   1      45.469  38.495  28.137  1.00  0.00    -0.744 OA
ENDBRANCH  90  93
ENDBRANCH  63  86
ENDBRANCH  37  38
ENDBRANCH  29  32
ENDBRANCH  27  28
ENDBRANCH   1  27
TORSDOF 17
ENDMDL
MODEL 2
REMARK VINA RESULT:     -12.8      5.110     10.198
REMARK SMILES O=C(NCCCCNC(=O)c1ccc(-c2c3nc(c(-c4cccc(S(=O)(=O)[O-])c4F)c4ccc([nH]4)c(-c4cccc(S(=O)(=O)[O-])c4F)c4nc(c(-c5cccc(S(=O)(=O)[O-])c5F)c5ccc2[nH]5)C=C4)C=C3)cc1)C1=Cc2cc(OC(F)(F)F)ccc2O[C@@H]1C(F)(F)F
REMARK SMILES IDX 6 1 5 2 4 3 3 4 1 5 2 6 74 8 75 9 88 10 76 11 87 12 77 13
REMARK SMILES IDX 86 14 78 15 85 16 84 17 89 18 90 19 91 20 92 21 79 22 80 23
REMARK SMILES IDX 81 24 82 25 83 26 7 27 8 28 9 29 10 31 11 32 12 33 73 34
REMARK SMILES IDX 13 35 72 36 14 37 15 38 16 39 66 40 17 41 71 42 65 43 67 44
REMARK SMILES IDX 18 45 70 46 64 47 63 48 19 50 51 51 31 52 50 53 32 54 35 55
REMARK SMILES IDX 49 56 68 57 33 58 34 59 48 61 69 62 36 63 20 64 21 65 29 66
REMARK SMILES IDX 22 67 24 68 30 69 23 70 25 71 26 72 27 73 28 74 52 75 53 76
REMARK SMILES IDX 61 77 54 78 56 79 62 80 55 81 57 82 58 83 59 84 60 85 37 86
REMARK SMILES IDX 38 87 46 88 39 89 41 90 47 91 40 92 42 93 43 94 44 95 45 96
REMARK H PARENT 3 7 8 30 67 49 35 60
REMARK Flexibility Score: inf
ROOT
ATOM      1  C   UNL A   1      31.607  28.782  26.155  1.00  0.00     0.023 C 
ENDROOT
BRANCH   1   2
ATOM      2  C   UNL A   1      31.916  27.386  26.693  1.00  0.00     0.023 C 
BRANCH   2   3
ATOM      3  C   UNL A   1      30.863  26.326  26.366  1.00  0.00     0.116 C 
BRANCH   3   4
ATOM      4  N   UNL A   1      31.184  24.990  26.874  1.00  0.00    -0.352 N 
ATOM      5  O   UNL A   1      32.304  23.011  26.941  1.00  0.00    -0.270 OA
ATOM      6  C   UNL A   1      31.941  23.990  26.302  1.00  0.00     0.251 C 
ATOM      7  H   UNL A   1      30.802  24.773  27.756  1.00  0.00     0.163 HD
BRANCH   6   8
ATOM      8  C   UNL A   1      32.391  24.184  24.910  1.00  0.00     0.067 C 
ATOM      9  C   UNL A   1      31.493  24.552  23.986  1.00  0.00     0.025 C 
ATOM     10  C   UNL A   1      33.866  24.323  24.683  1.00  0.00     0.314 C 
ATOM     11  C   UNL A   1      31.949  25.709  23.194  1.00  0.00     0.021 A 
ATOM     12  O   UNL A   1      34.200  25.637  24.172  1.00  0.00    -0.475 OA
ATOM     13  C   UNL A   1      30.972  26.489  22.562  1.00  0.00     0.058 A 
ATOM     14  C   UNL A   1      33.217  26.266  23.448  1.00  0.00     0.128 A 
ATOM     15  C   UNL A   1      31.217  27.840  22.300  1.00  0.00     0.130 A 
ATOM     16  C   UNL A   1      33.477  27.596  23.129  1.00  0.00     0.051 A 
ATOM     17  C   UNL A   1      32.471  28.390  22.577  1.00  0.00     0.050 A 
BRANCH  10  18
ATOM     18  C   UNL A   1      34.410  23.220  23.759  1.00  0.00     0.429 C 
ATOM     19  F   UNL A   1      34.104  23.469  22.462  1.00  0.00    -0.167 F 
ATOM     20  F   UNL A   1      35.759  23.119  23.828  1.00  0.00    -0.167 F 
ATOM     21  F   UNL A   1      33.907  21.997  24.055  1.00  0.00    -0.167 F 
ENDBRANCH  10  18
BRANCH  15  22
ATOM     22  O   UNL A   1      30.163  28.545  21.786  1.00  0.00    -0.406 OA
BRANCH  22  23
ATOM     23  C   UNL A   1      29.187  28.941  22.747  1.00  0.00     0.573 C 
ATOM     24  F   UNL A   1      28.787  27.880  23.479  1.00  0.00    -0.132 F 
ATOM     25  F   UNL A   1      29.671  29.914  23.544  1.00  0.00    -0.132 F 
ATOM     26  F   UNL A   1      28.117  29.430  22.082  1.00  0.00    -0.132 F 
ENDBRANCH  22  23
ENDBRANCH  15  22
ENDBRANCH   6   8
ENDBRANCH   3   4
ENDBRANCH   2   3
ENDBRANCH   1   2
BRANCH   1  27
ATOM     27  C   UNL A   1      32.779  29.759  26.062  1.00  0.00     0.116 C 
BRANCH  27  28
ATOM     28  N   UNL A   1      32.510  31.104  26.549  1.00  0.00    -0.352 N 
ATOM     29  C   UNL A   1      33.317  31.906  27.329  1.00  0.00     0.251 C 
ATOM     30  H   UNL A   1      31.641  31.490  26.290  1.00  0.00     0.163 HD
ATOM     31  O   UNL A   1      32.948  33.032  27.658  1.00  0.00    -0.269 OA
BRANCH  29  32
ATOM     32  C   UNL A   1      34.612  31.382  27.815  1.00  0.00     0.039 A 
ATOM     33  C   UNL A   1      35.669  32.277  28.008  1.00  0.00     0.014 A 
ATOM     34  C   UNL A   1      34.761  30.034  28.150  1.00  0.00     0.014 A 
ATOM     35  C   UNL A   1      36.846  31.834  28.618  1.00  0.00     0.010 A 
ATOM     36  C   UNL A   1      35.902  29.616  28.829  1.00  0.00     0.010 A 
ATOM     37  C   UNL A   1      36.957  30.510  29.071  1.00  0.00    -0.014 A 
BRANCH  37  38
ATOM     38  C   UNL A   1      38.166  30.044  29.799  1.00  0.00     0.031 A 
ATOM     39  C   UNL A   1      38.444  30.542  31.192  1.00  0.00     0.074 A 
ATOM     40  C   UNL A   1      39.050  29.234  29.182  1.00  0.00     0.049 A 
ATOM     41  N   UNL A   1      39.465  30.292  31.969  1.00  0.00    -0.248 NA
ATOM     42  C   UNL A   1      37.461  31.470  31.776  1.00  0.00     0.031 C 
ATOM     43  C   UNL A   1      38.946  28.758  27.800  1.00  0.00     0.029 A 
ATOM     44  N   UNL A   1      40.228  28.686  29.630  1.00  0.00    -0.354 N 
ATOM     45  C   UNL A   1      39.262  31.047  33.117  1.00  0.00     0.074 A 
ATOM     46  C   UNL A   1      38.048  31.805  32.915  1.00  0.00     0.031 C 
ATOM     47  C   UNL A   1      40.010  27.989  27.515  1.00  0.00     0.029 A 
ATOM     48  C   UNL A   1      40.879  27.925  28.685  1.00  0.00     0.049 A 
ATOM     49  H   UNL A   1      40.573  28.826  30.540  1.00  0.00     0.167 HD
ATOM     50  C   UNL A   1      39.994  31.077  34.257  1.00  0.00     0.034 A 
ATOM     51  C   UNL A   1      42.042  27.245  28.761  1.00  0.00     0.034 A 
ATOM     52  C   UNL A   1      41.172  30.284  34.476  1.00  0.00     0.049 A 
ATOM     53  C   UNL A   1      42.785  27.223  30.071  1.00  0.00     0.074 A 
ATOM     54  C   UNL A   1      41.963  30.209  35.608  1.00  0.00     0.029 A 
ATOM     55  N   UNL A   1      41.719  29.414  33.546  1.00  0.00    -0.354 N 
ATOM     56  N   UNL A   1      42.499  27.837  31.193  1.00  0.00    -0.248 NA
ATOM     57  C   UNL A   1      43.983  26.374  30.142  1.00  0.00     0.031 C 
ATOM     58  C   UNL A   1      42.985  29.283  35.365  1.00  0.00     0.029 A 
ATOM     59  C   UNL A   1      42.822  28.777  34.086  1.00  0.00     0.049 A 
ATOM     60  H   UNL A   1      41.373  29.271  32.636  1.00  0.00     0.167 HD
ATOM     61  C   UNL A   1      43.452  27.415  32.113  1.00  0.00     0.074 A 
ATOM     62  C   UNL A   1      44.310  26.475  31.423  1.00  0.00     0.031 C 
ATOM     63  C   UNL A   1      43.615  27.786  33.407  1.00  0.00     0.034 A 
BRANCH  50  64
ATOM     64  C   UNL A   1      39.482  31.935  35.385  1.00  0.00     0.023 A 
ATOM     65  C   UNL A   1      38.572  31.378  36.308  1.00  0.00     0.012 A 
ATOM     66  C   UNL A   1      39.921  33.259  35.562  1.00  0.00     0.148 A 
ATOM     67  C   UNL A   1      38.078  32.137  37.367  1.00  0.00     0.002 A 
ATOM     68  C   UNL A   1      39.456  33.997  36.646  1.00  0.00     0.091 A 
ATOM     69  F   UNL A   1      40.771  33.779  34.664  1.00  0.00    -0.205 F 
ATOM     70  C   UNL A   1      38.527  33.441  37.542  1.00  0.00     0.022 A 
BRANCH  68  71
ATOM     71  S   UNL A   1      40.025  35.664  37.004  1.00  0.00     0.127 S 
ATOM     72  O   UNL A   1      39.302  35.963  38.240  1.00  0.00    -0.237 OA
ATOM     73  O   UNL A   1      41.465  35.468  37.171  1.00  0.00    -0.237 OA
ATOM     74  O   UNL A   1      39.652  36.472  35.851  1.00  0.00    -0.744 OA
ENDBRANCH  68  71
ENDBRANCH  50  64
BRANCH  51  75
ATOM     75  C   UNL A   1      42.524  26.449  27.596  1.00  0.00     0.023 A 
ATOM     76  C   UNL A   1      43.401  27.045  26.668  1.00  0.00     0.012 A 
ATOM     77  C   UNL A   1      42.130  25.112  27.403  1.00  0.00     0.148 A 
ATOM     78  C   UNL A   1      43.841  26.339  25.547  1.00  0.00     0.002 A 
ATOM     79  C   UNL A   1      42.616  24.396  26.313  1.00  0.00     0.091 A 
ATOM     80  F   UNL A   1      41.284  24.562  28.286  1.00  0.00    -0.205 F 
ATOM     81  C   UNL A   1      43.457  25.013  25.375  1.00  0.00     0.022 A 
BRANCH  79  82
ATOM     82  S   UNL A   1      42.273  22.646  26.099  1.00  0.00     0.127 S 
ATOM     83  O   UNL A   1      42.895  22.372  24.808  1.00  0.00    -0.237 OA
ATOM     84  O   UNL A   1      42.955  22.052  27.251  1.00  0.00    -0.237 OA
ATOM     85  O   UNL A   1      40.820  22.534  26.150  1.00  0.00    -0.744 OA
ENDBRANCH  79  82
ENDBRANCH  51  75
BRANCH  63  86
ATOM     86  C   UNL A   1      44.732  27.139  34.181  1.00  0.00     0.023 A 
ATOM     87  C   UNL A   1      46.026  27.693  34.139  1.00  0.00     0.012 A 
ATOM     88  C   UNL A   1      44.484  26.018  34.997  1.00  0.00     0.148 A 
ATOM     89  C   UNL A   1      47.065  27.120  34.872  1.00  0.00     0.002 A 
ATOM     90  C   UNL A   1      45.514  25.479  35.759  1.00  0.00     0.091 A 
ATOM     91  F   UNL A   1      43.252  25.489  35.005  1.00  0.00    -0.205 F 
ATOM     92  C   UNL A   1      46.808  26.022  35.689  1.00  0.00     0.022 A 
BRANCH  90  93
ATOM     93  S   UNL A   1      45.236  24.124  36.905  1.00  0.00     0.127 S 
ATOM     94  O   UNL A   1      46.559  23.965  37.506  1.00  0.00    -0.237 OA
ATOM     95  O   UNL A   1      44.221  24.674  37.805  1.00  0.00    -0.237 OA
ATOM     96  O   UNL A   1      44.772  23.011  36.088  1.00  0.00    -0.744 OA
ENDBRANCH  90  93
ENDBRANCH  63  86
ENDBRANCH  37  38
ENDBRANCH  29  32
ENDBRANCH  27  28
ENDBRANCH   1  27
TORSDOF 17
ENDMDL
MODEL 3
REMARK VINA RESULT:     -12.5      5.070      9.815
REMARK SMILES O=C(NCCCCNC(=O)c1ccc(-c2c3nc(c(-c4cccc(S(=O)(=O)[O-])c4F)c4ccc([nH]4)c(-c4cccc(S(=O)(=O)[O-])c4F)c4nc(c(-c5cccc(S(=O)(=O)[O-])c5F)c5ccc2[nH]5)C=C4)C=C3)cc1)C1=Cc2cc(OC(F)(F)F)ccc2O[C@@H]1C(F)(F)F
REMARK SMILES IDX 6 1 5 2 4 3 3 4 1 5 2 6 74 8 75 9 88 10 76 11 87 12 77 13
REMARK SMILES IDX 86 14 78 15 85 16 84 17 89 18 90 19 91 20 92 21 79 22 80 23
REMARK SMILES IDX 81 24 82 25 83 26 7 27 8 28 9 29 10 31 11 32 12 33 73 34
REMARK SMILES IDX 13 35 72 36 14 37 15 38 16 39 66 40 17 41 71 42 65 43 67 44
REMARK SMILES IDX 18 45 70 46 64 47 63 48 19 50 51 51 31 52 50 53 32 54 35 55
REMARK SMILES IDX 49 56 68 57 33 58 34 59 48 61 69 62 36 63 20 64 21 65 29 66
REMARK SMILES IDX 22 67 24 68 30 69 23 70 25 71 26 72 27 73 28 74 52 75 53 76
REMARK SMILES IDX 61 77 54 78 56 79 62 80 55 81 57 82 58 83 59 84 60 85 37 86
REMARK SMILES IDX 38 87 46 88 39 89 41 90 47 91 40 92 42 93 43 94 44 95 45 96
REMARK H PARENT 3 7 8 30 67 49 35 60
REMARK Flexibility Score: inf
ROOT
ATOM      1  C   UNL A   1      31.401  29.204  25.019  1.00  0.00     0.023 C 
ENDROOT
BRANCH   1   2
ATOM      2  C   UNL A   1      31.835  28.814  23.607  1.00  0.00     0.023 C 
BRANCH   2   3
ATOM      3  C   UNL A   1      31.226  27.513  23.085  1.00  0.00     0.116 C 
BRANCH   3   4
ATOM      4  N   UNL A   1      32.065  26.810  22.110  1.00  0.00    -0.352 N 
ATOM      5  O   UNL A   1      33.223  25.046  21.261  1.00  0.00    -0.270 OA
ATOM      6  C   UNL A   1      32.745  25.617  22.232  1.00  0.00     0.251 C 
ATOM      7  H   UNL A   1      32.157  27.257  21.237  1.00  0.00     0.163 HD
BRANCH   6   8
ATOM      8  C   UNL A   1      32.792  24.990  23.568  1.00  0.00     0.067 C 
ATOM      9  C   UNL A   1      32.012  23.928  23.811  1.00  0.00     0.025 C 
ATOM     10  C   UNL A   1      33.959  25.335  24.442  1.00  0.00     0.314 C 
ATOM     11  C   UNL A   1      32.764  22.808  24.406  1.00  0.00     0.021 A 
ATOM     12  O   UNL A   1      34.783  24.174  24.704  1.00  0.00    -0.475 OA
ATOM     13  C   UNL A   1      32.233  21.520  24.264  1.00  0.00     0.058 A 
ATOM     14  C   UNL A   1      34.138  22.961  24.674  1.00  0.00     0.128 A 
ATOM     15  C   UNL A   1      33.081  20.410  24.265  1.00  0.00     0.130 A 
ATOM     16  C   UNL A   1      34.970  21.847  24.735  1.00  0.00     0.051 A 
ATOM     17  C   UNL A   1      34.447  20.573  24.507  1.00  0.00     0.050 A 
BRANCH  10  18
ATOM     18  C   UNL A   1      33.514  26.001  25.756  1.00  0.00     0.429 C 
ATOM     19  F   UNL A   1      33.696  25.172  26.813  1.00  0.00    -0.167 F 
ATOM     20  F   UNL A   1      34.219  27.127  26.018  1.00  0.00    -0.167 F 
ATOM     21  F   UNL A   1      32.204  26.347  25.747  1.00  0.00    -0.167 F 
ENDBRANCH  10  18
BRANCH  15  22
ATOM     22  O   UNL A   1      32.483  19.207  24.006  1.00  0.00    -0.406 OA
BRANCH  22  23
ATOM     23  C   UNL A   1      32.755  18.188  24.967  1.00  0.00     0.573 C 
ATOM     24  F   UNL A   1      31.821  17.216  24.901  1.00  0.00    -0.132 F 
ATOM     25  F   UNL A   1      33.988  17.677  24.784  1.00  0.00    -0.132 F 
ATOM     26  F   UNL A   1      32.705  18.747  26.196  1.00  0.00    -0.132 F 
ENDBRANCH  22  23
ENDBRANCH  15  22
ENDBRANCH   6   8
ENDBRANCH   3   4
ENDBRANCH   2   3
ENDBRANCH   1   2
BRANCH   1  27
ATOM     27  C   UNL A   1      32.470  29.816  25.924  1.00  0.00     0.116 C 
BRANCH  27  28
ATOM     28  N   UNL A   1      32.181  31.159  26.409  1.00  0.00    -0.352 N 
ATOM     29  C   UNL A   1      32.977  31.973  27.187  1.00  0.00     0.251 C 
ATOM     30  H   UNL A   1      31.307  31.531  26.151  1.00  0.00     0.163 HD
ATOM     31  O   UNL A   1      32.593  33.095  27.515  1.00  0.00    -0.269 OA
BRANCH  29  32
ATOM     32  C   UNL A   1      34.281  31.470  27.673  1.00  0.00     0.039 A 
ATOM     33  C   UNL A   1      35.322  32.382  27.873  1.00  0.00     0.014 A 
ATOM     34  C   UNL A   1      34.453  30.122  27.999  1.00  0.00     0.014 A 
ATOM     35  C   UNL A   1      36.505  31.956  28.482  1.00  0.00     0.010 A 
ATOM     36  C   UNL A   1      35.600  29.720  28.678  1.00  0.00     0.010 A 
ATOM     37  C   UNL A   1      36.638  30.631  28.927  1.00  0.00    -0.014 A 
BRANCH  37  38
ATOM     38  C   UNL A   1      37.854  30.181  29.655  1.00  0.00     0.031 A 
ATOM     39  C   UNL A   1      38.123  30.679  31.050  1.00  0.00     0.074 A 
ATOM     40  C   UNL A   1      38.751  29.388  29.036  1.00  0.00     0.049 A 
ATOM     41  N   UNL A   1      39.147  30.443  31.827  1.00  0.00    -0.248 NA
ATOM     42  C   UNL A   1      37.125  31.590  31.636  1.00  0.00     0.031 C 
ATOM     43  C   UNL A   1      38.656  28.915  27.652  1.00  0.00     0.029 A 
ATOM     44  N   UNL A   1      39.937  28.857  29.483  1.00  0.00    -0.354 N 
ATOM     45  C   UNL A   1      38.932  31.191  32.977  1.00  0.00     0.074 A 
ATOM     46  C   UNL A   1      37.705  31.931  32.777  1.00  0.00     0.031 C 
ATOM     47  C   UNL A   1      39.733  28.163  27.366  1.00  0.00     0.029 A 
ATOM     48  C   UNL A   1      40.601  28.110  28.537  1.00  0.00     0.049 A 
ATOM     49  H   UNL A   1      40.279  28.999  30.394  1.00  0.00     0.167 HD
ATOM     50  C   UNL A   1      39.661  31.229  34.118  1.00  0.00     0.034 A 
ATOM     51  C   UNL A   1      41.774  27.448  28.611  1.00  0.00     0.034 A 
ATOM     52  C   UNL A   1      40.852  30.454  34.335  1.00  0.00     0.049 A 
ATOM     53  C   UNL A   1      42.517  27.433  29.921  1.00  0.00     0.074 A 
ATOM     54  C   UNL A   1      41.644  30.387  35.468  1.00  0.00     0.029 A 
ATOM     55  N   UNL A   1      41.413  29.596  33.403  1.00  0.00    -0.354 N 
ATOM     56  N   UNL A   1      42.220  28.039  31.046  1.00  0.00    -0.248 NA
ATOM     57  C   UNL A   1      43.728  26.603  29.991  1.00  0.00     0.031 C 
ATOM     58  C   UNL A   1      42.680  29.478  35.223  1.00  0.00     0.029 A 
ATOM     59  C   UNL A   1      42.525  28.974  33.942  1.00  0.00     0.049 A 
ATOM     60  H   UNL A   1      41.070  29.450  32.492  1.00  0.00     0.167 HD
ATOM     61  C   UNL A   1      43.179  27.629  31.965  1.00  0.00     0.074 A 
ATOM     62  C   UNL A   1      44.053  26.705  31.272  1.00  0.00     0.031 C 
ATOM     63  C   UNL A   1      43.335  27.998  33.260  1.00  0.00     0.034 A 
BRANCH  50  64
ATOM     64  C   UNL A   1      39.136  32.075  35.248  1.00  0.00     0.023 A 
ATOM     65  C   UNL A   1      39.231  33.479  35.151  1.00  0.00     0.012 A 
ATOM     66  C   UNL A   1      38.518  31.501  36.375  1.00  0.00     0.148 A 
ATOM     67  C   UNL A   1      38.755  34.298  36.174  1.00  0.00     0.002 A 
ATOM     68  C   UNL A   1      38.007  32.326  37.372  1.00  0.00     0.091 A 
ATOM     69  F   UNL A   1      38.455  30.164  36.460  1.00  0.00    -0.205 F 
ATOM     70  C   UNL A   1      38.134  33.722  37.278  1.00  0.00     0.022 A 
BRANCH  68  71
ATOM     71  S   UNL A   1      37.126  31.690  38.803  1.00  0.00     0.127 S 
ATOM     72  O   UNL A   1      38.095  31.924  39.873  1.00  0.00    -0.237 OA
ATOM     73  O   UNL A   1      35.947  32.555  38.847  1.00  0.00    -0.237 OA
ATOM     74  O   UNL A   1      36.842  30.291  38.511  1.00  0.00    -0.744 OA
ENDBRANCH  68  71
ENDBRANCH  50  64
BRANCH  51  75
ATOM     75  C   UNL A   1      42.270  26.664  27.444  1.00  0.00     0.023 A 
ATOM     76  C   UNL A   1      43.003  27.317  26.434  1.00  0.00     0.012 A 
ATOM     77  C   UNL A   1      42.030  25.282  27.329  1.00  0.00     0.148 A 
ATOM     78  C   UNL A   1      43.449  26.619  25.311  1.00  0.00     0.002 A 
ATOM     79  C   UNL A   1      42.525  24.580  26.233  1.00  0.00     0.091 A 
ATOM     80  F   UNL A   1      41.318  24.675  28.290  1.00  0.00    -0.205 F 
ATOM     81  C   UNL A   1      43.219  25.250  25.215  1.00  0.00     0.022 A 
BRANCH  79  82
ATOM     82  S   UNL A   1      42.383  22.794  26.108  1.00  0.00     0.127 S 
ATOM     83  O   UNL A   1      43.143  22.349  27.272  1.00  0.00    -0.237 OA
ATOM     84  O   UNL A   1      40.935  22.590  26.203  1.00  0.00    -0.237 OA
ATOM     85  O   UNL A   1      42.944  22.457  24.806  1.00  0.00    -0.744 OA
ENDBRANCH  79  82
ENDBRANCH  51  75
BRANCH  63  86
ATOM     86  C   UNL A   1      44.462  27.367  34.033  1.00  0.00     0.023 A 
ATOM     87  C   UNL A   1      45.759  27.907  33.948  1.00  0.00     0.012 A 
ATOM     88  C   UNL A   1      44.220  26.275  34.890  1.00  0.00     0.148 A 
ATOM     89  C   UNL A   1      46.808  27.349  34.679  1.00  0.00     0.002 A 
ATOM     90  C   UNL A   1      45.261  25.752  35.649  1.00  0.00     0.091 A 
ATOM     91  F   UNL A   1      42.984  25.758  34.939  1.00  0.00    -0.205 F 
ATOM     92  C   UNL A   1      46.557  26.280  35.536  1.00  0.00     0.022 A 
BRANCH  90  93
ATOM     93  S   UNL A   1      44.994  24.437  36.844  1.00  0.00     0.127 S 
ATOM     94  O   UNL A   1      44.696  23.300  35.976  1.00  0.00    -0.237 OA
ATOM     95  O   UNL A   1      46.287  24.361  37.526  1.00  0.00    -0.237 OA
ATOM     96  O   UNL A   1      43.898  24.895  37.689  1.00  0.00    -0.744 OA
ENDBRANCH  90  93
ENDBRANCH  63  86
ENDBRANCH  37  38
ENDBRANCH  29  32
ENDBRANCH  27  28
ENDBRANCH   1  27
TORSDOF 17
ENDMDL
