MODEL 1
REMARK VINA RESULT:     -12.5      0.000      0.000
REMARK SMILES O=C(C[C@H]1C[N@@H+]([C@@H]2CC(=O)NC2=O)CCO1)NCCCCNC(=O)c1ccc(-c2c3nc(c(-c4cccc(S(=O)(=O)[O-])c4F)c4ccc([nH]4)c(-c4cccc(S(=O)(=O)[O-])c4F)c4nc(c(-c5cccc(S(=O)(=O)[O-])c5F)c5ccc2[nH]5)C=C4)C=C3)cc1
REMARK SMILES IDX 20 1 19 2 18 3 17 4 1 5 2 6 3 8 4 9 5 10 16 11 6 12 15 13
REMARK SMILES IDX 14 14 7 16 8 17 12 18 9 19 11 20 13 21 10 22 21 24 22 25
REMARK SMILES IDX 23 26 24 28 25 29 26 30 87 31 27 32 86 33 28 34 29 35 30 36
REMARK SMILES IDX 80 37 31 38 85 39 79 40 81 41 32 42 84 43 78 44 77 45 33 47
REMARK SMILES IDX 65 48 45 49 64 50 46 51 49 52 63 53 82 54 47 55 48 56 62 58
REMARK SMILES IDX 83 59 50 60 34 61 35 62 43 63 36 64 38 65 44 66 37 67 39 68
REMARK SMILES IDX 40 69 41 70 42 71 66 72 67 73 75 74 68 75 70 76 76 77 69 78
REMARK SMILES IDX 71 79 72 80 73 81 74 82 51 83 52 84 60 85 53 86 55 87 61 88
REMARK SMILES IDX 54 89 56 90 57 91 58 92 59 93
REMARK H PARENT 17 7 6 15 11 23 22 27 81 46 49 57
REMARK Flexibility Score: inf
ROOT
ATOM      1  C   UNL A   1      31.470  31.855  26.697  1.00  0.00     0.023 C 
ENDROOT
BRANCH   1   2
ATOM      2  C   UNL A   1      31.691  30.525  25.971  1.00  0.00     0.023 C 
BRANCH   2   3
ATOM      3  C   UNL A   1      31.850  29.293  26.875  1.00  0.00     0.116 C 
BRANCH   3   4
ATOM      4  N   UNL A   1      31.779  27.872  25.979  1.00  0.00    -0.356 N 
ATOM      5  O   UNL A   1      33.709  27.353  23.794  1.00  0.00    -0.275 OA
ATOM      6  C   UNL A   1      32.776  26.909  24.549  1.00  0.00     0.222 C 
ATOM      7  H   UNL A   1      30.992  27.347  26.249  1.00  0.00     0.163 HD
BRANCH   6   8
ATOM      8  C   UNL A   1      32.660  25.342  24.021  1.00  0.00     0.138 C 
BRANCH   8   9
ATOM      9  C   UNL A   1      31.192  24.860  23.957  1.00  0.00     0.182 C 
ATOM     10  C   UNL A   1      31.049  23.343  23.773  1.00  0.00     0.295 C 
ATOM     11  O   UNL A   1      30.391  25.337  25.052  1.00  0.00    -0.366 OA
ATOM     12  N   UNL A   1      31.488  22.638  24.975  1.00  0.00    -0.320 N 
ATOM     13  C   UNL A   1      30.424  24.559  26.256  1.00  0.00     0.222 C 
ATOM     14  C   UNL A   1      30.568  23.040  26.062  1.00  0.00     0.291 C 
ATOM     15  H   UNL A   1      31.454  21.637  24.782  1.00  0.00     0.348 HD
BRANCH  12  16
ATOM     16  C   UNL A   1      32.894  22.863  25.365  1.00  0.00     0.284 C 
ATOM     17  C   UNL A   1      34.509  22.290  24.242  1.00  0.00     0.176 C 
ATOM     18  C   UNL A   1      33.305  22.275  27.288  1.00  0.00     0.285 C 
ATOM     19  C   UNL A   1      35.739  21.309  25.558  1.00  0.00     0.233 C 
ATOM     20  N   UNL A   1      34.962  21.447  27.196  1.00  0.00    -0.291 N 
ATOM     21  O   UNL A   1      32.663  22.430  28.317  1.00  0.00    -0.268 OA
ATOM     22  O   UNL A   1      36.829  20.812  25.343  1.00  0.00    -0.274 OA
ATOM     23  H   UNL A   1      35.403  21.095  28.002  1.00  0.00     0.173 HD
ENDBRANCH  12  16
ENDBRANCH   8   9
ENDBRANCH   6   8
ENDBRANCH   3   4
ENDBRANCH   2   3
ENDBRANCH   1   2
BRANCH   1  24
ATOM     24  C   UNL A   1      32.723  32.536  27.250  1.00  0.00     0.116 C 
BRANCH  24  25
ATOM     25  N   UNL A   1      32.497  33.921  27.614  1.00  0.00    -0.352 N 
ATOM     26  C   UNL A   1      33.117  34.690  28.566  1.00  0.00     0.251 C 
ATOM     27  H   UNL A   1      31.793  34.379  27.099  1.00  0.00     0.163 HD
ATOM     28  O   UNL A   1      32.671  35.805  28.822  1.00  0.00    -0.269 OA
BRANCH  26  29
ATOM     29  C   UNL A   1      34.294  34.176  29.304  1.00  0.00     0.039 A 
ATOM     30  C   UNL A   1      34.072  33.421  30.459  1.00  0.00     0.014 A 
ATOM     31  C   UNL A   1      35.600  34.451  28.892  1.00  0.00     0.014 A 
ATOM     32  C   UNL A   1      35.156  32.897  31.167  1.00  0.00     0.010 A 
ATOM     33  C   UNL A   1      36.678  33.862  29.556  1.00  0.00     0.010 A 
ATOM     34  C   UNL A   1      36.469  33.083  30.704  1.00  0.00    -0.014 A 
BRANCH  34  35
ATOM     35  C   UNL A   1      37.621  32.455  31.407  1.00  0.00     0.031 A 
ATOM     36  C   UNL A   1      38.370  31.308  30.784  1.00  0.00     0.074 A 
ATOM     37  C   UNL A   1      37.960  32.883  32.640  1.00  0.00     0.049 A 
ATOM     38  N   UNL A   1      39.376  30.624  31.266  1.00  0.00    -0.248 NA
ATOM     39  C   UNL A   1      37.920  30.857  29.458  1.00  0.00     0.031 C 
ATOM     40  C   UNL A   1      37.275  33.943  33.385  1.00  0.00     0.029 A 
ATOM     41  N   UNL A   1      38.951  32.467  33.495  1.00  0.00    -0.354 N 
ATOM     42  C   UNL A   1      39.662  29.647  30.319  1.00  0.00     0.074 A 
ATOM     43  C   UNL A   1      38.698  29.804  29.250  1.00  0.00     0.031 C 
ATOM     44  C   UNL A   1      37.868  34.096  34.579  1.00  0.00     0.029 A 
ATOM     45  C   UNL A   1      38.947  33.121  34.705  1.00  0.00     0.049 A 
ATOM     46  H   UNL A   1      39.603  31.766  33.263  1.00  0.00     0.167 HD
ATOM     47  C   UNL A   1      40.649  28.719  30.323  1.00  0.00     0.034 A 
ATOM     48  C   UNL A   1      39.710  32.946  35.802  1.00  0.00     0.034 A 
ATOM     49  C   UNL A   1      41.618  28.573  31.377  1.00  0.00     0.049 A 
ATOM     50  C   UNL A   1      40.802  31.912  35.781  1.00  0.00     0.074 A 
ATOM     51  C   UNL A   1      42.697  27.710  31.439  1.00  0.00     0.029 A 
ATOM     52  N   UNL A   1      41.616  29.293  32.562  1.00  0.00    -0.354 N 
ATOM     53  N   UNL A   1      41.143  31.093  34.817  1.00  0.00    -0.248 NA
ATOM     54  C   UNL A   1      41.637  31.802  36.987  1.00  0.00     0.031 C 
ATOM     55  C   UNL A   1      43.321  27.876  32.680  1.00  0.00     0.029 A 
ATOM     56  C   UNL A   1      42.663  28.881  33.369  1.00  0.00     0.049 A 
ATOM     57  H   UNL A   1      40.965  29.993  32.796  1.00  0.00     0.167 HD
ATOM     58  C   UNL A   1      42.253  30.398  35.283  1.00  0.00     0.074 A 
ATOM     59  C   UNL A   1      42.538  30.907  36.608  1.00  0.00     0.031 C 
ATOM     60  C   UNL A   1      42.965  29.420  34.671  1.00  0.00     0.034 A 
BRANCH  47  61
ATOM     61  C   UNL A   1      40.752  27.799  29.130  1.00  0.00     0.023 A 
ATOM     62  C   UNL A   1      39.938  26.650  29.059  1.00  0.00     0.012 A 
ATOM     63  C   UNL A   1      41.611  28.104  28.056  1.00  0.00     0.148 A 
ATOM     64  C   UNL A   1      40.008  25.796  27.959  1.00  0.00     0.002 A 
ATOM     65  C   UNL A   1      41.638  27.275  26.940  1.00  0.00     0.091 A 
ATOM     66  F   UNL A   1      42.389  29.192  28.146  1.00  0.00    -0.205 F 
ATOM     67  C   UNL A   1      40.849  26.113  26.896  1.00  0.00     0.022 A 
BRANCH  65  68
ATOM     68  S   UNL A   1      42.622  27.641  25.482  1.00  0.00     0.127 S 
ATOM     69  O   UNL A   1      42.359  26.468  24.649  1.00  0.00    -0.237 OA
ATOM     70  O   UNL A   1      42.009  28.880  25.003  1.00  0.00    -0.237 OA
ATOM     71  O   UNL A   1      43.995  27.779  25.946  1.00  0.00    -0.744 OA
ENDBRANCH  65  68
ENDBRANCH  47  61
BRANCH  48  72
ATOM     72  C   UNL A   1      39.484  33.794  37.007  1.00  0.00     0.023 A 
ATOM     73  C   UNL A   1      39.890  35.143  37.002  1.00  0.00     0.012 A 
ATOM     74  C   UNL A   1      38.852  33.272  38.152  1.00  0.00     0.148 A 
ATOM     75  C   UNL A   1      39.704  35.945  38.129  1.00  0.00     0.002 A 
ATOM     76  C   UNL A   1      38.614  34.092  39.248  1.00  0.00     0.091 A 
ATOM     77  F   UNL A   1      38.480  31.984  38.139  1.00  0.00    -0.205 F 
ATOM     78  C   UNL A   1      39.058  35.423  39.248  1.00  0.00     0.022 A 
BRANCH  76  79
ATOM     79  S   UNL A   1      37.669  33.543  40.673  1.00  0.00     0.127 S 
ATOM     80  O   UNL A   1      37.548  34.777  41.445  1.00  0.00    -0.237 OA
ATOM     81  O   UNL A   1      36.431  33.079  40.049  1.00  0.00    -0.237 OA
ATOM     82  O   UNL A   1      38.462  32.488  41.292  1.00  0.00    -0.744 OA
ENDBRANCH  76  79
ENDBRANCH  48  72
BRANCH  60  83
ATOM     83  C   UNL A   1      44.162  28.862  35.401  1.00  0.00     0.023 A 
ATOM     84  C   UNL A   1      45.435  29.439  35.224  1.00  0.00     0.012 A 
ATOM     85  C   UNL A   1      44.005  27.801  36.316  1.00  0.00     0.148 A 
ATOM     86  C   UNL A   1      46.539  28.944  35.916  1.00  0.00     0.002 A 
ATOM     87  C   UNL A   1      45.099  27.350  37.043  1.00  0.00     0.091 A 
ATOM     88  F   UNL A   1      42.790  27.253  36.458  1.00  0.00    -0.205 F 
ATOM     89  C   UNL A   1      46.370  27.910  36.834  1.00  0.00     0.022 A 
BRANCH  87  90
ATOM     90  S   UNL A   1      44.960  26.092  38.317  1.00  0.00     0.127 S 
ATOM     91  O   UNL A   1      43.999  26.703  39.235  1.00  0.00    -0.237 OA
ATOM     92  O   UNL A   1      44.443  24.949  37.565  1.00  0.00    -0.237 OA
ATOM     93  O   UNL A   1      46.302  25.909  38.853  1.00  0.00    -0.744 OA
ENDBRANCH  87  90
ENDBRANCH  60  83
ENDBRANCH  34  35
ENDBRANCH  26  29
ENDBRANCH  24  25
ENDBRANCH   1  24
TORSDOF 16
ENDMDL
MODEL 2
REMARK VINA RESULT:     -12.5      1.190      1.908
REMARK SMILES O=C(C[C@H]1C[N@@H+]([C@@H]2CC(=O)NC2=O)CCO1)NCCCCNC(=O)c1ccc(-c2c3nc(c(-c4cccc(S(=O)(=O)[O-])c4F)c4ccc([nH]4)c(-c4cccc(S(=O)(=O)[O-])c4F)c4nc(c(-c5cccc(S(=O)(=O)[O-])c5F)c5ccc2[nH]5)C=C4)C=C3)cc1
REMARK SMILES IDX 20 1 19 2 18 3 17 4 1 5 2 6 3 8 4 9 5 10 16 11 6 12 15 13
REMARK SMILES IDX 14 14 7 16 8 17 12 18 9 19 11 20 13 21 10 22 21 24 22 25
REMARK SMILES IDX 23 26 24 28 25 29 26 30 87 31 27 32 86 33 28 34 29 35 30 36
REMARK SMILES IDX 80 37 31 38 85 39 79 40 81 41 32 42 84 43 78 44 77 45 33 47
REMARK SMILES IDX 65 48 45 49 64 50 46 51 49 52 63 53 82 54 47 55 48 56 62 58
REMARK SMILES IDX 83 59 50 60 34 61 35 62 43 63 36 64 38 65 44 66 37 67 39 68
REMARK SMILES IDX 40 69 41 70 42 71 66 72 67 73 75 74 68 75 70 76 76 77 69 78
REMARK SMILES IDX 71 79 72 80 73 81 74 82 51 83 52 84 60 85 53 86 55 87 61 88
REMARK SMILES IDX 54 89 56 90 57 91 58 92 59 93
REMARK H PARENT 17 7 6 15 11 23 22 27 81 46 49 57
REMARK Flexibility Score: inf
ROOT
ATOM      1  C   UNL A   1      31.536  32.273  26.686  1.00  0.00     0.023 C 
ENDROOT
BRANCH   1   2
ATOM      2  C   UNL A   1      31.542  30.742  26.628  1.00  0.00     0.023 C 
BRANCH   2   3
ATOM      3  C   UNL A   1      31.353  30.130  25.231  1.00  0.00     0.116 C 
BRANCH   3   4
ATOM      4  N   UNL A   1      31.711  28.488  25.238  1.00  0.00    -0.356 N 
ATOM      5  O   UNL A   1      34.201  27.476  26.481  1.00  0.00    -0.275 OA
ATOM      6  C   UNL A   1      33.063  27.214  25.957  1.00  0.00     0.222 C 
ATOM      7  H   UNL A   1      31.032  27.997  24.720  1.00  0.00     0.163 HD
BRANCH   6   8
ATOM      8  C   UNL A   1      33.036  25.561  26.067  1.00  0.00     0.138 C 
BRANCH   8   9
ATOM      9  C   UNL A   1      31.729  25.045  26.713  1.00  0.00     0.182 C 
ATOM     10  C   UNL A   1      30.548  24.969  25.737  1.00  0.00     0.295 C 
ATOM     11  O   UNL A   1      31.902  23.810  27.430  1.00  0.00    -0.366 OA
ATOM     12  N   UNL A   1      30.767  23.916  24.747  1.00  0.00    -0.320 N 
ATOM     13  C   UNL A   1      31.809  22.603  26.660  1.00  0.00     0.222 C 
ATOM     14  C   UNL A   1      30.810  22.637  25.491  1.00  0.00     0.291 C 
ATOM     15  H   UNL A   1      30.003  23.954  24.073  1.00  0.00     0.348 HD
BRANCH  12  16
ATOM     16  C   UNL A   1      31.971  24.077  23.907  1.00  0.00     0.284 C 
ATOM     17  C   UNL A   1      32.321  25.685  22.687  1.00  0.00     0.176 C 
ATOM     18  C   UNL A   1      32.403  22.412  22.787  1.00  0.00     0.285 C 
ATOM     19  C   UNL A   1      32.850  24.867  20.883  1.00  0.00     0.233 C 
ATOM     20  N   UNL A   1      32.908  23.066  21.126  1.00  0.00    -0.291 N 
ATOM     21  O   UNL A   1      32.385  21.227  23.090  1.00  0.00    -0.268 OA
ATOM     22  O   UNL A   1      33.169  25.443  19.858  1.00  0.00    -0.274 OA
ATOM     23  H   UNL A   1      33.195  22.462  20.405  1.00  0.00     0.173 HD
ENDBRANCH  12  16
ENDBRANCH   8   9
ENDBRANCH   6   8
ENDBRANCH   3   4
ENDBRANCH   2   3
ENDBRANCH   1   2
BRANCH   1  24
ATOM     24  C   UNL A   1      32.774  32.928  27.301  1.00  0.00     0.116 C 
BRANCH  24  25
ATOM     25  N   UNL A   1      32.527  34.279  27.763  1.00  0.00    -0.352 N 
ATOM     26  C   UNL A   1      33.120  34.981  28.781  1.00  0.00     0.251 C 
ATOM     27  H   UNL A   1      31.826  34.767  27.270  1.00  0.00     0.163 HD
ATOM     28  O   UNL A   1      32.657  36.069  29.112  1.00  0.00    -0.269 OA
BRANCH  26  29
ATOM     29  C   UNL A   1      34.289  34.425  29.500  1.00  0.00     0.039 A 
ATOM     30  C   UNL A   1      34.061  33.691  30.667  1.00  0.00     0.014 A 
ATOM     31  C   UNL A   1      35.598  34.640  29.059  1.00  0.00     0.014 A 
ATOM     32  C   UNL A   1      35.137  33.129  31.358  1.00  0.00     0.010 A 
ATOM     33  C   UNL A   1      36.664  34.013  29.706  1.00  0.00     0.010 A 
ATOM     34  C   UNL A   1      36.446  33.256  30.867  1.00  0.00    -0.014 A 
BRANCH  34  35
ATOM     35  C   UNL A   1      37.585  32.587  31.552  1.00  0.00     0.031 A 
ATOM     36  C   UNL A   1      38.301  31.431  30.906  1.00  0.00     0.074 A 
ATOM     37  C   UNL A   1      37.942  32.985  32.791  1.00  0.00     0.049 A 
ATOM     38  N   UNL A   1      39.292  30.714  31.370  1.00  0.00    -0.248 NA
ATOM     39  C   UNL A   1      37.833  31.014  29.575  1.00  0.00     0.031 C 
ATOM     40  C   UNL A   1      37.288  34.048  33.557  1.00  0.00     0.029 A 
ATOM     41  N   UNL A   1      38.927  32.529  33.633  1.00  0.00    -0.354 N 
ATOM     42  C   UNL A   1      39.548  29.746  30.405  1.00  0.00     0.074 A 
ATOM     43  C   UNL A   1      38.583  29.946  29.345  1.00  0.00     0.031 C 
ATOM     44  C   UNL A   1      37.891  34.166  34.750  1.00  0.00     0.029 A 
ATOM     45  C   UNL A   1      38.946  33.162  34.853  1.00  0.00     0.049 A 
ATOM     46  H   UNL A   1      39.559  31.816  33.385  1.00  0.00     0.167 HD
ATOM     47  C   UNL A   1      40.512  28.794  30.388  1.00  0.00     0.034 A 
ATOM     48  C   UNL A   1      39.709  32.949  35.943  1.00  0.00     0.034 A 
ATOM     49  C   UNL A   1      41.482  28.605  31.434  1.00  0.00     0.049 A 
ATOM     50  C   UNL A   1      40.774  31.888  35.898  1.00  0.00     0.074 A 
ATOM     51  C   UNL A   1      42.539  27.714  31.475  1.00  0.00     0.029 A 
ATOM     52  N   UNL A   1      41.504  29.304  32.631  1.00  0.00    -0.354 N 
ATOM     53  N   UNL A   1      41.089  31.077  34.919  1.00  0.00    -0.248 NA
ATOM     54  C   UNL A   1      41.612  31.736  37.097  1.00  0.00     0.031 C 
ATOM     55  C   UNL A   1      43.173  27.842  32.715  1.00  0.00     0.029 A 
ATOM     56  C   UNL A   1      42.545  28.852  33.425  1.00  0.00     0.049 A 
ATOM     57  H   UNL A   1      40.873  30.017  32.880  1.00  0.00     0.167 HD
ATOM     58  C   UNL A   1      42.184  30.346  35.366  1.00  0.00     0.074 A 
ATOM     59  C   UNL A   1      42.489  30.825  36.699  1.00  0.00     0.031 C 
ATOM     60  C   UNL A   1      42.868  29.361  34.734  1.00  0.00     0.034 A 
BRANCH  47  61
ATOM     61  C   UNL A   1      40.585  27.892  29.179  1.00  0.00     0.023 A 
ATOM     62  C   UNL A   1      39.708  26.793  29.071  1.00  0.00     0.012 A 
ATOM     63  C   UNL A   1      41.481  28.166  28.127  1.00  0.00     0.148 A 
ATOM     64  C   UNL A   1      39.750  25.958  27.955  1.00  0.00     0.002 A 
ATOM     65  C   UNL A   1      41.482  27.359  26.995  1.00  0.00     0.091 A 
ATOM     66  F   UNL A   1      42.318  29.206  28.253  1.00  0.00    -0.205 F 
ATOM     67  C   UNL A   1      40.628  26.246  26.914  1.00  0.00     0.022 A 
BRANCH  65  68
ATOM     68  S   UNL A   1      42.513  27.694  25.564  1.00  0.00     0.127 S 
ATOM     69  O   UNL A   1      42.252  26.521  24.732  1.00  0.00    -0.237 OA
ATOM     70  O   UNL A   1      41.939  28.941  25.059  1.00  0.00    -0.237 OA
ATOM     71  O   UNL A   1      43.875  27.809  26.065  1.00  0.00    -0.744 OA
ENDBRANCH  65  68
ENDBRANCH  47  61
BRANCH  48  72
ATOM     72  C   UNL A   1      39.511  33.782  37.164  1.00  0.00     0.023 A 
ATOM     73  C   UNL A   1      40.037  35.088  37.214  1.00  0.00     0.012 A 
ATOM     74  C   UNL A   1      38.788  33.289  38.267  1.00  0.00     0.148 A 
ATOM     75  C   UNL A   1      39.877  35.873  38.357  1.00  0.00     0.002 A 
ATOM     76  C   UNL A   1      38.581  34.098  39.377  1.00  0.00     0.091 A 
ATOM     77  F   UNL A   1      38.304  32.041  38.201  1.00  0.00    -0.205 F 
ATOM     78  C   UNL A   1      39.142  35.383  39.434  1.00  0.00     0.022 A 
BRANCH  76  79
ATOM     79  S   UNL A   1      37.534  33.599  40.748  1.00  0.00     0.127 S 
ATOM     80  O   UNL A   1      38.387  32.638  41.442  1.00  0.00    -0.237 OA
ATOM     81  O   UNL A   1      37.334  34.868  41.448  1.00  0.00    -0.237 OA
ATOM     82  O   UNL A   1      36.326  33.050  40.146  1.00  0.00    -0.744 OA
ENDBRANCH  76  79
ENDBRANCH  48  72
BRANCH  60  83
ATOM     83  C   UNL A   1      44.053  28.760  35.447  1.00  0.00     0.023 A 
ATOM     84  C   UNL A   1      45.346  29.279  35.237  1.00  0.00     0.012 A 
ATOM     85  C   UNL A   1      43.869  27.720  36.380  1.00  0.00     0.148 A 
ATOM     86  C   UNL A   1      46.442  28.745  35.914  1.00  0.00     0.002 A 
ATOM     87  C   UNL A   1      44.957  27.231  37.092  1.00  0.00     0.091 A 
ATOM     88  F   UNL A   1      42.634  27.228  36.554  1.00  0.00    -0.205 F 
ATOM     89  C   UNL A   1      46.247  27.731  36.849  1.00  0.00     0.022 A 
BRANCH  87  90
ATOM     90  S   UNL A   1      44.789  25.996  38.385  1.00  0.00     0.127 S 
ATOM     91  O   UNL A   1      46.175  25.835  38.823  1.00  0.00    -0.237 OA
ATOM     92  O   UNL A   1      43.920  26.674  39.347  1.00  0.00    -0.237 OA
ATOM     93  O   UNL A   1      44.197  24.826  37.753  1.00  0.00    -0.744 OA
ENDBRANCH  87  90
ENDBRANCH  60  83
ENDBRANCH  34  35
ENDBRANCH  26  29
ENDBRANCH  24  25
ENDBRANCH   1  24
TORSDOF 16
ENDMDL
MODEL 3
REMARK VINA RESULT:     -12.3      6.446     11.768
REMARK SMILES O=C(C[C@H]1C[N@@H+]([C@@H]2CC(=O)NC2=O)CCO1)NCCCCNC(=O)c1ccc(-c2c3nc(c(-c4cccc(S(=O)(=O)[O-])c4F)c4ccc([nH]4)c(-c4cccc(S(=O)(=O)[O-])c4F)c4nc(c(-c5cccc(S(=O)(=O)[O-])c5F)c5ccc2[nH]5)C=C4)C=C3)cc1
REMARK SMILES IDX 20 1 19 2 18 3 17 4 1 5 2 6 3 8 4 9 5 10 16 11 6 12 15 13
REMARK SMILES IDX 14 14 7 16 8 17 12 18 9 19 11 20 13 21 10 22 21 24 22 25
REMARK SMILES IDX 23 26 24 28 25 29 26 30 87 31 27 32 86 33 28 34 29 35 30 36
REMARK SMILES IDX 80 37 31 38 85 39 79 40 81 41 32 42 84 43 78 44 77 45 33 47
REMARK SMILES IDX 65 48 45 49 64 50 46 51 49 52 63 53 82 54 47 55 48 56 62 58
REMARK SMILES IDX 83 59 50 60 34 61 35 62 43 63 36 64 38 65 44 66 37 67 39 68
REMARK SMILES IDX 40 69 41 70 42 71 66 72 67 73 75 74 68 75 70 76 76 77 69 78
REMARK SMILES IDX 71 79 72 80 73 81 74 82 51 83 52 84 60 85 53 86 55 87 61 88
REMARK SMILES IDX 54 89 56 90 57 91 58 92 59 93
REMARK H PARENT 17 7 6 15 11 23 22 27 81 46 49 57
REMARK Flexibility Score: inf
ROOT
ATOM      1  C   UNL A   1      37.738  19.567  24.975  1.00  0.00     0.023 C 
ENDROOT
BRANCH   1   2
ATOM      2  C   UNL A   1      36.481  20.442  25.001  1.00  0.00     0.023 C 
BRANCH   2   3
ATOM      3  C   UNL A   1      36.637  21.846  24.394  1.00  0.00     0.116 C 
BRANCH   3   4
ATOM      4  N   UNL A   1      35.156  22.638  24.318  1.00  0.00    -0.356 N 
ATOM      5  O   UNL A   1      33.500  23.009  26.745  1.00  0.00    -0.275 OA
ATOM      6  C   UNL A   1      33.698  23.285  25.511  1.00  0.00     0.222 C 
ATOM      7  H   UNL A   1      34.941  22.852  23.381  1.00  0.00     0.163 HD
BRANCH   6   8
ATOM      8  C   UNL A   1      32.441  24.323  25.212  1.00  0.00     0.138 C 
BRANCH   8   9
ATOM      9  C   UNL A   1      31.631  23.908  23.962  1.00  0.00     0.182 C 
ATOM     10  C   UNL A   1      30.586  24.944  23.532  1.00  0.00     0.295 C 
ATOM     11  O   UNL A   1      32.461  23.505  22.858  1.00  0.00    -0.366 OA
ATOM     12  N   UNL A   1      31.238  26.146  23.015  1.00  0.00    -0.320 N 
ATOM     13  C   UNL A   1      32.940  24.551  22.002  1.00  0.00     0.222 C 
ATOM     14  C   UNL A   1      31.981  25.738  21.803  1.00  0.00     0.291 C 
ATOM     15  H   UNL A   1      30.514  26.837  22.819  1.00  0.00     0.348 HD
BRANCH  12  16
ATOM     16  C   UNL A   1      32.127  26.844  23.967  1.00  0.00     0.284 C 
ATOM     17  C   UNL A   1      31.506  27.662  25.739  1.00  0.00     0.176 C 
ATOM     18  C   UNL A   1      33.314  28.260  23.074  1.00  0.00     0.285 C 
ATOM     19  C   UNL A   1      32.289  29.557  25.742  1.00  0.00     0.233 C 
ATOM     20  N   UNL A   1      33.305  29.701  24.242  1.00  0.00    -0.291 N 
ATOM     21  O   UNL A   1      33.942  28.221  22.025  1.00  0.00    -0.268 OA
ATOM     22  O   UNL A   1      32.200  30.409  26.608  1.00  0.00    -0.274 OA
ATOM     23  H   UNL A   1      33.830  30.513  24.055  1.00  0.00     0.173 HD
ENDBRANCH  12  16
ENDBRANCH   8   9
ENDBRANCH   6   8
ENDBRANCH   3   4
ENDBRANCH   2   3
ENDBRANCH   1   2
BRANCH   1  24
ATOM     24  C   UNL A   1      38.992  20.172  25.608  1.00  0.00     0.116 C 
BRANCH  24  25
ATOM     25  N   UNL A   1      40.043  19.196  25.820  1.00  0.00    -0.352 N 
ATOM     26  C   UNL A   1      41.366  19.384  26.128  1.00  0.00     0.251 C 
ATOM     27  H   UNL A   1      39.764  18.255  25.729  1.00  0.00     0.163 HD
ATOM     28  O   UNL A   1      42.130  18.423  26.116  1.00  0.00    -0.269 OA
BRANCH  26  29
ATOM     29  C   UNL A   1      41.883  20.736  26.445  1.00  0.00     0.039 A 
ATOM     30  C   UNL A   1      42.132  21.613  25.387  1.00  0.00     0.014 A 
ATOM     31  C   UNL A   1      42.150  21.135  27.757  1.00  0.00     0.014 A 
ATOM     32  C   UNL A   1      42.595  22.905  25.648  1.00  0.00     0.010 A 
ATOM     33  C   UNL A   1      42.537  22.450  28.021  1.00  0.00     0.010 A 
ATOM     34  C   UNL A   1      42.771  23.348  26.968  1.00  0.00    -0.014 A 
BRANCH  34  35
ATOM     35  C   UNL A   1      43.181  24.750  27.254  1.00  0.00     0.031 A 
ATOM     36  C   UNL A   1      42.207  25.731  27.847  1.00  0.00     0.074 A 
ATOM     37  C   UNL A   1      44.423  25.159  26.923  1.00  0.00     0.049 A 
ATOM     38  N   UNL A   1      42.383  26.996  28.133  1.00  0.00    -0.248 NA
ATOM     39  C   UNL A   1      40.852  25.236  28.140  1.00  0.00     0.031 C 
ATOM     40  C   UNL A   1      45.444  24.326  26.283  1.00  0.00     0.029 A 
ATOM     41  N   UNL A   1      45.033  26.382  27.061  1.00  0.00    -0.354 N 
ATOM     42  C   UNL A   1      41.161  27.454  28.612  1.00  0.00     0.074 A 
ATOM     43  C   UNL A   1      40.240  26.340  28.544  1.00  0.00     0.031 C 
ATOM     44  C   UNL A   1      46.551  25.059  26.088  1.00  0.00     0.029 A 
ATOM     45  C   UNL A   1      46.309  26.422  26.550  1.00  0.00     0.049 A 
ATOM     46  H   UNL A   1      44.597  27.156  27.486  1.00  0.00     0.167 HD
ATOM     47  C   UNL A   1      40.839  28.681  29.089  1.00  0.00     0.034 A 
ATOM     48  C   UNL A   1      47.182  27.443  26.444  1.00  0.00     0.034 A 
ATOM     49  C   UNL A   1      41.759  29.784  29.173  1.00  0.00     0.049 A 
ATOM     50  C   UNL A   1      46.802  28.795  26.983  1.00  0.00     0.074 A 
ATOM     51  C   UNL A   1      41.545  31.043  29.706  1.00  0.00     0.029 A 
ATOM     52  N   UNL A   1      43.061  29.770  28.697  1.00  0.00    -0.354 N 
ATOM     53  N   UNL A   1      45.686  29.168  27.560  1.00  0.00    -0.248 NA
ATOM     54  C   UNL A   1      47.814  29.857  26.888  1.00  0.00     0.031 C 
ATOM     55  C   UNL A   1      42.702  31.804  29.510  1.00  0.00     0.029 A 
ATOM     56  C   UNL A   1      43.656  31.003  28.906  1.00  0.00     0.049 A 
ATOM     57  H   UNL A   1      43.498  28.997  28.272  1.00  0.00     0.167 HD
ATOM     58  C   UNL A   1      45.874  30.494  27.931  1.00  0.00     0.074 A 
ATOM     59  C   UNL A   1      47.219  30.853  27.531  1.00  0.00     0.031 C 
ATOM     60  C   UNL A   1      45.008  31.341  28.541  1.00  0.00     0.034 A 
BRANCH  47  61
ATOM     61  C   UNL A   1      39.430  28.891  29.588  1.00  0.00     0.023 A 
ATOM     62  C   UNL A   1      39.092  28.527  30.908  1.00  0.00     0.012 A 
ATOM     63  C   UNL A   1      38.457  29.500  28.771  1.00  0.00     0.148 A 
ATOM     64  C   UNL A   1      37.800  28.727  31.393  1.00  0.00     0.002 A 
ATOM     65  C   UNL A   1      37.185  29.742  29.277  1.00  0.00     0.091 A 
ATOM     66  F   UNL A   1      38.790  29.826  27.514  1.00  0.00    -0.205 F 
ATOM     67  C   UNL A   1      36.850  29.343  30.582  1.00  0.00     0.022 A 
BRANCH  65  68
ATOM     68  S   UNL A   1      35.917  30.607  28.344  1.00  0.00     0.127 S 
ATOM     69  O   UNL A   1      34.891  30.813  29.365  1.00  0.00    -0.237 OA
ATOM     70  O   UNL A   1      36.618  31.821  27.928  1.00  0.00    -0.237 OA
ATOM     71  O   UNL A   1      35.539  29.717  27.256  1.00  0.00    -0.744 OA
ENDBRANCH  65  68
ENDBRANCH  47  61
BRANCH  48  72
ATOM     72  C   UNL A   1      48.519  27.217  25.823  1.00  0.00     0.023 A 
ATOM     73  C   UNL A   1      49.591  26.761  26.614  1.00  0.00     0.012 A 
ATOM     74  C   UNL A   1      48.724  27.436  24.447  1.00  0.00     0.148 A 
ATOM     75  C   UNL A   1      50.853  26.563  26.052  1.00  0.00     0.002 A 
ATOM     76  C   UNL A   1      49.968  27.178  23.882  1.00  0.00     0.091 A 
ATOM     77  F   UNL A   1      47.693  27.877  23.714  1.00  0.00    -0.205 F 
ATOM     78  C   UNL A   1      51.040  26.762  24.686  1.00  0.00     0.022 A 
BRANCH  76  79
ATOM     79  S   UNL A   1      50.259  27.276  22.113  1.00  0.00     0.127 S 
ATOM     80  O   UNL A   1      50.070  28.702  21.857  1.00  0.00    -0.237 OA
ATOM     81  O   UNL A   1      51.641  26.808  22.012  1.00  0.00    -0.237 OA
ATOM     82  O   UNL A   1      49.278  26.390  21.500  1.00  0.00    -0.744 OA
ENDBRANCH  76  79
ENDBRANCH  48  72
BRANCH  60  83
ATOM     83  C   UNL A   1      45.496  32.731  28.864  1.00  0.00     0.023 A 
ATOM     84  C   UNL A   1      46.122  32.994  30.099  1.00  0.00     0.012 A 
ATOM     85  C   UNL A   1      45.390  33.762  27.910  1.00  0.00     0.148 A 
ATOM     86  C   UNL A   1      46.599  34.271  30.393  1.00  0.00     0.002 A 
ATOM     87  C   UNL A   1      45.916  35.017  28.188  1.00  0.00     0.091 A 
ATOM     88  F   UNL A   1      44.774  33.497  26.748  1.00  0.00    -0.205 F 
ATOM     89  C   UNL A   1      46.508  35.278  29.435  1.00  0.00     0.022 A 
BRANCH  87  90
ATOM     90  S   UNL A   1      45.933  36.346  26.981  1.00  0.00     0.127 S 
ATOM     91  O   UNL A   1      44.533  36.768  26.984  1.00  0.00    -0.237 OA
ATOM     92  O   UNL A   1      46.860  37.301  27.587  1.00  0.00    -0.237 OA
ATOM     93  O   UNL A   1      46.401  35.755  25.735  1.00  0.00    -0.744 OA
ENDBRANCH  87  90
ENDBRANCH  60  83
ENDBRANCH  34  35
ENDBRANCH  26  29
ENDBRANCH  24  25
ENDBRANCH   1  24
TORSDOF 16
ENDMDL
