MODEL 1
REMARK VINA RESULT:     -13.4      0.000      0.000
REMARK SMILES C[C@H](C(=O)NCCCCNC(=O)c1ccc(-c2c3nc(c(-c4cccc(S(=O)(=O)[O-])c4F)c4ccc([nH]4)c(-c4cccc(S(=O)(=O)[O-])c4F)c4nc(c(-c5cccc(S(=O)(=O)[O-])c5F)c5ccc2[nH]5)C=C4)C=C3)cc1)c1ccc2c3cc(Cl)ccc3n(C(=O)c3ccc(Cl)cc3)c2c1
REMARK SMILES IDX 7 1 6 2 5 3 3 4 4 5 2 7 1 8 76 9 77 10 98 11 78 12 97 13
REMARK SMILES IDX 79 14 87 15 80 16 86 17 81 18 85 19 82 20 84 21 83 22 88 23
REMARK SMILES IDX 89 24 90 25 91 26 96 27 92 28 95 29 93 30 94 31 8 32 9 33
REMARK SMILES IDX 10 34 11 35 12 37 13 38 14 39 75 40 15 41 74 42 16 43 17 44
REMARK SMILES IDX 18 45 68 46 19 47 73 48 67 49 69 50 20 51 72 52 66 53 65 54
REMARK SMILES IDX 21 56 53 57 33 58 52 59 34 60 37 61 51 62 70 63 35 64 36 65
REMARK SMILES IDX 50 67 71 68 38 69 22 70 23 71 31 72 24 73 26 74 32 75 25 76
REMARK SMILES IDX 27 77 28 78 29 79 30 80 54 81 55 82 63 83 56 84 58 85 64 86
REMARK SMILES IDX 57 87 59 88 60 89 61 90 62 91 39 92 40 93 48 94 41 95 43 96
REMARK SMILES IDX 49 97 42 98 44 99 45 100 46 101 47 102
REMARK H PARENT 5 6 10 36 69 55 37 66
REMARK Flexibility Score: inf
ROOT
ATOM      1  C   UNL A   1      35.414  22.997  23.724  1.00  0.00     0.023 C 
ENDROOT
BRANCH   1   2
ATOM      2  C   UNL A   1      33.999  22.825  23.177  1.00  0.00     0.116 C 
BRANCH   2   3
ATOM      3  N   UNL A   1      33.305  21.738  23.831  1.00  0.00    -0.356 N 
ATOM      4  C   UNL A   1      32.470  21.666  24.893  1.00  0.00     0.227 C 
ATOM      5  O   UNL A   1      32.061  20.521  25.145  1.00  0.00    -0.274 OA
ATOM      6  H   UNL A   1      33.476  20.863  23.414  1.00  0.00     0.163 HD
BRANCH   4   7
ATOM      7  C   UNL A   1      32.000  22.813  25.805  1.00  0.00     0.105 C 
ATOM      8  C   UNL A   1      33.122  23.152  26.796  1.00  0.00     0.023 C 
BRANCH   7   9
ATOM      9  C   UNL A   1      31.361  24.075  25.245  1.00  0.00    -0.034 A 
ATOM     10  C   UNL A   1      30.675  24.023  24.028  1.00  0.00     0.005 A 
ATOM     11  C   UNL A   1      31.385  25.292  25.946  1.00  0.00     0.032 A 
ATOM     12  C   UNL A   1      30.065  25.162  23.490  1.00  0.00     0.011 A 
ATOM     13  C   UNL A   1      30.914  26.476  25.330  1.00  0.00     0.057 A 
ATOM     14  C   UNL A   1      30.235  26.412  24.121  1.00  0.00     0.008 A 
ATOM     15  N   UNL A   1      31.050  27.834  25.698  1.00  0.00    -0.276 N 
ATOM     16  C   UNL A   1      29.869  27.737  23.773  1.00  0.00     0.009 A 
ATOM     17  C   UNL A   1      30.570  28.606  24.625  1.00  0.00     0.057 A 
ATOM     18  C   UNL A   1      29.078  28.255  22.724  1.00  0.00     0.031 A 
ATOM     19  C   UNL A   1      30.630  29.977  24.311  1.00  0.00     0.029 A 
ATOM     20  C   UNL A   1      29.043  29.629  22.508  1.00  0.00     0.041 A 
ATOM     21  C   UNL A   1      29.841  30.475  23.262  1.00  0.00     0.023 A 
ATOM     22  Cl  UNL A   1      28.033  30.269  21.271  1.00  0.00    -0.084 Cl
BRANCH  15  23
ATOM     23  C   UNL A   1      31.619  28.247  26.940  1.00  0.00     0.262 C 
ATOM     24  O   UNL A   1      31.082  27.818  27.964  1.00  0.00    -0.268 OA
BRANCH  23  25
ATOM     25  C   UNL A   1      32.818  29.071  27.206  1.00  0.00     0.040 A 
ATOM     26  C   UNL A   1      32.610  30.462  27.269  1.00  0.00     0.015 A 
ATOM     27  C   UNL A   1      34.122  28.580  27.221  1.00  0.00     0.015 A 
ATOM     28  C   UNL A   1      33.679  31.346  27.423  1.00  0.00     0.021 A 
ATOM     29  C   UNL A   1      35.196  29.465  27.407  1.00  0.00     0.021 A 
ATOM     30  C   UNL A   1      34.970  30.839  27.510  1.00  0.00     0.041 A 
ATOM     31  Cl  UNL A   1      36.297  31.918  27.700  1.00  0.00    -0.084 Cl
ENDBRANCH  23  25
ENDBRANCH  15  23
ENDBRANCH   7   9
ENDBRANCH   4   7
ENDBRANCH   2   3
ENDBRANCH   1   2
BRANCH   1  32
ATOM     32  C   UNL A   1      36.068  21.730  24.259  1.00  0.00     0.023 C 
BRANCH  32  33
ATOM     33  C   UNL A   1      36.964  21.928  25.476  1.00  0.00     0.116 C 
BRANCH  33  34
ATOM     34  N   UNL A   1      38.010  20.918  25.627  1.00  0.00    -0.352 N 
ATOM     35  C   UNL A   1      39.286  21.060  26.135  1.00  0.00     0.251 C 
ATOM     36  H   UNL A   1      37.773  20.012  25.323  1.00  0.00     0.163 HD
ATOM     37  O   UNL A   1      40.071  20.125  26.117  1.00  0.00    -0.269 OA
BRANCH  35  38
ATOM     38  C   UNL A   1      39.687  22.379  26.671  1.00  0.00     0.039 A 
ATOM     39  C   UNL A   1      40.729  22.466  27.598  1.00  0.00     0.014 A 
ATOM     40  C   UNL A   1      39.082  23.533  26.171  1.00  0.00     0.014 A 
ATOM     41  C   UNL A   1      41.238  23.723  27.941  1.00  0.00     0.010 A 
ATOM     42  C   UNL A   1      39.648  24.769  26.442  1.00  0.00     0.010 A 
ATOM     43  C   UNL A   1      40.735  24.880  27.323  1.00  0.00    -0.014 A 
BRANCH  43  44
ATOM     44  C   UNL A   1      41.308  26.232  27.549  1.00  0.00     0.031 A 
ATOM     45  C   UNL A   1      42.679  26.546  27.012  1.00  0.00     0.074 A 
ATOM     46  C   UNL A   1      40.690  27.097  28.378  1.00  0.00     0.049 A 
ATOM     47  N   UNL A   1      43.465  27.551  27.289  1.00  0.00    -0.248 NA
ATOM     48  C   UNL A   1      43.264  25.563  26.082  1.00  0.00     0.031 C 
ATOM     49  C   UNL A   1      39.399  26.874  29.033  1.00  0.00     0.029 A 
ATOM     50  N   UNL A   1      41.095  28.319  28.858  1.00  0.00    -0.354 N 
ATOM     51  C   UNL A   1      44.659  27.288  26.629  1.00  0.00     0.074 A 
ATOM     52  C   UNL A   1      44.502  26.018  25.954  1.00  0.00     0.031 C 
ATOM     53  C   UNL A   1      39.126  27.914  29.838  1.00  0.00     0.029 A 
ATOM     54  C   UNL A   1      40.237  28.860  29.788  1.00  0.00     0.049 A 
ATOM     55  H   UNL A   1      41.922  28.766  28.563  1.00  0.00     0.167 HD
ATOM     56  C   UNL A   1      45.778  28.047  26.568  1.00  0.00     0.034 A 
ATOM     57  C   UNL A   1      40.342  29.978  30.533  1.00  0.00     0.034 A 
ATOM     58  C   UNL A   1      45.893  29.351  27.161  1.00  0.00     0.049 A 
ATOM     59  C   UNL A   1      41.561  30.848  30.375  1.00  0.00     0.074 A 
ATOM     60  C   UNL A   1      46.925  30.262  27.037  1.00  0.00     0.029 A 
ATOM     61  N   UNL A   1      44.940  29.929  27.983  1.00  0.00    -0.354 N 
ATOM     62  N   UNL A   1      42.610  30.667  29.610  1.00  0.00    -0.248 NA
ATOM     63  C   UNL A   1      41.600  32.092  31.160  1.00  0.00     0.031 C 
ATOM     64  C   UNL A   1      46.599  31.392  27.793  1.00  0.00     0.029 A 
ATOM     65  C   UNL A   1      45.361  31.186  28.380  1.00  0.00     0.049 A 
ATOM     66  H   UNL A   1      44.089  29.510  28.246  1.00  0.00     0.167 HD
ATOM     67  C   UNL A   1      43.417  31.784  29.797  1.00  0.00     0.074 A 
ATOM     68  C   UNL A   1      42.725  32.648  30.731  1.00  0.00     0.031 C 
ATOM     69  C   UNL A   1      44.630  32.060  29.259  1.00  0.00     0.034 A 
BRANCH  56  70
ATOM     70  C   UNL A   1      46.942  27.519  25.775  1.00  0.00     0.023 A 
ATOM     71  C   UNL A   1      47.848  26.625  26.383  1.00  0.00     0.012 A 
ATOM     72  C   UNL A   1      47.109  27.856  24.418  1.00  0.00     0.148 A 
ATOM     73  C   UNL A   1      48.923  26.105  25.663  1.00  0.00     0.002 A 
ATOM     74  C   UNL A   1      48.158  27.300  23.695  1.00  0.00     0.091 A 
ATOM     75  F   UNL A   1      46.251  28.726  23.864  1.00  0.00    -0.205 F 
ATOM     76  C   UNL A   1      49.071  26.434  24.319  1.00  0.00     0.022 A 
BRANCH  74  77
ATOM     77  S   UNL A   1      48.392  27.601  21.940  1.00  0.00     0.127 S 
ATOM     78  O   UNL A   1      49.557  28.485  21.944  1.00  0.00    -0.237 OA
ATOM     79  O   UNL A   1      48.650  26.255  21.427  1.00  0.00    -0.237 OA
ATOM     80  O   UNL A   1      47.151  28.202  21.469  1.00  0.00    -0.744 OA
ENDBRANCH  74  77
ENDBRANCH  56  70
BRANCH  57  81
ATOM     81  C   UNL A   1      39.235  30.374  31.449  1.00  0.00     0.023 A 
ATOM     82  C   UNL A   1      39.175  29.806  32.736  1.00  0.00     0.012 A 
ATOM     83  C   UNL A   1      38.264  31.321  31.072  1.00  0.00     0.148 A 
ATOM     84  C   UNL A   1      38.152  30.150  33.621  1.00  0.00     0.002 A 
ATOM     85  C   UNL A   1      37.278  31.699  31.977  1.00  0.00     0.091 A 
ATOM     86  F   UNL A   1      38.326  31.841  29.838  1.00  0.00    -0.205 F 
ATOM     87  C   UNL A   1      37.210  31.104  33.246  1.00  0.00     0.022 A 
BRANCH  85  88
ATOM     88  S   UNL A   1      36.106  33.016  31.622  1.00  0.00     0.127 S 
ATOM     89  O   UNL A   1      35.523  33.261  32.938  1.00  0.00    -0.237 OA
ATOM     90  O   UNL A   1      36.981  34.080  31.127  1.00  0.00    -0.237 OA
ATOM     91  O   UNL A   1      35.208  32.468  30.615  1.00  0.00    -0.744 OA
ENDBRANCH  85  88
ENDBRANCH  57  81
BRANCH  69  92
ATOM     92  C   UNL A   1      45.286  33.361  29.637  1.00  0.00     0.023 A 
ATOM     93  C   UNL A   1      46.136  33.409  30.759  1.00  0.00     0.012 A 
ATOM     94  C   UNL A   1      45.146  34.501  28.823  1.00  0.00     0.148 A 
ATOM     95  C   UNL A   1      46.823  34.579  31.076  1.00  0.00     0.002 A 
ATOM     96  C   UNL A   1      45.868  35.650  29.119  1.00  0.00     0.091 A 
ATOM     97  F   UNL A   1      44.318  34.437  27.770  1.00  0.00    -0.205 F 
ATOM     98  C   UNL A   1      46.700  35.694  30.249  1.00  0.00     0.022 A 
BRANCH  96  99
ATOM     99  S   UNL A   1      45.846  37.101  28.059  1.00  0.00     0.127 S 
ATOM    100  O   UNL A   1      44.457  37.540  28.183  1.00  0.00    -0.237 OA
ATOM    101  O   UNL A   1      46.823  37.976  28.709  1.00  0.00    -0.237 OA
ATOM    102  O   UNL A   1      46.239  36.636  26.736  1.00  0.00    -0.744 OA
ENDBRANCH  96  99
ENDBRANCH  69  92
ENDBRANCH  43  44
ENDBRANCH  35  38
ENDBRANCH  33  34
ENDBRANCH  32  33
ENDBRANCH   1  32
TORSDOF 17
ENDMDL
MODEL 2
REMARK VINA RESULT:     -13.3      1.891      2.263
REMARK SMILES C[C@H](C(=O)NCCCCNC(=O)c1ccc(-c2c3nc(c(-c4cccc(S(=O)(=O)[O-])c4F)c4ccc([nH]4)c(-c4cccc(S(=O)(=O)[O-])c4F)c4nc(c(-c5cccc(S(=O)(=O)[O-])c5F)c5ccc2[nH]5)C=C4)C=C3)cc1)c1ccc2c3cc(Cl)ccc3n(C(=O)c3ccc(Cl)cc3)c2c1
REMARK SMILES IDX 7 1 6 2 5 3 3 4 4 5 2 7 1 8 76 9 77 10 98 11 78 12 97 13
REMARK SMILES IDX 79 14 87 15 80 16 86 17 81 18 85 19 82 20 84 21 83 22 88 23
REMARK SMILES IDX 89 24 90 25 91 26 96 27 92 28 95 29 93 30 94 31 8 32 9 33
REMARK SMILES IDX 10 34 11 35 12 37 13 38 14 39 75 40 15 41 74 42 16 43 17 44
REMARK SMILES IDX 18 45 68 46 19 47 73 48 67 49 69 50 20 51 72 52 66 53 65 54
REMARK SMILES IDX 21 56 53 57 33 58 52 59 34 60 37 61 51 62 70 63 35 64 36 65
REMARK SMILES IDX 50 67 71 68 38 69 22 70 23 71 31 72 24 73 26 74 32 75 25 76
REMARK SMILES IDX 27 77 28 78 29 79 30 80 54 81 55 82 63 83 56 84 58 85 64 86
REMARK SMILES IDX 57 87 59 88 60 89 61 90 62 91 39 92 40 93 48 94 41 95 43 96
REMARK SMILES IDX 49 97 42 98 44 99 45 100 46 101 47 102
REMARK H PARENT 5 6 10 36 69 55 37 66
REMARK Flexibility Score: inf
ROOT
ATOM      1  C   UNL A   1      35.693  23.729  23.934  1.00  0.00     0.023 C 
ENDROOT
BRANCH   1   2
ATOM      2  C   UNL A   1      34.462  23.196  23.204  1.00  0.00     0.116 C 
BRANCH   2   3
ATOM      3  N   UNL A   1      33.929  22.018  23.853  1.00  0.00    -0.356 N 
ATOM      4  C   UNL A   1      33.116  21.823  24.917  1.00  0.00     0.227 C 
ATOM      5  O   UNL A   1      32.873  20.630  25.162  1.00  0.00    -0.274 OA
ATOM      6  H   UNL A   1      34.221  21.178  23.430  1.00  0.00     0.163 HD
BRANCH   4   7
ATOM      7  C   UNL A   1      32.493  22.886  25.837  1.00  0.00     0.105 C 
ATOM      8  C   UNL A   1      33.533  23.310  26.884  1.00  0.00     0.023 C 
BRANCH   7   9
ATOM      9  C   UNL A   1      31.748  24.092  25.283  1.00  0.00    -0.034 A 
ATOM     10  C   UNL A   1      31.008  23.967  24.104  1.00  0.00     0.005 A 
ATOM     11  C   UNL A   1      31.727  25.325  25.956  1.00  0.00     0.032 A 
ATOM     12  C   UNL A   1      30.301  25.051  23.573  1.00  0.00     0.011 A 
ATOM     13  C   UNL A   1      31.152  26.462  25.340  1.00  0.00     0.057 A 
ATOM     14  C   UNL A   1      30.420  26.325  24.168  1.00  0.00     0.008 A 
ATOM     15  N   UNL A   1      31.218  27.834  25.671  1.00  0.00    -0.276 N 
ATOM     16  C   UNL A   1      29.954  27.615  23.810  1.00  0.00     0.009 A 
ATOM     17  C   UNL A   1      30.638  28.547  24.607  1.00  0.00     0.057 A 
ATOM     18  C   UNL A   1      29.081  28.057  22.792  1.00  0.00     0.031 A 
ATOM     19  C   UNL A   1      30.595  29.911  24.262  1.00  0.00     0.029 A 
ATOM     20  C   UNL A   1      28.947  29.420  22.549  1.00  0.00     0.041 A 
ATOM     21  C   UNL A   1      29.726  30.334  23.243  1.00  0.00     0.023 A 
ATOM     22  Cl  UNL A   1      27.840  29.965  21.350  1.00  0.00    -0.084 Cl
BRANCH  15  23
ATOM     23  C   UNL A   1      31.819  28.311  26.874  1.00  0.00     0.262 C 
ATOM     24  O   UNL A   1      31.327  27.915  27.934  1.00  0.00    -0.268 OA
BRANCH  23  25
ATOM     25  C   UNL A   1      33.007  29.173  27.064  1.00  0.00     0.040 A 
ATOM     26  C   UNL A   1      34.255  28.524  27.018  1.00  0.00     0.015 A 
ATOM     27  C   UNL A   1      32.954  30.511  27.448  1.00  0.00     0.015 A 
ATOM     28  C   UNL A   1      35.439  29.216  27.274  1.00  0.00     0.021 A 
ATOM     29  C   UNL A   1      34.145  31.217  27.676  1.00  0.00     0.021 A 
ATOM     30  C   UNL A   1      35.379  30.569  27.586  1.00  0.00     0.041 A 
ATOM     31  Cl  UNL A   1      36.831  31.435  27.904  1.00  0.00    -0.084 Cl
ENDBRANCH  23  25
ENDBRANCH  15  23
ENDBRANCH   7   9
ENDBRANCH   4   7
ENDBRANCH   2   3
ENDBRANCH   1   2
BRANCH   1  32
ATOM     32  C   UNL A   1      36.766  22.695  24.250  1.00  0.00     0.023 C 
BRANCH  32  33
ATOM     33  C   UNL A   1      37.291  22.722  25.680  1.00  0.00     0.116 C 
BRANCH  33  34
ATOM     34  N   UNL A   1      38.266  21.677  25.987  1.00  0.00    -0.352 N 
ATOM     35  C   UNL A   1      39.528  21.802  26.533  1.00  0.00     0.251 C 
ATOM     36  H   UNL A   1      37.985  20.758  25.774  1.00  0.00     0.163 HD
ATOM     37  O   UNL A   1      40.253  20.827  26.652  1.00  0.00    -0.269 OA
BRANCH  35  38
ATOM     38  C   UNL A   1      39.989  23.147  26.939  1.00  0.00     0.039 A 
ATOM     39  C   UNL A   1      40.874  23.286  28.011  1.00  0.00     0.014 A 
ATOM     40  C   UNL A   1      39.609  24.257  26.184  1.00  0.00     0.014 A 
ATOM     41  C   UNL A   1      41.465  24.529  28.256  1.00  0.00     0.010 A 
ATOM     42  C   UNL A   1      40.264  25.464  26.372  1.00  0.00     0.010 A 
ATOM     43  C   UNL A   1      41.204  25.614  27.404  1.00  0.00    -0.014 A 
BRANCH  43  44
ATOM     44  C   UNL A   1      41.887  26.927  27.532  1.00  0.00     0.031 A 
ATOM     45  C   UNL A   1      43.312  27.061  27.065  1.00  0.00     0.074 A 
ATOM     46  C   UNL A   1      41.303  27.927  28.224  1.00  0.00     0.049 A 
ATOM     47  N   UNL A   1      44.171  28.017  27.295  1.00  0.00    -0.248 NA
ATOM     48  C   UNL A   1      43.857  25.938  26.282  1.00  0.00     0.031 C 
ATOM     49  C   UNL A   1      39.959  27.888  28.805  1.00  0.00     0.029 A 
ATOM     50  N   UNL A   1      41.792  29.153  28.606  1.00  0.00    -0.354 N 
ATOM     51  C   UNL A   1      45.373  27.582  26.751  1.00  0.00     0.074 A 
ATOM     52  C   UNL A   1      45.139  26.266  26.198  1.00  0.00     0.031 C 
ATOM     53  C   UNL A   1      39.737  29.028  29.480  1.00  0.00     0.029 A 
ATOM     54  C   UNL A   1      40.933  29.863  29.414  1.00  0.00     0.049 A 
ATOM     55  H   UNL A   1      42.674  29.492  28.328  1.00  0.00     0.167 HD
ATOM     56  C   UNL A   1      46.560  28.230  26.693  1.00  0.00     0.034 A 
ATOM     57  C   UNL A   1      41.098  31.040  30.048  1.00  0.00     0.034 A 
ATOM     58  C   UNL A   1      46.761  29.574  27.159  1.00  0.00     0.049 A 
ATOM     59  C   UNL A   1      42.400  31.779  29.891  1.00  0.00     0.074 A 
ATOM     60  C   UNL A   1      47.880  30.373  27.018  1.00  0.00     0.029 A 
ATOM     61  N   UNL A   1      45.818  30.318  27.849  1.00  0.00    -0.354 N 
ATOM     62  N   UNL A   1      43.473  31.426  29.224  1.00  0.00    -0.248 NA
ATOM     63  C   UNL A   1      42.508  33.091  30.548  1.00  0.00     0.031 C 
ATOM     64  C   UNL A   1      47.617  31.602  27.631  1.00  0.00     0.029 A 
ATOM     65  C   UNL A   1      46.331  31.568  28.147  1.00  0.00     0.049 A 
ATOM     66  H   UNL A   1      44.917  30.005  28.091  1.00  0.00     0.167 HD
ATOM     67  C   UNL A   1      44.368  32.482  29.355  1.00  0.00     0.074 A 
ATOM     68  C   UNL A   1      43.705  33.497  30.146  1.00  0.00     0.031 C 
ATOM     69  C   UNL A   1      45.633  32.592  28.879  1.00  0.00     0.034 A 
BRANCH  56  70
ATOM     70  C   UNL A   1      47.715  27.520  26.042  1.00  0.00     0.023 A 
ATOM     71  C   UNL A   1      47.906  27.637  24.649  1.00  0.00     0.012 A 
ATOM     72  C   UNL A   1      48.643  26.787  26.807  1.00  0.00     0.148 A 
ATOM     73  C   UNL A   1      48.980  27.006  24.024  1.00  0.00     0.002 A 
ATOM     74  C   UNL A   1      49.735  26.197  26.183  1.00  0.00     0.091 A 
ATOM     75  F   UNL A   1      48.432  26.667  28.126  1.00  0.00    -0.205 F 
ATOM     76  C   UNL A   1      49.899  26.296  24.791  1.00  0.00     0.022 A 
BRANCH  74  77
ATOM     77  S   UNL A   1      51.015  25.325  27.092  1.00  0.00     0.127 S 
ATOM     78  O   UNL A   1      50.244  24.271  27.750  1.00  0.00    -0.237 OA
ATOM     79  O   UNL A   1      51.893  24.857  26.018  1.00  0.00    -0.237 OA
ATOM     80  O   UNL A   1      51.617  26.310  27.980  1.00  0.00    -0.744 OA
ENDBRANCH  74  77
ENDBRANCH  56  70
BRANCH  57  81
ATOM     81  C   UNL A   1      39.978  31.627  30.840  1.00  0.00     0.023 A 
ATOM     82  C   UNL A   1      39.077  32.502  30.204  1.00  0.00     0.012 A 
ATOM     83  C   UNL A   1      39.783  31.308  32.197  1.00  0.00     0.148 A 
ATOM     84  C   UNL A   1      38.018  33.074  30.913  1.00  0.00     0.002 A 
ATOM     85  C   UNL A   1      38.697  31.839  32.883  1.00  0.00     0.091 A 
ATOM     86  F   UNL A   1      40.660  30.487  32.790  1.00  0.00    -0.205 F 
ATOM     87  C   UNL A   1      37.822  32.735  32.248  1.00  0.00     0.022 A 
BRANCH  85  88
ATOM     88  S   UNL A   1      38.296  31.351  34.566  1.00  0.00     0.127 S 
ATOM     89  O   UNL A   1      38.157  29.904  34.433  1.00  0.00    -0.237 OA
ATOM     90  O   UNL A   1      39.480  31.792  35.305  1.00  0.00    -0.237 OA
ATOM     91  O   UNL A   1      37.081  32.083  34.899  1.00  0.00    -0.744 OA
ENDBRANCH  85  88
ENDBRANCH  57  81
BRANCH  69  92
ATOM     92  C   UNL A   1      46.384  33.863  29.170  1.00  0.00     0.023 A 
ATOM     93  C   UNL A   1      47.206  33.937  30.312  1.00  0.00     0.012 A 
ATOM     94  C   UNL A   1      46.360  34.937  28.261  1.00  0.00     0.148 A 
ATOM     95  C   UNL A   1      47.979  35.071  30.554  1.00  0.00     0.002 A 
ATOM     96  C   UNL A   1      47.167  36.046  28.485  1.00  0.00     0.091 A 
ATOM     97  F   UNL A   1      45.558  34.851  27.189  1.00  0.00    -0.205 F 
ATOM     98  C   UNL A   1      47.970  36.119  29.634  1.00  0.00     0.022 A 
BRANCH  96  99
ATOM     99  S   UNL A   1      47.293  37.399  27.308  1.00  0.00     0.127 S 
ATOM    100  O   UNL A   1      47.740  36.704  26.102  1.00  0.00    -0.237 OA
ATOM    101  O   UNL A   1      45.915  37.892  27.253  1.00  0.00    -0.237 OA
ATOM    102  O   UNL A   1      48.247  38.338  27.880  1.00  0.00    -0.744 OA
ENDBRANCH  96  99
ENDBRANCH  69  92
ENDBRANCH  43  44
ENDBRANCH  35  38
ENDBRANCH  33  34
ENDBRANCH  32  33
ENDBRANCH   1  32
TORSDOF 17
ENDMDL
MODEL 3
REMARK VINA RESULT:     -12.9      1.989      7.619
REMARK SMILES C[C@H](C(=O)NCCCCNC(=O)c1ccc(-c2c3nc(c(-c4cccc(S(=O)(=O)[O-])c4F)c4ccc([nH]4)c(-c4cccc(S(=O)(=O)[O-])c4F)c4nc(c(-c5cccc(S(=O)(=O)[O-])c5F)c5ccc2[nH]5)C=C4)C=C3)cc1)c1ccc2c3cc(Cl)ccc3n(C(=O)c3ccc(Cl)cc3)c2c1
REMARK SMILES IDX 7 1 6 2 5 3 3 4 4 5 2 7 1 8 76 9 77 10 98 11 78 12 97 13
REMARK SMILES IDX 79 14 87 15 80 16 86 17 81 18 85 19 82 20 84 21 83 22 88 23
REMARK SMILES IDX 89 24 90 25 91 26 96 27 92 28 95 29 93 30 94 31 8 32 9 33
REMARK SMILES IDX 10 34 11 35 12 37 13 38 14 39 75 40 15 41 74 42 16 43 17 44
REMARK SMILES IDX 18 45 68 46 19 47 73 48 67 49 69 50 20 51 72 52 66 53 65 54
REMARK SMILES IDX 21 56 53 57 33 58 52 59 34 60 37 61 51 62 70 63 35 64 36 65
REMARK SMILES IDX 50 67 71 68 38 69 22 70 23 71 31 72 24 73 26 74 32 75 25 76
REMARK SMILES IDX 27 77 28 78 29 79 30 80 54 81 55 82 63 83 56 84 58 85 64 86
REMARK SMILES IDX 57 87 59 88 60 89 61 90 62 91 39 92 40 93 48 94 41 95 43 96
REMARK SMILES IDX 49 97 42 98 44 99 45 100 46 101 47 102
REMARK H PARENT 5 6 10 36 69 55 37 66
REMARK Flexibility Score: inf
ROOT
ATOM      1  C   UNL A   1      36.912  21.452  24.429  1.00  0.00     0.023 C 
ENDROOT
BRANCH   1   2
ATOM      2  C   UNL A   1      35.650  22.307  24.333  1.00  0.00     0.116 C 
BRANCH   2   3
ATOM      3  N   UNL A   1      34.455  21.492  24.352  1.00  0.00    -0.356 N 
ATOM      4  C   UNL A   1      33.246  21.620  24.946  1.00  0.00     0.227 C 
ATOM      5  O   UNL A   1      32.458  20.689  24.706  1.00  0.00    -0.274 OA
ATOM      6  H   UNL A   1      34.540  20.668  23.820  1.00  0.00     0.163 HD
BRANCH   4   7
ATOM      7  C   UNL A   1      32.762  22.750  25.870  1.00  0.00     0.105 C 
ATOM      8  C   UNL A   1      33.931  23.206  26.754  1.00  0.00     0.023 C 
BRANCH   7   9
ATOM      9  C   UNL A   1      31.975  23.940  25.341  1.00  0.00    -0.034 A 
ATOM     10  C   UNL A   1      31.199  23.800  24.188  1.00  0.00     0.005 A 
ATOM     11  C   UNL A   1      31.955  25.174  26.013  1.00  0.00     0.032 A 
ATOM     12  C   UNL A   1      30.453  24.870  23.681  1.00  0.00     0.011 A 
ATOM     13  C   UNL A   1      31.338  26.299  25.416  1.00  0.00     0.057 A 
ATOM     14  C   UNL A   1      30.569  26.146  24.270  1.00  0.00     0.008 A 
ATOM     15  N   UNL A   1      31.389  27.672  25.744  1.00  0.00    -0.276 N 
ATOM     16  C   UNL A   1      30.066  27.427  23.928  1.00  0.00     0.009 A 
ATOM     17  C   UNL A   1      30.760  28.373  24.700  1.00  0.00     0.057 A 
ATOM     18  C   UNL A   1      29.151  27.852  22.940  1.00  0.00     0.031 A 
ATOM     19  C   UNL A   1      30.679  29.736  24.356  1.00  0.00     0.029 A 
ATOM     20  C   UNL A   1      28.984  29.212  22.700  1.00  0.00     0.041 A 
ATOM     21  C   UNL A   1      29.768  30.140  23.367  1.00  0.00     0.023 A 
ATOM     22  Cl  UNL A   1      27.826  29.734  21.540  1.00  0.00    -0.084 Cl
BRANCH  15  23
ATOM     23  C   UNL A   1      32.022  28.163  26.926  1.00  0.00     0.262 C 
ATOM     24  O   UNL A   1      31.830  27.522  27.963  1.00  0.00    -0.268 OA
BRANCH  23  25
ATOM     25  C   UNL A   1      32.948  29.303  27.102  1.00  0.00     0.040 A 
ATOM     26  C   UNL A   1      34.305  28.976  27.283  1.00  0.00     0.015 A 
ATOM     27  C   UNL A   1      32.542  30.625  27.271  1.00  0.00     0.015 A 
ATOM     28  C   UNL A   1      35.256  29.961  27.551  1.00  0.00     0.021 A 
ATOM     29  C   UNL A   1      33.501  31.622  27.509  1.00  0.00     0.021 A 
ATOM     30  C   UNL A   1      34.850  31.287  27.645  1.00  0.00     0.041 A 
ATOM     31  Cl  UNL A   1      36.012  32.512  27.975  1.00  0.00    -0.084 Cl
ENDBRANCH  23  25
ENDBRANCH  15  23
ENDBRANCH   7   9
ENDBRANCH   4   7
ENDBRANCH   2   3
ENDBRANCH   1   2
BRANCH   1  32
ATOM     32  C   UNL A   1      37.590  21.435  25.793  1.00  0.00     0.023 C 
BRANCH  32  33
ATOM     33  C   UNL A   1      39.112  21.505  25.761  1.00  0.00     0.116 C 
BRANCH  33  34
ATOM     34  N   UNL A   1      39.778  20.204  25.777  1.00  0.00    -0.352 N 
ATOM     35  C   UNL A   1      41.109  19.914  26.003  1.00  0.00     0.251 C 
ATOM     36  H   UNL A   1      39.198  19.428  25.602  1.00  0.00     0.163 HD
ATOM     37  O   UNL A   1      41.521  18.769  25.901  1.00  0.00    -0.269 OA
BRANCH  35  38
ATOM     38  C   UNL A   1      42.024  21.026  26.339  1.00  0.00     0.039 A 
ATOM     39  C   UNL A   1      42.519  21.850  25.325  1.00  0.00     0.014 A 
ATOM     40  C   UNL A   1      42.306  21.299  27.677  1.00  0.00     0.014 A 
ATOM     41  C   UNL A   1      43.210  23.017  25.666  1.00  0.00     0.010 A 
ATOM     42  C   UNL A   1      42.910  22.500  28.014  1.00  0.00     0.010 A 
ATOM     43  C   UNL A   1      43.363  23.377  27.015  1.00  0.00    -0.014 A 
BRANCH  43  44
ATOM     44  C   UNL A   1      43.978  24.659  27.446  1.00  0.00     0.031 A 
ATOM     45  C   UNL A   1      43.101  25.732  28.031  1.00  0.00     0.074 A 
ATOM     46  C   UNL A   1      45.266  24.924  27.146  1.00  0.00     0.049 A 
ATOM     47  N   UNL A   1      43.368  26.993  28.246  1.00  0.00    -0.248 NA
ATOM     48  C   UNL A   1      41.719  25.346  28.365  1.00  0.00     0.031 C 
ATOM     49  C   UNL A   1      46.197  23.997  26.498  1.00  0.00     0.029 A 
ATOM     50  N   UNL A   1      45.999  26.076  27.296  1.00  0.00    -0.354 N 
ATOM     51  C   UNL A   1      42.174  27.564  28.670  1.00  0.00     0.074 A 
ATOM     52  C   UNL A   1      41.176  26.517  28.662  1.00  0.00     0.031 C 
ATOM     53  C   UNL A   1      47.370  24.620  26.293  1.00  0.00     0.029 A 
ATOM     54  C   UNL A   1      47.264  25.999  26.759  1.00  0.00     0.049 A 
ATOM     55  H   UNL A   1      45.653  26.880  27.745  1.00  0.00     0.167 HD
ATOM     56  C   UNL A   1      41.936  28.839  29.056  1.00  0.00     0.034 A 
ATOM     57  C   UNL A   1      48.222  26.939  26.634  1.00  0.00     0.034 A 
ATOM     58  C   UNL A   1      42.953  29.848  29.153  1.00  0.00     0.049 A 
ATOM     59  C   UNL A   1      47.957  28.326  27.155  1.00  0.00     0.074 A 
ATOM     60  C   UNL A   1      42.848  31.127  29.668  1.00  0.00     0.029 A 
ATOM     61  N   UNL A   1      44.263  29.690  28.731  1.00  0.00    -0.354 N 
ATOM     62  N   UNL A   1      46.871  28.804  27.713  1.00  0.00    -0.248 NA
ATOM     63  C   UNL A   1      49.056  29.300  27.056  1.00  0.00     0.031 C 
ATOM     64  C   UNL A   1      44.096  31.747  29.551  1.00  0.00     0.029 A 
ATOM     65  C   UNL A   1      44.978  30.851  28.969  1.00  0.00     0.049 A 
ATOM     66  H   UNL A   1      44.632  28.874  28.322  1.00  0.00     0.167 HD
ATOM     67  C   UNL A   1      47.165  30.118  28.060  1.00  0.00     0.074 A 
ATOM     68  C   UNL A   1      48.538  30.356  27.668  1.00  0.00     0.031 C 
ATOM     69  C   UNL A   1      46.363  31.049  28.632  1.00  0.00     0.034 A 
BRANCH  56  70
ATOM     70  C   UNL A   1      40.535  29.195  29.471  1.00  0.00     0.023 A 
ATOM     71  C   UNL A   1      39.652  29.758  28.525  1.00  0.00     0.012 A 
ATOM     72  C   UNL A   1      40.071  28.924  30.772  1.00  0.00     0.148 A 
ATOM     73  C   UNL A   1      38.343  30.079  28.879  1.00  0.00     0.002 A 
ATOM     74  C   UNL A   1      38.752  29.206  31.105  1.00  0.00     0.091 A 
ATOM     75  F   UNL A   1      40.931  28.410  31.664  1.00  0.00    -0.205 F 
ATOM     76  C   UNL A   1      37.890  29.793  30.163  1.00  0.00     0.022 A 
BRANCH  74  77
ATOM     77  S   UNL A   1      38.051  28.806  32.710  1.00  0.00     0.127 S 
ATOM     78  O   UNL A   1      38.908  29.580  33.607  1.00  0.00    -0.237 OA
ATOM     79  O   UNL A   1      36.684  29.314  32.586  1.00  0.00    -0.237 OA
ATOM     80  O   UNL A   1      38.150  27.359  32.841  1.00  0.00    -0.744 OA
ENDBRANCH  74  77
ENDBRANCH  56  70
BRANCH  57  81
ATOM     81  C   UNL A   1      49.547  26.585  26.046  1.00  0.00     0.023 A 
ATOM     82  C   UNL A   1      50.424  25.766  26.781  1.00  0.00     0.012 A 
ATOM     83  C   UNL A   1      49.930  27.026  24.765  1.00  0.00     0.148 A 
ATOM     84  C   UNL A   1      51.673  25.415  26.265  1.00  0.00     0.002 A 
ATOM     85  C   UNL A   1      51.153  26.630  24.235  1.00  0.00     0.091 A 
ATOM     86  F   UNL A   1      49.089  27.818  24.086  1.00  0.00    -0.205 F 
ATOM     87  C   UNL A   1      52.033  25.838  24.989  1.00  0.00     0.022 A 
BRANCH  85  88
ATOM     88  S   UNL A   1      51.637  27.021  22.548  1.00  0.00     0.127 S 
ATOM     89  O   UNL A   1      50.448  26.630  21.797  1.00  0.00    -0.237 OA
ATOM     90  O   UNL A   1      51.874  28.463  22.622  1.00  0.00    -0.237 OA
ATOM     91  O   UNL A   1      52.838  26.233  22.302  1.00  0.00    -0.744 OA
ENDBRANCH  85  88
ENDBRANCH  57  81
BRANCH  69  92
ATOM     92  C   UNL A   1      46.949  32.408  28.903  1.00  0.00     0.023 A 
ATOM     93  C   UNL A   1      47.573  32.661  30.140  1.00  0.00     0.012 A 
ATOM     94  C   UNL A   1      46.975  33.394  27.899  1.00  0.00     0.148 A 
ATOM     95  C   UNL A   1      48.199  33.883  30.380  1.00  0.00     0.002 A 
ATOM     96  C   UNL A   1      47.638  34.593  28.128  1.00  0.00     0.091 A 
ATOM     97  F   UNL A   1      46.359  33.138  26.735  1.00  0.00    -0.205 F 
ATOM     98  C   UNL A   1      48.243  34.843  29.370  1.00  0.00     0.022 A 
BRANCH  96  99
ATOM     99  S   UNL A   1      47.829  35.847  26.855  1.00  0.00     0.127 S 
ATOM    100  O   UNL A   1      46.446  36.269  26.643  1.00  0.00    -0.237 OA
ATOM    101  O   UNL A   1      48.674  36.840  27.521  1.00  0.00    -0.237 OA
ATOM    102  O   UNL A   1      48.459  35.178  25.726  1.00  0.00    -0.744 OA
ENDBRANCH  96  99
ENDBRANCH  69  92
ENDBRANCH  43  44
ENDBRANCH  35  38
ENDBRANCH  33  34
ENDBRANCH  32  33
ENDBRANCH   1  32
TORSDOF 17
ENDMDL
