MODEL 1
REMARK VINA RESULT:     -10.4      0.000      0.000
REMARK SMILES C#CCN(CC(=O)NCCCCNC(=O)c1ccc(-c2c3nc(c(-c4cccc(S(=O)(=O)[O-])c4F)c4ccc([nH]4)c(-c4cccc(S(=O)(=O)[O-])c4F)c4nc(c(-c5cccc(S(=O)(=O)[O-])c5F)c5ccc2[nH]5)C=C4)C=C3)cc1)C(=O)[C@H](c1ccc(Cl)cc1)C(C)C
REMARK SMILES IDX 10 1 9 2 8 3 6 4 7 5 5 7 4 8 3 9 2 10 1 11 79 12 80 13 81 14
REMARK SMILES IDX 89 15 90 16 91 17 82 18 83 19 88 20 84 21 87 22 85 23 86 24
REMARK SMILES IDX 11 25 12 26 13 27 14 28 15 30 16 31 17 32 78 33 18 34 77 35
REMARK SMILES IDX 19 36 20 37 21 38 71 39 22 40 76 41 70 42 72 43 23 44 75 45
REMARK SMILES IDX 69 46 68 47 24 49 56 50 36 51 55 52 37 53 40 54 54 55 73 56
REMARK SMILES IDX 38 57 39 58 53 60 74 61 41 62 25 63 26 64 34 65 27 66 29 67
REMARK SMILES IDX 35 68 28 69 30 70 31 71 32 72 33 73 57 74 58 75 66 76 59 77
REMARK SMILES IDX 61 78 67 79 60 80 62 81 63 82 64 83 65 84 42 85 43 86 51 87
REMARK SMILES IDX 44 88 46 89 52 90 45 91 47 92 48 93 49 94 50 95
REMARK H PARENT 8 6 13 29 72 48 40 59
REMARK Flexibility Score: inf
ROOT
ATOM      1  C   UNL A   1      39.432  22.494  26.459  1.00  0.00     0.023 C 
ENDROOT
BRANCH   1   2
ATOM      2  C   UNL A   1      38.145  23.188  26.025  1.00  0.00     0.116 C 
BRANCH   2   3
ATOM      3  N   UNL A   1      37.708  22.787  24.708  1.00  0.00    -0.355 N 
ATOM      4  C   UNL A   1      36.643  23.234  23.987  1.00  0.00     0.239 C 
ATOM      5  O   UNL A   1      36.619  22.989  22.778  1.00  0.00    -0.273 OA
ATOM      6  H   UNL A   1      38.255  22.095  24.272  1.00  0.00     0.163 HD
BRANCH   4   7
ATOM      7  C   UNL A   1      35.584  24.151  24.610  1.00  0.00     0.220 C 
BRANCH   7   8
ATOM      8  N   UNL A   1      34.287  24.245  23.934  1.00  0.00    -0.322 N 
BRANCH   8   9
ATOM      9  C   UNL A   1      33.817  25.592  23.598  1.00  0.00     0.209 C 
BRANCH   9  10
ATOM     10  C   UNL A   1      33.203  26.289  24.801  1.00  0.00    -0.085 C 
ATOM     11  C   UNL A   1      32.675  26.885  25.833  1.00  0.00     0.006 C 
ENDBRANCH   9  10
ENDBRANCH   8   9
BRANCH   8  12
ATOM     12  C   UNL A   1      33.477  23.184  23.535  1.00  0.00     0.231 C 
ATOM     13  O   UNL A   1      33.331  22.949  22.324  1.00  0.00    -0.274 OA
BRANCH  12  14
ATOM     14  C   UNL A   1      32.642  22.301  24.508  1.00  0.00     0.111 C 
BRANCH  14  15
ATOM     15  C   UNL A   1      31.145  22.665  24.718  1.00  0.00    -0.000 C 
ATOM     16  C   UNL A   1      30.877  23.311  26.089  1.00  0.00     0.008 C 
ATOM     17  C   UNL A   1      30.661  23.661  23.648  1.00  0.00     0.008 C 
ENDBRANCH  14  15
BRANCH  14  18
ATOM     18  C   UNL A   1      33.054  20.837  24.323  1.00  0.00    -0.035 A 
ATOM     19  C   UNL A   1      34.236  20.282  24.824  1.00  0.00     0.006 A 
ATOM     20  C   UNL A   1      32.178  19.989  23.610  1.00  0.00     0.006 A 
ATOM     21  C   UNL A   1      34.528  18.926  24.626  1.00  0.00     0.021 A 
ATOM     22  C   UNL A   1      32.458  18.634  23.426  1.00  0.00     0.021 A 
ATOM     23  C   UNL A   1      33.636  18.109  23.937  1.00  0.00     0.041 A 
ATOM     24  Cl  UNL A   1      33.977  16.438  23.740  1.00  0.00    -0.084 Cl
ENDBRANCH  14  18
ENDBRANCH  12  14
ENDBRANCH   8  12
ENDBRANCH   7   8
ENDBRANCH   4   7
ENDBRANCH   2   3
ENDBRANCH   1   2
BRANCH   1  25
ATOM     25  C   UNL A   1      39.640  21.096  25.881  1.00  0.00     0.023 C 
BRANCH  25  26
ATOM     26  C   UNL A   1      40.326  20.101  26.807  1.00  0.00     0.116 C 
BRANCH  26  27
ATOM     27  N   UNL A   1      41.274  19.227  26.130  1.00  0.00    -0.352 N 
ATOM     28  C   UNL A   1      42.552  19.524  25.717  1.00  0.00     0.251 C 
ATOM     29  H   UNL A   1      40.962  18.312  25.944  1.00  0.00     0.163 HD
ATOM     30  O   UNL A   1      43.209  18.699  25.088  1.00  0.00    -0.269 OA
BRANCH  28  31
ATOM     31  C   UNL A   1      43.101  20.863  26.006  1.00  0.00     0.039 A 
ATOM     32  C   UNL A   1      43.257  21.769  24.953  1.00  0.00     0.014 A 
ATOM     33  C   UNL A   1      43.396  21.242  27.318  1.00  0.00     0.014 A 
ATOM     34  C   UNL A   1      43.643  23.082  25.229  1.00  0.00     0.010 A 
ATOM     35  C   UNL A   1      43.708  22.567  27.597  1.00  0.00     0.010 A 
ATOM     36  C   UNL A   1      43.836  23.499  26.556  1.00  0.00    -0.014 A 
BRANCH  36  37
ATOM     37  C   UNL A   1      44.165  24.907  26.885  1.00  0.00     0.031 A 
ATOM     38  C   UNL A   1      45.572  25.408  26.719  1.00  0.00     0.074 A 
ATOM     39  C   UNL A   1      43.220  25.704  27.421  1.00  0.00     0.049 A 
ATOM     40  N   UNL A   1      46.071  26.582  27.010  1.00  0.00    -0.248 NA
ATOM     41  C   UNL A   1      46.557  24.453  26.182  1.00  0.00     0.031 C 
ATOM     42  C   UNL A   1      41.839  25.309  27.703  1.00  0.00     0.029 A 
ATOM     43  N   UNL A   1      43.287  27.006  27.849  1.00  0.00    -0.354 N 
ATOM     44  C   UNL A   1      47.428  26.496  26.728  1.00  0.00     0.074 A 
ATOM     45  C   UNL A   1      47.684  25.143  26.283  1.00  0.00     0.031 C 
ATOM     46  C   UNL A   1      41.184  26.351  28.240  1.00  0.00     0.029 A 
ATOM     47  C   UNL A   1      42.103  27.478  28.366  1.00  0.00     0.049 A 
ATOM     48  H   UNL A   1      44.105  27.551  27.791  1.00  0.00     0.167 HD
ATOM     49  C   UNL A   1      48.372  27.465  26.797  1.00  0.00     0.034 A 
ATOM     50  C   UNL A   1      41.794  28.685  28.879  1.00  0.00     0.034 A 
ATOM     51  C   UNL A   1      48.104  28.820  27.195  1.00  0.00     0.049 A 
ATOM     52  C   UNL A   1      42.852  29.755  28.915  1.00  0.00     0.074 A 
ATOM     53  C   UNL A   1      48.970  29.898  27.219  1.00  0.00     0.029 A 
ATOM     54  N   UNL A   1      46.874  29.283  27.641  1.00  0.00    -0.354 N 
ATOM     55  N   UNL A   1      44.095  29.702  28.499  1.00  0.00    -0.248 NA
ATOM     56  C   UNL A   1      42.455  31.061  29.460  1.00  0.00     0.031 C 
ATOM     57  C   UNL A   1      48.265  31.012  27.691  1.00  0.00     0.029 A 
ATOM     58  C   UNL A   1      46.957  30.630  27.947  1.00  0.00     0.049 A 
ATOM     59  H   UNL A   1      46.062  28.733  27.727  1.00  0.00     0.167 HD
ATOM     60  C   UNL A   1      44.617  30.975  28.697  1.00  0.00     0.074 A 
ATOM     61  C   UNL A   1      43.550  31.781  29.255  1.00  0.00     0.031 C 
ATOM     62  C   UNL A   1      45.870  31.431  28.449  1.00  0.00     0.034 A 
BRANCH  49  63
ATOM     63  C   UNL A   1      49.769  27.097  26.370  1.00  0.00     0.023 A 
ATOM     64  C   UNL A   1      50.619  26.435  27.282  1.00  0.00     0.012 A 
ATOM     65  C   UNL A   1      50.240  27.385  25.074  1.00  0.00     0.148 A 
ATOM     66  C   UNL A   1      51.927  26.109  26.929  1.00  0.00     0.002 A 
ATOM     67  C   UNL A   1      51.533  27.015  24.716  1.00  0.00     0.091 A 
ATOM     68  F   UNL A   1      49.432  28.038  24.227  1.00  0.00    -0.205 F 
ATOM     69  C   UNL A   1      52.381  26.391  25.644  1.00  0.00     0.022 A 
BRANCH  67  70
ATOM     70  S   UNL A   1      52.176  27.273  23.059  1.00  0.00     0.127 S 
ATOM     71  O   UNL A   1      51.121  26.686  22.235  1.00  0.00    -0.237 OA
ATOM     72  O   UNL A   1      52.266  28.732  22.982  1.00  0.00    -0.237 OA
ATOM     73  O   UNL A   1      53.462  26.591  23.025  1.00  0.00    -0.744 OA
ENDBRANCH  67  70
ENDBRANCH  49  63
BRANCH  50  74
ATOM     74  C   UNL A   1      40.395  28.975  29.300  1.00  0.00     0.023 A 
ATOM     75  C   UNL A   1      39.445  29.308  28.314  1.00  0.00     0.012 A 
ATOM     76  C   UNL A   1      39.988  28.884  30.645  1.00  0.00     0.148 A 
ATOM     77  C   UNL A   1      38.119  29.567  28.662  1.00  0.00     0.002 A 
ATOM     78  C   UNL A   1      38.654  29.096  30.978  1.00  0.00     0.091 A 
ATOM     79  F   UNL A   1      40.910  28.573  31.567  1.00  0.00    -0.205 F 
ATOM     80  C   UNL A   1      37.722  29.451  29.991  1.00  0.00     0.022 A 
BRANCH  78  81
ATOM     81  S   UNL A   1      38.020  28.862  32.643  1.00  0.00     0.127 S 
ATOM     82  O   UNL A   1      38.885  29.746  33.419  1.00  0.00    -0.237 OA
ATOM     83  O   UNL A   1      36.637  29.320  32.502  1.00  0.00    -0.237 OA
ATOM     84  O   UNL A   1      38.161  27.440  32.922  1.00  0.00    -0.744 OA
ENDBRANCH  78  81
ENDBRANCH  50  74
BRANCH  62  85
ATOM     85  C   UNL A   1      46.156  32.880  28.749  1.00  0.00     0.023 A 
ATOM     86  C   UNL A   1      46.702  33.239  29.996  1.00  0.00     0.012 A 
ATOM     87  C   UNL A   1      45.961  33.870  27.766  1.00  0.00     0.148 A 
ATOM     88  C   UNL A   1      47.024  34.568  30.272  1.00  0.00     0.002 A 
ATOM     89  C   UNL A   1      46.327  35.184  28.031  1.00  0.00     0.091 A 
ATOM     90  F   UNL A   1      45.422  33.510  26.593  1.00  0.00    -0.205 F 
ATOM     91  C   UNL A   1      46.849  35.537  29.287  1.00  0.00     0.022 A 
BRANCH  89  92
ATOM     92  S   UNL A   1      46.224  36.478  26.789  1.00  0.00     0.127 S 
ATOM     93  O   UNL A   1      47.015  35.910  25.699  1.00  0.00    -0.237 OA
ATOM     94  O   UNL A   1      44.786  36.546  26.527  1.00  0.00    -0.237 OA
ATOM     95  O   UNL A   1      46.778  37.673  27.410  1.00  0.00    -0.744 OA
ENDBRANCH  89  92
ENDBRANCH  62  85
ENDBRANCH  36  37
ENDBRANCH  28  31
ENDBRANCH  26  27
ENDBRANCH  25  26
ENDBRANCH   1  25
TORSDOF 21
ENDMDL
MODEL 2
REMARK VINA RESULT:     -10.0      0.888      7.769
REMARK SMILES C#CCN(CC(=O)NCCCCNC(=O)c1ccc(-c2c3nc(c(-c4cccc(S(=O)(=O)[O-])c4F)c4ccc([nH]4)c(-c4cccc(S(=O)(=O)[O-])c4F)c4nc(c(-c5cccc(S(=O)(=O)[O-])c5F)c5ccc2[nH]5)C=C4)C=C3)cc1)C(=O)[C@H](c1ccc(Cl)cc1)C(C)C
REMARK SMILES IDX 10 1 9 2 8 3 6 4 7 5 5 7 4 8 3 9 2 10 1 11 79 12 80 13 81 14
REMARK SMILES IDX 89 15 90 16 91 17 82 18 83 19 88 20 84 21 87 22 85 23 86 24
REMARK SMILES IDX 11 25 12 26 13 27 14 28 15 30 16 31 17 32 78 33 18 34 77 35
REMARK SMILES IDX 19 36 20 37 21 38 71 39 22 40 76 41 70 42 72 43 23 44 75 45
REMARK SMILES IDX 69 46 68 47 24 49 56 50 36 51 55 52 37 53 40 54 54 55 73 56
REMARK SMILES IDX 38 57 39 58 53 60 74 61 41 62 25 63 26 64 34 65 27 66 29 67
REMARK SMILES IDX 35 68 28 69 30 70 31 71 32 72 33 73 57 74 58 75 66 76 59 77
REMARK SMILES IDX 61 78 67 79 60 80 62 81 63 82 64 83 65 84 42 85 43 86 51 87
REMARK SMILES IDX 44 88 46 89 52 90 45 91 47 92 48 93 49 94 50 95
REMARK H PARENT 8 6 13 29 72 48 40 59
REMARK Flexibility Score: inf
ROOT
ATOM      1  C   UNL A   1      39.284  22.904  26.582  1.00  0.00     0.023 C 
ENDROOT
BRANCH   1   2
ATOM      2  C   UNL A   1      38.060  23.005  25.679  1.00  0.00     0.116 C 
BRANCH   2   3
ATOM      3  N   UNL A   1      36.854  23.334  26.403  1.00  0.00    -0.355 N 
ATOM      4  C   UNL A   1      35.609  23.598  25.917  1.00  0.00     0.239 C 
ATOM      5  O   UNL A   1      34.661  23.557  26.705  1.00  0.00    -0.273 OA
ATOM      6  H   UNL A   1      36.944  23.373  27.382  1.00  0.00     0.163 HD
BRANCH   4   7
ATOM      7  C   UNL A   1      35.360  23.781  24.416  1.00  0.00     0.220 C 
BRANCH   7   8
ATOM      8  N   UNL A   1      34.082  24.373  24.009  1.00  0.00    -0.322 N 
BRANCH   8   9
ATOM      9  C   UNL A   1      34.053  25.829  23.850  1.00  0.00     0.209 C 
BRANCH   9  10
ATOM     10  C   UNL A   1      33.692  26.530  25.149  1.00  0.00    -0.085 C 
ATOM     11  C   UNL A   1      33.383  27.132  26.263  1.00  0.00     0.006 C 
ENDBRANCH   9  10
ENDBRANCH   8   9
BRANCH   8  12
ATOM     12  C   UNL A   1      32.905  23.690  23.714  1.00  0.00     0.231 C 
ATOM     13  O   UNL A   1      32.360  23.860  22.611  1.00  0.00    -0.274 OA
BRANCH  12  14
ATOM     14  C   UNL A   1      32.143  22.774  24.718  1.00  0.00     0.111 C 
BRANCH  14  15
ATOM     15  C   UNL A   1      30.742  23.238  25.207  1.00  0.00    -0.000 C 
ATOM     16  C   UNL A   1      30.552  23.058  26.723  1.00  0.00     0.008 C 
ATOM     17  C   UNL A   1      30.511  24.729  24.897  1.00  0.00     0.008 C 
ENDBRANCH  14  15
BRANCH  14  18
ATOM     18  C   UNL A   1      32.370  21.312  24.323  1.00  0.00    -0.035 A 
ATOM     19  C   UNL A   1      32.109  20.789  23.052  1.00  0.00     0.006 A 
ATOM     20  C   UNL A   1      32.886  20.434  25.302  1.00  0.00     0.006 A 
ATOM     21  C   UNL A   1      32.363  19.441  22.767  1.00  0.00     0.021 A 
ATOM     22  C   UNL A   1      33.155  19.096  25.018  1.00  0.00     0.021 A 
ATOM     23  C   UNL A   1      32.891  18.605  23.747  1.00  0.00     0.041 A 
ATOM     24  Cl  UNL A   1      33.246  16.966  23.378  1.00  0.00    -0.084 Cl
ENDBRANCH  14  18
ENDBRANCH  12  14
ENDBRANCH   8  12
ENDBRANCH   7   8
ENDBRANCH   4   7
ENDBRANCH   2   3
ENDBRANCH   1   2
BRANCH   1  25
ATOM     25  C   UNL A   1      39.719  21.481  26.926  1.00  0.00     0.023 C 
BRANCH  25  26
ATOM     26  C   UNL A   1      39.711  20.496  25.765  1.00  0.00     0.116 C 
BRANCH  26  27
ATOM     27  N   UNL A   1      40.575  19.342  25.969  1.00  0.00    -0.352 N 
ATOM     28  C   UNL A   1      41.910  19.332  26.299  1.00  0.00     0.251 C 
ATOM     29  H   UNL A   1      40.152  18.460  25.856  1.00  0.00     0.163 HD
ATOM     30  O   UNL A   1      42.526  18.273  26.364  1.00  0.00    -0.269 OA
BRANCH  28  31
ATOM     31  C   UNL A   1      42.596  20.618  26.530  1.00  0.00     0.039 A 
ATOM     32  C   UNL A   1      42.964  21.394  25.427  1.00  0.00     0.014 A 
ATOM     33  C   UNL A   1      42.812  21.084  27.829  1.00  0.00     0.014 A 
ATOM     34  C   UNL A   1      43.487  22.671  25.630  1.00  0.00     0.010 A 
ATOM     35  C   UNL A   1      43.264  22.383  28.027  1.00  0.00     0.010 A 
ATOM     36  C   UNL A   1      43.607  23.189  26.930  1.00  0.00    -0.014 A 
BRANCH  36  37
ATOM     37  C   UNL A   1      44.081  24.573  27.173  1.00  0.00     0.031 A 
ATOM     38  C   UNL A   1      43.123  25.620  27.667  1.00  0.00     0.074 A 
ATOM     39  C   UNL A   1      45.348  24.907  26.858  1.00  0.00     0.049 A 
ATOM     40  N   UNL A   1      43.329  26.894  27.879  1.00  0.00    -0.248 NA
ATOM     41  C   UNL A   1      41.741  25.183  27.929  1.00  0.00     0.031 C 
ATOM     42  C   UNL A   1      46.350  23.999  26.298  1.00  0.00     0.029 A 
ATOM     43  N   UNL A   1      46.001  26.111  26.942  1.00  0.00    -0.354 N 
ATOM     44  C   UNL A   1      42.100  27.416  28.263  1.00  0.00     0.074 A 
ATOM     45  C   UNL A   1      41.144  26.331  28.213  1.00  0.00     0.031 C 
ATOM     46  C   UNL A   1      47.496  24.672  26.105  1.00  0.00     0.029 A 
ATOM     47  C   UNL A   1      47.303  26.064  26.500  1.00  0.00     0.049 A 
ATOM     48  H   UNL A   1      45.578  26.931  27.285  1.00  0.00     0.167 HD
ATOM     49  C   UNL A   1      41.800  28.677  28.657  1.00  0.00     0.034 A 
ATOM     50  C   UNL A   1      48.236  27.034  26.428  1.00  0.00     0.034 A 
ATOM     51  C   UNL A   1      42.763  29.740  28.750  1.00  0.00     0.049 A 
ATOM     52  C   UNL A   1      47.887  28.418  26.902  1.00  0.00     0.074 A 
ATOM     53  C   UNL A   1      42.581  31.030  29.216  1.00  0.00     0.029 A 
ATOM     54  N   UNL A   1      44.092  29.636  28.365  1.00  0.00    -0.354 N 
ATOM     55  N   UNL A   1      46.761  28.859  27.408  1.00  0.00    -0.248 NA
ATOM     56  C   UNL A   1      48.949  29.432  26.826  1.00  0.00     0.031 C 
ATOM     57  C   UNL A   1      43.800  31.709  29.102  1.00  0.00     0.029 A 
ATOM     58  C   UNL A   1      44.743  30.838  28.579  1.00  0.00     0.049 A 
ATOM     59  H   UNL A   1      44.511  28.826  27.994  1.00  0.00     0.167 HD
ATOM     60  C   UNL A   1      46.988  30.188  27.746  1.00  0.00     0.074 A 
ATOM     61  C   UNL A   1      48.366  30.475  27.400  1.00  0.00     0.031 C 
ATOM     62  C   UNL A   1      46.130  31.091  28.282  1.00  0.00     0.034 A 
BRANCH  49  63
ATOM     63  C   UNL A   1      40.379  28.947  29.077  1.00  0.00     0.023 A 
ATOM     64  C   UNL A   1      39.432  29.332  28.104  1.00  0.00     0.012 A 
ATOM     65  C   UNL A   1      39.971  28.808  30.418  1.00  0.00     0.148 A 
ATOM     66  C   UNL A   1      38.117  29.620  28.463  1.00  0.00     0.002 A 
ATOM     67  C   UNL A   1      38.645  29.053  30.761  1.00  0.00     0.091 A 
ATOM     68  F   UNL A   1      40.886  28.468  31.336  1.00  0.00    -0.205 F 
ATOM     69  C   UNL A   1      37.721  29.472  29.789  1.00  0.00     0.022 A 
BRANCH  67  70
ATOM     70  S   UNL A   1      38.030  28.818  32.432  1.00  0.00     0.127 S 
ATOM     71  O   UNL A   1      38.896  29.714  33.196  1.00  0.00    -0.237 OA
ATOM     72  O   UNL A   1      36.640  29.264  32.320  1.00  0.00    -0.237 OA
ATOM     73  O   UNL A   1      38.183  27.397  32.711  1.00  0.00    -0.744 OA
ENDBRANCH  67  70
ENDBRANCH  49  63
BRANCH  50  74
ATOM     74  C   UNL A   1      49.619  26.699  25.985  1.00  0.00     0.023 A 
ATOM     75  C   UNL A   1      50.440  25.937  26.840  1.00  0.00     0.012 A 
ATOM     76  C   UNL A   1      50.110  27.087  24.724  1.00  0.00     0.148 A 
ATOM     77  C   UNL A   1      51.733  25.584  26.456  1.00  0.00     0.002 A 
ATOM     78  C   UNL A   1      51.384  26.690  24.328  1.00  0.00     0.091 A 
ATOM     79  F   UNL A   1      49.315  27.817  23.930  1.00  0.00    -0.205 F 
ATOM     80  C   UNL A   1      52.201  25.951  25.198  1.00  0.00     0.022 A 
BRANCH  78  81
ATOM     81  S   UNL A   1      52.037  27.016  22.686  1.00  0.00     0.127 S 
ATOM     82  O   UNL A   1      53.112  26.033  22.592  1.00  0.00    -0.237 OA
ATOM     83  O   UNL A   1      50.873  26.741  21.842  1.00  0.00    -0.237 OA
ATOM     84  O   UNL A   1      52.458  28.410  22.700  1.00  0.00    -0.744 OA
ENDBRANCH  78  81
ENDBRANCH  50  74
BRANCH  62  85
ATOM     85  C   UNL A   1      46.659  32.474  28.562  1.00  0.00     0.023 A 
ATOM     86  C   UNL A   1      47.207  32.769  29.825  1.00  0.00     0.012 A 
ATOM     87  C   UNL A   1      46.688  33.452  27.548  1.00  0.00     0.148 A 
ATOM     88  C   UNL A   1      47.751  34.027  30.084  1.00  0.00     0.002 A 
ATOM     89  C   UNL A   1      47.273  34.687  27.800  1.00  0.00     0.091 A 
ATOM     90  F   UNL A   1      46.143  33.157  26.359  1.00  0.00    -0.205 F 
ATOM     91  C   UNL A   1      47.796  34.980  29.070  1.00  0.00     0.022 A 
BRANCH  89  92
ATOM     92  S   UNL A   1      47.458  35.939  26.524  1.00  0.00     0.127 S 
ATOM     93  O   UNL A   1      48.214  36.973  27.228  1.00  0.00    -0.237 OA
ATOM     94  O   UNL A   1      48.216  35.226  25.494  1.00  0.00    -0.237 OA
ATOM     95  O   UNL A   1      46.106  36.309  26.128  1.00  0.00    -0.744 OA
ENDBRANCH  89  92
ENDBRANCH  62  85
ENDBRANCH  36  37
ENDBRANCH  28  31
ENDBRANCH  26  27
ENDBRANCH  25  26
ENDBRANCH   1  25
TORSDOF 21
ENDMDL
MODEL 3
REMARK VINA RESULT:      -9.9      1.934      7.844
REMARK SMILES C#CCN(CC(=O)NCCCCNC(=O)c1ccc(-c2c3nc(c(-c4cccc(S(=O)(=O)[O-])c4F)c4ccc([nH]4)c(-c4cccc(S(=O)(=O)[O-])c4F)c4nc(c(-c5cccc(S(=O)(=O)[O-])c5F)c5ccc2[nH]5)C=C4)C=C3)cc1)C(=O)[C@H](c1ccc(Cl)cc1)C(C)C
REMARK SMILES IDX 10 1 9 2 8 3 6 4 7 5 5 7 4 8 3 9 2 10 1 11 79 12 80 13 81 14
REMARK SMILES IDX 89 15 90 16 91 17 82 18 83 19 88 20 84 21 87 22 85 23 86 24
REMARK SMILES IDX 11 25 12 26 13 27 14 28 15 30 16 31 17 32 78 33 18 34 77 35
REMARK SMILES IDX 19 36 20 37 21 38 71 39 22 40 76 41 70 42 72 43 23 44 75 45
REMARK SMILES IDX 69 46 68 47 24 49 56 50 36 51 55 52 37 53 40 54 54 55 73 56
REMARK SMILES IDX 38 57 39 58 53 60 74 61 41 62 25 63 26 64 34 65 27 66 29 67
REMARK SMILES IDX 35 68 28 69 30 70 31 71 32 72 33 73 57 74 58 75 66 76 59 77
REMARK SMILES IDX 61 78 67 79 60 80 62 81 63 82 64 83 65 84 42 85 43 86 51 87
REMARK SMILES IDX 44 88 46 89 52 90 45 91 47 92 48 93 49 94 50 95
REMARK H PARENT 8 6 13 29 72 48 40 59
REMARK Flexibility Score: inf
ROOT
ATOM      1  C   UNL A   1      38.096  23.389  26.124  1.00  0.00     0.023 C 
ENDROOT
BRANCH   1   2
ATOM      2  C   UNL A   1      36.603  23.642  25.939  1.00  0.00     0.116 C 
BRANCH   2   3
ATOM      3  N   UNL A   1      35.788  22.905  26.877  1.00  0.00    -0.355 N 
ATOM      4  C   UNL A   1      34.436  22.927  27.037  1.00  0.00     0.239 C 
ATOM      5  O   UNL A   1      33.915  22.010  27.677  1.00  0.00    -0.273 OA
ATOM      6  H   UNL A   1      36.278  22.304  27.483  1.00  0.00     0.163 HD
BRANCH   4   7
ATOM      7  C   UNL A   1      33.563  23.960  26.317  1.00  0.00     0.220 C 
BRANCH   7   8
ATOM      8  N   UNL A   1      32.189  23.572  25.986  1.00  0.00    -0.322 N 
BRANCH   8   9
ATOM      9  C   UNL A   1      31.121  24.440  26.492  1.00  0.00     0.209 C 
BRANCH   9  10
ATOM     10  C   UNL A   1      30.476  25.246  25.376  1.00  0.00    -0.085 C 
ATOM     11  C   UNL A   1      29.924  25.938  24.419  1.00  0.00     0.006 C 
ENDBRANCH   9  10
ENDBRANCH   8   9
BRANCH   8  12
ATOM     12  C   UNL A   1      31.795  22.491  25.202  1.00  0.00     0.231 C 
ATOM     13  O   UNL A   1      30.990  21.664  25.663  1.00  0.00    -0.274 OA
BRANCH  12  14
ATOM     14  C   UNL A   1      32.368  22.173  23.789  1.00  0.00     0.111 C 
BRANCH  14  15
ATOM     15  C   UNL A   1      33.317  23.217  23.137  1.00  0.00    -0.000 C 
ATOM     16  C   UNL A   1      34.787  22.761  23.131  1.00  0.00     0.008 C 
ATOM     17  C   UNL A   1      32.923  23.488  21.673  1.00  0.00     0.008 C 
ENDBRANCH  14  15
BRANCH  14  18
ATOM     18  C   UNL A   1      32.707  20.681  23.718  1.00  0.00    -0.035 A 
ATOM     19  C   UNL A   1      32.157  19.790  22.791  1.00  0.00     0.006 A 
ATOM     20  C   UNL A   1      33.647  20.172  24.643  1.00  0.00     0.006 A 
ATOM     21  C   UNL A   1      32.538  18.442  22.782  1.00  0.00     0.021 A 
ATOM     22  C   UNL A   1      34.040  18.834  24.626  1.00  0.00     0.021 A 
ATOM     23  C   UNL A   1      33.481  17.973  23.693  1.00  0.00     0.041 A 
ATOM     24  Cl  UNL A   1      33.979  16.331  23.645  1.00  0.00    -0.084 Cl
ENDBRANCH  14  18
ENDBRANCH  12  14
ENDBRANCH   8  12
ENDBRANCH   7   8
ENDBRANCH   4   7
ENDBRANCH   2   3
ENDBRANCH   1   2
BRANCH   1  25
ATOM     25  C   UNL A   1      38.467  21.959  26.508  1.00  0.00     0.023 C 
BRANCH  25  26
ATOM     26  C   UNL A   1      38.722  21.014  25.341  1.00  0.00     0.116 C 
BRANCH  26  27
ATOM     27  N   UNL A   1      39.531  19.855  25.691  1.00  0.00    -0.352 N 
ATOM     28  C   UNL A   1      40.804  19.837  26.212  1.00  0.00     0.251 C 
ATOM     29  H   UNL A   1      39.115  18.976  25.536  1.00  0.00     0.163 HD
ATOM     30  O   UNL A   1      41.389  18.772  26.387  1.00  0.00    -0.269 OA
BRANCH  28  31
ATOM     31  C   UNL A   1      41.468  21.120  26.513  1.00  0.00     0.039 A 
ATOM     32  C   UNL A   1      41.999  21.869  25.460  1.00  0.00     0.014 A 
ATOM     33  C   UNL A   1      41.505  21.610  27.821  1.00  0.00     0.014 A 
ATOM     34  C   UNL A   1      42.505  23.145  25.711  1.00  0.00     0.010 A 
ATOM     35  C   UNL A   1      41.941  22.907  28.057  1.00  0.00     0.010 A 
ATOM     36  C   UNL A   1      42.447  23.687  27.006  1.00  0.00    -0.014 A 
BRANCH  36  37
ATOM     37  C   UNL A   1      42.901  25.071  27.287  1.00  0.00     0.031 A 
ATOM     38  C   UNL A   1      41.953  26.062  27.902  1.00  0.00     0.074 A 
ATOM     39  C   UNL A   1      44.133  25.458  26.904  1.00  0.00     0.049 A 
ATOM     40  N   UNL A   1      42.141  27.329  28.166  1.00  0.00    -0.248 NA
ATOM     41  C   UNL A   1      40.605  25.572  28.236  1.00  0.00     0.031 C 
ATOM     42  C   UNL A   1      45.116  24.609  26.228  1.00  0.00     0.029 A 
ATOM     43  N   UNL A   1      44.759  26.674  27.005  1.00  0.00    -0.354 N 
ATOM     44  C   UNL A   1      40.930  27.794  28.661  1.00  0.00     0.074 A 
ATOM     45  C   UNL A   1      40.001  26.686  28.621  1.00  0.00     0.031 C 
ATOM     46  C   UNL A   1      46.228  25.325  25.991  1.00  0.00     0.029 A 
ATOM     47  C   UNL A   1      46.027  26.689  26.472  1.00  0.00     0.049 A 
ATOM     48  H   UNL A   1      44.341  27.463  27.420  1.00  0.00     0.167 HD
ATOM     49  C   UNL A   1      40.625  29.024  29.141  1.00  0.00     0.034 A 
ATOM     50  C   UNL A   1      46.927  27.688  26.386  1.00  0.00     0.034 A 
ATOM     51  C   UNL A   1      41.565  30.109  29.223  1.00  0.00     0.049 A 
ATOM     52  C   UNL A   1      46.577  29.036  26.956  1.00  0.00     0.074 A 
ATOM     53  C   UNL A   1      41.383  31.367  29.768  1.00  0.00     0.029 A 
ATOM     54  N   UNL A   1      42.865  30.065  28.742  1.00  0.00    -0.354 N 
ATOM     55  N   UNL A   1      45.478  29.416  27.562  1.00  0.00    -0.248 NA
ATOM     56  C   UNL A   1      47.604  30.083  26.860  1.00  0.00     0.031 C 
ATOM     57  C   UNL A   1      42.573  32.088  29.606  1.00  0.00     0.029 A 
ATOM     58  C   UNL A   1      43.499  31.273  28.974  1.00  0.00     0.049 A 
ATOM     59  H   UNL A   1      43.277  29.287  28.301  1.00  0.00     0.167 HD
ATOM     60  C   UNL A   1      45.694  30.733  27.953  1.00  0.00     0.074 A 
ATOM     61  C   UNL A   1      47.037  31.078  27.528  1.00  0.00     0.031 C 
ATOM     62  C   UNL A   1      44.854  31.582  28.595  1.00  0.00     0.034 A 
BRANCH  49  63
ATOM     63  C   UNL A   1      39.231  29.230  29.673  1.00  0.00     0.023 A 
ATOM     64  C   UNL A   1      38.942  28.877  31.009  1.00  0.00     0.012 A 
ATOM     65  C   UNL A   1      38.213  29.782  28.871  1.00  0.00     0.148 A 
ATOM     66  C   UNL A   1      37.655  29.026  31.523  1.00  0.00     0.002 A 
ATOM     67  C   UNL A   1      36.943  29.969  29.406  1.00  0.00     0.091 A 
ATOM     68  F   UNL A   1      38.494  30.088  27.597  1.00  0.00    -0.205 F 
ATOM     69  C   UNL A   1      36.659  29.579  30.725  1.00  0.00     0.022 A 
BRANCH  67  70
ATOM     70  S   UNL A   1      35.617  30.743  28.474  1.00  0.00     0.127 S 
ATOM     71  O   UNL A   1      35.037  29.597  27.776  1.00  0.00    -0.237 OA
ATOM     72  O   UNL A   1      34.774  31.300  29.533  1.00  0.00    -0.237 OA
ATOM     73  O   UNL A   1      36.259  31.741  27.631  1.00  0.00    -0.744 OA
ENDBRANCH  67  70
ENDBRANCH  49  63
BRANCH  50  74
ATOM     74  C   UNL A   1      48.284  27.418  25.832  1.00  0.00     0.023 A 
ATOM     75  C   UNL A   1      49.287  26.938  26.696  1.00  0.00     0.012 A 
ATOM     76  C   UNL A   1      48.575  27.587  24.465  1.00  0.00     0.148 A 
ATOM     77  C   UNL A   1      50.565  26.652  26.215  1.00  0.00     0.002 A 
ATOM     78  C   UNL A   1      49.837  27.254  23.982  1.00  0.00     0.091 A 
ATOM     79  F   UNL A   1      47.608  28.051  23.662  1.00  0.00    -0.205 F 
ATOM     80  C   UNL A   1      50.837  26.801  24.857  1.00  0.00     0.022 A 
BRANCH  78  81
ATOM     81  S   UNL A   1      50.254  27.304  22.235  1.00  0.00     0.127 S 
ATOM     82  O   UNL A   1      50.136  28.729  21.940  1.00  0.00    -0.237 OA
ATOM     83  O   UNL A   1      51.623  26.786  22.240  1.00  0.00    -0.237 OA
ATOM     84  O   UNL A   1      49.283  26.442  21.575  1.00  0.00    -0.744 OA
ENDBRANCH  78  81
ENDBRANCH  50  74
BRANCH  62  85
ATOM     85  C   UNL A   1      45.365  32.963  28.909  1.00  0.00     0.023 A 
ATOM     86  C   UNL A   1      45.979  33.214  30.152  1.00  0.00     0.012 A 
ATOM     87  C   UNL A   1      45.311  33.988  27.944  1.00  0.00     0.148 A 
ATOM     88  C   UNL A   1      46.507  34.473  30.440  1.00  0.00     0.002 A 
ATOM     89  C   UNL A   1      45.881  35.225  28.220  1.00  0.00     0.091 A 
ATOM     90  F   UNL A   1      44.706  33.734  26.775  1.00  0.00    -0.205 F 
ATOM     91  C   UNL A   1      46.470  35.472  29.471  1.00  0.00     0.022 A 
BRANCH  89  92
ATOM     92  S   UNL A   1      45.962  36.539  26.998  1.00  0.00     0.127 S 
ATOM     93  O   UNL A   1      44.565  36.960  26.919  1.00  0.00    -0.237 OA
ATOM     94  O   UNL A   1      46.854  37.507  27.638  1.00  0.00    -0.237 OA
ATOM     95  O   UNL A   1      46.504  35.929  25.791  1.00  0.00    -0.744 OA
ENDBRANCH  89  92
ENDBRANCH  62  85
ENDBRANCH  36  37
ENDBRANCH  28  31
ENDBRANCH  26  27
ENDBRANCH  25  26
ENDBRANCH   1  25
TORSDOF 21
ENDMDL
