MODEL 1
REMARK VINA RESULT:     -12.5      0.000      0.000
REMARK SMILES O=C(COc1ccccc1[C@@H]1[NH2+]CCc2cc(O)c(O)cc21)NCCCCNC(=O)c1ccc(-c2c3nc(c(-c4cccc(S(=O)(=O)[O-])c4F)c4ccc([nH]4)c(-c4cccc(S(=O)(=O)[O-])c4F)c4nc(c(-c5cccc(S(=O)(=O)[O-])c5F)c5ccc2[nH]5)C=C4)C=C3)cc1
REMARK SMILES IDX 25 1 24 2 23 3 1 4 2 5 3 7 4 8 5 9 6 10 10 11 7 12 9 13 8 14
REMARK SMILES IDX 11 15 12 16 22 17 13 18 15 21 21 22 14 23 16 24 19 25 17 26
REMARK SMILES IDX 20 27 18 29 26 31 27 32 28 33 29 34 30 36 31 37 32 38 93 39
REMARK SMILES IDX 33 40 92 41 34 42 35 43 36 44 86 45 37 46 91 47 85 48 87 49
REMARK SMILES IDX 38 50 90 51 84 52 83 53 39 55 71 56 51 57 70 58 52 59 55 60
REMARK SMILES IDX 69 61 88 62 53 63 54 64 68 66 89 67 56 68 40 69 41 70 49 71
REMARK SMILES IDX 42 72 44 73 50 74 43 75 45 76 46 77 47 78 48 79 72 80 73 81
REMARK SMILES IDX 81 82 74 83 76 84 82 85 75 86 77 87 78 88 79 89 80 90 57 91
REMARK SMILES IDX 58 92 66 93 59 94 61 95 67 96 60 97 62 98 63 99 64 100
REMARK SMILES IDX 65 101
REMARK H PARENT 23 6 12 19 12 20 20 28 18 30 28 35 87 54 55 65
REMARK Flexibility Score: inf
ROOT
ATOM      1  C   UNL A   1      31.877  30.697  26.184  1.00  0.00     0.023 C 
ENDROOT
BRANCH   1   2
ATOM      2  C   UNL A   1      32.918  29.767  26.789  1.00  0.00     0.116 C 
BRANCH   2   3
ATOM      3  N   UNL A   1      32.794  28.377  26.404  1.00  0.00    -0.353 N 
ATOM      4  O   UNL A   1      31.274  27.829  28.030  1.00  0.00    -0.271 OA
ATOM      5  C   UNL A   1      31.858  27.544  26.986  1.00  0.00     0.257 C 
ATOM      6  H   UNL A   1      33.392  28.017  25.710  1.00  0.00     0.163 HD
BRANCH   5   7
ATOM      7  C   UNL A   1      31.583  26.252  26.200  1.00  0.00     0.329 C 
BRANCH   7   8
ATOM      8  O   UNL A   1      32.650  25.360  25.951  1.00  0.00    -0.483 OA
BRANCH   8   9
ATOM      9  C   UNL A   1      32.983  24.766  24.764  1.00  0.00     0.129 A 
ATOM     10  C   UNL A   1      33.294  25.769  23.822  1.00  0.00     0.047 A 
ATOM     11  C   UNL A   1      32.914  23.421  24.331  1.00  0.00     0.056 A 
ATOM     12  C   UNL A   1      33.411  25.501  22.461  1.00  0.00     0.004 A 
ATOM     13  C   UNL A   1      32.931  23.196  22.929  1.00  0.00     0.014 A 
ATOM     14  C   UNL A   1      33.170  24.218  22.007  1.00  0.00     0.001 A 
BRANCH  11  15
ATOM     15  C   UNL A   1      32.787  22.206  25.243  1.00  0.00     0.249 C 
ATOM     16  N   UNL A   1      33.436  22.416  26.545  1.00  0.00    -0.336 N 
ATOM     17  C   UNL A   1      33.255  20.827  24.761  1.00  0.00     0.021 A 
ATOM     18  C   UNL A   1      34.902  22.417  26.490  1.00  0.00     0.266 C 
ATOM     19  H   UNL A   1      33.140  21.671  27.175  1.00  0.00     0.347 HD
ATOM     20  H   UNL A   1      33.153  23.341  26.869  1.00  0.00     0.347 HD
ATOM     21  C   UNL A   1      34.631  20.523  24.893  1.00  0.00    -0.029 A 
ATOM     22  C   UNL A   1      32.346  19.817  24.408  1.00  0.00     0.060 A 
ATOM     23  C   UNL A   1      35.537  21.646  25.322  1.00  0.00     0.097 C 
ATOM     24  C   UNL A   1      35.088  19.217  24.716  1.00  0.00     0.054 A 
ATOM     25  C   UNL A   1      32.812  18.514  24.264  1.00  0.00     0.157 A 
ATOM     26  C   UNL A   1      34.166  18.222  24.436  1.00  0.00     0.157 A 
BRANCH  25  27
ATOM     27  O   UNL A   1      31.968  17.468  24.008  1.00  0.00    -0.504 OA
ATOM     28  H   UNL A   1      31.602  17.361  23.153  1.00  0.00     0.293 HD
ENDBRANCH  25  27
BRANCH  26  29
ATOM     29  O   UNL A   1      34.590  16.923  24.377  1.00  0.00    -0.504 OA
ATOM     30  H   UNL A   1      35.113  16.634  23.655  1.00  0.00     0.293 HD
ENDBRANCH  26  29
ENDBRANCH  11  15
ENDBRANCH   8   9
ENDBRANCH   7   8
ENDBRANCH   5   7
ENDBRANCH   2   3
ENDBRANCH   1   2
BRANCH   1  31
ATOM     31  C   UNL A   1      31.579  31.935  27.021  1.00  0.00     0.023 C 
BRANCH  31  32
ATOM     32  C   UNL A   1      32.808  32.730  27.435  1.00  0.00     0.116 C 
BRANCH  32  33
ATOM     33  N   UNL A   1      32.515  34.137  27.668  1.00  0.00    -0.352 N 
ATOM     34  C   UNL A   1      33.075  34.989  28.595  1.00  0.00     0.251 C 
ATOM     35  H   UNL A   1      31.827  34.533  27.086  1.00  0.00     0.163 HD
ATOM     36  O   UNL A   1      32.613  36.108  28.767  1.00  0.00    -0.269 OA
BRANCH  34  37
ATOM     37  C   UNL A   1      34.225  34.517  29.399  1.00  0.00     0.039 A 
ATOM     38  C   UNL A   1      33.982  33.859  30.606  1.00  0.00     0.014 A 
ATOM     39  C   UNL A   1      35.532  34.681  28.932  1.00  0.00     0.014 A 
ATOM     40  C   UNL A   1      35.052  33.304  31.312  1.00  0.00     0.010 A 
ATOM     41  C   UNL A   1      36.582  34.053  29.592  1.00  0.00     0.010 A 
ATOM     42  C   UNL A   1      36.356  33.363  30.793  1.00  0.00    -0.014 A 
BRANCH  42  43
ATOM     43  C   UNL A   1      37.494  32.702  31.484  1.00  0.00     0.031 A 
ATOM     44  C   UNL A   1      38.209  31.549  30.832  1.00  0.00     0.074 A 
ATOM     45  C   UNL A   1      37.828  33.081  32.734  1.00  0.00     0.049 A 
ATOM     46  N   UNL A   1      39.187  30.816  31.298  1.00  0.00    -0.248 NA
ATOM     47  C   UNL A   1      37.747  31.146  29.493  1.00  0.00     0.031 C 
ATOM     48  C   UNL A   1      37.160  34.130  33.508  1.00  0.00     0.029 A 
ATOM     49  N   UNL A   1      38.798  32.609  33.584  1.00  0.00    -0.354 N 
ATOM     50  C   UNL A   1      39.431  29.848  30.332  1.00  0.00     0.074 A 
ATOM     51  C   UNL A   1      38.474  30.062  29.269  1.00  0.00     0.031 C 
ATOM     52  C   UNL A   1      37.744  34.228  34.712  1.00  0.00     0.029 A 
ATOM     53  C   UNL A   1      38.805  33.230  34.812  1.00  0.00     0.049 A 
ATOM     54  H   UNL A   1      39.429  31.894  33.339  1.00  0.00     0.167 HD
ATOM     55  C   UNL A   1      40.383  28.884  30.315  1.00  0.00     0.034 A 
ATOM     56  C   UNL A   1      39.570  33.013  35.899  1.00  0.00     0.034 A 
ATOM     57  C   UNL A   1      41.357  28.697  31.355  1.00  0.00     0.049 A 
ATOM     58  C   UNL A   1      40.642  31.958  35.842  1.00  0.00     0.074 A 
ATOM     59  C   UNL A   1      42.420  27.812  31.389  1.00  0.00     0.029 A 
ATOM     60  N   UNL A   1      41.382  29.397  32.551  1.00  0.00    -0.354 N 
ATOM     61  N   UNL A   1      40.964  31.161  34.852  1.00  0.00    -0.248 NA
ATOM     62  C   UNL A   1      41.482  31.798  37.038  1.00  0.00     0.031 C 
ATOM     63  C   UNL A   1      43.067  27.953  32.620  1.00  0.00     0.029 A 
ATOM     64  C   UNL A   1      42.432  28.954  33.337  1.00  0.00     0.049 A 
ATOM     65  H   UNL A   1      40.747  30.106  32.806  1.00  0.00     0.167 HD
ATOM     66  C   UNL A   1      42.064  30.432  35.291  1.00  0.00     0.074 A 
ATOM     67  C   UNL A   1      42.366  30.898  36.629  1.00  0.00     0.031 C 
ATOM     68  C   UNL A   1      42.753  29.458  34.648  1.00  0.00     0.034 A 
BRANCH  55  69
ATOM     69  C   UNL A   1      40.444  27.982  29.109  1.00  0.00     0.023 A 
ATOM     70  C   UNL A   1      39.516  26.928  28.977  1.00  0.00     0.012 A 
ATOM     71  C   UNL A   1      41.384  28.207  28.084  1.00  0.00     0.148 A 
ATOM     72  C   UNL A   1      39.545  26.091  27.862  1.00  0.00     0.002 A 
ATOM     73  C   UNL A   1      41.375  27.399  26.953  1.00  0.00     0.091 A 
ATOM     74  F   UNL A   1      42.271  29.200  28.236  1.00  0.00    -0.205 F 
ATOM     75  C   UNL A   1      40.467  26.332  26.848  1.00  0.00     0.022 A 
BRANCH  73  76
ATOM     76  S   UNL A   1      42.465  27.678  25.554  1.00  0.00     0.127 S 
ATOM     77  O   UNL A   1      41.962  28.950  25.038  1.00  0.00    -0.237 OA
ATOM     78  O   UNL A   1      43.777  27.756  26.197  1.00  0.00    -0.237 OA
ATOM     79  O   UNL A   1      42.289  26.532  24.672  1.00  0.00    -0.744 OA
ENDBRANCH  73  76
ENDBRANCH  55  69
BRANCH  56  80
ATOM     80  C   UNL A   1      39.393  33.856  37.117  1.00  0.00     0.023 A 
ATOM     81  C   UNL A   1      39.847  35.189  37.110  1.00  0.00     0.012 A 
ATOM     82  C   UNL A   1      38.759  33.353  38.269  1.00  0.00     0.148 A 
ATOM     83  C   UNL A   1      39.705  35.996  38.240  1.00  0.00     0.002 A 
ATOM     84  C   UNL A   1      38.569  34.178  39.371  1.00  0.00     0.091 A 
ATOM     85  F   UNL A   1      38.342  32.079  38.259  1.00  0.00    -0.205 F 
ATOM     86  C   UNL A   1      39.058  35.494  39.365  1.00  0.00     0.022 A 
BRANCH  84  87
ATOM     87  S   UNL A   1      37.636  33.662  40.816  1.00  0.00     0.127 S 
ATOM     88  O   UNL A   1      37.444  34.929  41.516  1.00  0.00    -0.237 OA
ATOM     89  O   UNL A   1      36.429  33.103  40.209  1.00  0.00    -0.237 OA
ATOM     90  O   UNL A   1      38.475  32.685  41.498  1.00  0.00    -0.744 OA
ENDBRANCH  84  87
ENDBRANCH  56  80
BRANCH  68  91
ATOM     91  C   UNL A   1      43.936  28.851  35.359  1.00  0.00     0.023 A 
ATOM     92  C   UNL A   1      45.224  29.389  35.171  1.00  0.00     0.012 A 
ATOM     93  C   UNL A   1      43.755  27.794  36.273  1.00  0.00     0.148 A 
ATOM     94  C   UNL A   1      46.319  28.860  35.854  1.00  0.00     0.002 A 
ATOM     95  C   UNL A   1      44.841  27.309  36.991  1.00  0.00     0.091 A 
ATOM     96  F   UNL A   1      42.523  27.285  36.426  1.00  0.00    -0.205 F 
ATOM     97  C   UNL A   1      46.126  27.831  36.772  1.00  0.00     0.022 A 
BRANCH  95  98
ATOM     98  S   UNL A   1      44.671  26.054  38.265  1.00  0.00     0.127 S 
ATOM     99  O   UNL A   1      44.102  24.938  37.510  1.00  0.00    -0.237 OA
ATOM    100  O   UNL A   1      46.057  25.858  38.692  1.00  0.00    -0.237 OA
ATOM    101  O   UNL A   1      43.800  26.627  39.282  1.00  0.00    -0.744 OA
ENDBRANCH  95  98
ENDBRANCH  68  91
ENDBRANCH  42  43
ENDBRANCH  34  37
ENDBRANCH  32  33
ENDBRANCH  31  32
ENDBRANCH   1  31
TORSDOF 19
ENDMDL
MODEL 2
REMARK VINA RESULT:     -12.3      5.573      8.998
REMARK SMILES O=C(COc1ccccc1[C@@H]1[NH2+]CCc2cc(O)c(O)cc21)NCCCCNC(=O)c1ccc(-c2c3nc(c(-c4cccc(S(=O)(=O)[O-])c4F)c4ccc([nH]4)c(-c4cccc(S(=O)(=O)[O-])c4F)c4nc(c(-c5cccc(S(=O)(=O)[O-])c5F)c5ccc2[nH]5)C=C4)C=C3)cc1
REMARK SMILES IDX 25 1 24 2 23 3 1 4 2 5 3 7 4 8 5 9 6 10 10 11 7 12 9 13 8 14
REMARK SMILES IDX 11 15 12 16 22 17 13 18 15 21 21 22 14 23 16 24 19 25 17 26
REMARK SMILES IDX 20 27 18 29 26 31 27 32 28 33 29 34 30 36 31 37 32 38 93 39
REMARK SMILES IDX 33 40 92 41 34 42 35 43 36 44 86 45 37 46 91 47 85 48 87 49
REMARK SMILES IDX 38 50 90 51 84 52 83 53 39 55 71 56 51 57 70 58 52 59 55 60
REMARK SMILES IDX 69 61 88 62 53 63 54 64 68 66 89 67 56 68 40 69 41 70 49 71
REMARK SMILES IDX 42 72 44 73 50 74 43 75 45 76 46 77 47 78 48 79 72 80 73 81
REMARK SMILES IDX 81 82 74 83 76 84 82 85 75 86 77 87 78 88 79 89 80 90 57 91
REMARK SMILES IDX 58 92 66 93 59 94 61 95 67 96 60 97 62 98 63 99 64 100
REMARK SMILES IDX 65 101
REMARK H PARENT 23 6 12 19 12 20 20 28 18 30 28 35 87 54 55 65
REMARK Flexibility Score: inf
ROOT
ATOM      1  C   UNL A   1      36.446  21.805  24.139  1.00  0.00     0.023 C 
ENDROOT
BRANCH   1   2
ATOM      2  C   UNL A   1      36.146  20.721  25.164  1.00  0.00     0.116 C 
BRANCH   2   3
ATOM      3  N   UNL A   1      34.739  20.475  25.398  1.00  0.00    -0.353 N 
ATOM      4  O   UNL A   1      34.559  21.889  27.193  1.00  0.00    -0.271 OA
ATOM      5  C   UNL A   1      34.020  21.200  26.328  1.00  0.00     0.257 C 
ATOM      6  H   UNL A   1      34.283  19.773  24.881  1.00  0.00     0.163 HD
BRANCH   5   7
ATOM      7  C   UNL A   1      32.495  21.104  26.167  1.00  0.00     0.329 C 
BRANCH   7   8
ATOM      8  O   UNL A   1      31.805  22.153  25.518  1.00  0.00    -0.483 OA
BRANCH   8   9
ATOM      9  C   UNL A   1      32.289  23.007  24.566  1.00  0.00     0.129 A 
ATOM     10  C   UNL A   1      32.393  22.315  23.340  1.00  0.00     0.047 A 
ATOM     11  C   UNL A   1      32.805  24.322  24.652  1.00  0.00     0.056 A 
ATOM     12  C   UNL A   1      33.096  22.828  22.254  1.00  0.00     0.004 A 
ATOM     13  C   UNL A   1      33.605  24.770  23.569  1.00  0.00     0.014 A 
ATOM     14  C   UNL A   1      33.754  24.036  22.390  1.00  0.00     0.001 A 
BRANCH  11  15
ATOM     15  C   UNL A   1      32.602  25.274  25.826  1.00  0.00     0.249 C 
ATOM     16  N   UNL A   1      31.373  24.978  26.576  1.00  0.00    -0.336 N 
ATOM     17  C   UNL A   1      32.598  26.791  25.598  1.00  0.00     0.021 A 
ATOM     18  C   UNL A   1      30.139  25.338  25.869  1.00  0.00     0.266 C 
ATOM     19  H   UNL A   1      31.401  25.497  27.454  1.00  0.00     0.347 HD
ATOM     20  H   UNL A   1      31.349  23.969  26.717  1.00  0.00     0.347 HD
ATOM     21  C   UNL A   1      31.384  27.382  25.175  1.00  0.00    -0.029 A 
ATOM     22  C   UNL A   1      33.672  27.603  25.994  1.00  0.00     0.060 A 
ATOM     23  C   UNL A   1      30.262  26.447  24.813  1.00  0.00     0.097 C 
ATOM     24  C   UNL A   1      31.228  28.768  25.189  1.00  0.00     0.054 A 
ATOM     25  C   UNL A   1      33.492  28.982  26.031  1.00  0.00     0.157 A 
ATOM     26  C   UNL A   1      32.276  29.550  25.649  1.00  0.00     0.157 A 
BRANCH  25  27
ATOM     27  O   UNL A   1      34.466  29.826  26.490  1.00  0.00    -0.504 OA
ATOM     28  H   UNL A   1      34.448  30.732  26.257  1.00  0.00     0.293 HD
ENDBRANCH  25  27
BRANCH  26  29
ATOM     29  O   UNL A   1      32.090  30.899  25.776  1.00  0.00    -0.504 OA
ATOM     30  H   UNL A   1      32.401  31.479  25.109  1.00  0.00     0.293 HD
ENDBRANCH  26  29
ENDBRANCH  11  15
ENDBRANCH   8   9
ENDBRANCH   7   8
ENDBRANCH   5   7
ENDBRANCH   2   3
ENDBRANCH   1   2
BRANCH   1  31
ATOM     31  C   UNL A   1      37.067  23.067  24.725  1.00  0.00     0.023 C 
BRANCH  31  32
ATOM     32  C   UNL A   1      37.765  22.869  26.062  1.00  0.00     0.116 C 
BRANCH  32  33
ATOM     33  N   UNL A   1      39.057  22.211  25.930  1.00  0.00    -0.352 N 
ATOM     34  C   UNL A   1      40.313  22.732  26.157  1.00  0.00     0.251 C 
ATOM     35  H   UNL A   1      39.031  21.270  25.642  1.00  0.00     0.163 HD
ATOM     36  O   UNL A   1      41.311  22.094  25.855  1.00  0.00    -0.269 OA
BRANCH  34  37
ATOM     37  C   UNL A   1      40.433  24.085  26.743  1.00  0.00     0.039 A 
ATOM     38  C   UNL A   1      40.516  24.217  28.131  1.00  0.00     0.014 A 
ATOM     39  C   UNL A   1      40.516  25.211  25.919  1.00  0.00     0.014 A 
ATOM     40  C   UNL A   1      40.751  25.476  28.688  1.00  0.00     0.010 A 
ATOM     41  C   UNL A   1      40.837  26.446  26.471  1.00  0.00     0.010 A 
ATOM     42  C   UNL A   1      40.951  26.595  27.862  1.00  0.00    -0.014 A 
BRANCH  42  43
ATOM     43  C   UNL A   1      41.291  27.925  28.431  1.00  0.00     0.031 A 
ATOM     44  C   UNL A   1      42.729  28.312  28.646  1.00  0.00     0.074 A 
ATOM     45  C   UNL A   1      40.304  28.750  28.836  1.00  0.00     0.049 A 
ATOM     46  N   UNL A   1      43.219  29.404  29.174  1.00  0.00    -0.248 NA
ATOM     47  C   UNL A   1      43.752  27.334  28.240  1.00  0.00     0.031 C 
ATOM     48  C   UNL A   1      38.870  28.459  28.760  1.00  0.00     0.029 A 
ATOM     49  N   UNL A   1      40.357  29.993  29.418  1.00  0.00    -0.354 N 
ATOM     50  C   UNL A   1      44.597  29.229  29.200  1.00  0.00     0.074 A 
ATOM     51  C   UNL A   1      44.866  27.911  28.667  1.00  0.00     0.031 C 
ATOM     52  C   UNL A   1      38.183  29.494  29.265  1.00  0.00     0.029 A 
ATOM     53  C   UNL A   1      39.121  30.509  29.733  1.00  0.00     0.049 A 
ATOM     54  H   UNL A   1      41.201  30.470  29.594  1.00  0.00     0.167 HD
ATOM     55  C   UNL A   1      45.557  30.097  29.602  1.00  0.00     0.034 A 
ATOM     56  C   UNL A   1      38.782  31.663  30.339  1.00  0.00     0.034 A 
ATOM     57  C   UNL A   1      45.290  31.420  30.094  1.00  0.00     0.049 A 
ATOM     58  C   UNL A   1      39.867  32.624  30.746  1.00  0.00     0.074 A 
ATOM     59  C   UNL A   1      46.195  32.408  30.438  1.00  0.00     0.029 A 
ATOM     60  N   UNL A   1      44.026  31.939  30.326  1.00  0.00    -0.354 N 
ATOM     61  N   UNL A   1      41.166  32.507  30.610  1.00  0.00    -0.248 NA
ATOM     62  C   UNL A   1      39.439  33.891  31.357  1.00  0.00     0.031 C 
ATOM     63  C   UNL A   1      45.479  33.512  30.911  1.00  0.00     0.029 A 
ATOM     64  C   UNL A   1      44.126  33.226  30.824  1.00  0.00     0.049 A 
ATOM     65  H   UNL A   1      43.180  31.462  30.162  1.00  0.00     0.167 HD
ATOM     66  C   UNL A   1      41.707  33.698  31.082  1.00  0.00     0.074 A 
ATOM     67  C   UNL A   1      40.593  34.530  31.489  1.00  0.00     0.031 C 
ATOM     68  C   UNL A   1      43.009  34.064  31.180  1.00  0.00     0.034 A 
BRANCH  55  69
ATOM     69  C   UNL A   1      46.993  29.655  29.484  1.00  0.00     0.023 A 
ATOM     70  C   UNL A   1      47.604  28.970  30.556  1.00  0.00     0.012 A 
ATOM     71  C   UNL A   1      47.721  29.869  28.297  1.00  0.00     0.148 A 
ATOM     72  C   UNL A   1      48.926  28.540  30.462  1.00  0.00     0.002 A 
ATOM     73  C   UNL A   1      49.024  29.394  28.194  1.00  0.00     0.091 A 
ATOM     74  F   UNL A   1      47.132  30.539  27.297  1.00  0.00    -0.205 F 
ATOM     75  C   UNL A   1      49.631  28.742  29.280  1.00  0.00     0.022 A 
BRANCH  73  76
ATOM     76  S   UNL A   1      49.988  29.530  26.685  1.00  0.00     0.127 S 
ATOM     77  O   UNL A   1      51.256  28.924  27.091  1.00  0.00    -0.237 OA
ATOM     78  O   UNL A   1      49.203  28.730  25.745  1.00  0.00    -0.237 OA
ATOM     79  O   UNL A   1      50.047  30.951  26.373  1.00  0.00    -0.744 OA
ENDBRANCH  73  76
ENDBRANCH  55  69
BRANCH  56  80
ATOM     80  C   UNL A   1      37.345  32.006  30.541  1.00  0.00     0.023 A 
ATOM     81  C   UNL A   1      36.794  31.949  31.836  1.00  0.00     0.012 A 
ATOM     82  C   UNL A   1      36.530  32.408  29.466  1.00  0.00     0.148 A 
ATOM     83  C   UNL A   1      35.449  32.252  32.053  1.00  0.00     0.002 A 
ATOM     84  C   UNL A   1      35.206  32.763  29.696  1.00  0.00     0.091 A 
ATOM     85  F   UNL A   1      37.070  32.447  28.240  1.00  0.00    -0.205 F 
ATOM     86  C   UNL A   1      34.659  32.668  30.985  1.00  0.00     0.022 A 
BRANCH  84  87
ATOM     87  S   UNL A   1      34.148  33.432  28.409  1.00  0.00     0.127 S 
ATOM     88  O   UNL A   1      33.656  32.217  27.764  1.00  0.00    -0.237 OA
ATOM     89  O   UNL A   1      33.150  34.163  29.190  1.00  0.00    -0.237 OA
ATOM     90  O   UNL A   1      35.008  34.277  27.591  1.00  0.00    -0.744 OA
ENDBRANCH  84  87
ENDBRANCH  56  80
BRANCH  68  91
ATOM     91  C   UNL A   1      43.311  35.442  31.710  1.00  0.00     0.023 A 
ATOM     92  C   UNL A   1      43.383  35.664  33.099  1.00  0.00     0.012 A 
ATOM     93  C   UNL A   1      43.599  36.501  30.825  1.00  0.00     0.148 A 
ATOM     94  C   UNL A   1      43.700  36.927  33.599  1.00  0.00     0.002 A 
ATOM     95  C   UNL A   1      43.968  37.741  31.330  1.00  0.00     0.091 A 
ATOM     96  F   UNL A   1      43.510  36.273  29.506  1.00  0.00    -0.205 F 
ATOM     97  C   UNL A   1      44.006  37.960  32.717  1.00  0.00     0.022 A 
BRANCH  95  98
ATOM     98  S   UNL A   1      44.474  39.101  30.271  1.00  0.00     0.127 S 
ATOM     99  O   UNL A   1      45.320  38.419  29.293  1.00  0.00    -0.237 OA
ATOM    100  O   UNL A   1      43.193  39.575  29.744  1.00  0.00    -0.237 OA
ATOM    101  O   UNL A   1      45.161  40.051  31.135  1.00  0.00    -0.744 OA
ENDBRANCH  95  98
ENDBRANCH  68  91
ENDBRANCH  42  43
ENDBRANCH  34  37
ENDBRANCH  32  33
ENDBRANCH  31  32
ENDBRANCH   1  31
TORSDOF 19
ENDMDL
MODEL 3
REMARK VINA RESULT:     -12.3      2.079      7.849
REMARK SMILES O=C(COc1ccccc1[C@@H]1[NH2+]CCc2cc(O)c(O)cc21)NCCCCNC(=O)c1ccc(-c2c3nc(c(-c4cccc(S(=O)(=O)[O-])c4F)c4ccc([nH]4)c(-c4cccc(S(=O)(=O)[O-])c4F)c4nc(c(-c5cccc(S(=O)(=O)[O-])c5F)c5ccc2[nH]5)C=C4)C=C3)cc1
REMARK SMILES IDX 25 1 24 2 23 3 1 4 2 5 3 7 4 8 5 9 6 10 10 11 7 12 9 13 8 14
REMARK SMILES IDX 11 15 12 16 22 17 13 18 15 21 21 22 14 23 16 24 19 25 17 26
REMARK SMILES IDX 20 27 18 29 26 31 27 32 28 33 29 34 30 36 31 37 32 38 93 39
REMARK SMILES IDX 33 40 92 41 34 42 35 43 36 44 86 45 37 46 91 47 85 48 87 49
REMARK SMILES IDX 38 50 90 51 84 52 83 53 39 55 71 56 51 57 70 58 52 59 55 60
REMARK SMILES IDX 69 61 88 62 53 63 54 64 68 66 89 67 56 68 40 69 41 70 49 71
REMARK SMILES IDX 42 72 44 73 50 74 43 75 45 76 46 77 47 78 48 79 72 80 73 81
REMARK SMILES IDX 81 82 74 83 76 84 82 85 75 86 77 87 78 88 79 89 80 90 57 91
REMARK SMILES IDX 58 92 66 93 59 94 61 95 67 96 60 97 62 98 63 99 64 100
REMARK SMILES IDX 65 101
REMARK H PARENT 23 6 12 19 12 20 20 28 18 30 28 35 87 54 55 65
REMARK Flexibility Score: inf
ROOT
ATOM      1  C   UNL A   1      33.706  28.852  25.948  1.00  0.00     0.023 C 
ENDROOT
BRANCH   1   2
ATOM      2  C   UNL A   1      32.890  27.675  26.463  1.00  0.00     0.116 C 
BRANCH   2   3
ATOM      3  N   UNL A   1      32.018  27.062  25.484  1.00  0.00    -0.353 N 
ATOM      4  O   UNL A   1      31.221  25.430  26.882  1.00  0.00    -0.271 OA
ATOM      5  C   UNL A   1      31.137  26.054  25.826  1.00  0.00     0.257 C 
ATOM      6  H   UNL A   1      32.053  27.372  24.550  1.00  0.00     0.163 HD
BRANCH   5   7
ATOM      7  C   UNL A   1      30.025  25.805  24.795  1.00  0.00     0.329 C 
BRANCH   7   8
ATOM      8  O   UNL A   1      30.190  24.775  23.842  1.00  0.00    -0.483 OA
BRANCH   8   9
ATOM      9  C   UNL A   1      31.340  24.406  23.200  1.00  0.00     0.129 A 
ATOM     10  C   UNL A   1      31.717  25.434  22.310  1.00  0.00     0.047 A 
ATOM     11  C   UNL A   1      32.059  23.188  23.180  1.00  0.00     0.056 A 
ATOM     12  C   UNL A   1      32.686  25.249  21.328  1.00  0.00     0.004 A 
ATOM     13  C   UNL A   1      32.962  22.994  22.102  1.00  0.00     0.014 A 
ATOM     14  C   UNL A   1      33.269  24.003  21.187  1.00  0.00     0.001 A 
BRANCH  11  15
ATOM     15  C   UNL A   1      31.914  22.061  24.197  1.00  0.00     0.249 C 
ATOM     16  N   UNL A   1      32.029  22.542  25.581  1.00  0.00    -0.336 N 
ATOM     17  C   UNL A   1      32.814  20.822  24.108  1.00  0.00     0.021 A 
ATOM     18  C   UNL A   1      33.390  22.928  25.970  1.00  0.00     0.266 C 
ATOM     19  H   UNL A   1      31.717  21.798  26.205  1.00  0.00     0.347 HD
ATOM     20  H   UNL A   1      31.453  23.380  25.650  1.00  0.00     0.347 HD
ATOM     21  C   UNL A   1      34.099  20.907  24.696  1.00  0.00    -0.029 A 
ATOM     22  C   UNL A   1      32.327  19.581  23.668  1.00  0.00     0.060 A 
ATOM     23  C   UNL A   1      34.533  22.261  25.189  1.00  0.00     0.097 C 
ATOM     24  C   UNL A   1      34.872  19.761  24.879  1.00  0.00     0.054 A 
ATOM     25  C   UNL A   1      33.096  18.443  23.885  1.00  0.00     0.157 A 
ATOM     26  C   UNL A   1      34.345  18.536  24.501  1.00  0.00     0.157 A 
BRANCH  25  27
ATOM     27  O   UNL A   1      32.644  17.193  23.560  1.00  0.00    -0.504 OA
ATOM     28  H   UNL A   1      33.199  16.448  23.682  1.00  0.00     0.293 HD
ENDBRANCH  25  27
BRANCH  26  29
ATOM     29  O   UNL A   1      35.046  17.397  24.784  1.00  0.00    -0.504 OA
ATOM     30  H   UNL A   1      35.946  17.326  24.532  1.00  0.00     0.293 HD
ENDBRANCH  26  29
ENDBRANCH  11  15
ENDBRANCH   8   9
ENDBRANCH   7   8
ENDBRANCH   5   7
ENDBRANCH   2   3
ENDBRANCH   1   2
BRANCH   1  31
ATOM     31  C   UNL A   1      32.906  30.136  25.764  1.00  0.00     0.023 C 
BRANCH  31  32
ATOM     32  C   UNL A   1      32.370  30.739  27.053  1.00  0.00     0.116 C 
BRANCH  32  33
ATOM     33  N   UNL A   1      32.509  32.188  27.097  1.00  0.00    -0.352 N 
ATOM     34  C   UNL A   1      33.532  32.936  27.639  1.00  0.00     0.251 C 
ATOM     35  H   UNL A   1      31.776  32.701  26.686  1.00  0.00     0.163 HD
ATOM     36  O   UNL A   1      33.429  34.151  27.730  1.00  0.00    -0.269 OA
BRANCH  34  37
ATOM     37  C   UNL A   1      34.743  32.244  28.133  1.00  0.00     0.039 A 
ATOM     38  C   UNL A   1      35.965  32.918  28.110  1.00  0.00     0.014 A 
ATOM     39  C   UNL A   1      34.656  30.954  28.665  1.00  0.00     0.014 A 
ATOM     40  C   UNL A   1      37.089  32.321  28.684  1.00  0.00     0.010 A 
ATOM     41  C   UNL A   1      35.755  30.401  29.313  1.00  0.00     0.010 A 
ATOM     42  C   UNL A   1      36.986  31.074  29.324  1.00  0.00    -0.014 A 
BRANCH  42  43
ATOM     43  C   UNL A   1      38.149  30.463  30.019  1.00  0.00     0.031 A 
ATOM     44  C   UNL A   1      38.481  30.861  31.432  1.00  0.00     0.074 A 
ATOM     45  C   UNL A   1      38.958  29.617  29.350  1.00  0.00     0.049 A 
ATOM     46  N   UNL A   1      39.481  30.476  32.183  1.00  0.00    -0.248 NA
ATOM     47  C   UNL A   1      37.592  31.840  32.078  1.00  0.00     0.031 C 
ATOM     48  C   UNL A   1      38.792  29.214  27.951  1.00  0.00     0.029 A 
ATOM     49  N   UNL A   1      40.096  28.961  29.750  1.00  0.00    -0.354 N 
ATOM     50  C   UNL A   1      39.363  31.190  33.369  1.00  0.00     0.074 A 
ATOM     51  C   UNL A   1      38.216  32.060  33.225  1.00  0.00     0.031 C 
ATOM     52  C   UNL A   1      39.784  28.376  27.614  1.00  0.00     0.029 A 
ATOM     53  C   UNL A   1      40.676  28.206  28.756  1.00  0.00     0.049 A 
ATOM     54  H   UNL A   1      40.463  29.025  30.661  1.00  0.00     0.167 HD
ATOM     55  C   UNL A   1      40.122  31.111  34.489  1.00  0.00     0.034 A 
ATOM     56  C   UNL A   1      41.804  27.469  28.761  1.00  0.00     0.034 A 
ATOM     57  C   UNL A   1      41.237  30.218  34.643  1.00  0.00     0.049 A 
ATOM     58  C   UNL A   1      42.611  27.372  30.028  1.00  0.00     0.074 A 
ATOM     59  C   UNL A   1      42.010  29.995  35.768  1.00  0.00     0.029 A 
ATOM     60  N   UNL A   1      41.749  29.410  33.640  1.00  0.00    -0.354 N 
ATOM     61  N   UNL A   1      42.388  27.930  31.193  1.00  0.00    -0.248 NA
ATOM     62  C   UNL A   1      43.804  26.514  29.993  1.00  0.00     0.031 C 
ATOM     63  C   UNL A   1      43.011  29.077  35.436  1.00  0.00     0.029 A 
ATOM     64  C   UNL A   1      42.837  28.698  34.114  1.00  0.00     0.049 A 
ATOM     65  H   UNL A   1      41.392  29.350  32.724  1.00  0.00     0.167 HD
ATOM     66  C   UNL A   1      43.389  27.463  32.038  1.00  0.00     0.074 A 
ATOM     67  C   UNL A   1      44.207  26.560  31.256  1.00  0.00     0.031 C 
ATOM     68  C   UNL A   1      43.615  27.764  33.341  1.00  0.00     0.034 A 
BRANCH  55  69
ATOM     69  C   UNL A   1      39.741  31.986  35.655  1.00  0.00     0.023 A 
ATOM     70  C   UNL A   1      40.312  33.270  35.781  1.00  0.00     0.012 A 
ATOM     71  C   UNL A   1      38.782  31.562  36.596  1.00  0.00     0.148 A 
ATOM     72  C   UNL A   1      39.963  34.102  36.844  1.00  0.00     0.002 A 
ATOM     73  C   UNL A   1      38.404  32.416  37.625  1.00  0.00     0.091 A 
ATOM     74  F   UNL A   1      38.266  30.331  36.472  1.00  0.00    -0.205 F 
ATOM     75  C   UNL A   1      39.003  33.679  37.758  1.00  0.00     0.022 A 
BRANCH  73  76
ATOM     76  S   UNL A   1      37.116  31.999  38.806  1.00  0.00     0.127 S 
ATOM     77  O   UNL A   1      37.720  32.434  40.065  1.00  0.00    -0.237 OA
ATOM     78  O   UNL A   1      36.000  32.826  38.348  1.00  0.00    -0.237 OA
ATOM     79  O   UNL A   1      36.902  30.564  38.678  1.00  0.00    -0.744 OA
ENDBRANCH  73  76
ENDBRANCH  55  69
BRANCH  56  80
ATOM     80  C   UNL A   1      42.206  26.712  27.541  1.00  0.00     0.023 A 
ATOM     81  C   UNL A   1      42.865  27.383  26.493  1.00  0.00     0.012 A 
ATOM     82  C   UNL A   1      41.959  25.330  27.423  1.00  0.00     0.148 A 
ATOM     83  C   UNL A   1      43.241  26.701  25.335  1.00  0.00     0.002 A 
ATOM     84  C   UNL A   1      42.386  24.645  26.292  1.00  0.00     0.091 A 
ATOM     85  F   UNL A   1      41.322  24.712  28.427  1.00  0.00    -0.205 F 
ATOM     86  C   UNL A   1      43.010  25.332  25.239  1.00  0.00     0.022 A 
BRANCH  84  87
ATOM     87  S   UNL A   1      42.249  22.862  26.134  1.00  0.00     0.127 S 
ATOM     88  O   UNL A   1      43.052  22.398  27.262  1.00  0.00    -0.237 OA
ATOM     89  O   UNL A   1      40.807  22.658  26.277  1.00  0.00    -0.237 OA
ATOM     90  O   UNL A   1      42.773  22.542  24.812  1.00  0.00    -0.744 OA
ENDBRANCH  84  87
ENDBRANCH  56  80
BRANCH  68  91
ATOM     91  C   UNL A   1      44.771  27.081  34.026  1.00  0.00     0.023 A 
ATOM     92  C   UNL A   1      46.057  27.654  33.980  1.00  0.00     0.012 A 
ATOM     93  C   UNL A   1      44.562  25.910  34.781  1.00  0.00     0.148 A 
ATOM     94  C   UNL A   1      47.125  27.051  34.644  1.00  0.00     0.002 A 
ATOM     95  C   UNL A   1      45.619  25.345  35.485  1.00  0.00     0.091 A 
ATOM     96  F   UNL A   1      43.334  25.371  34.800  1.00  0.00    -0.205 F 
ATOM     97  C   UNL A   1      46.904  25.906  35.406  1.00  0.00     0.022 A 
BRANCH  95  98
ATOM     98  S   UNL A   1      45.407  23.930  36.570  1.00  0.00     0.127 S 
ATOM     99  O   UNL A   1      44.523  24.474  37.600  1.00  0.00    -0.237 OA
ATOM    100  O   UNL A   1      44.779  22.951  35.682  1.00  0.00    -0.237 OA
ATOM    101  O   UNL A   1      46.743  23.566  37.022  1.00  0.00    -0.744 OA
ENDBRANCH  95  98
ENDBRANCH  68  91
ENDBRANCH  42  43
ENDBRANCH  34  37
ENDBRANCH  32  33
ENDBRANCH  31  32
ENDBRANCH   1  31
TORSDOF 19
ENDMDL
