MODEL 1
REMARK VINA RESULT:     -11.8      0.000      0.000
REMARK SMILES O=C(Cc1ccccc1Nc1c(Cl)cccc1Cl)NCCCCNC(=O)c1ccc(-c2c3nc(c(-c4cccc(S(=O)(=O)[O-])c4F)c4ccc([nH]4)c(-c4cccc(S(=O)(=O)[O-])c4F)c4nc(c(-c5cccc(S(=O)(=O)[O-])c5F)c5ccc2[nH]5)C=C4)C=C3)cc1
REMARK SMILES IDX 21 1 20 2 19 3 1 4 2 5 3 7 4 8 5 9 9 10 6 11 8 12 7 13 10 14
REMARK SMILES IDX 11 16 12 17 17 18 13 19 14 20 16 21 18 22 15 23 22 24 23 25
REMARK SMILES IDX 24 26 25 27 26 29 27 30 28 31 89 32 29 33 88 34 30 35 31 36
REMARK SMILES IDX 32 37 82 38 33 39 87 40 81 41 83 42 34 43 86 44 80 45 79 46
REMARK SMILES IDX 35 48 67 49 47 50 66 51 48 52 51 53 65 54 84 55 49 56 50 57
REMARK SMILES IDX 64 59 85 60 52 61 36 62 37 63 45 64 38 65 40 66 46 67 39 68
REMARK SMILES IDX 41 69 42 70 43 71 44 72 68 73 69 74 77 75 70 76 72 77 78 78
REMARK SMILES IDX 71 79 73 80 74 81 75 82 76 83 53 84 54 85 62 86 55 87 57 88
REMARK SMILES IDX 63 89 56 90 58 91 59 92 60 93 61 94
REMARK H PARENT 19 6 10 15 24 28 83 47 51 58
REMARK Flexibility Score: inf
ROOT
ATOM      1  C   UNL A   1      33.134  26.420  25.139  1.00  0.00     0.023 C 
ENDROOT
BRANCH   1   2
ATOM      2  C   UNL A   1      32.418  25.129  25.529  1.00  0.00     0.116 C 
BRANCH   2   3
ATOM      3  N   UNL A   1      33.342  24.114  25.989  1.00  0.00    -0.356 N 
ATOM      4  O   UNL A   1      31.929  23.192  27.551  1.00  0.00    -0.275 OA
ATOM      5  C   UNL A   1      33.018  23.217  26.982  1.00  0.00     0.224 C 
ATOM      6  H   UNL A   1      34.234  24.063  25.576  1.00  0.00     0.163 HD
BRANCH   5   7
ATOM      7  C   UNL A   1      34.150  22.294  27.391  1.00  0.00     0.137 C 
BRANCH   7   8
ATOM      8  C   UNL A   1      35.235  22.143  26.346  1.00  0.00    -0.015 A 
ATOM      9  C   UNL A   1      36.171  23.192  26.226  1.00  0.00     0.006 A 
ATOM     10  C   UNL A   1      35.336  21.019  25.496  1.00  0.00     0.042 A 
ATOM     11  C   UNL A   1      37.185  23.145  25.273  1.00  0.00     0.000 A 
ATOM     12  C   UNL A   1      36.365  21.002  24.538  1.00  0.00     0.026 A 
ATOM     13  C   UNL A   1      37.278  22.053  24.423  1.00  0.00     0.002 A 
BRANCH  10  14
ATOM     14  N   UNL A   1      34.449  19.926  25.633  1.00  0.00    -0.353 N 
ATOM     15  H   UNL A   1      34.235  19.674  26.559  1.00  0.00     0.167 HD
BRANCH  14  16
ATOM     16  C   UNL A   1      33.821  19.135  24.630  1.00  0.00     0.076 A 
ATOM     17  C   UNL A   1      32.712  19.671  23.936  1.00  0.00     0.066 A 
ATOM     18  C   UNL A   1      34.288  17.868  24.226  1.00  0.00     0.066 A 
ATOM     19  Cl  UNL A   1      32.054  21.210  24.390  1.00  0.00    -0.082 Cl
ATOM     20  C   UNL A   1      32.117  18.993  22.870  1.00  0.00     0.023 A 
ATOM     21  C   UNL A   1      33.699  17.196  23.146  1.00  0.00     0.023 A 
ATOM     22  Cl  UNL A   1      35.530  17.028  25.097  1.00  0.00    -0.082 Cl
ATOM     23  C   UNL A   1      32.621  17.761  22.466  1.00  0.00     0.003 A 
ENDBRANCH  14  16
ENDBRANCH  10  14
ENDBRANCH   7   8
ENDBRANCH   5   7
ENDBRANCH   2   3
ENDBRANCH   1   2
BRANCH   1  24
ATOM     24  C   UNL A   1      33.029  27.551  26.165  1.00  0.00     0.023 C 
BRANCH  24  25
ATOM     25  C   UNL A   1      34.218  28.505  26.211  1.00  0.00     0.116 C 
BRANCH  25  26
ATOM     26  N   UNL A   1      33.851  29.849  26.634  1.00  0.00    -0.352 N 
ATOM     27  C   UNL A   1      34.486  30.691  27.516  1.00  0.00     0.251 C 
ATOM     28  H   UNL A   1      33.028  30.208  26.229  1.00  0.00     0.163 HD
ATOM     29  O   UNL A   1      33.947  31.743  27.850  1.00  0.00    -0.269 OA
BRANCH  27  30
ATOM     30  C   UNL A   1      35.799  30.319  28.089  1.00  0.00     0.039 A 
ATOM     31  C   UNL A   1      35.837  29.710  29.347  1.00  0.00     0.014 A 
ATOM     32  C   UNL A   1      36.988  30.562  27.396  1.00  0.00     0.014 A 
ATOM     33  C   UNL A   1      37.058  29.281  29.875  1.00  0.00     0.010 A 
ATOM     34  C   UNL A   1      38.193  30.065  27.889  1.00  0.00     0.010 A 
ATOM     35  C   UNL A   1      38.243  29.419  29.133  1.00  0.00    -0.014 A 
BRANCH  35  36
ATOM     36  C   UNL A   1      39.534  28.874  29.632  1.00  0.00     0.031 A 
ATOM     37  C   UNL A   1      40.268  29.556  30.755  1.00  0.00     0.074 A 
ATOM     38  C   UNL A   1      40.090  27.811  29.017  1.00  0.00     0.049 A 
ATOM     39  N   UNL A   1      41.432  29.262  31.277  1.00  0.00    -0.248 NA
ATOM     40  C   UNL A   1      39.625  30.738  31.353  1.00  0.00     0.031 C 
ATOM     41  C   UNL A   1      39.520  27.105  27.867  1.00  0.00     0.029 A 
ATOM     42  N   UNL A   1      41.274  27.156  29.253  1.00  0.00    -0.354 N 
ATOM     43  C   UNL A   1      41.674  30.235  32.240  1.00  0.00     0.074 A 
ATOM     44  C   UNL A   1      40.554  31.151  32.203  1.00  0.00     0.031 C 
ATOM     45  C   UNL A   1      40.351  26.117  27.501  1.00  0.00     0.029 A 
ATOM     46  C   UNL A   1      41.529  26.138  28.363  1.00  0.00     0.049 A 
ATOM     47  H   UNL A   1      41.882  27.392  29.990  1.00  0.00     0.167 HD
ATOM     48  C   UNL A   1      42.718  30.344  33.096  1.00  0.00     0.034 A 
ATOM     49  C   UNL A   1      42.596  25.325  28.240  1.00  0.00     0.034 A 
ATOM     50  C   UNL A   1      43.816  29.416  33.154  1.00  0.00     0.049 A 
ATOM     51  C   UNL A   1      43.732  25.450  29.219  1.00  0.00     0.074 A 
ATOM     52  C   UNL A   1      44.880  29.398  34.037  1.00  0.00     0.029 A 
ATOM     53  N   UNL A   1      43.999  28.350  32.287  1.00  0.00    -0.354 N 
ATOM     54  N   UNL A   1      43.871  26.287  30.218  1.00  0.00    -0.248 NA
ATOM     55  C   UNL A   1      44.841  24.495  29.078  1.00  0.00     0.031 C 
ATOM     56  C   UNL A   1      45.725  28.340  33.685  1.00  0.00     0.029 A 
ATOM     57  C   UNL A   1      45.165  27.675  32.607  1.00  0.00     0.049 A 
ATOM     58  H   UNL A   1      43.389  28.108  31.553  1.00  0.00     0.167 HD
ATOM     59  C   UNL A   1      45.062  25.937  30.846  1.00  0.00     0.074 A 
ATOM     60  C   UNL A   1      45.594  24.799  30.125  1.00  0.00     0.031 C 
ATOM     61  C   UNL A   1      45.664  26.515  31.914  1.00  0.00     0.034 A 
BRANCH  48  62
ATOM     62  C   UNL A   1      42.702  31.488  34.078  1.00  0.00     0.023 A 
ATOM     63  C   UNL A   1      43.364  32.692  33.756  1.00  0.00     0.012 A 
ATOM     64  C   UNL A   1      41.986  31.397  35.287  1.00  0.00     0.148 A 
ATOM     65  C   UNL A   1      43.346  33.772  34.639  1.00  0.00     0.002 A 
ATOM     66  C   UNL A   1      41.932  32.494  36.139  1.00  0.00     0.091 A 
ATOM     67  F   UNL A   1      41.378  30.240  35.585  1.00  0.00    -0.205 F 
ATOM     68  C   UNL A   1      42.621  33.676  35.823  1.00  0.00     0.022 A 
BRANCH  66  69
ATOM     69  S   UNL A   1      40.957  32.503  37.649  1.00  0.00     0.127 S 
ATOM     70  O   UNL A   1      39.748  31.800  37.221  1.00  0.00    -0.237 OA
ATOM     71  O   UNL A   1      41.809  31.748  38.568  1.00  0.00    -0.237 OA
ATOM     72  O   UNL A   1      40.773  33.904  38.000  1.00  0.00    -0.744 OA
ENDBRANCH  66  69
ENDBRANCH  48  62
BRANCH  49  73
ATOM     73  C   UNL A   1      42.622  24.287  27.171  1.00  0.00     0.023 A 
ATOM     74  C   UNL A   1      43.310  24.541  25.968  1.00  0.00     0.012 A 
ATOM     75  C   UNL A   1      41.986  23.044  27.349  1.00  0.00     0.148 A 
ATOM     76  C   UNL A   1      43.335  23.590  24.949  1.00  0.00     0.002 A 
ATOM     77  C   UNL A   1      42.064  22.078  26.353  1.00  0.00     0.091 A 
ATOM     78  F   UNL A   1      41.328  22.826  28.496  1.00  0.00    -0.205 F 
ATOM     79  C   UNL A   1      42.721  22.355  25.144  1.00  0.00     0.022 A 
BRANCH  77  80
ATOM     80  S   UNL A   1      41.413  20.418  26.570  1.00  0.00     0.127 S 
ATOM     81  O   UNL A   1      41.938  20.060  27.886  1.00  0.00    -0.237 OA
ATOM     82  O   UNL A   1      39.970  20.653  26.524  1.00  0.00    -0.237 OA
ATOM     83  O   UNL A   1      41.932  19.641  25.453  1.00  0.00    -0.744 OA
ENDBRANCH  77  80
ENDBRANCH  49  73
BRANCH  61  84
ATOM     84  C   UNL A   1      46.953  25.906  32.406  1.00  0.00     0.023 A 
ATOM     85  C   UNL A   1      48.188  26.378  31.918  1.00  0.00     0.012 A 
ATOM     86  C   UNL A   1      46.938  24.913  33.406  1.00  0.00     0.148 A 
ATOM     87  C   UNL A   1      49.387  25.847  32.393  1.00  0.00     0.002 A 
ATOM     88  C   UNL A   1      48.137  24.426  33.912  1.00  0.00     0.091 A 
ATOM     89  F   UNL A   1      45.753  24.465  33.844  1.00  0.00    -0.205 F 
ATOM     90  C   UNL A   1      49.362  24.881  33.397  1.00  0.00     0.022 A 
BRANCH  88  91
ATOM     91  S   UNL A   1      48.206  23.255  35.271  1.00  0.00     0.127 S 
ATOM     92  O   UNL A   1      49.601  22.819  35.219  1.00  0.00    -0.237 OA
ATOM     93  O   UNL A   1      47.871  24.096  36.421  1.00  0.00    -0.237 OA
ATOM     94  O   UNL A   1      47.219  22.227  34.967  1.00  0.00    -0.744 OA
ENDBRANCH  88  91
ENDBRANCH  61  84
ENDBRANCH  35  36
ENDBRANCH  27  30
ENDBRANCH  25  26
ENDBRANCH  24  25
ENDBRANCH   1  24
TORSDOF 17
ENDMDL
MODEL 2
REMARK VINA RESULT:     -11.8      1.279      1.887
REMARK SMILES O=C(Cc1ccccc1Nc1c(Cl)cccc1Cl)NCCCCNC(=O)c1ccc(-c2c3nc(c(-c4cccc(S(=O)(=O)[O-])c4F)c4ccc([nH]4)c(-c4cccc(S(=O)(=O)[O-])c4F)c4nc(c(-c5cccc(S(=O)(=O)[O-])c5F)c5ccc2[nH]5)C=C4)C=C3)cc1
REMARK SMILES IDX 21 1 20 2 19 3 1 4 2 5 3 7 4 8 5 9 9 10 6 11 8 12 7 13 10 14
REMARK SMILES IDX 11 16 12 17 17 18 13 19 14 20 16 21 18 22 15 23 22 24 23 25
REMARK SMILES IDX 24 26 25 27 26 29 27 30 28 31 89 32 29 33 88 34 30 35 31 36
REMARK SMILES IDX 32 37 82 38 33 39 87 40 81 41 83 42 34 43 86 44 80 45 79 46
REMARK SMILES IDX 35 48 67 49 47 50 66 51 48 52 51 53 65 54 84 55 49 56 50 57
REMARK SMILES IDX 64 59 85 60 52 61 36 62 37 63 45 64 38 65 40 66 46 67 39 68
REMARK SMILES IDX 41 69 42 70 43 71 44 72 68 73 69 74 77 75 70 76 72 77 78 78
REMARK SMILES IDX 71 79 73 80 74 81 75 82 76 83 53 84 54 85 62 86 55 87 57 88
REMARK SMILES IDX 63 89 56 90 58 91 59 92 60 93 61 94
REMARK H PARENT 19 6 10 15 24 28 83 47 51 58
REMARK Flexibility Score: inf
ROOT
ATOM      1  C   UNL A   1      33.085  26.575  24.984  1.00  0.00     0.023 C 
ENDROOT
BRANCH   1   2
ATOM      2  C   UNL A   1      32.304  25.282  25.211  1.00  0.00     0.116 C 
BRANCH   2   3
ATOM      3  N   UNL A   1      33.144  24.228  25.741  1.00  0.00    -0.356 N 
ATOM      4  O   UNL A   1      31.708  23.600  27.423  1.00  0.00    -0.275 OA
ATOM      5  C   UNL A   1      32.773  23.463  26.825  1.00  0.00     0.224 C 
ATOM      6  H   UNL A   1      34.010  24.050  25.310  1.00  0.00     0.163 HD
BRANCH   5   7
ATOM      7  C   UNL A   1      33.825  22.476  27.289  1.00  0.00     0.137 C 
BRANCH   7   8
ATOM      8  C   UNL A   1      35.020  22.363  26.366  1.00  0.00    -0.015 A 
ATOM      9  C   UNL A   1      35.920  23.449  26.334  1.00  0.00     0.006 A 
ATOM     10  C   UNL A   1      35.255  21.240  25.543  1.00  0.00     0.042 A 
ATOM     11  C   UNL A   1      37.031  23.439  25.494  1.00  0.00     0.000 A 
ATOM     12  C   UNL A   1      36.380  21.259  24.699  1.00  0.00     0.026 A 
ATOM     13  C   UNL A   1      37.257  22.346  24.670  1.00  0.00     0.002 A 
BRANCH  10  14
ATOM     14  N   UNL A   1      34.403  20.112  25.596  1.00  0.00    -0.353 N 
ATOM     15  H   UNL A   1      34.161  19.813  26.502  1.00  0.00     0.167 HD
BRANCH  14  16
ATOM     16  C   UNL A   1      33.847  19.344  24.536  1.00  0.00     0.076 A 
ATOM     17  C   UNL A   1      34.391  18.068  24.262  1.00  0.00     0.066 A 
ATOM     18  C   UNL A   1      32.725  19.745  23.783  1.00  0.00     0.066 A 
ATOM     19  Cl  UNL A   1      35.791  17.509  25.120  1.00  0.00    -0.082 Cl
ATOM     20  C   UNL A   1      33.826  17.219  23.307  1.00  0.00     0.023 A 
ATOM     21  C   UNL A   1      32.150  18.887  22.836  1.00  0.00     0.023 A 
ATOM     22  Cl  UNL A   1      32.065  21.345  23.903  1.00  0.00    -0.082 Cl
ATOM     23  C   UNL A   1      32.695  17.624  22.604  1.00  0.00     0.003 A 
ENDBRANCH  14  16
ENDBRANCH  10  14
ENDBRANCH   7   8
ENDBRANCH   5   7
ENDBRANCH   2   3
ENDBRANCH   1   2
BRANCH   1  24
ATOM     24  C   UNL A   1      33.044  27.565  26.151  1.00  0.00     0.023 C 
BRANCH  24  25
ATOM     25  C   UNL A   1      34.255  28.484  26.271  1.00  0.00     0.116 C 
BRANCH  25  26
ATOM     26  N   UNL A   1      33.902  29.839  26.668  1.00  0.00    -0.352 N 
ATOM     27  C   UNL A   1      34.545  30.690  27.536  1.00  0.00     0.251 C 
ATOM     28  H   UNL A   1      33.084  30.199  26.254  1.00  0.00     0.163 HD
ATOM     29  O   UNL A   1      34.016  31.754  27.849  1.00  0.00    -0.269 OA
BRANCH  27  30
ATOM     30  C   UNL A   1      35.853  30.314  28.119  1.00  0.00     0.039 A 
ATOM     31  C   UNL A   1      35.876  29.642  29.344  1.00  0.00     0.014 A 
ATOM     32  C   UNL A   1      37.051  30.617  27.466  1.00  0.00     0.014 A 
ATOM     33  C   UNL A   1      37.094  29.210  29.877  1.00  0.00     0.010 A 
ATOM     34  C   UNL A   1      38.255  30.118  27.960  1.00  0.00     0.010 A 
ATOM     35  C   UNL A   1      38.292  29.409  29.170  1.00  0.00    -0.014 A 
BRANCH  35  36
ATOM     36  C   UNL A   1      39.582  28.864  29.669  1.00  0.00     0.031 A 
ATOM     37  C   UNL A   1      40.326  29.558  30.778  1.00  0.00     0.074 A 
ATOM     38  C   UNL A   1      40.129  27.790  29.066  1.00  0.00     0.049 A 
ATOM     39  N   UNL A   1      41.491  29.266  31.298  1.00  0.00    -0.248 NA
ATOM     40  C   UNL A   1      39.693  30.752  31.363  1.00  0.00     0.031 C 
ATOM     41  C   UNL A   1      39.549  27.071  27.930  1.00  0.00     0.029 A 
ATOM     42  N   UNL A   1      41.311  27.132  29.305  1.00  0.00    -0.354 N 
ATOM     43  C   UNL A   1      41.744  30.251  32.245  1.00  0.00     0.074 A 
ATOM     44  C   UNL A   1      40.629  31.172  32.202  1.00  0.00     0.031 C 
ATOM     45  C   UNL A   1      40.373  26.074  27.573  1.00  0.00     0.029 A 
ATOM     46  C   UNL A   1      41.555  26.101  28.427  1.00  0.00     0.049 A 
ATOM     47  H   UNL A   1      41.925  27.375  30.035  1.00  0.00     0.167 HD
ATOM     48  C   UNL A   1      42.794  30.366  33.094  1.00  0.00     0.034 A 
ATOM     49  C   UNL A   1      42.618  25.280  28.310  1.00  0.00     0.034 A 
ATOM     50  C   UNL A   1      43.887  29.433  33.159  1.00  0.00     0.049 A 
ATOM     51  C   UNL A   1      43.760  25.412  29.281  1.00  0.00     0.074 A 
ATOM     52  C   UNL A   1      44.956  29.422  34.036  1.00  0.00     0.029 A 
ATOM     53  N   UNL A   1      44.060  28.354  32.306  1.00  0.00    -0.354 N 
ATOM     54  N   UNL A   1      43.908  26.263  30.267  1.00  0.00    -0.248 NA
ATOM     55  C   UNL A   1      44.862  24.449  29.147  1.00  0.00     0.031 C 
ATOM     56  C   UNL A   1      45.793  28.355  33.694  1.00  0.00     0.029 A 
ATOM     57  C   UNL A   1      45.224  27.677  32.629  1.00  0.00     0.049 A 
ATOM     58  H   UNL A   1      43.445  28.105  31.579  1.00  0.00     0.167 HD
ATOM     59  C   UNL A   1      45.101  25.915  30.893  1.00  0.00     0.074 A 
ATOM     60  C   UNL A   1      45.623  24.765  30.186  1.00  0.00     0.031 C 
ATOM     61  C   UNL A   1      45.713  26.505  31.950  1.00  0.00     0.034 A 
BRANCH  48  62
ATOM     62  C   UNL A   1      42.790  31.524  34.060  1.00  0.00     0.023 A 
ATOM     63  C   UNL A   1      43.328  32.766  33.661  1.00  0.00     0.012 A 
ATOM     64  C   UNL A   1      42.202  31.404  35.334  1.00  0.00     0.148 A 
ATOM     65  C   UNL A   1      43.317  33.858  34.529  1.00  0.00     0.002 A 
ATOM     66  C   UNL A   1      42.151  32.510  36.175  1.00  0.00     0.091 A 
ATOM     67  F   UNL A   1      41.712  30.213  35.703  1.00  0.00    -0.205 F 
ATOM     68  C   UNL A   1      42.719  33.732  35.779  1.00  0.00     0.022 A 
BRANCH  66  69
ATOM     69  S   UNL A   1      41.329  32.477  37.772  1.00  0.00     0.127 S 
ATOM     70  O   UNL A   1      42.203  31.584  38.533  1.00  0.00    -0.237 OA
ATOM     71  O   UNL A   1      41.392  33.881  38.179  1.00  0.00    -0.237 OA
ATOM     72  O   UNL A   1      39.986  31.974  37.523  1.00  0.00    -0.744 OA
ENDBRANCH  66  69
ENDBRANCH  48  62
BRANCH  49  73
ATOM     73  C   UNL A   1      42.632  24.227  27.256  1.00  0.00     0.023 A 
ATOM     74  C   UNL A   1      43.318  24.458  26.048  1.00  0.00     0.012 A 
ATOM     75  C   UNL A   1      41.986  22.991  27.453  1.00  0.00     0.148 A 
ATOM     76  C   UNL A   1      43.332  23.493  25.041  1.00  0.00     0.002 A 
ATOM     77  C   UNL A   1      42.053  22.010  26.471  1.00  0.00     0.091 A 
ATOM     78  F   UNL A   1      41.330  22.795  28.606  1.00  0.00    -0.205 F 
ATOM     79  C   UNL A   1      42.708  22.266  25.256  1.00  0.00     0.022 A 
BRANCH  77  80
ATOM     80  S   UNL A   1      41.390  20.359  26.713  1.00  0.00     0.127 S 
ATOM     81  O   UNL A   1      39.962  20.630  26.865  1.00  0.00    -0.237 OA
ATOM     82  O   UNL A   1      41.765  19.698  25.463  1.00  0.00    -0.237 OA
ATOM     83  O   UNL A   1      42.060  19.834  27.896  1.00  0.00    -0.744 OA
ENDBRANCH  77  80
ENDBRANCH  49  73
BRANCH  61  84
ATOM     84  C   UNL A   1      47.001  25.896  32.443  1.00  0.00     0.023 A 
ATOM     85  C   UNL A   1      46.984  24.985  33.519  1.00  0.00     0.012 A 
ATOM     86  C   UNL A   1      48.219  26.175  31.792  1.00  0.00     0.148 A 
ATOM     87  C   UNL A   1      48.165  24.388  33.960  1.00  0.00     0.002 A 
ATOM     88  C   UNL A   1      49.383  25.537  32.203  1.00  0.00     0.091 A 
ATOM     89  F   UNL A   1      48.217  27.058  30.783  1.00  0.00    -0.205 F 
ATOM     90  C   UNL A   1      49.361  24.655  33.296  1.00  0.00     0.022 A 
BRANCH  88  91
ATOM     91  S   UNL A   1      50.949  25.741  31.349  1.00  0.00     0.127 S 
ATOM     92  O   UNL A   1      51.852  24.958  32.190  1.00  0.00    -0.237 OA
ATOM     93  O   UNL A   1      50.666  25.150  30.040  1.00  0.00    -0.237 OA
ATOM     94  O   UNL A   1      51.208  27.175  31.321  1.00  0.00    -0.744 OA
ENDBRANCH  88  91
ENDBRANCH  61  84
ENDBRANCH  35  36
ENDBRANCH  27  30
ENDBRANCH  25  26
ENDBRANCH  24  25
ENDBRANCH   1  24
TORSDOF 17
ENDMDL
MODEL 3
REMARK VINA RESULT:     -11.8      3.493      8.898
REMARK SMILES O=C(Cc1ccccc1Nc1c(Cl)cccc1Cl)NCCCCNC(=O)c1ccc(-c2c3nc(c(-c4cccc(S(=O)(=O)[O-])c4F)c4ccc([nH]4)c(-c4cccc(S(=O)(=O)[O-])c4F)c4nc(c(-c5cccc(S(=O)(=O)[O-])c5F)c5ccc2[nH]5)C=C4)C=C3)cc1
REMARK SMILES IDX 21 1 20 2 19 3 1 4 2 5 3 7 4 8 5 9 9 10 6 11 8 12 7 13 10 14
REMARK SMILES IDX 11 16 12 17 17 18 13 19 14 20 16 21 18 22 15 23 22 24 23 25
REMARK SMILES IDX 24 26 25 27 26 29 27 30 28 31 89 32 29 33 88 34 30 35 31 36
REMARK SMILES IDX 32 37 82 38 33 39 87 40 81 41 83 42 34 43 86 44 80 45 79 46
REMARK SMILES IDX 35 48 67 49 47 50 66 51 48 52 51 53 65 54 84 55 49 56 50 57
REMARK SMILES IDX 64 59 85 60 52 61 36 62 37 63 45 64 38 65 40 66 46 67 39 68
REMARK SMILES IDX 41 69 42 70 43 71 44 72 68 73 69 74 77 75 70 76 72 77 78 78
REMARK SMILES IDX 71 79 73 80 74 81 75 82 76 83 53 84 54 85 62 86 55 87 57 88
REMARK SMILES IDX 63 89 56 90 58 91 59 92 60 93 61 94
REMARK H PARENT 19 6 10 15 24 28 83 47 51 58
REMARK Flexibility Score: inf
ROOT
ATOM      1  C   UNL A   1      31.797  30.435  26.419  1.00  0.00     0.023 C 
ENDROOT
BRANCH   1   2
ATOM      2  C   UNL A   1      32.815  29.758  27.336  1.00  0.00     0.116 C 
BRANCH   2   3
ATOM      3  N   UNL A   1      33.609  28.773  26.631  1.00  0.00    -0.356 N 
ATOM      4  O   UNL A   1      32.067  27.074  26.778  1.00  0.00    -0.275 OA
ATOM      5  C   UNL A   1      33.164  27.489  26.411  1.00  0.00     0.224 C 
ATOM      6  H   UNL A   1      34.498  29.031  26.297  1.00  0.00     0.163 HD
BRANCH   5   7
ATOM      7  C   UNL A   1      34.175  26.578  25.741  1.00  0.00     0.137 C 
BRANCH   7   8
ATOM      8  C   UNL A   1      33.752  26.083  24.373  1.00  0.00    -0.015 A 
ATOM      9  C   UNL A   1      33.590  27.046  23.355  1.00  0.00     0.006 A 
ATOM     10  C   UNL A   1      33.508  24.722  24.088  1.00  0.00     0.042 A 
ATOM     11  C   UNL A   1      33.179  26.680  22.077  1.00  0.00     0.000 A 
ATOM     12  C   UNL A   1      33.087  24.381  22.791  1.00  0.00     0.026 A 
ATOM     13  C   UNL A   1      32.920  25.347  21.796  1.00  0.00     0.002 A 
BRANCH  10  14
ATOM     14  N   UNL A   1      33.719  23.727  25.071  1.00  0.00    -0.353 N 
ATOM     15  H   UNL A   1      33.304  23.907  25.945  1.00  0.00     0.167 HD
BRANCH  14  16
ATOM     16  C   UNL A   1      34.444  22.505  24.985  1.00  0.00     0.076 A 
ATOM     17  C   UNL A   1      35.822  22.509  25.302  1.00  0.00     0.066 A 
ATOM     18  C   UNL A   1      33.853  21.264  24.676  1.00  0.00     0.066 A 
ATOM     19  Cl  UNL A   1      36.635  23.998  25.663  1.00  0.00    -0.082 Cl
ATOM     20  C   UNL A   1      36.568  21.329  25.341  1.00  0.00     0.023 A 
ATOM     21  C   UNL A   1      34.600  20.079  24.730  1.00  0.00     0.023 A 
ATOM     22  Cl  UNL A   1      32.218  21.142  24.111  1.00  0.00    -0.082 Cl
ATOM     23  C   UNL A   1      35.952  20.111  25.069  1.00  0.00     0.003 A 
ENDBRANCH  14  16
ENDBRANCH  10  14
ENDBRANCH   7   8
ENDBRANCH   5   7
ENDBRANCH   2   3
ENDBRANCH   1   2
BRANCH   1  24
ATOM     24  C   UNL A   1      31.586  31.928  26.683  1.00  0.00     0.023 C 
BRANCH  24  25
ATOM     25  C   UNL A   1      32.752  32.644  27.357  1.00  0.00     0.116 C 
BRANCH  25  26
ATOM     26  N   UNL A   1      32.452  34.030  27.686  1.00  0.00    -0.352 N 
ATOM     27  C   UNL A   1      33.029  34.847  28.629  1.00  0.00     0.251 C 
ATOM     28  H   UNL A   1      31.731  34.442  27.156  1.00  0.00     0.163 HD
ATOM     29  O   UNL A   1      32.545  35.955  28.853  1.00  0.00    -0.269 OA
BRANCH  27  30
ATOM     30  C   UNL A   1      34.208  34.386  29.397  1.00  0.00     0.039 A 
ATOM     31  C   UNL A   1      34.007  33.785  30.643  1.00  0.00     0.014 A 
ATOM     32  C   UNL A   1      35.503  34.539  28.896  1.00  0.00     0.014 A 
ATOM     33  C   UNL A   1      35.098  33.274  31.351  1.00  0.00     0.010 A 
ATOM     34  C   UNL A   1      36.580  33.960  29.567  1.00  0.00     0.010 A 
ATOM     35  C   UNL A   1      36.390  33.321  30.801  1.00  0.00    -0.014 A 
BRANCH  35  36
ATOM     36  C   UNL A   1      37.546  32.689  31.491  1.00  0.00     0.031 A 
ATOM     37  C   UNL A   1      38.257  31.516  30.871  1.00  0.00     0.074 A 
ATOM     38  C   UNL A   1      37.904  33.116  32.718  1.00  0.00     0.049 A 
ATOM     39  N   UNL A   1      39.240  30.799  31.354  1.00  0.00    -0.248 NA
ATOM     40  C   UNL A   1      37.786  31.072  29.549  1.00  0.00     0.031 C 
ATOM     41  C   UNL A   1      37.249  34.192  33.464  1.00  0.00     0.029 A 
ATOM     42  N   UNL A   1      38.890  32.677  33.568  1.00  0.00    -0.354 N 
ATOM     43  C   UNL A   1      39.484  29.805  30.413  1.00  0.00     0.074 A 
ATOM     44  C   UNL A   1      38.521  29.987  29.348  1.00  0.00     0.031 C 
ATOM     45  C   UNL A   1      37.850  34.331  34.656  1.00  0.00     0.029 A 
ATOM     46  C   UNL A   1      38.909  33.334  34.777  1.00  0.00     0.049 A 
ATOM     47  H   UNL A   1      39.524  31.962  33.335  1.00  0.00     0.167 HD
ATOM     48  C   UNL A   1      40.440  28.845  30.418  1.00  0.00     0.034 A 
ATOM     49  C   UNL A   1      39.677  33.146  35.868  1.00  0.00     0.034 A 
ATOM     50  C   UNL A   1      41.417  28.683  31.461  1.00  0.00     0.049 A 
ATOM     51  C   UNL A   1      40.748  32.089  35.839  1.00  0.00     0.074 A 
ATOM     52  C   UNL A   1      42.472  27.790  31.519  1.00  0.00     0.029 A 
ATOM     53  N   UNL A   1      41.454  29.420  32.634  1.00  0.00    -0.354 N 
ATOM     54  N   UNL A   1      41.058  31.256  34.876  1.00  0.00    -0.248 NA
ATOM     55  C   UNL A   1      41.598  31.971  37.033  1.00  0.00     0.031 C 
ATOM     56  C   UNL A   1      43.128  27.965  32.742  1.00  0.00     0.029 A 
ATOM     57  C   UNL A   1      42.506  28.994  33.428  1.00  0.00     0.049 A 
ATOM     58  H   UNL A   1      40.825  30.141  32.868  1.00  0.00     0.167 HD
ATOM     59  C   UNL A   1      42.161  30.541  35.331  1.00  0.00     0.074 A 
ATOM     60  C   UNL A   1      42.475  31.053  36.648  1.00  0.00     0.031 C 
ATOM     61  C   UNL A   1      42.842  29.541  34.718  1.00  0.00     0.034 A 
BRANCH  48  62
ATOM     62  C   UNL A   1      40.505  27.916  29.232  1.00  0.00     0.023 A 
ATOM     63  C   UNL A   1      39.605  26.833  29.144  1.00  0.00     0.012 A 
ATOM     64  C   UNL A   1      41.412  28.146  28.179  1.00  0.00     0.148 A 
ATOM     65  C   UNL A   1      39.632  25.973  28.047  1.00  0.00     0.002 A 
ATOM     66  C   UNL A   1      41.401  27.313  27.066  1.00  0.00     0.091 A 
ATOM     67  F   UNL A   1      42.272  29.168  28.288  1.00  0.00    -0.205 F 
ATOM     68  C   UNL A   1      40.521  26.220  27.005  1.00  0.00     0.022 A 
BRANCH  66  69
ATOM     69  S   UNL A   1      42.447  27.593  25.633  1.00  0.00     0.127 S 
ATOM     70  O   UNL A   1      43.783  27.508  26.224  1.00  0.00    -0.237 OA
ATOM     71  O   UNL A   1      42.091  26.468  24.769  1.00  0.00    -0.237 OA
ATOM     72  O   UNL A   1      42.076  28.902  25.114  1.00  0.00    -0.744 OA
ENDBRANCH  66  69
ENDBRANCH  48  62
BRANCH  49  73
ATOM     73  C   UNL A   1      39.491  34.010  37.068  1.00  0.00     0.023 A 
ATOM     74  C   UNL A   1      39.911  35.354  37.032  1.00  0.00     0.012 A 
ATOM     75  C   UNL A   1      38.881  33.512  38.235  1.00  0.00     0.148 A 
ATOM     76  C   UNL A   1      39.760  36.176  38.149  1.00  0.00     0.002 A 
ATOM     77  C   UNL A   1      38.679  34.352  39.323  1.00  0.00     0.091 A 
ATOM     78  F   UNL A   1      38.498  32.227  38.252  1.00  0.00    -0.205 F 
ATOM     79  C   UNL A   1      39.136  35.679  39.290  1.00  0.00     0.022 A 
BRANCH  77  80
ATOM     80  S   UNL A   1      37.772  33.833  40.784  1.00  0.00     0.127 S 
ATOM     81  O   UNL A   1      37.578  35.101  41.482  1.00  0.00    -0.237 OA
ATOM     82  O   UNL A   1      36.561  33.259  40.197  1.00  0.00    -0.237 OA
ATOM     83  O   UNL A   1      38.629  32.868  41.459  1.00  0.00    -0.744 OA
ENDBRANCH  77  80
ENDBRANCH  49  73
BRANCH  61  84
ATOM     84  C   UNL A   1      44.028  28.955  35.440  1.00  0.00     0.023 A 
ATOM     85  C   UNL A   1      45.306  29.527  35.278  1.00  0.00     0.012 A 
ATOM     86  C   UNL A   1      43.860  27.879  36.335  1.00  0.00     0.148 A 
ATOM     87  C   UNL A   1      46.403  29.015  35.969  1.00  0.00     0.002 A 
ATOM     88  C   UNL A   1      44.947  27.409  37.059  1.00  0.00     0.091 A 
ATOM     89  F   UNL A   1      42.640  27.338  36.461  1.00  0.00    -0.205 F 
ATOM     90  C   UNL A   1      46.222  27.965  36.867  1.00  0.00     0.022 A 
BRANCH  88  91
ATOM     91  S   UNL A   1      44.793  26.128  38.309  1.00  0.00     0.127 S 
ATOM     92  O   UNL A   1      46.174  25.995  38.771  1.00  0.00    -0.237 OA
ATOM     93  O   UNL A   1      43.884  26.747  39.274  1.00  0.00    -0.237 OA
ATOM     94  O   UNL A   1      44.248  24.963  37.626  1.00  0.00    -0.744 OA
ENDBRANCH  88  91
ENDBRANCH  61  84
ENDBRANCH  35  36
ENDBRANCH  27  30
ENDBRANCH  25  26
ENDBRANCH  24  25
ENDBRANCH   1  24
TORSDOF 17
ENDMDL
