MODEL 1
REMARK VINA RESULT:     -13.4      0.000      0.000
REMARK SMILES C[NH2+][C@@]1(C(=O)NCCCCNC(=O)c2ccc(-c3c4nc(c(-c5cccc(S(=O)(=O)[O-])c5F)c5ccc([nH]5)c(-c5cccc(S(=O)(=O)[O-])c5F)c5nc(c(-c6cccc(S(=O)(=O)[O-])c6F)c6ccc3[nH]6)C=C5)C=C4)cc2)CC[C@H]([NH+]2CC[NH+](C)CC2)C1
REMARK SMILES IDX 9 1 8 2 7 3 6 4 4 5 5 6 3 8 77 9 87 10 78 11 79 12 2 13 1 14
REMARK SMILES IDX 80 17 81 18 86 19 82 21 85 22 83 23 84 24 10 26 11 27 12 28
REMARK SMILES IDX 13 30 14 31 15 32 76 33 16 34 75 35 17 36 18 37 19 38 69 39
REMARK SMILES IDX 20 40 74 41 68 42 70 43 21 44 73 45 67 46 66 47 22 49 54 50
REMARK SMILES IDX 34 51 53 52 35 53 38 54 52 55 71 56 36 57 37 58 51 60 72 61
REMARK SMILES IDX 39 62 23 63 24 64 32 65 25 66 27 67 33 68 26 69 28 70 29 71
REMARK SMILES IDX 30 72 31 73 55 74 56 75 64 76 57 77 59 78 65 79 58 80 60 81
REMARK SMILES IDX 61 82 62 83 63 84 40 85 41 86 49 87 42 88 44 89 50 90 43 91
REMARK SMILES IDX 45 92 46 93 47 94 48 95
REMARK H PARENT 6 7 2 15 2 16 80 20 83 25 11 29 70 48 38 59
REMARK Flexibility Score: inf
ROOT
ATOM      1  C   UNL A   1      31.831  28.845  27.213  1.00  0.00     0.023 C 
ENDROOT
BRANCH   1   2
ATOM      2  C   UNL A   1      31.020  27.767  26.181  1.00  0.00     0.023 C 
BRANCH   2   3
ATOM      3  C   UNL A   1      30.430  25.724  26.114  1.00  0.00     0.116 C 
BRANCH   3   4
ATOM      4  N   UNL A   1      30.371  24.647  24.942  1.00  0.00    -0.351 N 
ATOM      5  C   UNL A   1      31.110  24.201  23.896  1.00  0.00     0.281 C 
ATOM      6  O   UNL A   1      30.473  23.448  23.145  1.00  0.00    -0.268 OA
ATOM      7  H   UNL A   1      29.527  24.143  24.993  1.00  0.00     0.163 HD
BRANCH   5   8
ATOM      8  C   UNL A   1      32.592  24.589  23.630  1.00  0.00     0.181 C 
ATOM      9  C   UNL A   1      33.023  24.215  22.204  1.00  0.00     0.085 C 
ATOM     10  C   UNL A   1      33.551  23.808  24.552  1.00  0.00     0.144 C 
ATOM     11  C   UNL A   1      34.042  23.093  22.369  1.00  0.00     0.072 C 
ATOM     12  C   UNL A   1      33.863  22.519  23.797  1.00  0.00     0.191 C 
BRANCH   8  13
ATOM     13  N   UNL A   1      32.814  26.046  23.891  1.00  0.00    -0.336 N 
ATOM     14  C   UNL A   1      33.998  26.364  24.684  1.00  0.00     0.331 C 
ATOM     15  H   UNL A   1      32.900  26.518  22.991  1.00  0.00     0.346 HD
ATOM     16  H   UNL A   1      32.013  26.358  24.441  1.00  0.00     0.346 HD
ENDBRANCH   8  13
BRANCH  12  17
ATOM     17  N   UNL A   1      32.917  21.420  23.978  1.00  0.00    -0.323 N 
ATOM     18  C   UNL A   1      32.976  20.609  25.629  1.00  0.00     0.324 C 
ATOM     19  C   UNL A   1      32.275  20.444  22.515  1.00  0.00     0.324 C 
ATOM     20  H   UNL A   1      32.050  21.959  23.998  1.00  0.00     0.348 HD
ATOM     21  C   UNL A   1      32.900  18.663  25.756  1.00  0.00     0.324 C 
ATOM     22  C   UNL A   1      32.150  18.467  22.665  1.00  0.00     0.324 C 
ATOM     23  N   UNL A   1      32.277  17.677  24.337  1.00  0.00    -0.328 N 
ATOM     24  C   UNL A   1      32.898  16.357  24.299  1.00  0.00     0.333 C 
ATOM     25  H   UNL A   1      31.285  17.597  24.558  1.00  0.00     0.348 HD
ENDBRANCH  12  17
ENDBRANCH   5   8
ENDBRANCH   3   4
ENDBRANCH   2   3
ENDBRANCH   1   2
BRANCH   1  26
ATOM     26  C   UNL A   1      32.946  29.748  26.662  1.00  0.00     0.116 C 
BRANCH  26  27
ATOM     27  N   UNL A   1      32.780  31.159  26.997  1.00  0.00    -0.352 N 
ATOM     28  C   UNL A   1      33.686  32.005  27.576  1.00  0.00     0.251 C 
ATOM     29  H   UNL A   1      31.906  31.553  26.777  1.00  0.00     0.163 HD
ATOM     30  O   UNL A   1      33.429  33.187  27.773  1.00  0.00    -0.269 OA
BRANCH  28  31
ATOM     31  C   UNL A   1      34.962  31.427  28.017  1.00  0.00     0.039 A 
ATOM     32  C   UNL A   1      36.072  32.266  28.106  1.00  0.00     0.014 A 
ATOM     33  C   UNL A   1      35.011  30.103  28.453  1.00  0.00     0.014 A 
ATOM     34  C   UNL A   1      37.237  31.782  28.691  1.00  0.00     0.010 A 
ATOM     35  C   UNL A   1      36.147  29.648  29.104  1.00  0.00     0.010 A 
ATOM     36  C   UNL A   1      37.268  30.482  29.221  1.00  0.00    -0.014 A 
BRANCH  36  37
ATOM     37  C   UNL A   1      38.481  29.979  29.900  1.00  0.00     0.031 A 
ATOM     38  C   UNL A   1      38.836  30.502  31.261  1.00  0.00     0.074 A 
ATOM     39  C   UNL A   1      39.283  29.110  29.256  1.00  0.00     0.049 A 
ATOM     40  N   UNL A   1      39.849  30.186  32.022  1.00  0.00    -0.248 NA
ATOM     41  C   UNL A   1      37.958  31.539  31.828  1.00  0.00     0.031 C 
ATOM     42  C   UNL A   1      39.077  28.624  27.889  1.00  0.00     0.029 A 
ATOM     43  N   UNL A   1      40.441  28.496  29.655  1.00  0.00    -0.354 N 
ATOM     44  C   UNL A   1      39.751  31.008  33.138  1.00  0.00     0.074 A 
ATOM     45  C   UNL A   1      38.606  31.866  32.937  1.00  0.00     0.031 C 
ATOM     46  C   UNL A   1      40.069  27.777  27.568  1.00  0.00     0.029 A 
ATOM     47  C   UNL A   1      40.987  27.673  28.698  1.00  0.00     0.049 A 
ATOM     48  H   UNL A   1      40.845  28.632  30.543  1.00  0.00     0.167 HD
ATOM     49  C   UNL A   1      40.525  31.019  34.246  1.00  0.00     0.034 A 
ATOM     50  C   UNL A   1      42.099  26.913  28.739  1.00  0.00     0.034 A 
ATOM     51  C   UNL A   1      41.626  30.119  34.449  1.00  0.00     0.049 A 
ATOM     52  C   UNL A   1      42.892  26.878  30.017  1.00  0.00     0.074 A 
ATOM     53  C   UNL A   1      42.419  29.967  35.570  1.00  0.00     0.029 A 
ATOM     54  N   UNL A   1      42.089  29.218  33.501  1.00  0.00    -0.354 N 
ATOM     55  N   UNL A   1      42.682  27.532  31.135  1.00  0.00    -0.248 NA
ATOM     56  C   UNL A   1      44.047  25.972  30.059  1.00  0.00     0.031 C 
ATOM     57  C   UNL A   1      43.375  28.984  35.294  1.00  0.00     0.029 A 
ATOM     58  C   UNL A   1      43.162  28.508  34.008  1.00  0.00     0.049 A 
ATOM     59  H   UNL A   1      41.710  29.102  32.600  1.00  0.00     0.167 HD
ATOM     60  C   UNL A   1      43.656  27.095  32.022  1.00  0.00     0.074 A 
ATOM     61  C   UNL A   1      44.443  26.102  31.319  1.00  0.00     0.031 C 
ATOM     62  C   UNL A   1      43.892  27.489  33.299  1.00  0.00     0.034 A 
BRANCH  49  63
ATOM     63  C   UNL A   1      40.168  31.991  35.338  1.00  0.00     0.023 A 
ATOM     64  C   UNL A   1      40.877  33.206  35.448  1.00  0.00     0.012 A 
ATOM     65  C   UNL A   1      39.114  31.724  36.233  1.00  0.00     0.148 A 
ATOM     66  C   UNL A   1      40.570  34.122  36.453  1.00  0.00     0.002 A 
ATOM     67  C   UNL A   1      38.783  32.662  37.203  1.00  0.00     0.091 A 
ATOM     68  F   UNL A   1      38.468  30.554  36.129  1.00  0.00    -0.205 F 
ATOM     69  C   UNL A   1      39.517  33.854  37.323  1.00  0.00     0.022 A 
BRANCH  67  70
ATOM     70  S   UNL A   1      37.398  32.448  38.327  1.00  0.00     0.127 S 
ATOM     71  O   UNL A   1      36.314  33.092  37.585  1.00  0.00    -0.237 OA
ATOM     72  O   UNL A   1      37.295  30.990  38.413  1.00  0.00    -0.237 OA
ATOM     73  O   UNL A   1      37.782  33.104  39.569  1.00  0.00    -0.744 OA
ENDBRANCH  67  70
ENDBRANCH  49  63
BRANCH  50  74
ATOM     74  C   UNL A   1      42.464  26.063  27.571  1.00  0.00     0.023 A 
ATOM     75  C   UNL A   1      43.332  26.573  26.586  1.00  0.00     0.012 A 
ATOM     76  C   UNL A   1      41.996  24.740  27.453  1.00  0.00     0.148 A 
ATOM     77  C   UNL A   1      43.703  25.793  25.490  1.00  0.00     0.002 A 
ATOM     78  C   UNL A   1      42.412  23.950  26.386  1.00  0.00     0.091 A 
ATOM     79  F   UNL A   1      41.164  24.274  28.395  1.00  0.00    -0.205 F 
ATOM     80  C   UNL A   1      43.253  24.479  25.395  1.00  0.00     0.022 A 
BRANCH  78  81
ATOM     81  S   UNL A   1      41.988  22.209  26.255  1.00  0.00     0.127 S 
ATOM     82  O   UNL A   1      42.651  21.832  25.009  1.00  0.00    -0.237 OA
ATOM     83  O   UNL A   1      42.593  21.657  27.468  1.00  0.00    -0.237 OA
ATOM     84  O   UNL A   1      40.532  22.161  26.240  1.00  0.00    -0.744 OA
ENDBRANCH  78  81
ENDBRANCH  50  74
BRANCH  62  85
ATOM     85  C   UNL A   1      45.031  26.831  34.028  1.00  0.00     0.023 A 
ATOM     86  C   UNL A   1      46.313  27.412  33.992  1.00  0.00     0.012 A 
ATOM     87  C   UNL A   1      44.808  25.690  34.824  1.00  0.00     0.148 A 
ATOM     88  C   UNL A   1      47.364  26.852  34.714  1.00  0.00     0.002 A 
ATOM     89  C   UNL A   1      45.847  25.167  35.580  1.00  0.00     0.091 A 
ATOM     90  F   UNL A   1      43.583  25.142  34.828  1.00  0.00    -0.205 F 
ATOM     91  C   UNL A   1      47.129  25.738  35.518  1.00  0.00     0.022 A 
BRANCH  89  92
ATOM     92  S   UNL A   1      45.609  23.800  36.721  1.00  0.00     0.127 S 
ATOM     93  O   UNL A   1      44.605  24.345  37.633  1.00  0.00    -0.237 OA
ATOM     94  O   UNL A   1      45.118  22.740  35.838  1.00  0.00    -0.237 OA
ATOM     95  O   UNL A   1      46.915  23.537  37.309  1.00  0.00    -0.744 OA
ENDBRANCH  89  92
ENDBRANCH  62  85
ENDBRANCH  36  37
ENDBRANCH  28  31
ENDBRANCH  26  27
ENDBRANCH   1  26
TORSDOF 16
ENDMDL
MODEL 2
REMARK VINA RESULT:     -13.2      2.617      8.456
REMARK SMILES C[NH2+][C@@]1(C(=O)NCCCCNC(=O)c2ccc(-c3c4nc(c(-c5cccc(S(=O)(=O)[O-])c5F)c5ccc([nH]5)c(-c5cccc(S(=O)(=O)[O-])c5F)c5nc(c(-c6cccc(S(=O)(=O)[O-])c6F)c6ccc3[nH]6)C=C5)C=C4)cc2)CC[C@H]([NH+]2CC[NH+](C)CC2)C1
REMARK SMILES IDX 9 1 8 2 7 3 6 4 4 5 5 6 3 8 77 9 87 10 78 11 79 12 2 13 1 14
REMARK SMILES IDX 80 17 81 18 86 19 82 21 85 22 83 23 84 24 10 26 11 27 12 28
REMARK SMILES IDX 13 30 14 31 15 32 76 33 16 34 75 35 17 36 18 37 19 38 69 39
REMARK SMILES IDX 20 40 74 41 68 42 70 43 21 44 73 45 67 46 66 47 22 49 54 50
REMARK SMILES IDX 34 51 53 52 35 53 38 54 52 55 71 56 36 57 37 58 51 60 72 61
REMARK SMILES IDX 39 62 23 63 24 64 32 65 25 66 27 67 33 68 26 69 28 70 29 71
REMARK SMILES IDX 30 72 31 73 55 74 56 75 64 76 57 77 59 78 65 79 58 80 60 81
REMARK SMILES IDX 61 82 62 83 63 84 40 85 41 86 49 87 42 88 44 89 50 90 43 91
REMARK SMILES IDX 45 92 46 93 47 94 48 95
REMARK H PARENT 6 7 2 15 2 16 80 20 83 25 11 29 70 48 38 59
REMARK Flexibility Score: inf
ROOT
ATOM      1  C   UNL A   1      32.179  31.588  26.935  1.00  0.00     0.023 C 
ENDROOT
BRANCH   1   2
ATOM      2  C   UNL A   1      32.531  29.929  26.857  1.00  0.00     0.023 C 
BRANCH   2   3
ATOM      3  C   UNL A   1      33.598  28.556  25.630  1.00  0.00     0.116 C 
BRANCH   3   4
ATOM      4  N   UNL A   1      33.794  28.432  24.054  1.00  0.00    -0.351 N 
ATOM      5  C   UNL A   1      33.138  27.989  22.952  1.00  0.00     0.281 C 
ATOM      6  O   UNL A   1      33.866  27.936  21.950  1.00  0.00    -0.268 OA
ATOM      7  H   UNL A   1      34.673  28.791  23.797  1.00  0.00     0.163 HD
BRANCH   5   8
ATOM      8  C   UNL A   1      31.643  27.566  22.922  1.00  0.00     0.181 C 
ATOM      9  C   UNL A   1      30.986  27.722  24.301  1.00  0.00     0.085 C 
ATOM     10  C   UNL A   1      31.490  26.070  22.577  1.00  0.00     0.144 C 
ATOM     11  C   UNL A   1      30.689  26.303  24.772  1.00  0.00     0.072 C 
ATOM     12  C   UNL A   1      31.558  25.346  23.919  1.00  0.00     0.191 C 
BRANCH   8  13
ATOM     13  N   UNL A   1      30.894  28.339  21.882  1.00  0.00    -0.336 N 
ATOM     14  C   UNL A   1      30.085  29.444  22.389  1.00  0.00     0.331 C 
ATOM     15  H   UNL A   1      31.572  28.721  21.224  1.00  0.00     0.346 HD
ATOM     16  H   UNL A   1      30.239  27.681  21.459  1.00  0.00     0.346 HD
ENDBRANCH   8  13
BRANCH  12  17
ATOM     17  N   UNL A   1      32.896  25.018  24.407  1.00  0.00    -0.323 N 
ATOM     18  C   UNL A   1      34.066  24.416  23.121  1.00  0.00     0.324 C 
ATOM     19  C   UNL A   1      33.181  24.522  26.190  1.00  0.00     0.324 C 
ATOM     20  H   UNL A   1      33.223  25.961  24.618  1.00  0.00     0.348 HD
ATOM     21  C   UNL A   1      35.223  22.891  23.501  1.00  0.00     0.324 C 
ATOM     22  C   UNL A   1      34.400  23.001  26.576  1.00  0.00     0.324 C 
ATOM     23  N   UNL A   1      35.520  22.379  25.239  1.00  0.00    -0.328 N 
ATOM     24  C   UNL A   1      35.776  20.944  25.329  1.00  0.00     0.333 C 
ATOM     25  H   UNL A   1      36.362  22.904  25.471  1.00  0.00     0.348 HD
ENDBRANCH  12  17
ENDBRANCH   5   8
ENDBRANCH   3   4
ENDBRANCH   2   3
ENDBRANCH   1   2
BRANCH   1  26
ATOM     26  C   UNL A   1      33.257  32.583  27.397  1.00  0.00     0.116 C 
BRANCH  26  27
ATOM     27  N   UNL A   1      32.730  33.895  27.759  1.00  0.00    -0.352 N 
ATOM     28  C   UNL A   1      33.201  34.766  28.704  1.00  0.00     0.251 C 
ATOM     29  H   UNL A   1      31.936  34.192  27.260  1.00  0.00     0.163 HD
ATOM     30  O   UNL A   1      32.681  35.861  28.886  1.00  0.00    -0.269 OA
BRANCH  28  31
ATOM     31  C   UNL A   1      34.317  34.313  29.543  1.00  0.00     0.039 A 
ATOM     32  C   UNL A   1      34.026  33.577  30.690  1.00  0.00     0.014 A 
ATOM     33  C   UNL A   1      35.631  34.513  29.118  1.00  0.00     0.014 A 
ATOM     34  C   UNL A   1      35.069  32.987  31.395  1.00  0.00     0.010 A 
ATOM     35  C   UNL A   1      36.661  33.862  29.778  1.00  0.00     0.010 A 
ATOM     36  C   UNL A   1      36.387  33.101  30.924  1.00  0.00    -0.014 A 
BRANCH  36  37
ATOM     37  C   UNL A   1      37.496  32.426  31.631  1.00  0.00     0.031 A 
ATOM     38  C   UNL A   1      38.221  31.297  30.962  1.00  0.00     0.074 A 
ATOM     39  C   UNL A   1      37.792  32.793  32.893  1.00  0.00     0.049 A 
ATOM     40  N   UNL A   1      39.219  30.583  31.408  1.00  0.00    -0.248 NA
ATOM     41  C   UNL A   1      37.743  30.892  29.628  1.00  0.00     0.031 C 
ATOM     42  C   UNL A   1      37.074  33.811  33.667  1.00  0.00     0.029 A 
ATOM     43  N   UNL A   1      38.758  32.343  33.753  1.00  0.00    -0.354 N 
ATOM     44  C   UNL A   1      39.464  29.626  30.431  1.00  0.00     0.074 A 
ATOM     45  C   UNL A   1      38.484  29.821  29.387  1.00  0.00     0.031 C 
ATOM     46  C   UNL A   1      37.634  33.915  34.883  1.00  0.00     0.029 A 
ATOM     47  C   UNL A   1      38.737  32.964  34.980  1.00  0.00     0.049 A 
ATOM     48  H   UNL A   1      39.406  31.641  33.515  1.00  0.00     0.167 HD
ATOM     49  C   UNL A   1      40.442  28.693  30.393  1.00  0.00     0.034 A 
ATOM     50  C   UNL A   1      39.529  32.787  36.056  1.00  0.00     0.034 A 
ATOM     51  C   UNL A   1      41.439  28.553  31.416  1.00  0.00     0.049 A 
ATOM     52  C   UNL A   1      40.663  31.804  35.952  1.00  0.00     0.074 A 
ATOM     53  C   UNL A   1      42.537  27.713  31.440  1.00  0.00     0.029 A 
ATOM     54  N   UNL A   1      41.455  29.272  32.602  1.00  0.00    -0.354 N 
ATOM     55  N   UNL A   1      40.992  31.029  34.946  1.00  0.00    -0.248 NA
ATOM     56  C   UNL A   1      41.563  31.700  37.109  1.00  0.00     0.031 C 
ATOM     57  C   UNL A   1      43.208  27.914  32.651  1.00  0.00     0.029 A 
ATOM     58  C   UNL A   1      42.541  28.894  33.370  1.00  0.00     0.049 A 
ATOM     59  H   UNL A   1      40.791  29.951  32.859  1.00  0.00     0.167 HD
ATOM     60  C   UNL A   1      42.151  30.369  35.334  1.00  0.00     0.074 A 
ATOM     61  C   UNL A   1      42.480  30.854  36.659  1.00  0.00     0.031 C 
ATOM     62  C   UNL A   1      42.870  29.434  34.664  1.00  0.00     0.034 A 
BRANCH  49  63
ATOM     63  C   UNL A   1      40.509  27.801  29.182  1.00  0.00     0.023 A 
ATOM     64  C   UNL A   1      39.646  26.688  29.089  1.00  0.00     0.012 A 
ATOM     65  C   UNL A   1      41.395  28.078  28.124  1.00  0.00     0.148 A 
ATOM     66  C   UNL A   1      39.692  25.843  27.981  1.00  0.00     0.002 A 
ATOM     67  C   UNL A   1      41.403  27.257  27.002  1.00  0.00     0.091 A 
ATOM     68  F   UNL A   1      42.224  29.125  28.241  1.00  0.00    -0.205 F 
ATOM     69  C   UNL A   1      40.562  26.134  26.935  1.00  0.00     0.022 A 
BRANCH  67  70
ATOM     70  S   UNL A   1      42.432  27.585  25.568  1.00  0.00     0.127 S 
ATOM     71  O   UNL A   1      43.765  27.638  26.166  1.00  0.00    -0.237 OA
ATOM     72  O   UNL A   1      42.183  26.407  24.735  1.00  0.00    -0.237 OA
ATOM     73  O   UNL A   1      41.951  28.838  25.004  1.00  0.00    -0.744 OA
ENDBRANCH  67  70
ENDBRANCH  49  63
BRANCH  50  74
ATOM     74  C   UNL A   1      39.330  33.623  37.273  1.00  0.00     0.023 A 
ATOM     75  C   UNL A   1      39.828  34.940  37.300  1.00  0.00     0.012 A 
ATOM     76  C   UNL A   1      38.611  33.139  38.383  1.00  0.00     0.148 A 
ATOM     77  C   UNL A   1      39.640  35.750  38.421  1.00  0.00     0.002 A 
ATOM     78  C   UNL A   1      38.383  33.969  39.476  1.00  0.00     0.091 A 
ATOM     79  F   UNL A   1      38.151  31.881  38.344  1.00  0.00    -0.205 F 
ATOM     80  C   UNL A   1      38.910  35.270  39.504  1.00  0.00     0.022 A 
BRANCH  78  81
ATOM     81  S   UNL A   1      37.341  33.479  40.856  1.00  0.00     0.127 S 
ATOM     82  O   UNL A   1      38.136  32.419  41.470  1.00  0.00    -0.237 OA
ATOM     83  O   UNL A   1      37.261  34.718  41.631  1.00  0.00    -0.237 OA
ATOM     84  O   UNL A   1      36.077  33.063  40.263  1.00  0.00    -0.744 OA
ENDBRANCH  78  81
ENDBRANCH  50  74
BRANCH  62  85
ATOM     85  C   UNL A   1      44.099  28.890  35.340  1.00  0.00     0.023 A 
ATOM     86  C   UNL A   1      45.344  29.515  35.135  1.00  0.00     0.012 A 
ATOM     87  C   UNL A   1      44.001  27.819  36.250  1.00  0.00     0.148 A 
ATOM     88  C   UNL A   1      46.480  29.065  35.803  1.00  0.00     0.002 A 
ATOM     89  C   UNL A   1      45.127  27.408  36.950  1.00  0.00     0.091 A 
ATOM     90  F   UNL A   1      42.808  27.226  36.415  1.00  0.00    -0.205 F 
ATOM     91  C   UNL A   1      46.369  28.021  36.720  1.00  0.00     0.022 A 
BRANCH  89  92
ATOM     92  S   UNL A   1      45.055  26.143  38.222  1.00  0.00     0.127 S 
ATOM     93  O   UNL A   1      46.451  26.071  38.650  1.00  0.00    -0.237 OA
ATOM     94  O   UNL A   1      44.146  26.739  39.203  1.00  0.00    -0.237 OA
ATOM     95  O   UNL A   1      44.536  24.948  37.571  1.00  0.00    -0.744 OA
ENDBRANCH  89  92
ENDBRANCH  62  85
ENDBRANCH  36  37
ENDBRANCH  28  31
ENDBRANCH  26  27
ENDBRANCH   1  26
TORSDOF 16
ENDMDL
MODEL 3
REMARK VINA RESULT:     -13.2      5.856      9.029
REMARK SMILES C[NH2+][C@@]1(C(=O)NCCCCNC(=O)c2ccc(-c3c4nc(c(-c5cccc(S(=O)(=O)[O-])c5F)c5ccc([nH]5)c(-c5cccc(S(=O)(=O)[O-])c5F)c5nc(c(-c6cccc(S(=O)(=O)[O-])c6F)c6ccc3[nH]6)C=C5)C=C4)cc2)CC[C@H]([NH+]2CC[NH+](C)CC2)C1
REMARK SMILES IDX 9 1 8 2 7 3 6 4 4 5 5 6 3 8 77 9 87 10 78 11 79 12 2 13 1 14
REMARK SMILES IDX 80 17 81 18 86 19 82 21 85 22 83 23 84 24 10 26 11 27 12 28
REMARK SMILES IDX 13 30 14 31 15 32 76 33 16 34 75 35 17 36 18 37 19 38 69 39
REMARK SMILES IDX 20 40 74 41 68 42 70 43 21 44 73 45 67 46 66 47 22 49 54 50
REMARK SMILES IDX 34 51 53 52 35 53 38 54 52 55 71 56 36 57 37 58 51 60 72 61
REMARK SMILES IDX 39 62 23 63 24 64 32 65 25 66 27 67 33 68 26 69 28 70 29 71
REMARK SMILES IDX 30 72 31 73 55 74 56 75 64 76 57 77 59 78 65 79 58 80 60 81
REMARK SMILES IDX 61 82 62 83 63 84 40 85 41 86 49 87 42 88 44 89 50 90 43 91
REMARK SMILES IDX 45 92 46 93 47 94 48 95
REMARK H PARENT 6 7 2 15 2 16 80 20 83 25 11 29 70 48 38 59
REMARK Flexibility Score: inf
ROOT
ATOM      1  C   UNL A   1      38.662  19.572  25.026  1.00  0.00     0.023 C 
ENDROOT
BRANCH   1   2
ATOM      2  C   UNL A   1      37.514  20.779  24.699  1.00  0.00     0.023 C 
BRANCH   2   3
ATOM      3  C   UNL A   1      36.344  22.224  25.734  1.00  0.00     0.116 C 
BRANCH   3   4
ATOM      4  N   UNL A   1      35.181  22.110  26.815  1.00  0.00    -0.351 N 
ATOM      5  C   UNL A   1      33.884  21.725  26.916  1.00  0.00     0.281 C 
ATOM      6  O   UNL A   1      33.370  22.051  27.996  1.00  0.00    -0.268 OA
ATOM      7  H   UNL A   1      35.507  22.416  27.691  1.00  0.00     0.163 HD
BRANCH   5   8
ATOM      8  C   UNL A   1      33.094  20.973  25.808  1.00  0.00     0.181 C 
ATOM      9  C   UNL A   1      33.735  21.172  24.427  1.00  0.00     0.085 C 
ATOM     10  C   UNL A   1      31.663  21.530  25.665  1.00  0.00     0.144 C 
ATOM     11  C   UNL A   1      32.741  22.014  23.636  1.00  0.00     0.072 C 
ATOM     12  C   UNL A   1      31.780  22.671  24.659  1.00  0.00     0.191 C 
BRANCH   8  13
ATOM     13  N   UNL A   1      32.973  19.518  26.137  1.00  0.00    -0.336 N 
ATOM     14  C   UNL A   1      32.833  18.628  24.987  1.00  0.00     0.331 C 
ATOM     15  H   UNL A   1      33.810  19.241  26.650  1.00  0.00     0.346 HD
ATOM     16  H   UNL A   1      32.112  19.422  26.676  1.00  0.00     0.346 HD
ENDBRANCH   8  13
BRANCH  12  17
ATOM     17  N   UNL A   1      32.150  23.976  25.204  1.00  0.00    -0.323 N 
ATOM     18  C   UNL A   1      30.733  25.062  25.646  1.00  0.00     0.324 C 
ATOM     19  C   UNL A   1      33.799  24.764  24.796  1.00  0.00     0.324 C 
ATOM     20  H   UNL A   1      32.520  23.671  26.105  1.00  0.00     0.348 HD
ATOM     21  C   UNL A   1      30.781  26.956  25.178  1.00  0.00     0.324 C 
ATOM     22  C   UNL A   1      33.852  26.704  24.370  1.00  0.00     0.324 C 
ATOM     23  N   UNL A   1      32.382  27.757  24.770  1.00  0.00    -0.328 N 
ATOM     24  C   UNL A   1      32.196  28.860  23.832  1.00  0.00     0.333 C 
ATOM     25  H   UNL A   1      32.676  28.113  25.680  1.00  0.00     0.348 HD
ENDBRANCH  12  17
ENDBRANCH   5   8
ENDBRANCH   3   4
ENDBRANCH   2   3
ENDBRANCH   1   2
BRANCH   1  26
ATOM     26  C   UNL A   1      39.646  19.741  26.196  1.00  0.00     0.116 C 
BRANCH  26  27
ATOM     27  N   UNL A   1      40.882  18.980  26.041  1.00  0.00    -0.352 N 
ATOM     28  C   UNL A   1      42.170  19.416  26.190  1.00  0.00     0.251 C 
ATOM     29  H   UNL A   1      40.775  18.032  25.800  1.00  0.00     0.163 HD
ATOM     30  O   UNL A   1      43.125  18.658  26.064  1.00  0.00    -0.269 OA
BRANCH  28  31
ATOM     31  C   UNL A   1      42.373  20.848  26.441  1.00  0.00     0.039 A 
ATOM     32  C   UNL A   1      42.700  21.252  27.735  1.00  0.00     0.014 A 
ATOM     33  C   UNL A   1      42.360  21.749  25.376  1.00  0.00     0.014 A 
ATOM     34  C   UNL A   1      43.073  22.574  27.953  1.00  0.00     0.010 A 
ATOM     35  C   UNL A   1      42.804  23.046  25.583  1.00  0.00     0.010 A 
ATOM     36  C   UNL A   1      43.156  23.468  26.873  1.00  0.00    -0.014 A 
BRANCH  36  37
ATOM     37  C   UNL A   1      43.610  24.858  27.085  1.00  0.00     0.031 A 
ATOM     38  C   UNL A   1      42.649  25.874  27.629  1.00  0.00     0.074 A 
ATOM     39  C   UNL A   1      44.859  25.206  26.722  1.00  0.00     0.049 A 
ATOM     40  N   UNL A   1      42.852  27.137  27.892  1.00  0.00    -0.248 NA
ATOM     41  C   UNL A   1      41.270  25.422  27.882  1.00  0.00     0.031 C 
ATOM     42  C   UNL A   1      45.834  24.313  26.088  1.00  0.00     0.029 A 
ATOM     43  N   UNL A   1      45.519  26.402  26.816  1.00  0.00    -0.354 N 
ATOM     44  C   UNL A   1      41.623  27.637  28.304  1.00  0.00     0.074 A 
ATOM     45  C   UNL A   1      40.670  26.555  28.217  1.00  0.00     0.031 C 
ATOM     46  C   UNL A   1      46.971  24.991  25.861  1.00  0.00     0.029 A 
ATOM     47  C   UNL A   1      46.801  26.366  26.319  1.00  0.00     0.049 A 
ATOM     48  H   UNL A   1      45.114  27.212  27.203  1.00  0.00     0.167 HD
ATOM     49  C   UNL A   1      41.326  28.879  28.750  1.00  0.00     0.034 A 
ATOM     50  C   UNL A   1      47.734  27.336  26.253  1.00  0.00     0.034 A 
ATOM     51  C   UNL A   1      42.302  29.925  28.880  1.00  0.00     0.049 A 
ATOM     52  C   UNL A   1      47.404  28.683  26.836  1.00  0.00     0.074 A 
ATOM     53  C   UNL A   1      42.142  31.190  29.413  1.00  0.00     0.029 A 
ATOM     54  N   UNL A   1      43.622  29.824  28.466  1.00  0.00    -0.354 N 
ATOM     55  N   UNL A   1      46.286  29.090  27.389  1.00  0.00    -0.248 NA
ATOM     56  C   UNL A   1      48.472  29.692  26.830  1.00  0.00     0.031 C 
ATOM     57  C   UNL A   1      43.365  31.861  29.306  1.00  0.00     0.029 A 
ATOM     58  C   UNL A   1      44.291  31.006  28.727  1.00  0.00     0.049 A 
ATOM     59  H   UNL A   1      44.023  29.028  28.049  1.00  0.00     0.167 HD
ATOM     60  C   UNL A   1      46.524  30.387  27.824  1.00  0.00     0.074 A 
ATOM     61  C   UNL A   1      47.902  30.690  27.491  1.00  0.00     0.031 C 
ATOM     62  C   UNL A   1      45.677  31.258  28.429  1.00  0.00     0.034 A 
BRANCH  49  63
ATOM     63  C   UNL A   1      39.909  29.145  29.181  1.00  0.00     0.023 A 
ATOM     64  C   UNL A   1      38.917  29.380  28.206  1.00  0.00     0.012 A 
ATOM     65  C   UNL A   1      39.549  29.131  30.542  1.00  0.00     0.148 A 
ATOM     66  C   UNL A   1      37.599  29.635  28.578  1.00  0.00     0.002 A 
ATOM     67  C   UNL A   1      38.224  29.341  30.903  1.00  0.00     0.091 A 
ATOM     68  F   UNL A   1      40.509  28.931  31.456  1.00  0.00    -0.205 F 
ATOM     69  C   UNL A   1      37.251  29.606  29.925  1.00  0.00     0.022 A 
BRANCH  67  70
ATOM     70  S   UNL A   1      37.657  29.250  32.605  1.00  0.00     0.127 S 
ATOM     71  O   UNL A   1      36.286  29.746  32.487  1.00  0.00    -0.237 OA
ATOM     72  O   UNL A   1      37.765  27.818  32.889  1.00  0.00    -0.237 OA
ATOM     73  O   UNL A   1      38.561  30.091  33.377  1.00  0.00    -0.744 OA
ENDBRANCH  67  70
ENDBRANCH  49  63
BRANCH  50  74
ATOM     74  C   UNL A   1      49.084  27.036  25.698  1.00  0.00     0.023 A 
ATOM     75  C   UNL A   1      50.019  26.339  26.489  1.00  0.00     0.012 A 
ATOM     76  C   UNL A   1      49.430  27.391  24.381  1.00  0.00     0.148 A 
ATOM     77  C   UNL A   1      51.284  26.030  25.989  1.00  0.00     0.002 A 
ATOM     78  C   UNL A   1      50.674  27.034  23.871  1.00  0.00     0.091 A 
ATOM     79  F   UNL A   1      48.531  28.061  23.646  1.00  0.00    -0.205 F 
ATOM     80  C   UNL A   1      51.609  26.367  24.678  1.00  0.00     0.022 A 
BRANCH  78  81
ATOM     81  S   UNL A   1      51.126  27.311  22.154  1.00  0.00     0.127 S 
ATOM     82  O   UNL A   1      52.431  26.659  22.079  1.00  0.00    -0.237 OA
ATOM     83  O   UNL A   1      50.049  26.620  21.442  1.00  0.00    -0.237 OA
ATOM     84  O   UNL A   1      51.126  28.757  21.977  1.00  0.00    -0.744 OA
ENDBRANCH  78  81
ENDBRANCH  50  74
BRANCH  62  85
ATOM     85  C   UNL A   1      46.220  32.612  28.794  1.00  0.00     0.023 A 
ATOM     86  C   UNL A   1      46.862  32.797  30.033  1.00  0.00     0.012 A 
ATOM     87  C   UNL A   1      46.175  33.674  27.869  1.00  0.00     0.148 A 
ATOM     88  C   UNL A   1      47.428  34.027  30.360  1.00  0.00     0.002 A 
ATOM     89  C   UNL A   1      46.784  34.882  28.181  1.00  0.00     0.091 A 
ATOM     90  F   UNL A   1      45.541  33.481  26.703  1.00  0.00    -0.205 F 
ATOM     91  C   UNL A   1      47.401  35.065  29.430  1.00  0.00     0.022 A 
BRANCH  89  92
ATOM     92  S   UNL A   1      46.888  36.234  27.005  1.00  0.00     0.127 S 
ATOM     93  O   UNL A   1      47.483  35.575  25.844  1.00  0.00    -0.237 OA
ATOM     94  O   UNL A   1      45.483  36.611  26.839  1.00  0.00    -0.237 OA
ATOM     95  O   UNL A   1      47.713  37.254  27.638  1.00  0.00    -0.744 OA
ENDBRANCH  89  92
ENDBRANCH  62  85
ENDBRANCH  36  37
ENDBRANCH  28  31
ENDBRANCH  26  27
ENDBRANCH   1  26
TORSDOF 16
ENDMDL
