MODEL 1
REMARK VINA RESULT:     -12.4      0.000      0.000
REMARK SMILES COc1cc(/C=C2\SC(=S)N(CC(=O)NCCCCNC(=O)c3ccc(-c4c5nc(c(-c6cccc(S(=O)(=O)[O-])c6F)c6ccc([nH]6)c(-c6cccc(S(=O)(=O)[O-])c6F)c6nc(c(-c7cccc(S(=O)(=O)[O-])c7F)c7ccc4[nH]7)C=C6)C=C5)cc3)C2=O)cc2c1OCO2
REMARK SMILES IDX 17 1 16 2 15 3 13 4 14 5 12 7 11 8 6 9 7 10 8 11 86 12 9 13
REMARK SMILES IDX 87 14 10 15 5 16 3 17 4 18 90 19 89 20 91 21 88 22 93 23
REMARK SMILES IDX 92 24 2 25 1 26 18 27 19 28 20 29 21 30 22 32 23 33 24 34
REMARK SMILES IDX 85 35 25 36 84 37 26 38 27 39 28 40 78 41 29 42 83 43 77 44
REMARK SMILES IDX 79 45 30 46 82 47 76 48 75 49 31 51 63 52 43 53 62 54 44 55
REMARK SMILES IDX 47 56 61 57 80 58 45 59 46 60 60 62 81 63 48 64 32 65 33 66
REMARK SMILES IDX 41 67 34 68 36 69 42 70 35 71 37 72 38 73 39 74 40 75 64 76
REMARK SMILES IDX 65 77 73 78 66 79 68 80 74 81 67 82 69 83 70 84 71 85 72 86
REMARK SMILES IDX 49 87 50 88 58 89 51 90 53 91 59 92 52 93 54 94 55 95 56 96
REMARK SMILES IDX 57 97
REMARK H PARENT 15 6 20 31 79 50 47 61
REMARK Flexibility Score: inf
ROOT
ATOM      1  C   UNL A   1      31.802  30.323  26.829  1.00  0.00     0.023 C 
ENDROOT
BRANCH   1   2
ATOM      2  C   UNL A   1      32.390  29.662  25.585  1.00  0.00     0.116 C 
BRANCH   2   3
ATOM      3  N   UNL A   1      31.379  29.025  24.770  1.00  0.00    -0.355 N 
ATOM      4  C   UNL A   1      31.493  28.039  23.836  1.00  0.00     0.240 C 
ATOM      5  O   UNL A   1      30.456  27.467  23.488  1.00  0.00    -0.273 OA
ATOM      6  H   UNL A   1      30.462  29.356  24.913  1.00  0.00     0.163 HD
BRANCH   4   7
ATOM      7  C   UNL A   1      32.856  27.513  23.371  1.00  0.00     0.227 C 
BRANCH   7   8
ATOM      8  N   UNL A   1      32.969  26.056  23.321  1.00  0.00    -0.283 N 
ATOM      9  C   UNL A   1      33.903  23.089  25.175  1.00  0.00     0.029 C 
ATOM     10  C   UNL A   1      33.498  23.945  24.225  1.00  0.00     0.081 C 
ATOM     11  S   UNL A   1      32.977  23.584  22.627  1.00  0.00    -0.054 SA
ATOM     12  C   UNL A   1      33.443  25.412  24.454  1.00  0.00     0.266 C 
ATOM     13  C   UNL A   1      32.803  25.277  22.198  1.00  0.00     0.148 C 
ATOM     14  O   UNL A   1      33.808  25.950  25.484  1.00  0.00    -0.268 OA
ATOM     15  S   UNL A   1      32.511  25.753  20.625  1.00  0.00    -0.052 S 
BRANCH   9  16
ATOM     16  C   UNL A   1      33.984  21.630  25.024  1.00  0.00    -0.017 A 
ATOM     17  C   UNL A   1      35.364  19.623  24.799  1.00  0.00     0.165 A 
ATOM     18  C   UNL A   1      35.246  21.015  24.900  1.00  0.00     0.058 A 
ATOM     19  C   UNL A   1      34.207  18.868  24.875  1.00  0.00     0.207 A 
ATOM     20  C   UNL A   1      32.973  19.472  24.972  1.00  0.00     0.170 A 
ATOM     21  O   UNL A   1      34.101  17.510  24.901  1.00  0.00    -0.450 OA
ATOM     22  C   UNL A   1      32.826  20.842  25.014  1.00  0.00     0.059 A 
ATOM     23  O   UNL A   1      31.952  18.577  25.053  1.00  0.00    -0.453 OA
ATOM     24  C   UNL A   1      32.688  17.343  25.121  1.00  0.00     0.468 C 
BRANCH  17  25
ATOM     25  O   UNL A   1      36.632  19.127  24.718  1.00  0.00    -0.493 OA
ATOM     26  C   UNL A   1      37.645  20.092  24.986  1.00  0.00     0.278 C 
ENDBRANCH  17  25
ENDBRANCH   9  16
ENDBRANCH   7   8
ENDBRANCH   4   7
ENDBRANCH   2   3
ENDBRANCH   1   2
BRANCH   1  27
ATOM     27  C   UNL A   1      31.680  31.846  26.736  1.00  0.00     0.023 C 
BRANCH  27  28
ATOM     28  C   UNL A   1      32.857  32.631  27.306  1.00  0.00     0.116 C 
BRANCH  28  29
ATOM     29  N   UNL A   1      32.528  34.016  27.607  1.00  0.00    -0.352 N 
ATOM     30  C   UNL A   1      33.079  34.840  28.561  1.00  0.00     0.251 C 
ATOM     31  H   UNL A   1      31.817  34.417  27.056  1.00  0.00     0.163 HD
ATOM     32  O   UNL A   1      32.595  35.948  28.770  1.00  0.00    -0.269 OA
BRANCH  30  33
ATOM     33  C   UNL A   1      34.238  34.369  29.351  1.00  0.00     0.039 A 
ATOM     34  C   UNL A   1      34.009  33.740  30.576  1.00  0.00     0.014 A 
ATOM     35  C   UNL A   1      35.541  34.523  28.868  1.00  0.00     0.014 A 
ATOM     36  C   UNL A   1      35.086  33.207  31.288  1.00  0.00     0.010 A 
ATOM     37  C   UNL A   1      36.600  33.920  29.540  1.00  0.00     0.010 A 
ATOM     38  C   UNL A   1      36.387  33.260  30.760  1.00  0.00    -0.014 A 
BRANCH  38  39
ATOM     39  C   UNL A   1      37.533  32.626  31.463  1.00  0.00     0.031 A 
ATOM     40  C   UNL A   1      38.270  31.476  30.830  1.00  0.00     0.074 A 
ATOM     41  C   UNL A   1      37.861  33.032  32.708  1.00  0.00     0.049 A 
ATOM     42  N   UNL A   1      39.255  30.764  31.312  1.00  0.00    -0.248 NA
ATOM     43  C   UNL A   1      37.828  31.054  29.489  1.00  0.00     0.031 C 
ATOM     44  C   UNL A   1      37.176  34.083  33.464  1.00  0.00     0.029 A 
ATOM     45  N   UNL A   1      38.836  32.590  33.568  1.00  0.00    -0.354 N 
ATOM     46  C   UNL A   1      39.523  29.789  30.357  1.00  0.00     0.074 A 
ATOM     47  C   UNL A   1      38.579  29.982  29.279  1.00  0.00     0.031 C 
ATOM     48  C   UNL A   1      37.753  34.206  34.671  1.00  0.00     0.029 A 
ATOM     49  C   UNL A   1      38.824  33.222  34.791  1.00  0.00     0.049 A 
ATOM     50  H   UNL A   1      39.483  31.886  33.333  1.00  0.00     0.167 HD
ATOM     51  C   UNL A   1      40.484  28.836  30.365  1.00  0.00     0.034 A 
ATOM     52  C   UNL A   1      39.578  33.023  35.890  1.00  0.00     0.034 A 
ATOM     53  C   UNL A   1      41.450  28.673  31.417  1.00  0.00     0.049 A 
ATOM     54  C   UNL A   1      40.662  31.978  35.852  1.00  0.00     0.074 A 
ATOM     55  C   UNL A   1      42.521  27.798  31.471  1.00  0.00     0.029 A 
ATOM     56  N   UNL A   1      41.460  29.391  32.603  1.00  0.00    -0.354 N 
ATOM     57  N   UNL A   1      41.004  31.176  34.873  1.00  0.00    -0.248 NA
ATOM     58  C   UNL A   1      41.492  31.837  37.058  1.00  0.00     0.031 C 
ATOM     59  C   UNL A   1      43.156  27.960  32.705  1.00  0.00     0.029 A 
ATOM     60  C   UNL A   1      42.508  28.968  33.401  1.00  0.00     0.049 A 
ATOM     61  H   UNL A   1      40.816  30.095  32.841  1.00  0.00     0.167 HD
ATOM     62  C   UNL A   1      42.111  30.469  35.328  1.00  0.00     0.074 A 
ATOM     63  C   UNL A   1      42.396  30.952  36.662  1.00  0.00     0.031 C 
ATOM     64  C   UNL A   1      42.820  29.498  34.702  1.00  0.00     0.034 A 
BRANCH  51  65
ATOM     65  C   UNL A   1      40.577  27.913  29.178  1.00  0.00     0.023 A 
ATOM     66  C   UNL A   1      39.682  26.829  29.062  1.00  0.00     0.012 A 
ATOM     67  C   UNL A   1      41.484  28.175  28.133  1.00  0.00     0.148 A 
ATOM     68  C   UNL A   1      39.708  26.004  27.939  1.00  0.00     0.002 A 
ATOM     69  C   UNL A   1      41.471  27.378  26.995  1.00  0.00     0.091 A 
ATOM     70  F   UNL A   1      42.337  29.199  28.269  1.00  0.00    -0.205 F 
ATOM     71  C   UNL A   1      40.591  26.286  26.901  1.00  0.00     0.022 A 
BRANCH  69  72
ATOM     72  S   UNL A   1      42.507  27.706  25.566  1.00  0.00     0.127 S 
ATOM     73  O   UNL A   1      42.273  26.512  24.753  1.00  0.00    -0.237 OA
ATOM     74  O   UNL A   1      41.915  28.933  25.033  1.00  0.00    -0.237 OA
ATOM     75  O   UNL A   1      43.864  27.853  26.074  1.00  0.00    -0.744 OA
ENDBRANCH  69  72
ENDBRANCH  51  65
BRANCH  52  76
ATOM     76  C   UNL A   1      39.371  33.855  37.110  1.00  0.00     0.023 A 
ATOM     77  C   UNL A   1      39.851  35.179  37.139  1.00  0.00     0.012 A 
ATOM     78  C   UNL A   1      38.715  33.340  38.244  1.00  0.00     0.148 A 
ATOM     79  C   UNL A   1      39.725  35.957  38.291  1.00  0.00     0.002 A 
ATOM     80  C   UNL A   1      38.539  34.140  39.366  1.00  0.00     0.091 A 
ATOM     81  F   UNL A   1      38.274  32.074  38.202  1.00  0.00    -0.205 F 
ATOM     82  C   UNL A   1      39.063  35.441  39.401  1.00  0.00     0.022 A 
BRANCH  80  83
ATOM     83  S   UNL A   1      37.586  33.601  40.790  1.00  0.00     0.127 S 
ATOM     84  O   UNL A   1      37.431  34.847  41.536  1.00  0.00    -0.237 OA
ATOM     85  O   UNL A   1      36.362  33.102  40.162  1.00  0.00    -0.237 OA
ATOM     86  O   UNL A   1      38.391  32.571  41.433  1.00  0.00    -0.744 OA
ENDBRANCH  80  83
ENDBRANCH  52  76
BRANCH  64  87
ATOM     87  C   UNL A   1      44.016  28.928  35.419  1.00  0.00     0.023 A 
ATOM     88  C   UNL A   1      45.291  29.499  35.236  1.00  0.00     0.012 A 
ATOM     89  C   UNL A   1      43.857  27.868  36.333  1.00  0.00     0.148 A 
ATOM     90  C   UNL A   1      46.396  28.998  35.923  1.00  0.00     0.002 A 
ATOM     91  C   UNL A   1      44.952  27.411  37.057  1.00  0.00     0.091 A 
ATOM     92  F   UNL A   1      42.639  27.328  36.482  1.00  0.00    -0.205 F 
ATOM     93  C   UNL A   1      46.225  27.965  36.842  1.00  0.00     0.022 A 
BRANCH  91  94
ATOM     94  S   UNL A   1      44.808  26.155  38.332  1.00  0.00     0.127 S 
ATOM     95  O   UNL A   1      44.272  25.025  37.578  1.00  0.00    -0.237 OA
ATOM     96  O   UNL A   1      46.196  25.997  38.767  1.00  0.00    -0.237 OA
ATOM     97  O   UNL A   1      43.918  26.708  39.344  1.00  0.00    -0.744 OA
ENDBRANCH  91  94
ENDBRANCH  64  87
ENDBRANCH  38  39
ENDBRANCH  30  33
ENDBRANCH  28  29
ENDBRANCH  27  28
ENDBRANCH   1  27
TORSDOF 17
ENDMDL
MODEL 2
REMARK VINA RESULT:     -11.8      1.688      2.136
REMARK SMILES COc1cc(/C=C2\SC(=S)N(CC(=O)NCCCCNC(=O)c3ccc(-c4c5nc(c(-c6cccc(S(=O)(=O)[O-])c6F)c6ccc([nH]6)c(-c6cccc(S(=O)(=O)[O-])c6F)c6nc(c(-c7cccc(S(=O)(=O)[O-])c7F)c7ccc4[nH]7)C=C6)C=C5)cc3)C2=O)cc2c1OCO2
REMARK SMILES IDX 17 1 16 2 15 3 13 4 14 5 12 7 11 8 6 9 7 10 8 11 86 12 9 13
REMARK SMILES IDX 87 14 10 15 5 16 3 17 4 18 90 19 89 20 91 21 88 22 93 23
REMARK SMILES IDX 92 24 2 25 1 26 18 27 19 28 20 29 21 30 22 32 23 33 24 34
REMARK SMILES IDX 85 35 25 36 84 37 26 38 27 39 28 40 78 41 29 42 83 43 77 44
REMARK SMILES IDX 79 45 30 46 82 47 76 48 75 49 31 51 63 52 43 53 62 54 44 55
REMARK SMILES IDX 47 56 61 57 80 58 45 59 46 60 60 62 81 63 48 64 32 65 33 66
REMARK SMILES IDX 41 67 34 68 36 69 42 70 35 71 37 72 38 73 39 74 40 75 64 76
REMARK SMILES IDX 65 77 73 78 66 79 68 80 74 81 67 82 69 83 70 84 71 85 72 86
REMARK SMILES IDX 49 87 50 88 58 89 51 90 53 91 59 92 52 93 54 94 55 95 56 96
REMARK SMILES IDX 57 97
REMARK H PARENT 15 6 20 31 79 50 47 61
REMARK Flexibility Score: inf
ROOT
ATOM      1  C   UNL A   1      31.676  30.330  26.754  1.00  0.00     0.023 C 
ENDROOT
BRANCH   1   2
ATOM      2  C   UNL A   1      32.180  29.813  25.410  1.00  0.00     0.116 C 
BRANCH   2   3
ATOM      3  N   UNL A   1      31.161  29.095  24.677  1.00  0.00    -0.355 N 
ATOM      4  C   UNL A   1      31.274  28.072  23.784  1.00  0.00     0.240 C 
ATOM      5  O   UNL A   1      30.248  27.439  23.516  1.00  0.00    -0.273 OA
ATOM      6  H   UNL A   1      30.238  29.393  24.851  1.00  0.00     0.163 HD
BRANCH   4   7
ATOM      7  C   UNL A   1      32.635  27.583  23.275  1.00  0.00     0.227 C 
BRANCH   7   8
ATOM      8  N   UNL A   1      32.794  26.130  23.241  1.00  0.00    -0.283 N 
ATOM      9  C   UNL A   1      33.779  23.211  25.144  1.00  0.00     0.029 C 
ATOM     10  C   UNL A   1      33.369  24.045  24.177  1.00  0.00     0.081 C 
ATOM     11  S   UNL A   1      32.894  23.653  22.572  1.00  0.00    -0.054 SA
ATOM     12  C   UNL A   1      33.263  25.512  24.391  1.00  0.00     0.266 C 
ATOM     13  C   UNL A   1      32.677  25.336  22.123  1.00  0.00     0.148 C 
ATOM     14  O   UNL A   1      33.589  26.070  25.424  1.00  0.00    -0.268 OA
ATOM     15  S   UNL A   1      32.406  25.789  20.540  1.00  0.00    -0.052 S 
BRANCH   9  16
ATOM     16  C   UNL A   1      33.908  21.754  25.009  1.00  0.00    -0.017 A 
ATOM     17  C   UNL A   1      35.354  19.790  24.818  1.00  0.00     0.165 A 
ATOM     18  C   UNL A   1      35.191  21.179  24.903  1.00  0.00     0.058 A 
ATOM     19  C   UNL A   1      34.222  18.999  24.891  1.00  0.00     0.207 A 
ATOM     20  C   UNL A   1      32.969  19.564  24.970  1.00  0.00     0.170 A 
ATOM     21  O   UNL A   1      34.160  17.639  24.930  1.00  0.00    -0.450 OA
ATOM     22  C   UNL A   1      32.777  20.928  24.997  1.00  0.00     0.059 A 
ATOM     23  O   UNL A   1      31.976  18.637  25.051  1.00  0.00    -0.453 OA
ATOM     24  C   UNL A   1      32.751  17.428  25.138  1.00  0.00     0.468 C 
BRANCH  17  25
ATOM     25  O   UNL A   1      36.639  19.335  24.753  1.00  0.00    -0.493 OA
ATOM     26  C   UNL A   1      37.618  20.341  24.992  1.00  0.00     0.278 C 
ENDBRANCH  17  25
ENDBRANCH   9  16
ENDBRANCH   7   8
ENDBRANCH   4   7
ENDBRANCH   2   3
ENDBRANCH   1   2
BRANCH   1  27
ATOM     27  C   UNL A   1      31.339  31.822  26.772  1.00  0.00     0.023 C 
BRANCH  27  28
ATOM     28  C   UNL A   1      32.537  32.762  26.684  1.00  0.00     0.116 C 
BRANCH  28  29
ATOM     29  N   UNL A   1      32.331  34.018  27.390  1.00  0.00    -0.352 N 
ATOM     30  C   UNL A   1      33.022  34.516  28.470  1.00  0.00     0.251 C 
ATOM     31  H   UNL A   1      31.602  34.586  27.051  1.00  0.00     0.163 HD
ATOM     32  O   UNL A   1      32.635  35.538  29.029  1.00  0.00    -0.269 OA
BRANCH  30  33
ATOM     33  C   UNL A   1      34.213  33.796  28.970  1.00  0.00     0.039 A 
ATOM     34  C   UNL A   1      35.468  34.396  28.845  1.00  0.00     0.014 A 
ATOM     35  C   UNL A   1      34.087  32.549  29.587  1.00  0.00     0.014 A 
ATOM     36  C   UNL A   1      36.589  33.772  29.396  1.00  0.00     0.010 A 
ATOM     37  C   UNL A   1      35.191  31.969  30.205  1.00  0.00     0.010 A 
ATOM     38  C   UNL A   1      36.455  32.570  30.113  1.00  0.00    -0.014 A 
BRANCH  38  39
ATOM     39  C   UNL A   1      37.623  31.933  30.776  1.00  0.00     0.031 A 
ATOM     40  C   UNL A   1      38.432  30.891  30.051  1.00  0.00     0.074 A 
ATOM     41  C   UNL A   1      37.908  32.232  32.061  1.00  0.00     0.049 A 
ATOM     42  N   UNL A   1      39.447  30.188  30.483  1.00  0.00    -0.248 NA
ATOM     43  C   UNL A   1      38.036  30.579  28.666  1.00  0.00     0.031 C 
ATOM     44  C   UNL A   1      37.154  33.167  32.900  1.00  0.00     0.029 A 
ATOM     45  N   UNL A   1      38.891  31.761  32.895  1.00  0.00    -0.354 N 
ATOM     46  C   UNL A   1      39.784  29.326  29.445  1.00  0.00     0.074 A 
ATOM     47  C   UNL A   1      38.848  29.573  28.370  1.00  0.00     0.031 C 
ATOM     48  C   UNL A   1      37.704  33.202  34.125  1.00  0.00     0.029 A 
ATOM     49  C   UNL A   1      38.825  32.269  34.173  1.00  0.00     0.049 A 
ATOM     50  H   UNL A   1      39.580  31.119  32.608  1.00  0.00     0.167 HD
ATOM     51  C   UNL A   1      40.796  28.430  29.381  1.00  0.00     0.034 A 
ATOM     52  C   UNL A   1      39.571  32.004  35.263  1.00  0.00     0.034 A 
ATOM     53  C   UNL A   1      41.752  28.217  30.432  1.00  0.00     0.049 A 
ATOM     54  C   UNL A   1      40.711  31.027  35.148  1.00  0.00     0.074 A 
ATOM     55  C   UNL A   1      42.868  27.399  30.425  1.00  0.00     0.029 A 
ATOM     56  N   UNL A   1      41.703  28.815  31.682  1.00  0.00    -0.354 N 
ATOM     57  N   UNL A   1      41.112  30.343  34.104  1.00  0.00    -0.248 NA
ATOM     58  C   UNL A   1      41.528  30.813  36.353  1.00  0.00     0.031 C 
ATOM     59  C   UNL A   1      43.473  27.473  31.683  1.00  0.00     0.029 A 
ATOM     60  C   UNL A   1      42.760  28.373  32.458  1.00  0.00     0.049 A 
ATOM     61  H   UNL A   1      41.017  29.458  31.974  1.00  0.00     0.167 HD
ATOM     62  C   UNL A   1      42.249  29.655  34.513  1.00  0.00     0.074 A 
ATOM     63  C   UNL A   1      42.485  30.020  35.893  1.00  0.00     0.031 C 
ATOM     64  C   UNL A   1      43.021  28.789  33.811  1.00  0.00     0.034 A 
BRANCH  51  65
ATOM     65  C   UNL A   1      40.958  27.634  28.113  1.00  0.00     0.023 A 
ATOM     66  C   UNL A   1      41.595  28.216  26.997  1.00  0.00     0.012 A 
ATOM     67  C   UNL A   1      40.566  26.282  28.057  1.00  0.00     0.148 A 
ATOM     68  C   UNL A   1      41.814  27.474  25.837  1.00  0.00     0.002 A 
ATOM     69  C   UNL A   1      40.832  25.535  26.915  1.00  0.00     0.091 A 
ATOM     70  F   UNL A   1      39.947  25.751  29.121  1.00  0.00    -0.205 F 
ATOM     71  C   UNL A   1      41.446  26.132  25.802  1.00  0.00     0.022 A 
BRANCH  69  72
ATOM     72  S   UNL A   1      40.476  23.779  26.798  1.00  0.00     0.127 S 
ATOM     73  O   UNL A   1      41.449  23.349  25.794  1.00  0.00    -0.237 OA
ATOM     74  O   UNL A   1      40.758  23.317  28.157  1.00  0.00    -0.237 OA
ATOM     75  O   UNL A   1      39.081  23.674  26.393  1.00  0.00    -0.744 OA
ENDBRANCH  69  72
ENDBRANCH  51  65
BRANCH  52  76
ATOM     76  C   UNL A   1      39.299  32.701  36.553  1.00  0.00     0.023 A 
ATOM     77  C   UNL A   1      38.360  32.159  37.453  1.00  0.00     0.012 A 
ATOM     78  C   UNL A   1      39.955  33.900  36.889  1.00  0.00     0.148 A 
ATOM     79  C   UNL A   1      38.043  32.824  38.638  1.00  0.00     0.002 A 
ATOM     80  C   UNL A   1      39.679  34.526  38.099  1.00  0.00     0.091 A 
ATOM     81  F   UNL A   1      40.838  34.407  36.016  1.00  0.00    -0.205 F 
ATOM     82  C   UNL A   1      38.707  34.003  38.964  1.00  0.00     0.022 A 
BRANCH  80  83
ATOM     83  S   UNL A   1      40.580  35.976  38.657  1.00  0.00     0.127 S 
ATOM     84  O   UNL A   1      41.966  35.543  38.506  1.00  0.00    -0.237 OA
ATOM     85  O   UNL A   1      40.143  36.991  37.698  1.00  0.00    -0.237 OA
ATOM     86  O   UNL A   1      40.134  36.213  40.023  1.00  0.00    -0.744 OA
ENDBRANCH  80  83
ENDBRANCH  52  76
BRANCH  64  87
ATOM     87  C   UNL A   1      44.234  28.216  34.495  1.00  0.00     0.023 A 
ATOM     88  C   UNL A   1      45.453  28.923  34.487  1.00  0.00     0.012 A 
ATOM     89  C   UNL A   1      44.142  27.005  35.209  1.00  0.00     0.148 A 
ATOM     90  C   UNL A   1      46.571  28.415  35.148  1.00  0.00     0.002 A 
ATOM     91  C   UNL A   1      45.244  26.533  35.913  1.00  0.00     0.091 A 
ATOM     92  F   UNL A   1      42.979  26.340  35.192  1.00  0.00    -0.205 F 
ATOM     93  C   UNL A   1      46.463  27.229  35.870  1.00  0.00     0.022 A 
BRANCH  91  94
ATOM     94  S   UNL A   1      45.169  25.070  36.951  1.00  0.00     0.127 S 
ATOM     95  O   UNL A   1      46.475  25.101  37.604  1.00  0.00    -0.237 OA
ATOM     96  O   UNL A   1      44.039  25.374  37.830  1.00  0.00    -0.237 OA
ATOM     97  O   UNL A   1      44.948  23.947  36.050  1.00  0.00    -0.744 OA
ENDBRANCH  91  94
ENDBRANCH  64  87
ENDBRANCH  38  39
ENDBRANCH  30  33
ENDBRANCH  28  29
ENDBRANCH  27  28
ENDBRANCH   1  27
TORSDOF 17
ENDMDL
MODEL 3
REMARK VINA RESULT:     -11.4      4.901     11.860
REMARK SMILES COc1cc(/C=C2\SC(=S)N(CC(=O)NCCCCNC(=O)c3ccc(-c4c5nc(c(-c6cccc(S(=O)(=O)[O-])c6F)c6ccc([nH]6)c(-c6cccc(S(=O)(=O)[O-])c6F)c6nc(c(-c7cccc(S(=O)(=O)[O-])c7F)c7ccc4[nH]7)C=C6)C=C5)cc3)C2=O)cc2c1OCO2
REMARK SMILES IDX 17 1 16 2 15 3 13 4 14 5 12 7 11 8 6 9 7 10 8 11 86 12 9 13
REMARK SMILES IDX 87 14 10 15 5 16 3 17 4 18 90 19 89 20 91 21 88 22 93 23
REMARK SMILES IDX 92 24 2 25 1 26 18 27 19 28 20 29 21 30 22 32 23 33 24 34
REMARK SMILES IDX 85 35 25 36 84 37 26 38 27 39 28 40 78 41 29 42 83 43 77 44
REMARK SMILES IDX 79 45 30 46 82 47 76 48 75 49 31 51 63 52 43 53 62 54 44 55
REMARK SMILES IDX 47 56 61 57 80 58 45 59 46 60 60 62 81 63 48 64 32 65 33 66
REMARK SMILES IDX 41 67 34 68 36 69 42 70 35 71 37 72 38 73 39 74 40 75 64 76
REMARK SMILES IDX 65 77 73 78 66 79 68 80 74 81 67 82 69 83 70 84 71 85 72 86
REMARK SMILES IDX 49 87 50 88 58 89 51 90 53 91 59 92 52 93 54 94 55 95 56 96
REMARK SMILES IDX 57 97
REMARK H PARENT 15 6 20 31 79 50 47 61
REMARK Flexibility Score: inf
ROOT
ATOM      1  C   UNL A   1      34.197  34.894  29.460  1.00  0.00     0.023 C 
ENDROOT
BRANCH   1   2
ATOM      2  C   UNL A   1      34.089  34.083  30.749  1.00  0.00     0.116 C 
BRANCH   2   3
ATOM      3  N   UNL A   1      34.312  34.890  31.928  1.00  0.00    -0.355 N 
ATOM      4  C   UNL A   1      35.274  34.796  32.890  1.00  0.00     0.240 C 
ATOM      5  O   UNL A   1      35.427  35.770  33.633  1.00  0.00    -0.273 OA
ATOM      6  H   UNL A   1      33.668  35.623  32.056  1.00  0.00     0.163 HD
BRANCH   4   7
ATOM      7  C   UNL A   1      36.264  33.627  32.939  1.00  0.00     0.227 C 
BRANCH   7   8
ATOM      8  N   UNL A   1      37.641  33.971  32.588  1.00  0.00    -0.283 N 
ATOM      9  C   UNL A   1      40.069  34.118  29.906  1.00  0.00     0.029 C 
ATOM     10  C   UNL A   1      39.453  34.180  31.095  1.00  0.00     0.081 C 
ATOM     11  S   UNL A   1      40.105  34.695  32.600  1.00  0.00    -0.054 SA
ATOM     12  C   UNL A   1      38.030  33.788  31.270  1.00  0.00     0.266 C 
ATOM     13  C   UNL A   1      38.635  34.307  33.479  1.00  0.00     0.148 C 
ATOM     14  O   UNL A   1      37.340  33.333  30.375  1.00  0.00    -0.268 OA
ATOM     15  S   UNL A   1      38.580  34.344  35.147  1.00  0.00    -0.052 S 
BRANCH   9  16
ATOM     16  C   UNL A   1      41.469  34.488  29.655  1.00  0.00    -0.017 A 
ATOM     17  C   UNL A   1      43.833  33.862  29.671  1.00  0.00     0.165 A 
ATOM     18  C   UNL A   1      42.492  33.561  29.939  1.00  0.00     0.058 A 
ATOM     19  C   UNL A   1      44.118  35.077  29.075  1.00  0.00     0.207 A 
ATOM     20  C   UNL A   1      43.119  35.991  28.821  1.00  0.00     0.170 A 
ATOM     21  O   UNL A   1      45.328  35.527  28.640  1.00  0.00    -0.450 OA
ATOM     22  C   UNL A   1      41.799  35.743  29.128  1.00  0.00     0.059 A 
ATOM     23  O   UNL A   1      43.578  37.120  28.217  1.00  0.00    -0.453 OA
ATOM     24  C   UNL A   1      44.957  36.765  28.007  1.00  0.00     0.468 C 
BRANCH  17  25
ATOM     25  O   UNL A   1      44.741  32.883  29.951  1.00  0.00    -0.493 OA
ATOM     26  C   UNL A   1      44.222  31.563  29.819  1.00  0.00     0.278 C 
ENDBRANCH  17  25
ENDBRANCH   9  16
ENDBRANCH   7   8
ENDBRANCH   4   7
ENDBRANCH   2   3
ENDBRANCH   1   2
BRANCH   1  27
ATOM     27  C   UNL A   1      33.951  34.087  28.183  1.00  0.00     0.023 C 
BRANCH  27  28
ATOM     28  C   UNL A   1      34.845  32.864  28.002  1.00  0.00     0.116 C 
BRANCH  28  29
ATOM     29  N   UNL A   1      34.110  31.674  27.597  1.00  0.00    -0.352 N 
ATOM     30  C   UNL A   1      34.542  30.369  27.572  1.00  0.00     0.251 C 
ATOM     31  H   UNL A   1      33.183  31.823  27.302  1.00  0.00     0.163 HD
ATOM     32  O   UNL A   1      33.833  29.497  27.077  1.00  0.00    -0.269 OA
BRANCH  30  33
ATOM     33  C   UNL A   1      35.875  30.029  28.115  1.00  0.00     0.039 A 
ATOM     34  C   UNL A   1      35.970  29.552  29.424  1.00  0.00     0.014 A 
ATOM     35  C   UNL A   1      37.021  30.154  27.324  1.00  0.00     0.014 A 
ATOM     36  C   UNL A   1      37.209  29.139  29.918  1.00  0.00     0.010 A 
ATOM     37  C   UNL A   1      38.238  29.666  27.792  1.00  0.00     0.010 A 
ATOM     38  C   UNL A   1      38.348  29.158  29.095  1.00  0.00    -0.014 A 
BRANCH  38  39
ATOM     39  C   UNL A   1      39.658  28.646  29.577  1.00  0.00     0.031 A 
ATOM     40  C   UNL A   1      40.399  29.369  30.671  1.00  0.00     0.074 A 
ATOM     41  C   UNL A   1      40.220  27.577  28.976  1.00  0.00     0.049 A 
ATOM     42  N   UNL A   1      41.573  29.106  31.183  1.00  0.00    -0.248 NA
ATOM     43  C   UNL A   1      39.747  30.556  31.251  1.00  0.00     0.031 C 
ATOM     44  C   UNL A   1      39.642  26.836  27.852  1.00  0.00     0.029 A 
ATOM     45  N   UNL A   1      41.418  26.946  29.205  1.00  0.00    -0.354 N 
ATOM     46  C   UNL A   1      41.818  30.112  32.110  1.00  0.00     0.074 A 
ATOM     47  C   UNL A   1      40.684  31.008  32.072  1.00  0.00     0.031 C 
ATOM     48  C   UNL A   1      40.482  25.850  27.495  1.00  0.00     0.029 A 
ATOM     49  C   UNL A   1      41.673  25.909  28.336  1.00  0.00     0.049 A 
ATOM     50  H   UNL A   1      42.037  27.209  29.924  1.00  0.00     0.167 HD
ATOM     51  C   UNL A   1      42.879  30.263  32.938  1.00  0.00     0.034 A 
ATOM     52  C   UNL A   1      42.749  25.107  28.218  1.00  0.00     0.034 A 
ATOM     53  C   UNL A   1      43.985  29.347  33.006  1.00  0.00     0.049 A 
ATOM     54  C   UNL A   1      43.897  25.279  29.177  1.00  0.00     0.074 A 
ATOM     55  C   UNL A   1      45.061  29.364  33.877  1.00  0.00     0.029 A 
ATOM     56  N   UNL A   1      44.166  28.259  32.167  1.00  0.00    -0.354 N 
ATOM     57  N   UNL A   1      44.034  26.139  30.157  1.00  0.00    -0.248 NA
ATOM     58  C   UNL A   1      45.024  24.344  29.041  1.00  0.00     0.031 C 
ATOM     59  C   UNL A   1      45.911  28.307  33.541  1.00  0.00     0.029 A 
ATOM     60  C   UNL A   1      45.342  27.605  32.491  1.00  0.00     0.049 A 
ATOM     61  H   UNL A   1      43.550  27.991  31.448  1.00  0.00     0.167 HD
ATOM     62  C   UNL A   1      45.237  25.822  30.778  1.00  0.00     0.074 A 
ATOM     63  C   UNL A   1      45.779  24.677  30.078  1.00  0.00     0.031 C 
ATOM     64  C   UNL A   1      45.843  26.431  31.827  1.00  0.00     0.034 A 
BRANCH  51  65
ATOM     65  C   UNL A   1      42.883  31.440  33.877  1.00  0.00     0.023 A 
ATOM     66  C   UNL A   1      43.352  32.692  33.428  1.00  0.00     0.012 A 
ATOM     67  C   UNL A   1      42.337  31.330  35.171  1.00  0.00     0.148 A 
ATOM     68  C   UNL A   1      43.301  33.809  34.261  1.00  0.00     0.002 A 
ATOM     69  C   UNL A   1      42.245  32.458  35.977  1.00  0.00     0.091 A 
ATOM     70  F   UNL A   1      41.912  30.128  35.585  1.00  0.00    -0.205 F 
ATOM     71  C   UNL A   1      42.736  33.695  35.528  1.00  0.00     0.022 A 
BRANCH  69  72
ATOM     72  S   UNL A   1      41.458  32.438  37.591  1.00  0.00     0.127 S 
ATOM     73  O   UNL A   1      40.129  31.922  37.264  1.00  0.00    -0.237 OA
ATOM     74  O   UNL A   1      42.308  31.508  38.335  1.00  0.00    -0.237 OA
ATOM     75  O   UNL A   1      41.487  33.812  38.073  1.00  0.00    -0.744 OA
ENDBRANCH  69  72
ENDBRANCH  51  65
BRANCH  52  76
ATOM     76  C   UNL A   1      42.784  24.036  27.181  1.00  0.00     0.023 A 
ATOM     77  C   UNL A   1      43.431  24.277  25.953  1.00  0.00     0.012 A 
ATOM     78  C   UNL A   1      42.172  22.787  27.399  1.00  0.00     0.148 A 
ATOM     79  C   UNL A   1      43.424  23.313  24.943  1.00  0.00     0.002 A 
ATOM     80  C   UNL A   1      42.221  21.810  26.412  1.00  0.00     0.091 A 
ATOM     81  F   UNL A   1      41.553  22.579  28.570  1.00  0.00    -0.205 F 
ATOM     82  C   UNL A   1      42.826  22.078  25.175  1.00  0.00     0.022 A 
BRANCH  80  83
ATOM     83  S   UNL A   1      41.592  20.148  26.674  1.00  0.00     0.127 S 
ATOM     84  O   UNL A   1      42.380  19.707  27.820  1.00  0.00    -0.237 OA
ATOM     85  O   UNL A   1      40.179  20.402  26.958  1.00  0.00    -0.237 OA
ATOM     86  O   UNL A   1      41.832  19.436  25.426  1.00  0.00    -0.744 OA
ENDBRANCH  80  83
ENDBRANCH  52  76
BRANCH  64  87
ATOM     87  C   UNL A   1      47.135  25.842  32.330  1.00  0.00     0.023 A 
ATOM     88  C   UNL A   1      47.126  24.912  33.387  1.00  0.00     0.012 A 
ATOM     89  C   UNL A   1      48.354  26.161  31.700  1.00  0.00     0.148 A 
ATOM     90  C   UNL A   1      48.315  24.337  33.835  1.00  0.00     0.002 A 
ATOM     91  C   UNL A   1      49.528  25.542  32.114  1.00  0.00     0.091 A 
ATOM     92  F   UNL A   1      48.344  27.060  30.706  1.00  0.00    -0.205 F 
ATOM     93  C   UNL A   1      49.511  24.641  33.192  1.00  0.00     0.022 A 
BRANCH  91  94
ATOM     94  S   UNL A   1      51.097  25.796  31.279  1.00  0.00     0.127 S 
ATOM     95  O   UNL A   1      51.900  24.700  31.815  1.00  0.00    -0.237 OA
ATOM     96  O   UNL A   1      50.725  25.649  29.871  1.00  0.00    -0.237 OA
ATOM     97  O   UNL A   1      51.539  27.134  31.650  1.00  0.00    -0.744 OA
ENDBRANCH  91  94
ENDBRANCH  64  87
ENDBRANCH  38  39
ENDBRANCH  30  33
ENDBRANCH  28  29
ENDBRANCH  27  28
ENDBRANCH   1  27
TORSDOF 17
ENDMDL
