MODEL 1
REMARK VINA RESULT:     -11.3      0.000      0.000
REMARK SMILES CC[C@@H](C)[C@H](C(=O)NCCCCNC(=O)c1ccc(-c2c3nc(c(-c4cccc(S(=O)(=O)[O-])c4F)c4ccc([nH]4)c(-c4cccc(S(=O)(=O)[O-])c4F)c4nc(c(-c5cccc(S(=O)(=O)[O-])c5F)c5ccc2[nH]5)C=C4)C=C3)cc1)S(=O)(=O)c1cccc(OC)c1
REMARK SMILES IDX 10 1 9 2 8 3 6 4 7 5 5 7 3 8 4 9 2 10 1 11 79 12 80 13 81 14
REMARK SMILES IDX 82 15 83 16 89 17 84 18 86 19 85 20 87 21 88 22 11 23 12 24
REMARK SMILES IDX 13 25 14 26 15 28 16 29 17 30 78 31 18 32 77 33 19 34 20 35
REMARK SMILES IDX 21 36 71 37 22 38 76 39 70 40 72 41 23 42 75 43 69 44 68 45
REMARK SMILES IDX 24 47 56 48 36 49 55 50 37 51 40 52 54 53 73 54 38 55 39 56
REMARK SMILES IDX 53 58 74 59 41 60 25 61 26 62 34 63 27 64 29 65 35 66 28 67
REMARK SMILES IDX 30 68 31 69 32 70 33 71 57 72 58 73 66 74 59 75 61 76 67 77
REMARK SMILES IDX 60 78 62 79 63 80 64 81 65 82 42 83 43 84 51 85 44 86 46 87
REMARK SMILES IDX 52 88 45 89 47 90 48 91 49 92 50 93
REMARK H PARENT 8 6 13 27 72 46 40 57
REMARK Flexibility Score: inf
ROOT
ATOM      1  C   UNL A   1      36.759  22.802  24.227  1.00  0.00     0.023 C 
ENDROOT
BRANCH   1   2
ATOM      2  C   UNL A   1      35.686  23.563  24.992  1.00  0.00     0.116 C 
BRANCH   2   3
ATOM      3  N   UNL A   1      35.224  22.869  26.175  1.00  0.00    -0.355 N 
ATOM      4  C   UNL A   1      34.143  22.070  26.372  1.00  0.00     0.239 C 
ATOM      5  O   UNL A   1      34.222  21.302  27.340  1.00  0.00    -0.274 OA
ATOM      6  H   UNL A   1      35.788  22.997  26.972  1.00  0.00     0.163 HD
BRANCH   4   7
ATOM      7  C   UNL A   1      32.866  22.107  25.559  1.00  0.00     0.205 C 
BRANCH   7   8
ATOM      8  C   UNL A   1      32.565  20.940  24.572  1.00  0.00     0.014 C 
ATOM      9  C   UNL A   1      33.596  19.819  24.504  1.00  0.00     0.009 C 
BRANCH   8  10
ATOM     10  C   UNL A   1      32.213  21.516  23.172  1.00  0.00     0.002 C 
ATOM     11  C   UNL A   1      33.121  22.625  22.661  1.00  0.00     0.004 C 
ENDBRANCH   8  10
ENDBRANCH   7   8
BRANCH   7  12
ATOM     12  S   UNL A   1      31.484  22.860  26.378  1.00  0.00     0.190 S 
ATOM     13  O   UNL A   1      30.290  22.093  26.067  1.00  0.00    -0.223 OA
ATOM     14  O   UNL A   1      31.847  23.040  27.775  1.00  0.00    -0.223 OA
BRANCH  12  15
ATOM     15  C   UNL A   1      31.176  24.491  25.735  1.00  0.00     0.071 A 
ATOM     16  C   UNL A   1      30.645  24.628  24.446  1.00  0.00     0.020 A 
ATOM     17  C   UNL A   1      31.515  25.619  26.491  1.00  0.00     0.066 A 
ATOM     18  C   UNL A   1      30.408  25.900  23.929  1.00  0.00     0.005 A 
ATOM     19  C   UNL A   1      31.214  26.887  25.990  1.00  0.00     0.120 A 
ATOM     20  C   UNL A   1      30.689  27.026  24.703  1.00  0.00     0.046 A 
BRANCH  19  21
ATOM     21  O   UNL A   1      31.400  28.055  26.677  1.00  0.00    -0.497 OA
ATOM     22  C   UNL A   1      32.754  28.323  27.034  1.00  0.00     0.278 C 
ENDBRANCH  19  21
ENDBRANCH  12  15
ENDBRANCH   7  12
ENDBRANCH   4   7
ENDBRANCH   2   3
ENDBRANCH   1   2
BRANCH   1  23
ATOM     23  C   UNL A   1      37.139  21.446  24.828  1.00  0.00     0.023 C 
BRANCH  23  24
ATOM     24  C   UNL A   1      38.370  21.431  25.734  1.00  0.00     0.116 C 
BRANCH  24  25
ATOM     25  N   UNL A   1      39.088  20.165  25.764  1.00  0.00    -0.352 N 
ATOM     26  C   UNL A   1      40.400  19.963  26.146  1.00  0.00     0.251 C 
ATOM     27  H   UNL A   1      38.585  19.367  25.483  1.00  0.00     0.163 HD
ATOM     28  O   UNL A   1      40.902  18.856  26.133  1.00  0.00    -0.269 OA
BRANCH  26  29
ATOM     29  C   UNL A   1      41.188  21.156  26.519  1.00  0.00     0.039 A 
ATOM     30  C   UNL A   1      41.929  21.801  25.526  1.00  0.00     0.014 A 
ATOM     31  C   UNL A   1      41.066  21.702  27.798  1.00  0.00     0.014 A 
ATOM     32  C   UNL A   1      42.486  23.051  25.797  1.00  0.00     0.010 A 
ATOM     33  C   UNL A   1      41.579  22.971  28.048  1.00  0.00     0.010 A 
ATOM     34  C   UNL A   1      42.278  23.663  27.045  1.00  0.00    -0.014 A 
BRANCH  34  35
ATOM     35  C   UNL A   1      42.742  25.048  27.298  1.00  0.00     0.031 A 
ATOM     36  C   UNL A   1      41.829  26.046  27.948  1.00  0.00     0.074 A 
ATOM     37  C   UNL A   1      43.956  25.431  26.855  1.00  0.00     0.049 A 
ATOM     38  N   UNL A   1      42.058  27.298  28.241  1.00  0.00    -0.248 NA
ATOM     39  C   UNL A   1      40.475  25.585  28.292  1.00  0.00     0.031 C 
ATOM     40  C   UNL A   1      44.895  24.579  26.119  1.00  0.00     0.029 A 
ATOM     41  N   UNL A   1      44.599  26.640  26.934  1.00  0.00    -0.354 N 
ATOM     42  C   UNL A   1      40.873  27.784  28.779  1.00  0.00     0.074 A 
ATOM     43  C   UNL A   1      39.916  26.700  28.740  1.00  0.00     0.031 C 
ATOM     44  C   UNL A   1      45.992  25.293  25.816  1.00  0.00     0.029 A 
ATOM     45  C   UNL A   1      45.833  26.652  26.326  1.00  0.00     0.049 A 
ATOM     46  H   UNL A   1      44.214  27.426  27.385  1.00  0.00     0.167 HD
ATOM     47  C   UNL A   1      40.617  29.010  29.291  1.00  0.00     0.034 A 
ATOM     48  C   UNL A   1      46.738  27.644  26.202  1.00  0.00     0.034 A 
ATOM     49  C   UNL A   1      41.585  30.068  29.374  1.00  0.00     0.049 A 
ATOM     50  C   UNL A   1      46.453  28.976  26.841  1.00  0.00     0.074 A 
ATOM     51  C   UNL A   1      41.454  31.311  29.968  1.00  0.00     0.029 A 
ATOM     52  N   UNL A   1      42.865  30.011  28.844  1.00  0.00    -0.354 N 
ATOM     53  N   UNL A   1      45.397  29.354  27.522  1.00  0.00    -0.248 NA
ATOM     54  C   UNL A   1      47.498  30.005  26.734  1.00  0.00     0.031 C 
ATOM     55  C   UNL A   1      42.654  32.007  29.792  1.00  0.00     0.029 A 
ATOM     56  C   UNL A   1      43.533  31.196  29.092  1.00  0.00     0.049 A 
ATOM     57  H   UNL A   1      43.241  29.241  28.361  1.00  0.00     0.167 HD
ATOM     58  C   UNL A   1      45.665  30.648  27.952  1.00  0.00     0.074 A 
ATOM     59  C   UNL A   1      46.990  30.984  27.472  1.00  0.00     0.031 C 
ATOM     60  C   UNL A   1      44.877  31.491  28.664  1.00  0.00     0.034 A 
BRANCH  47  61
ATOM     61  C   UNL A   1      39.251  29.243  29.876  1.00  0.00     0.023 A 
ATOM     62  C   UNL A   1      38.944  28.696  31.138  1.00  0.00     0.012 A 
ATOM     63  C   UNL A   1      38.295  30.036  29.214  1.00  0.00     0.148 A 
ATOM     64  C   UNL A   1      37.695  28.908  31.720  1.00  0.00     0.002 A 
ATOM     65  C   UNL A   1      37.065  30.273  29.817  1.00  0.00     0.091 A 
ATOM     66  F   UNL A   1      38.596  30.525  28.002  1.00  0.00    -0.205 F 
ATOM     67  C   UNL A   1      36.760  29.703  31.065  1.00  0.00     0.022 A 
BRANCH  65  68
ATOM     68  S   UNL A   1      35.822  31.340  29.080  1.00  0.00     0.127 S 
ATOM     69  O   UNL A   1      34.942  31.599  30.218  1.00  0.00    -0.237 OA
ATOM     70  O   UNL A   1      36.616  32.492  28.649  1.00  0.00    -0.237 OA
ATOM     71  O   UNL A   1      35.236  30.571  27.991  1.00  0.00    -0.744 OA
ENDBRANCH  65  68
ENDBRANCH  47  61
BRANCH  48  72
ATOM     72  C   UNL A   1      48.041  27.380  25.529  1.00  0.00     0.023 A 
ATOM     73  C   UNL A   1      49.116  26.876  26.288  1.00  0.00     0.012 A 
ATOM     74  C   UNL A   1      48.214  27.587  24.147  1.00  0.00     0.148 A 
ATOM     75  C   UNL A   1      50.346  26.609  25.688  1.00  0.00     0.002 A 
ATOM     76  C   UNL A   1      49.428  27.271  23.547  1.00  0.00     0.091 A 
ATOM     77  F   UNL A   1      47.186  28.083  23.443  1.00  0.00    -0.205 F 
ATOM     78  C   UNL A   1      50.501  26.796  24.317  1.00  0.00     0.022 A 
BRANCH  76  79
ATOM     79  S   UNL A   1      49.657  27.356  21.766  1.00  0.00     0.127 S 
ATOM     80  O   UNL A   1      49.498  28.784  21.510  1.00  0.00    -0.237 OA
ATOM     81  O   UNL A   1      51.022  26.850  21.605  1.00  0.00    -0.237 OA
ATOM     82  O   UNL A   1      48.633  26.483  21.207  1.00  0.00    -0.744 OA
ENDBRANCH  76  79
ENDBRANCH  48  72
BRANCH  60  83
ATOM     83  C   UNL A   1      45.425  32.853  28.992  1.00  0.00     0.023 A 
ATOM     84  C   UNL A   1      46.161  33.035  30.180  1.00  0.00     0.012 A 
ATOM     85  C   UNL A   1      45.291  33.925  28.088  1.00  0.00     0.148 A 
ATOM     86  C   UNL A   1      46.738  34.270  30.472  1.00  0.00     0.002 A 
ATOM     87  C   UNL A   1      45.903  35.141  28.369  1.00  0.00     0.091 A 
ATOM     88  F   UNL A   1      44.566  33.739  26.976  1.00  0.00    -0.205 F 
ATOM     89  C   UNL A   1      46.620  35.318  29.563  1.00  0.00     0.022 A 
BRANCH  87  90
ATOM     90  S   UNL A   1      45.874  36.511  27.207  1.00  0.00     0.127 S 
ATOM     91  O   UNL A   1      44.448  36.823  27.147  1.00  0.00    -0.237 OA
ATOM     92  O   UNL A   1      46.691  37.518  27.885  1.00  0.00    -0.237 OA
ATOM     93  O   UNL A   1      46.460  35.997  25.976  1.00  0.00    -0.744 OA
ENDBRANCH  87  90
ENDBRANCH  60  83
ENDBRANCH  34  35
ENDBRANCH  26  29
ENDBRANCH  24  25
ENDBRANCH  23  24
ENDBRANCH   1  23
TORSDOF 19
ENDMDL
MODEL 2
REMARK VINA RESULT:     -11.2      2.354      8.074
REMARK SMILES CC[C@@H](C)[C@H](C(=O)NCCCCNC(=O)c1ccc(-c2c3nc(c(-c4cccc(S(=O)(=O)[O-])c4F)c4ccc([nH]4)c(-c4cccc(S(=O)(=O)[O-])c4F)c4nc(c(-c5cccc(S(=O)(=O)[O-])c5F)c5ccc2[nH]5)C=C4)C=C3)cc1)S(=O)(=O)c1cccc(OC)c1
REMARK SMILES IDX 10 1 9 2 8 3 6 4 7 5 5 7 3 8 4 9 2 10 1 11 79 12 80 13 81 14
REMARK SMILES IDX 82 15 83 16 89 17 84 18 86 19 85 20 87 21 88 22 11 23 12 24
REMARK SMILES IDX 13 25 14 26 15 28 16 29 17 30 78 31 18 32 77 33 19 34 20 35
REMARK SMILES IDX 21 36 71 37 22 38 76 39 70 40 72 41 23 42 75 43 69 44 68 45
REMARK SMILES IDX 24 47 56 48 36 49 55 50 37 51 40 52 54 53 73 54 38 55 39 56
REMARK SMILES IDX 53 58 74 59 41 60 25 61 26 62 34 63 27 64 29 65 35 66 28 67
REMARK SMILES IDX 30 68 31 69 32 70 33 71 57 72 58 73 66 74 59 75 61 76 67 77
REMARK SMILES IDX 60 78 62 79 63 80 64 81 65 82 42 83 43 84 51 85 44 86 46 87
REMARK SMILES IDX 52 88 45 89 47 90 48 91 49 92 50 93
REMARK H PARENT 8 6 13 27 72 46 40 57
REMARK Flexibility Score: inf
ROOT
ATOM      1  C   UNL A   1      36.199  22.923  23.387  1.00  0.00     0.023 C 
ENDROOT
BRANCH   1   2
ATOM      2  C   UNL A   1      35.014  23.874  23.475  1.00  0.00     0.116 C 
BRANCH   2   3
ATOM      3  N   UNL A   1      33.735  23.196  23.473  1.00  0.00    -0.355 N 
ATOM      4  C   UNL A   1      32.468  23.686  23.449  1.00  0.00     0.239 C 
ATOM      5  O   UNL A   1      31.603  22.898  23.046  1.00  0.00    -0.274 OA
ATOM      6  H   UNL A   1      33.792  22.213  23.494  1.00  0.00     0.163 HD
BRANCH   4   7
ATOM      7  C   UNL A   1      32.051  25.060  23.933  1.00  0.00     0.205 C 
BRANCH   7   8
ATOM      8  C   UNL A   1      32.246  25.423  25.434  1.00  0.00     0.014 C 
ATOM      9  C   UNL A   1      33.655  25.813  25.867  1.00  0.00     0.009 C 
BRANCH   8  10
ATOM     10  C   UNL A   1      31.632  24.309  26.327  1.00  0.00     0.002 C 
ATOM     11  C   UNL A   1      32.625  23.355  26.977  1.00  0.00     0.004 C 
ENDBRANCH   8  10
ENDBRANCH   7   8
BRANCH   7  12
ATOM     12  S   UNL A   1      32.260  26.361  22.744  1.00  0.00     0.190 S 
ATOM     13  O   UNL A   1      33.645  26.801  22.781  1.00  0.00    -0.223 OA
ATOM     14  O   UNL A   1      31.716  25.891  21.480  1.00  0.00    -0.223 OA
BRANCH  12  15
ATOM     15  C   UNL A   1      31.300  27.791  23.193  1.00  0.00     0.071 A 
ATOM     16  C   UNL A   1      31.801  28.676  24.157  1.00  0.00     0.020 A 
ATOM     17  C   UNL A   1      30.035  27.993  22.628  1.00  0.00     0.066 A 
ATOM     18  C   UNL A   1      31.054  29.794  24.522  1.00  0.00     0.005 A 
ATOM     19  C   UNL A   1      29.324  29.150  22.953  1.00  0.00     0.120 A 
ATOM     20  C   UNL A   1      29.820  30.031  23.917  1.00  0.00     0.046 A 
BRANCH  19  21
ATOM     21  O   UNL A   1      28.131  29.509  22.389  1.00  0.00    -0.497 OA
ATOM     22  C   UNL A   1      28.247  30.337  21.233  1.00  0.00     0.278 C 
ENDBRANCH  19  21
ENDBRANCH  12  15
ENDBRANCH   7  12
ENDBRANCH   4   7
ENDBRANCH   2   3
ENDBRANCH   1   2
BRANCH   1  23
ATOM     23  C   UNL A   1      36.126  21.712  24.322  1.00  0.00     0.023 C 
BRANCH  23  24
ATOM     24  C   UNL A   1      37.032  21.755  25.551  1.00  0.00     0.116 C 
BRANCH  24  25
ATOM     25  N   UNL A   1      38.117  20.784  25.542  1.00  0.00    -0.352 N 
ATOM     26  C   UNL A   1      39.385  20.949  26.063  1.00  0.00     0.251 C 
ATOM     27  H   UNL A   1      37.926  19.916  25.118  1.00  0.00     0.163 HD
ATOM     28  O   UNL A   1      40.218  20.066  26.000  1.00  0.00    -0.269 OA
BRANCH  26  29
ATOM     29  C   UNL A   1      39.708  22.265  26.653  1.00  0.00     0.039 A 
ATOM     30  C   UNL A   1      40.675  22.323  27.659  1.00  0.00     0.014 A 
ATOM     31  C   UNL A   1      39.165  23.429  26.105  1.00  0.00     0.014 A 
ATOM     32  C   UNL A   1      41.162  23.567  28.063  1.00  0.00     0.010 A 
ATOM     33  C   UNL A   1      39.690  24.663  26.474  1.00  0.00     0.010 A 
ATOM     34  C   UNL A   1      40.704  24.742  27.443  1.00  0.00    -0.014 A 
BRANCH  34  35
ATOM     35  C   UNL A   1      41.314  26.055  27.760  1.00  0.00     0.031 A 
ATOM     36  C   UNL A   1      42.732  26.346  27.363  1.00  0.00     0.074 A 
ATOM     37  C   UNL A   1      40.617  26.950  28.488  1.00  0.00     0.049 A 
ATOM     38  N   UNL A   1      43.432  27.432  27.562  1.00  0.00    -0.248 NA
ATOM     39  C   UNL A   1      43.467  25.272  26.678  1.00  0.00     0.031 C 
ATOM     40  C   UNL A   1      39.267  26.742  29.018  1.00  0.00     0.029 A 
ATOM     41  N   UNL A   1      40.957  28.203  28.932  1.00  0.00    -0.354 N 
ATOM     42  C   UNL A   1      44.696  27.165  27.050  1.00  0.00     0.074 A 
ATOM     43  C   UNL A   1      44.676  25.803  26.565  1.00  0.00     0.031 C 
ATOM     44  C   UNL A   1      38.895  27.829  29.713  1.00  0.00     0.029 A 
ATOM     45  C   UNL A   1      39.979  28.806  29.688  1.00  0.00     0.049 A 
ATOM     46  H   UNL A   1      41.820  28.630  28.728  1.00  0.00     0.167 HD
ATOM     47  C   UNL A   1      45.764  27.991  26.962  1.00  0.00     0.034 A 
ATOM     48  C   UNL A   1      39.955  30.015  30.285  1.00  0.00     0.034 A 
ATOM     49  C   UNL A   1      45.764  29.360  27.400  1.00  0.00     0.049 A 
ATOM     50  C   UNL A   1      41.131  30.938  30.111  1.00  0.00     0.074 A 
ATOM     51  C   UNL A   1      46.761  30.308  27.260  1.00  0.00     0.029 A 
ATOM     52  N   UNL A   1      44.716  29.975  28.066  1.00  0.00    -0.354 N 
ATOM     53  N   UNL A   1      42.246  30.736  29.450  1.00  0.00    -0.248 NA
ATOM     54  C   UNL A   1      41.031  32.270  30.726  1.00  0.00     0.031 C 
ATOM     55  C   UNL A   1      46.317  31.498  27.848  1.00  0.00     0.029 A 
ATOM     56  C   UNL A   1      45.042  31.289  28.349  1.00  0.00     0.049 A 
ATOM     57  H   UNL A   1      43.866  29.540  28.304  1.00  0.00     0.167 HD
ATOM     58  C   UNL A   1      42.963  31.924  29.541  1.00  0.00     0.074 A 
ATOM     59  C   UNL A   1      42.149  32.847  30.304  1.00  0.00     0.031 C 
ATOM     60  C   UNL A   1      44.194  32.217  29.053  1.00  0.00     0.034 A 
BRANCH  47  61
ATOM     61  C   UNL A   1      46.999  27.455  26.292  1.00  0.00     0.023 A 
ATOM     62  C   UNL A   1      47.195  27.703  24.918  1.00  0.00     0.012 A 
ATOM     63  C   UNL A   1      47.983  26.758  27.017  1.00  0.00     0.148 A 
ATOM     64  C   UNL A   1      48.338  27.238  24.269  1.00  0.00     0.002 A 
ATOM     65  C   UNL A   1      49.137  26.329  26.371  1.00  0.00     0.091 A 
ATOM     66  F   UNL A   1      47.765  26.508  28.317  1.00  0.00    -0.205 F 
ATOM     67  C   UNL A   1      49.312  26.560  24.996  1.00  0.00     0.022 A 
BRANCH  65  68
ATOM     68  S   UNL A   1      50.477  25.507  27.239  1.00  0.00     0.127 S 
ATOM     69  O   UNL A   1      49.825  24.283  27.699  1.00  0.00    -0.237 OA
ATOM     70  O   UNL A   1      51.463  25.309  26.174  1.00  0.00    -0.237 OA
ATOM     71  O   UNL A   1      50.897  26.429  28.284  1.00  0.00    -0.744 OA
ENDBRANCH  65  68
ENDBRANCH  47  61
BRANCH  48  72
ATOM     72  C   UNL A   1      38.735  30.458  31.016  1.00  0.00     0.023 A 
ATOM     73  C   UNL A   1      38.657  30.253  32.408  1.00  0.00     0.012 A 
ATOM     74  C   UNL A   1      37.674  31.108  30.358  1.00  0.00     0.148 A 
ATOM     75  C   UNL A   1      37.534  30.664  33.126  1.00  0.00     0.002 A 
ATOM     76  C   UNL A   1      36.579  31.558  31.088  1.00  0.00     0.091 A 
ATOM     77  F   UNL A   1      37.757  31.279  29.031  1.00  0.00    -0.205 F 
ATOM     78  C   UNL A   1      36.500  31.325  32.469  1.00  0.00     0.022 A 
BRANCH  76  79
ATOM     79  S   UNL A   1      35.274  32.538  30.335  1.00  0.00     0.127 S 
ATOM     80  O   UNL A   1      34.315  32.654  31.429  1.00  0.00    -0.237 OA
ATOM     81  O   UNL A   1      35.974  33.779  29.995  1.00  0.00    -0.237 OA
ATOM     82  O   UNL A   1      34.838  31.770  29.176  1.00  0.00    -0.744 OA
ENDBRANCH  76  79
ENDBRANCH  48  72
BRANCH  60  83
ATOM     83  C   UNL A   1      44.736  33.598  29.305  1.00  0.00     0.023 A 
ATOM     84  C   UNL A   1      45.431  33.860  30.502  1.00  0.00     0.012 A 
ATOM     85  C   UNL A   1      44.639  34.604  28.325  1.00  0.00     0.148 A 
ATOM     86  C   UNL A   1      46.002  35.111  30.728  1.00  0.00     0.002 A 
ATOM     87  C   UNL A   1      45.245  35.835  28.541  1.00  0.00     0.091 A 
ATOM     88  F   UNL A   1      43.952  34.342  27.203  1.00  0.00    -0.205 F 
ATOM     89  C   UNL A   1      45.921  36.093  29.745  1.00  0.00     0.022 A 
BRANCH  87  90
ATOM     90  S   UNL A   1      45.263  37.122  27.287  1.00  0.00     0.127 S 
ATOM     91  O   UNL A   1      46.037  36.490  26.221  1.00  0.00    -0.237 OA
ATOM     92  O   UNL A   1      43.840  37.292  26.988  1.00  0.00    -0.237 OA
ATOM     93  O   UNL A   1      45.884  38.279  27.918  1.00  0.00    -0.744 OA
ENDBRANCH  87  90
ENDBRANCH  60  83
ENDBRANCH  34  35
ENDBRANCH  26  29
ENDBRANCH  24  25
ENDBRANCH  23  24
ENDBRANCH   1  23
TORSDOF 19
ENDMDL
MODEL 3
REMARK VINA RESULT:     -11.2      1.727      7.935
REMARK SMILES CC[C@@H](C)[C@H](C(=O)NCCCCNC(=O)c1ccc(-c2c3nc(c(-c4cccc(S(=O)(=O)[O-])c4F)c4ccc([nH]4)c(-c4cccc(S(=O)(=O)[O-])c4F)c4nc(c(-c5cccc(S(=O)(=O)[O-])c5F)c5ccc2[nH]5)C=C4)C=C3)cc1)S(=O)(=O)c1cccc(OC)c1
REMARK SMILES IDX 10 1 9 2 8 3 6 4 7 5 5 7 3 8 4 9 2 10 1 11 79 12 80 13 81 14
REMARK SMILES IDX 82 15 83 16 89 17 84 18 86 19 85 20 87 21 88 22 11 23 12 24
REMARK SMILES IDX 13 25 14 26 15 28 16 29 17 30 78 31 18 32 77 33 19 34 20 35
REMARK SMILES IDX 21 36 71 37 22 38 76 39 70 40 72 41 23 42 75 43 69 44 68 45
REMARK SMILES IDX 24 47 56 48 36 49 55 50 37 51 40 52 54 53 73 54 38 55 39 56
REMARK SMILES IDX 53 58 74 59 41 60 25 61 26 62 34 63 27 64 29 65 35 66 28 67
REMARK SMILES IDX 30 68 31 69 32 70 33 71 57 72 58 73 66 74 59 75 61 76 67 77
REMARK SMILES IDX 60 78 62 79 63 80 64 81 65 82 42 83 43 84 51 85 44 86 46 87
REMARK SMILES IDX 52 88 45 89 47 90 48 91 49 92 50 93
REMARK H PARENT 8 6 13 27 72 46 40 57
REMARK Flexibility Score: inf
ROOT
ATOM      1  C   UNL A   1      34.259  22.425  24.016  1.00  0.00     0.023 C 
ENDROOT
BRANCH   1   2
ATOM      2  C   UNL A   1      33.139  22.345  25.044  1.00  0.00     0.116 C 
BRANCH   2   3
ATOM      3  N   UNL A   1      31.852  22.752  24.520  1.00  0.00    -0.355 N 
ATOM      4  C   UNL A   1      31.438  23.936  23.999  1.00  0.00     0.239 C 
ATOM      5  O   UNL A   1      30.439  23.873  23.272  1.00  0.00    -0.274 OA
ATOM      6  H   UNL A   1      31.159  22.053  24.547  1.00  0.00     0.163 HD
BRANCH   4   7
ATOM      7  C   UNL A   1      32.055  25.287  24.296  1.00  0.00     0.205 C 
BRANCH   7   8
ATOM      8  C   UNL A   1      32.436  26.221  23.109  1.00  0.00     0.014 C 
ATOM      9  C   UNL A   1      31.319  27.080  22.528  1.00  0.00     0.009 C 
BRANCH   8  10
ATOM     10  C   UNL A   1      33.192  25.405  22.023  1.00  0.00     0.002 C 
ATOM     11  C   UNL A   1      32.657  25.532  20.604  1.00  0.00     0.004 C 
ENDBRANCH   8  10
ENDBRANCH   7   8
BRANCH   7  12
ATOM     12  S   UNL A   1      31.476  26.057  25.786  1.00  0.00     0.190 S 
ATOM     13  O   UNL A   1      30.136  26.568  25.551  1.00  0.00    -0.223 OA
ATOM     14  O   UNL A   1      31.675  25.112  26.874  1.00  0.00    -0.223 OA
BRANCH  12  15
ATOM     15  C   UNL A   1      32.460  27.485  26.187  1.00  0.00     0.071 A 
ATOM     16  C   UNL A   1      33.849  27.345  26.309  1.00  0.00     0.020 A 
ATOM     17  C   UNL A   1      31.842  28.717  26.432  1.00  0.00     0.066 A 
ATOM     18  C   UNL A   1      34.628  28.454  26.630  1.00  0.00     0.005 A 
ATOM     19  C   UNL A   1      32.639  29.836  26.689  1.00  0.00     0.120 A 
ATOM     20  C   UNL A   1      34.023  29.697  26.816  1.00  0.00     0.046 A 
BRANCH  19  21
ATOM     21  O   UNL A   1      32.160  31.107  26.839  1.00  0.00    -0.497 OA
ATOM     22  C   UNL A   1      31.042  31.422  26.011  1.00  0.00     0.278 C 
ENDBRANCH  19  21
ENDBRANCH  12  15
ENDBRANCH   7  12
ENDBRANCH   4   7
ENDBRANCH   2   3
ENDBRANCH   1   2
BRANCH   1  23
ATOM     23  C   UNL A   1      35.570  23.021  24.536  1.00  0.00     0.023 C 
BRANCH  23  24
ATOM     24  C   UNL A   1      36.178  22.345  25.764  1.00  0.00     0.116 C 
BRANCH  24  25
ATOM     25  N   UNL A   1      37.221  21.373  25.469  1.00  0.00    -0.352 N 
ATOM     26  C   UNL A   1      38.560  21.468  25.792  1.00  0.00     0.251 C 
ATOM     27  H   UNL A   1      36.941  20.560  24.989  1.00  0.00     0.163 HD
ATOM     28  O   UNL A   1      39.348  20.591  25.495  1.00  0.00    -0.269 OA
BRANCH  26  29
ATOM     29  C   UNL A   1      39.009  22.705  26.464  1.00  0.00     0.039 A 
ATOM     30  C   UNL A   1      40.095  22.630  27.339  1.00  0.00     0.014 A 
ATOM     31  C   UNL A   1      38.451  23.934  26.109  1.00  0.00     0.014 A 
ATOM     32  C   UNL A   1      40.680  23.810  27.799  1.00  0.00     0.010 A 
ATOM     33  C   UNL A   1      39.069  25.108  26.528  1.00  0.00     0.010 A 
ATOM     34  C   UNL A   1      40.198  25.056  27.363  1.00  0.00    -0.014 A 
BRANCH  34  35
ATOM     35  C   UNL A   1      40.897  26.310  27.729  1.00  0.00     0.031 A 
ATOM     36  C   UNL A   1      42.324  26.529  27.319  1.00  0.00     0.074 A 
ATOM     37  C   UNL A   1      40.272  27.213  28.511  1.00  0.00     0.049 A 
ATOM     38  N   UNL A   1      43.097  27.557  27.554  1.00  0.00    -0.248 NA
ATOM     39  C   UNL A   1      42.977  25.443  26.571  1.00  0.00     0.031 C 
ATOM     40  C   UNL A   1      38.919  27.067  29.056  1.00  0.00     0.029 A 
ATOM     41  N   UNL A   1      40.699  28.419  29.006  1.00  0.00    -0.354 N 
ATOM     42  C   UNL A   1      44.331  27.234  27.006  1.00  0.00     0.074 A 
ATOM     43  C   UNL A   1      44.216  25.901  26.458  1.00  0.00     0.031 C 
ATOM     44  C   UNL A   1      38.630  28.141  29.809  1.00  0.00     0.029 A 
ATOM     45  C   UNL A   1      39.775  29.047  29.807  1.00  0.00     0.049 A 
ATOM     46  H   UNL A   1      41.585  28.800  28.805  1.00  0.00     0.167 HD
ATOM     47  C   UNL A   1      45.449  27.994  26.935  1.00  0.00     0.034 A 
ATOM     48  C   UNL A   1      39.839  30.225  30.460  1.00  0.00     0.034 A 
ATOM     49  C   UNL A   1      45.545  29.337  27.437  1.00  0.00     0.049 A 
ATOM     50  C   UNL A   1      41.070  31.078  30.307  1.00  0.00     0.074 A 
ATOM     51  C   UNL A   1      46.600  30.225  27.322  1.00  0.00     0.029 A 
ATOM     52  N   UNL A   1      44.550  29.986  28.151  1.00  0.00    -0.354 N 
ATOM     53  N   UNL A   1      42.158  30.837  29.616  1.00  0.00    -0.248 NA
ATOM     54  C   UNL A   1      41.066  32.383  30.985  1.00  0.00     0.031 C 
ATOM     55  C   UNL A   1      46.243  31.412  27.973  1.00  0.00     0.029 A 
ATOM     56  C   UNL A   1      44.965  31.262  28.488  1.00  0.00     0.049 A 
ATOM     57  H   UNL A   1      43.678  29.596  28.385  1.00  0.00     0.167 HD
ATOM     58  C   UNL A   1      42.952  31.970  29.748  1.00  0.00     0.074 A 
ATOM     59  C   UNL A   1      42.212  32.907  30.568  1.00  0.00     0.031 C 
ATOM     60  C   UNL A   1      44.191  32.207  29.251  1.00  0.00     0.034 A 
BRANCH  47  61
ATOM     61  C   UNL A   1      46.636  27.412  26.218  1.00  0.00     0.023 A 
ATOM     62  C   UNL A   1      47.417  26.434  26.866  1.00  0.00     0.012 A 
ATOM     63  C   UNL A   1      46.952  27.787  24.899  1.00  0.00     0.148 A 
ATOM     64  C   UNL A   1      48.513  25.859  26.224  1.00  0.00     0.002 A 
ATOM     65  C   UNL A   1      48.024  27.183  24.252  1.00  0.00     0.091 A 
ATOM     66  F   UNL A   1      46.214  28.739  24.309  1.00  0.00    -0.205 F 
ATOM     67  C   UNL A   1      48.810  26.227  24.915  1.00  0.00     0.022 A 
BRANCH  65  68
ATOM     68  S   UNL A   1      48.443  27.543  22.542  1.00  0.00     0.127 S 
ATOM     69  O   UNL A   1      49.711  28.253  22.692  1.00  0.00    -0.237 OA
ATOM     70  O   UNL A   1      48.559  26.203  21.962  1.00  0.00    -0.237 OA
ATOM     71  O   UNL A   1      47.335  28.331  22.020  1.00  0.00    -0.744 OA
ENDBRANCH  65  68
ENDBRANCH  47  61
BRANCH  48  72
ATOM     72  C   UNL A   1      38.662  30.710  31.234  1.00  0.00     0.023 A 
ATOM     73  C   UNL A   1      38.656  30.565  32.636  1.00  0.00     0.012 A 
ATOM     74  C   UNL A   1      37.573  31.342  30.605  1.00  0.00     0.148 A 
ATOM     75  C   UNL A   1      37.575  31.016  33.393  1.00  0.00     0.002 A 
ATOM     76  C   UNL A   1      36.521  31.833  31.372  1.00  0.00     0.091 A 
ATOM     77  F   UNL A   1      37.587  31.457  29.270  1.00  0.00    -0.205 F 
ATOM     78  C   UNL A   1      36.513  31.659  32.764  1.00  0.00     0.022 A 
BRANCH  76  79
ATOM     79  S   UNL A   1      35.186  32.793  30.647  1.00  0.00     0.127 S 
ATOM     80  O   UNL A   1      34.742  31.920  29.564  1.00  0.00    -0.237 OA
ATOM     81  O   UNL A   1      34.248  32.914  31.765  1.00  0.00    -0.237 OA
ATOM     82  O   UNL A   1      35.795  34.055  30.247  1.00  0.00    -0.744 OA
ENDBRANCH  76  79
ENDBRANCH  48  72
BRANCH  60  83
ATOM     83  C   UNL A   1      44.826  33.537  29.556  1.00  0.00     0.023 A 
ATOM     84  C   UNL A   1      45.624  33.675  30.708  1.00  0.00     0.012 A 
ATOM     85  C   UNL A   1      44.709  34.617  28.660  1.00  0.00     0.148 A 
ATOM     86  C   UNL A   1      46.278  34.875  30.976  1.00  0.00     0.002 A 
ATOM     87  C   UNL A   1      45.397  35.798  28.914  1.00  0.00     0.091 A 
ATOM     88  F   UNL A   1      43.925  34.475  27.582  1.00  0.00    -0.205 F 
ATOM     89  C   UNL A   1      46.176  35.932  30.075  1.00  0.00     0.022 A 
BRANCH  87  90
ATOM     90  S   UNL A   1      45.389  37.173  27.757  1.00  0.00     0.127 S 
ATOM     91  O   UNL A   1      43.993  37.601  27.811  1.00  0.00    -0.237 OA
ATOM     92  O   UNL A   1      46.337  38.106  28.368  1.00  0.00    -0.237 OA
ATOM     93  O   UNL A   1      45.831  36.619  26.484  1.00  0.00    -0.744 OA
ENDBRANCH  87  90
ENDBRANCH  60  83
ENDBRANCH  34  35
ENDBRANCH  26  29
ENDBRANCH  24  25
ENDBRANCH  23  24
ENDBRANCH   1  23
TORSDOF 19
ENDMDL
