MODEL 1
REMARK VINA RESULT:     -10.3      0.000      0.000
REMARK SMILES Cc1nsc(N(C)C(=O)[C@@H](C)CCC[C@H](C)[NH3+])c1C(=O)NCCCNC(=O)c1ccc(-c2c3nc(c(-c4cccc(S(=O)(=O)[O-])c4F)c4ccc([nH]4)c(-c4cccc(S(=O)(=O)[O-])c4F)c4nc(c(-c5cccc(S(=O)(=O)[O-])c5F)c5ccc2[nH]5)C=C4)C=C3)cc1
REMARK SMILES IDX 1 1 2 2 3 3 4 4 5 5 18 6 19 7 20 8 21 9 22 11 23 12 24 13
REMARK SMILES IDX 25 14 26 15 27 17 28 18 29 19 90 20 30 21 89 22 31 23 32 24
REMARK SMILES IDX 33 25 83 26 34 27 88 28 82 29 84 30 35 31 87 32 81 33 80 34
REMARK SMILES IDX 36 36 68 37 48 38 67 39 49 40 52 41 66 42 85 43 50 44 51 45
REMARK SMILES IDX 65 47 86 48 53 49 37 50 38 51 46 52 39 53 41 54 47 55 40 56
REMARK SMILES IDX 42 57 43 58 44 59 45 60 69 61 70 62 78 63 71 64 73 65 79 66
REMARK SMILES IDX 72 67 74 68 75 69 76 70 77 71 54 72 55 73 63 74 56 75 58 76
REMARK SMILES IDX 64 77 57 78 59 79 60 80 61 81 62 82 6 83 7 84 8 85 9 86
REMARK SMILES IDX 10 87 11 88 12 89 13 90 14 91 15 92 16 93 17 94
REMARK H PARENT 21 10 25 16 84 35 52 46 17 95 17 96 17 97
REMARK Flexibility Score: inf
ROOT
ATOM      1  C   UNL A   1      33.288  18.741  25.379  1.00  0.00     0.069 C 
ATOM      2  C   UNL A   1      33.087  20.156  24.923  1.00  0.00     0.066 A 
ATOM      3  N   UNL A   1      32.277  20.219  23.870  1.00  0.00    -0.195 NA
ATOM      4  S   UNL A   1      32.021  21.767  23.473  1.00  0.00    -0.017 S 
ATOM      5  C   UNL A   1      33.042  22.488  24.649  1.00  0.00     0.131 A 
ATOM      6  C   UNL A   1      33.607  21.453  25.429  1.00  0.00     0.097 A 
ENDROOT
BRANCH   6   7
ATOM      7  C   UNL A   1      34.451  21.744  26.612  1.00  0.00     0.256 C 
ATOM      8  O   UNL A   1      33.966  21.736  27.747  1.00  0.00    -0.269 OA
ATOM      9  N   UNL A   1      35.803  22.053  26.498  1.00  0.00    -0.352 N 
ATOM     10  H   UNL A   1      36.171  22.729  27.113  1.00  0.00     0.163 HD
BRANCH   9  11
ATOM     11  C   UNL A   1      36.703  21.459  25.552  1.00  0.00     0.118 C 
BRANCH  11  12
ATOM     12  C   UNL A   1      38.074  22.015  25.248  1.00  0.00     0.042 C 
BRANCH  12  13
ATOM     13  C   UNL A   1      39.103  21.758  26.304  1.00  0.00     0.118 C 
BRANCH  13  14
ATOM     14  N   UNL A   1      40.471  21.532  25.811  1.00  0.00    -0.352 N 
ATOM     15  C   UNL A   1      41.519  22.445  25.884  1.00  0.00     0.251 C 
ATOM     16  H   UNL A   1      40.661  20.661  25.394  1.00  0.00     0.163 HD
ATOM     17  O   UNL A   1      42.530  22.324  25.193  1.00  0.00    -0.269 OA
BRANCH  15  18
ATOM     18  C   UNL A   1      41.380  23.546  26.859  1.00  0.00     0.039 A 
ATOM     19  C   UNL A   1      42.144  23.674  28.016  1.00  0.00     0.014 A 
ATOM     20  C   UNL A   1      40.553  24.580  26.442  1.00  0.00     0.014 A 
ATOM     21  C   UNL A   1      42.077  24.888  28.703  1.00  0.00     0.010 A 
ATOM     22  C   UNL A   1      40.861  25.838  26.855  1.00  0.00     0.010 A 
ATOM     23  C   UNL A   1      41.435  25.986  28.091  1.00  0.00    -0.014 A 
BRANCH  23  24
ATOM     24  C   UNL A   1      41.506  27.356  28.587  1.00  0.00     0.031 A 
ATOM     25  C   UNL A   1      42.596  28.098  27.920  1.00  0.00     0.074 A 
ATOM     26  C   UNL A   1      40.604  27.924  29.429  1.00  0.00     0.049 A 
ATOM     27  N   UNL A   1      43.790  28.231  28.389  1.00  0.00    -0.248 NA
ATOM     28  C   UNL A   1      42.480  28.459  26.497  1.00  0.00     0.031 C 
ATOM     29  C   UNL A   1      39.332  27.391  29.947  1.00  0.00     0.029 A 
ATOM     30  N   UNL A   1      40.610  29.171  29.978  1.00  0.00    -0.354 N 
ATOM     31  C   UNL A   1      44.463  29.005  27.459  1.00  0.00     0.074 A 
ATOM     32  C   UNL A   1      43.724  28.873  26.234  1.00  0.00     0.031 C 
ATOM     33  C   UNL A   1      38.606  28.384  30.521  1.00  0.00     0.029 A 
ATOM     34  C   UNL A   1      39.414  29.589  30.570  1.00  0.00     0.049 A 
ATOM     35  H   UNL A   1      41.411  29.745  29.960  1.00  0.00     0.167 HD
ATOM     36  C   UNL A   1      45.358  29.932  27.897  1.00  0.00     0.034 A 
ATOM     37  C   UNL A   1      39.129  30.822  31.083  1.00  0.00     0.034 A 
ATOM     38  C   UNL A   1      45.676  29.702  29.294  1.00  0.00     0.049 A 
ATOM     39  C   UNL A   1      40.430  31.460  31.389  1.00  0.00     0.074 A 
ATOM     40  C   UNL A   1      46.184  28.640  30.019  1.00  0.00     0.029 A 
ATOM     41  N   UNL A   1      45.009  30.494  30.199  1.00  0.00    -0.354 N 
ATOM     42  N   UNL A   1      41.228  31.015  32.317  1.00  0.00    -0.248 NA
ATOM     43  C   UNL A   1      41.052  32.235  30.328  1.00  0.00     0.031 C 
ATOM     44  C   UNL A   1      45.403  28.602  31.213  1.00  0.00     0.029 A 
ATOM     45  C   UNL A   1      44.548  29.705  31.218  1.00  0.00     0.049 A 
ATOM     46  H   UNL A   1      44.885  31.468  30.127  1.00  0.00     0.167 HD
ATOM     47  C   UNL A   1      42.469  30.993  31.698  1.00  0.00     0.074 A 
ATOM     48  C   UNL A   1      42.313  31.825  30.499  1.00  0.00     0.031 C 
ATOM     49  C   UNL A   1      43.398  30.048  32.025  1.00  0.00     0.034 A 
BRANCH  36  50
ATOM     50  C   UNL A   1      45.584  31.287  27.263  1.00  0.00     0.023 A 
ATOM     51  C   UNL A   1      46.928  31.634  26.992  1.00  0.00     0.012 A 
ATOM     52  C   UNL A   1      44.631  32.328  27.192  1.00  0.00     0.148 A 
ATOM     53  C   UNL A   1      47.313  32.956  26.748  1.00  0.00     0.002 A 
ATOM     54  C   UNL A   1      45.008  33.631  26.889  1.00  0.00     0.091 A 
ATOM     55  F   UNL A   1      43.360  32.104  27.528  1.00  0.00    -0.205 F 
ATOM     56  C   UNL A   1      46.352  33.956  26.699  1.00  0.00     0.022 A 
BRANCH  54  57
ATOM     57  S   UNL A   1      43.811  34.971  26.783  1.00  0.00     0.127 S 
ATOM     58  O   UNL A   1      43.084  34.615  25.568  1.00  0.00    -0.237 OA
ATOM     59  O   UNL A   1      43.065  34.795  28.028  1.00  0.00    -0.237 OA
ATOM     60  O   UNL A   1      44.591  36.200  26.717  1.00  0.00    -0.744 OA
ENDBRANCH  54  57
ENDBRANCH  36  50
BRANCH  37  61
ATOM     61  C   UNL A   1      37.886  31.652  31.042  1.00  0.00     0.023 A 
ATOM     62  C   UNL A   1      36.920  31.436  30.027  1.00  0.00     0.012 A 
ATOM     63  C   UNL A   1      37.485  32.387  32.176  1.00  0.00     0.148 A 
ATOM     64  C   UNL A   1      35.598  31.891  30.165  1.00  0.00     0.002 A 
ATOM     65  C   UNL A   1      36.167  32.825  32.315  1.00  0.00     0.091 A 
ATOM     66  F   UNL A   1      38.373  32.573  33.160  1.00  0.00    -0.205 F 
ATOM     67  C   UNL A   1      35.217  32.569  31.317  1.00  0.00     0.022 A 
BRANCH  65  68
ATOM     68  S   UNL A   1      35.587  33.651  33.803  1.00  0.00     0.127 S 
ATOM     69  O   UNL A   1      36.129  34.999  33.634  1.00  0.00    -0.237 OA
ATOM     70  O   UNL A   1      34.137  33.554  33.658  1.00  0.00    -0.237 OA
ATOM     71  O   UNL A   1      36.160  32.910  34.919  1.00  0.00    -0.744 OA
ENDBRANCH  65  68
ENDBRANCH  37  61
BRANCH  49  72
ATOM     72  C   UNL A   1      43.131  29.187  33.239  1.00  0.00     0.023 A 
ATOM     73  C   UNL A   1      42.258  28.075  33.240  1.00  0.00     0.012 A 
ATOM     74  C   UNL A   1      43.894  29.445  34.387  1.00  0.00     0.148 A 
ATOM     75  C   UNL A   1      42.131  27.264  34.374  1.00  0.00     0.002 A 
ATOM     76  C   UNL A   1      43.795  28.616  35.496  1.00  0.00     0.091 A 
ATOM     77  F   UNL A   1      44.725  30.497  34.366  1.00  0.00    -0.205 F 
ATOM     78  C   UNL A   1      42.906  27.531  35.501  1.00  0.00     0.022 A 
BRANCH  76  79
ATOM     79  S   UNL A   1      44.843  28.858  36.929  1.00  0.00     0.127 S 
ATOM     80  O   UNL A   1      44.074  28.198  37.982  1.00  0.00    -0.237 OA
ATOM     81  O   UNL A   1      46.071  28.163  36.539  1.00  0.00    -0.237 OA
ATOM     82  O   UNL A   1      44.998  30.301  37.077  1.00  0.00    -0.744 OA
ENDBRANCH  76  79
ENDBRANCH  49  72
ENDBRANCH  23  24
ENDBRANCH  15  18
ENDBRANCH  13  14
ENDBRANCH  12  13
ENDBRANCH  11  12
ENDBRANCH   9  11
ENDBRANCH   6   7
BRANCH   5  83
ATOM     83  N   UNL A   1      33.122  23.917  24.613  1.00  0.00    -0.305 N 
ATOM     84  C   UNL A   1      34.194  24.613  23.898  1.00  0.00     0.154 C 
BRANCH  83  85
ATOM     85  C   UNL A   1      32.216  24.647  25.397  1.00  0.00     0.230 C 
ATOM     86  O   UNL A   1      32.462  24.915  26.580  1.00  0.00    -0.274 OA
BRANCH  85  87
ATOM     87  C   UNL A   1      30.917  25.244  24.781  1.00  0.00     0.076 C 
ATOM     88  C   UNL A   1      29.901  25.640  25.858  1.00  0.00     0.018 C 
BRANCH  87  89
ATOM     89  C   UNL A   1      31.036  26.342  23.706  1.00  0.00     0.013 C 
BRANCH  89  90
ATOM     90  C   UNL A   1      30.710  27.766  24.178  1.00  0.00     0.007 C 
BRANCH  90  91
ATOM     91  C   UNL A   1      31.692  28.835  23.678  1.00  0.00     0.064 C 
BRANCH  91  92
ATOM     92  C   UNL A   1      33.176  28.495  23.953  1.00  0.00     0.177 C 
ATOM     93  C   UNL A   1      33.504  28.502  25.449  1.00  0.00     0.075 C 
BRANCH  92  94
ATOM     94  N   UNL A   1      34.057  29.427  23.235  1.00  0.00    -0.355 N 
ATOM     95  H   UNL A   1      34.674  28.902  22.615  1.00  0.00     0.344 HD
ATOM     96  H   UNL A   1      34.617  29.952  23.906  1.00  0.00     0.344 HD
ATOM     97  H   UNL A   1      33.492  30.073  22.684  1.00  0.00     0.344 HD
ENDBRANCH  92  94
ENDBRANCH  91  92
ENDBRANCH  90  91
ENDBRANCH  89  90
ENDBRANCH  87  89
ENDBRANCH  85  87
ENDBRANCH  83  85
ENDBRANCH   5  83
TORSDOF 21
ENDMDL
MODEL 2
REMARK VINA RESULT:      -9.5      5.258     13.066
REMARK SMILES Cc1nsc(N(C)C(=O)[C@@H](C)CCC[C@H](C)[NH3+])c1C(=O)NCCCNC(=O)c1ccc(-c2c3nc(c(-c4cccc(S(=O)(=O)[O-])c4F)c4ccc([nH]4)c(-c4cccc(S(=O)(=O)[O-])c4F)c4nc(c(-c5cccc(S(=O)(=O)[O-])c5F)c5ccc2[nH]5)C=C4)C=C3)cc1
REMARK SMILES IDX 1 1 2 2 3 3 4 4 5 5 18 6 19 7 20 8 21 9 22 11 23 12 24 13
REMARK SMILES IDX 25 14 26 15 27 17 28 18 29 19 90 20 30 21 89 22 31 23 32 24
REMARK SMILES IDX 33 25 83 26 34 27 88 28 82 29 84 30 35 31 87 32 81 33 80 34
REMARK SMILES IDX 36 36 68 37 48 38 67 39 49 40 52 41 66 42 85 43 50 44 51 45
REMARK SMILES IDX 65 47 86 48 53 49 37 50 38 51 46 52 39 53 41 54 47 55 40 56
REMARK SMILES IDX 42 57 43 58 44 59 45 60 69 61 70 62 78 63 71 64 73 65 79 66
REMARK SMILES IDX 72 67 74 68 75 69 76 70 77 71 54 72 55 73 63 74 56 75 58 76
REMARK SMILES IDX 64 77 57 78 59 79 60 80 61 81 62 82 6 83 7 84 8 85 9 86
REMARK SMILES IDX 10 87 11 88 12 89 13 90 14 91 15 92 16 93 17 94
REMARK H PARENT 21 10 25 16 84 35 52 46 17 95 17 96 17 97
REMARK Flexibility Score: inf
ROOT
ATOM      1  C   UNL A   1      44.968  43.115  29.893  1.00  0.00     0.069 C 
ATOM      2  C   UNL A   1      45.673  42.137  29.000  1.00  0.00     0.066 A 
ATOM      3  N   UNL A   1      46.903  41.876  29.436  1.00  0.00    -0.195 NA
ATOM      4  S   UNL A   1      47.587  40.753  28.494  1.00  0.00    -0.017 S 
ATOM      5  C   UNL A   1      46.303  40.568  27.370  1.00  0.00     0.131 A 
ATOM      6  C   UNL A   1      45.250  41.424  27.766  1.00  0.00     0.097 A 
ENDROOT
BRANCH   6   7
ATOM      7  C   UNL A   1      43.941  41.422  27.070  1.00  0.00     0.256 C 
ATOM      8  O   UNL A   1      43.882  41.541  25.843  1.00  0.00    -0.269 OA
ATOM      9  N   UNL A   1      42.737  41.305  27.758  1.00  0.00    -0.352 N 
ATOM     10  H   UNL A   1      41.969  41.826  27.426  1.00  0.00     0.163 HD
BRANCH   9  11
ATOM     11  C   UNL A   1      42.530  40.483  28.915  1.00  0.00     0.118 C 
BRANCH  11  12
ATOM     12  C   UNL A   1      42.784  38.994  28.931  1.00  0.00     0.042 C 
BRANCH  12  13
ATOM     13  C   UNL A   1      43.554  38.502  30.116  1.00  0.00     0.118 C 
BRANCH  13  14
ATOM     14  N   UNL A   1      45.015  38.460  29.948  1.00  0.00    -0.352 N 
ATOM     15  C   UNL A   1      45.847  37.419  30.351  1.00  0.00     0.251 C 
ATOM     16  H   UNL A   1      45.441  39.234  29.514  1.00  0.00     0.163 HD
ATOM     17  O   UNL A   1      47.063  37.572  30.465  1.00  0.00    -0.269 OA
BRANCH  15  18
ATOM     18  C   UNL A   1      45.208  36.111  30.597  1.00  0.00     0.039 A 
ATOM     19  C   UNL A   1      44.631  35.732  31.806  1.00  0.00     0.014 A 
ATOM     20  C   UNL A   1      45.040  35.332  29.461  1.00  0.00     0.014 A 
ATOM     21  C   UNL A   1      43.848  34.575  31.813  1.00  0.00     0.010 A 
ATOM     22  C   UNL A   1      43.950  34.521  29.408  1.00  0.00     0.010 A 
ATOM     23  C   UNL A   1      43.495  33.979  30.583  1.00  0.00    -0.014 A 
BRANCH  23  24
ATOM     24  C   UNL A   1      42.497  32.926  30.441  1.00  0.00     0.031 A 
ATOM     25  C   UNL A   1      41.140  33.455  30.689  1.00  0.00     0.074 A 
ATOM     26  C   UNL A   1      42.753  31.670  29.990  1.00  0.00     0.049 A 
ATOM     27  N   UNL A   1      40.528  33.406  31.824  1.00  0.00    -0.248 NA
ATOM     28  C   UNL A   1      40.520  34.380  29.726  1.00  0.00     0.031 C 
ATOM     29  C   UNL A   1      43.998  31.098  29.451  1.00  0.00     0.029 A 
ATOM     30  N   UNL A   1      41.902  30.613  29.867  1.00  0.00    -0.354 N 
ATOM     31  C   UNL A   1      39.294  33.992  31.598  1.00  0.00     0.074 A 
ATOM     32  C   UNL A   1      39.454  34.798  30.418  1.00  0.00     0.031 C 
ATOM     33  C   UNL A   1      43.747  29.905  28.854  1.00  0.00     0.029 A 
ATOM     34  C   UNL A   1      42.366  29.535  29.106  1.00  0.00     0.049 A 
ATOM     35  H   UNL A   1      41.012  30.608  30.289  1.00  0.00     0.167 HD
ATOM     36  C   UNL A   1      38.196  33.477  32.216  1.00  0.00     0.034 A 
ATOM     37  C   UNL A   1      41.671  28.417  28.740  1.00  0.00     0.034 A 
ATOM     38  C   UNL A   1      38.597  32.574  33.278  1.00  0.00     0.049 A 
ATOM     39  C   UNL A   1      40.553  28.286  29.703  1.00  0.00     0.074 A 
ATOM     40  C   UNL A   1      39.377  32.686  34.414  1.00  0.00     0.029 A 
ATOM     41  N   UNL A   1      38.566  31.234  32.970  1.00  0.00    -0.354 N 
ATOM     42  N   UNL A   1      40.741  28.024  30.965  1.00  0.00    -0.248 NA
ATOM     43  C   UNL A   1      39.310  28.960  29.368  1.00  0.00     0.031 C 
ATOM     44  C   UNL A   1      40.152  31.487  34.448  1.00  0.00     0.029 A 
ATOM     45  C   UNL A   1      39.724  30.654  33.414  1.00  0.00     0.049 A 
ATOM     46  H   UNL A   1      37.832  30.769  32.509  1.00  0.00     0.167 HD
ATOM     47  C   UNL A   1      39.929  28.943  31.613  1.00  0.00     0.074 A 
ATOM     48  C   UNL A   1      39.015  29.442  30.579  1.00  0.00     0.031 C 
ATOM     49  C   UNL A   1      40.282  29.455  32.828  1.00  0.00     0.034 A 
BRANCH  36  50
ATOM     50  C   UNL A   1      36.816  33.390  31.602  1.00  0.00     0.023 A 
ATOM     51  C   UNL A   1      36.686  32.552  30.471  1.00  0.00     0.012 A 
ATOM     52  C   UNL A   1      35.744  34.274  31.867  1.00  0.00     0.148 A 
ATOM     53  C   UNL A   1      35.593  32.646  29.605  1.00  0.00     0.002 A 
ATOM     54  C   UNL A   1      34.630  34.323  31.038  1.00  0.00     0.091 A 
ATOM     55  F   UNL A   1      35.831  35.163  32.856  1.00  0.00    -0.205 F 
ATOM     56  C   UNL A   1      34.565  33.535  29.887  1.00  0.00     0.022 A 
BRANCH  54  57
ATOM     57  S   UNL A   1      33.249  35.431  31.359  1.00  0.00     0.127 S 
ATOM     58  O   UNL A   1      32.498  35.328  30.111  1.00  0.00    -0.237 OA
ATOM     59  O   UNL A   1      32.624  34.791  32.516  1.00  0.00    -0.237 OA
ATOM     60  O   UNL A   1      33.839  36.734  31.638  1.00  0.00    -0.744 OA
ENDBRANCH  54  57
ENDBRANCH  36  50
BRANCH  37  61
ATOM     61  C   UNL A   1      41.656  27.629  27.471  1.00  0.00     0.023 A 
ATOM     62  C   UNL A   1      41.866  28.277  26.228  1.00  0.00     0.012 A 
ATOM     63  C   UNL A   1      41.792  26.226  27.504  1.00  0.00     0.148 A 
ATOM     64  C   UNL A   1      42.249  27.559  25.082  1.00  0.00     0.002 A 
ATOM     65  C   UNL A   1      42.186  25.519  26.367  1.00  0.00     0.091 A 
ATOM     66  F   UNL A   1      41.630  25.599  28.675  1.00  0.00    -0.205 F 
ATOM     67  C   UNL A   1      42.426  26.183  25.157  1.00  0.00     0.022 A 
BRANCH  65  68
ATOM     68  S   UNL A   1      42.498  23.748  26.404  1.00  0.00     0.127 S 
ATOM     69  O   UNL A   1      41.170  23.212  26.705  1.00  0.00    -0.237 OA
ATOM     70  O   UNL A   1      42.964  23.494  25.043  1.00  0.00    -0.237 OA
ATOM     71  O   UNL A   1      43.482  23.539  27.457  1.00  0.00    -0.744 OA
ENDBRANCH  65  68
ENDBRANCH  37  61
BRANCH  49  72
ATOM     72  C   UNL A   1      41.448  28.819  33.550  1.00  0.00     0.023 A 
ATOM     73  C   UNL A   1      41.373  27.586  34.235  1.00  0.00     0.012 A 
ATOM     74  C   UNL A   1      42.698  29.441  33.419  1.00  0.00     0.148 A 
ATOM     75  C   UNL A   1      42.516  27.009  34.803  1.00  0.00     0.002 A 
ATOM     76  C   UNL A   1      43.837  28.848  33.947  1.00  0.00     0.091 A 
ATOM     77  F   UNL A   1      42.755  30.606  32.757  1.00  0.00    -0.205 F 
ATOM     78  C   UNL A   1      43.751  27.637  34.651  1.00  0.00     0.022 A 
BRANCH  76  79
ATOM     79  S   UNL A   1      45.459  29.565  33.692  1.00  0.00     0.127 S 
ATOM     80  O   UNL A   1      45.533  29.637  32.235  1.00  0.00    -0.237 OA
ATOM     81  O   UNL A   1      45.337  30.860  34.364  1.00  0.00    -0.237 OA
ATOM     82  O   UNL A   1      46.406  28.654  34.323  1.00  0.00    -0.744 OA
ENDBRANCH  76  79
ENDBRANCH  49  72
ENDBRANCH  23  24
ENDBRANCH  15  18
ENDBRANCH  13  14
ENDBRANCH  12  13
ENDBRANCH  11  12
ENDBRANCH   9  11
ENDBRANCH   6   7
BRANCH   5  83
ATOM     83  N   UNL A   1      46.534  39.639  26.306  1.00  0.00    -0.305 N 
ATOM     84  C   UNL A   1      46.944  40.079  24.969  1.00  0.00     0.154 C 
BRANCH  83  85
ATOM     85  C   UNL A   1      46.230  38.288  26.534  1.00  0.00     0.230 C 
ATOM     86  O   UNL A   1      45.100  37.937  26.895  1.00  0.00    -0.274 OA
BRANCH  85  87
ATOM     87  C   UNL A   1      47.268  37.167  26.234  1.00  0.00     0.076 C 
ATOM     88  C   UNL A   1      48.653  37.504  26.798  1.00  0.00     0.018 C 
BRANCH  87  89
ATOM     89  C   UNL A   1      46.893  35.702  26.534  1.00  0.00     0.013 C 
BRANCH  89  90
ATOM     90  C   UNL A   1      46.100  34.985  25.433  1.00  0.00     0.007 C 
BRANCH  90  91
ATOM     91  C   UNL A   1      44.596  34.866  25.716  1.00  0.00     0.064 C 
BRANCH  91  92
ATOM     92  C   UNL A   1      44.010  33.470  25.394  1.00  0.00     0.177 C 
ATOM     93  C   UNL A   1      44.756  32.348  26.122  1.00  0.00     0.075 C 
BRANCH  92  94
ATOM     94  N   UNL A   1      44.021  33.231  23.944  1.00  0.00    -0.355 N 
ATOM     95  H   UNL A   1      44.814  32.635  23.704  1.00  0.00     0.344 HD
ATOM     96  H   UNL A   1      44.106  34.121  23.454  1.00  0.00     0.344 HD
ATOM     97  H   UNL A   1      43.154  32.772  23.669  1.00  0.00     0.344 HD
ENDBRANCH  92  94
ENDBRANCH  91  92
ENDBRANCH  90  91
ENDBRANCH  89  90
ENDBRANCH  87  89
ENDBRANCH  85  87
ENDBRANCH  83  85
ENDBRANCH   5  83
TORSDOF 21
ENDMDL
MODEL 3
REMARK VINA RESULT:      -9.4      6.768     13.450
REMARK SMILES Cc1nsc(N(C)C(=O)[C@@H](C)CCC[C@H](C)[NH3+])c1C(=O)NCCCNC(=O)c1ccc(-c2c3nc(c(-c4cccc(S(=O)(=O)[O-])c4F)c4ccc([nH]4)c(-c4cccc(S(=O)(=O)[O-])c4F)c4nc(c(-c5cccc(S(=O)(=O)[O-])c5F)c5ccc2[nH]5)C=C4)C=C3)cc1
REMARK SMILES IDX 1 1 2 2 3 3 4 4 5 5 18 6 19 7 20 8 21 9 22 11 23 12 24 13
REMARK SMILES IDX 25 14 26 15 27 17 28 18 29 19 90 20 30 21 89 22 31 23 32 24
REMARK SMILES IDX 33 25 83 26 34 27 88 28 82 29 84 30 35 31 87 32 81 33 80 34
REMARK SMILES IDX 36 36 68 37 48 38 67 39 49 40 52 41 66 42 85 43 50 44 51 45
REMARK SMILES IDX 65 47 86 48 53 49 37 50 38 51 46 52 39 53 41 54 47 55 40 56
REMARK SMILES IDX 42 57 43 58 44 59 45 60 69 61 70 62 78 63 71 64 73 65 79 66
REMARK SMILES IDX 72 67 74 68 75 69 76 70 77 71 54 72 55 73 63 74 56 75 58 76
REMARK SMILES IDX 64 77 57 78 59 79 60 80 61 81 62 82 6 83 7 84 8 85 9 86
REMARK SMILES IDX 10 87 11 88 12 89 13 90 14 91 15 92 16 93 17 94
REMARK H PARENT 21 10 25 16 84 35 52 46 17 95 17 96 17 97
REMARK Flexibility Score: inf
ROOT
ATOM      1  C   UNL A   1      48.185  20.026  33.712  1.00  0.00     0.069 C 
ATOM      2  C   UNL A   1      47.605  20.149  35.091  1.00  0.00     0.066 A 
ATOM      3  N   UNL A   1      46.411  19.568  35.172  1.00  0.00    -0.195 NA
ATOM      4  S   UNL A   1      45.869  19.649  36.694  1.00  0.00    -0.017 S 
ATOM      5  C   UNL A   1      47.174  20.539  37.366  1.00  0.00     0.131 A 
ATOM      6  C   UNL A   1      48.117  20.772  36.339  1.00  0.00     0.097 A 
ENDROOT
BRANCH   6   7
ATOM      7  C   UNL A   1      49.422  21.420  36.614  1.00  0.00     0.256 C 
ATOM      8  O   UNL A   1      50.474  20.900  36.231  1.00  0.00    -0.269 OA
ATOM      9  N   UNL A   1      49.521  22.614  37.322  1.00  0.00    -0.352 N 
ATOM     10  H   UNL A   1      50.285  22.720  37.934  1.00  0.00     0.163 HD
BRANCH   9  11
ATOM     11  C   UNL A   1      48.593  23.703  37.225  1.00  0.00     0.118 C 
BRANCH  11  12
ATOM     12  C   UNL A   1      48.541  24.648  36.048  1.00  0.00     0.042 C 
BRANCH  12  13
ATOM     13  C   UNL A   1      47.444  25.665  36.109  1.00  0.00     0.118 C 
BRANCH  13  14
ATOM     14  N   UNL A   1      46.239  25.251  36.845  1.00  0.00    -0.352 N 
ATOM     15  C   UNL A   1      44.928  25.419  36.411  1.00  0.00     0.251 C 
ATOM     16  H   UNL A   1      46.372  24.820  37.720  1.00  0.00     0.163 HD
ATOM     17  O   UNL A   1      43.975  25.342  37.187  1.00  0.00    -0.269 OA
BRANCH  15  18
ATOM     18  C   UNL A   1      44.727  25.656  34.967  1.00  0.00     0.039 A 
ATOM     19  C   UNL A   1      44.678  26.915  34.375  1.00  0.00     0.014 A 
ATOM     20  C   UNL A   1      44.786  24.511  34.185  1.00  0.00     0.014 A 
ATOM     21  C   UNL A   1      44.737  26.976  32.981  1.00  0.00     0.010 A 
ATOM     22  C   UNL A   1      45.287  24.632  32.927  1.00  0.00     0.010 A 
ATOM     23  C   UNL A   1      45.066  25.809  32.258  1.00  0.00    -0.014 A 
BRANCH  23  24
ATOM     24  C   UNL A   1      45.395  25.792  30.837  1.00  0.00     0.031 A 
ATOM     25  C   UNL A   1      46.680  26.478  30.590  1.00  0.00     0.074 A 
ATOM     26  C   UNL A   1      44.703  25.108  29.889  1.00  0.00     0.049 A 
ATOM     27  N   UNL A   1      46.799  27.717  30.251  1.00  0.00    -0.248 NA
ATOM     28  C   UNL A   1      47.941  25.869  31.044  1.00  0.00     0.031 C 
ATOM     29  C   UNL A   1      43.577  24.170  30.036  1.00  0.00     0.029 A 
ATOM     30  N   UNL A   1      44.905  25.068  28.542  1.00  0.00    -0.354 N 
ATOM     31  C   UNL A   1      48.160  27.927  30.108  1.00  0.00     0.074 A 
ATOM     32  C   UNL A   1      48.797  26.880  30.860  1.00  0.00     0.031 C 
ATOM     33  C   UNL A   1      43.373  23.496  28.875  1.00  0.00     0.029 A 
ATOM     34  C   UNL A   1      44.230  24.059  27.847  1.00  0.00     0.049 A 
ATOM     35  H   UNL A   1      45.492  25.713  28.084  1.00  0.00     0.167 HD
ATOM     36  C   UNL A   1      48.601  28.739  29.109  1.00  0.00     0.034 A 
ATOM     37  C   UNL A   1      44.351  23.738  26.526  1.00  0.00     0.034 A 
ATOM     38  C   UNL A   1      47.497  29.506  28.563  1.00  0.00     0.049 A 
ATOM     39  C   UNL A   1      44.892  24.939  25.850  1.00  0.00     0.074 A 
ATOM     40  C   UNL A   1      46.568  30.388  29.082  1.00  0.00     0.029 A 
ATOM     41  N   UNL A   1      46.952  29.024  27.396  1.00  0.00    -0.354 N 
ATOM     42  N   UNL A   1      44.218  26.048  25.745  1.00  0.00    -0.248 NA
ATOM     43  C   UNL A   1      46.338  25.061  25.776  1.00  0.00     0.031 C 
ATOM     44  C   UNL A   1      45.333  30.031  28.459  1.00  0.00     0.029 A 
ATOM     45  C   UNL A   1      45.587  29.043  27.508  1.00  0.00     0.049 A 
ATOM     46  H   UNL A   1      47.459  28.718  26.610  1.00  0.00     0.167 HD
ATOM     47  C   UNL A   1      45.131  27.023  26.121  1.00  0.00     0.074 A 
ATOM     48  C   UNL A   1      46.440  26.364  26.056  1.00  0.00     0.031 C 
ATOM     49  C   UNL A   1      44.721  28.156  26.763  1.00  0.00     0.034 A 
BRANCH  36  50
ATOM     50  C   UNL A   1      49.867  28.522  28.309  1.00  0.00     0.023 A 
ATOM     51  C   UNL A   1      50.710  29.645  28.156  1.00  0.00     0.012 A 
ATOM     52  C   UNL A   1      50.128  27.410  27.475  1.00  0.00     0.148 A 
ATOM     53  C   UNL A   1      51.703  29.694  27.172  1.00  0.00     0.002 A 
ATOM     54  C   UNL A   1      51.155  27.438  26.539  1.00  0.00     0.091 A 
ATOM     55  F   UNL A   1      49.319  26.350  27.489  1.00  0.00    -0.205 F 
ATOM     56  C   UNL A   1      51.923  28.590  26.361  1.00  0.00     0.022 A 
BRANCH  54  57
ATOM     57  S   UNL A   1      51.513  26.033  25.473  1.00  0.00     0.127 S 
ATOM     58  O   UNL A   1      51.731  24.973  26.454  1.00  0.00    -0.237 OA
ATOM     59  O   UNL A   1      50.273  25.925  24.706  1.00  0.00    -0.237 OA
ATOM     60  O   UNL A   1      52.678  26.415  24.685  1.00  0.00    -0.744 OA
ENDBRANCH  54  57
ENDBRANCH  36  50
BRANCH  37  61
ATOM     61  C   UNL A   1      44.366  22.419  25.822  1.00  0.00     0.023 A 
ATOM     62  C   UNL A   1      45.565  21.938  25.239  1.00  0.00     0.012 A 
ATOM     63  C   UNL A   1      43.326  21.491  26.031  1.00  0.00     0.148 A 
ATOM     64  C   UNL A   1      45.734  20.579  24.926  1.00  0.00     0.002 A 
ATOM     65  C   UNL A   1      43.504  20.139  25.732  1.00  0.00     0.091 A 
ATOM     66  F   UNL A   1      42.198  21.918  26.611  1.00  0.00    -0.205 F 
ATOM     67  C   UNL A   1      44.710  19.677  25.190  1.00  0.00     0.022 A 
BRANCH  65  68
ATOM     68  S   UNL A   1      42.250  18.905  26.105  1.00  0.00     0.127 S 
ATOM     69  O   UNL A   1      42.113  19.040  27.555  1.00  0.00    -0.237 OA
ATOM     70  O   UNL A   1      41.108  19.392  25.336  1.00  0.00    -0.237 OA
ATOM     71  O   UNL A   1      42.805  17.630  25.672  1.00  0.00    -0.744 OA
ENDBRANCH  65  68
ENDBRANCH  37  61
BRANCH  49  72
ATOM     72  C   UNL A   1      43.236  28.428  26.835  1.00  0.00     0.023 A 
ATOM     73  C   UNL A   1      42.483  28.976  25.773  1.00  0.00     0.012 A 
ATOM     74  C   UNL A   1      42.561  27.995  27.986  1.00  0.00     0.148 A 
ATOM     75  C   UNL A   1      41.092  29.115  25.875  1.00  0.00     0.002 A 
ATOM     76  C   UNL A   1      41.180  28.096  28.070  1.00  0.00     0.091 A 
ATOM     77  F   UNL A   1      43.290  27.468  28.981  1.00  0.00    -0.205 F 
ATOM     78  C   UNL A   1      40.440  28.667  27.022  1.00  0.00     0.022 A 
BRANCH  76  79
ATOM     79  S   UNL A   1      40.286  27.444  29.479  1.00  0.00     0.127 S 
ATOM     80  O   UNL A   1      40.354  26.004  29.241  1.00  0.00    -0.237 OA
ATOM     81  O   UNL A   1      41.092  27.917  30.606  1.00  0.00    -0.237 OA
ATOM     82  O   UNL A   1      38.951  28.027  29.415  1.00  0.00    -0.744 OA
ENDBRANCH  76  79
ENDBRANCH  49  72
ENDBRANCH  23  24
ENDBRANCH  15  18
ENDBRANCH  13  14
ENDBRANCH  12  13
ENDBRANCH  11  12
ENDBRANCH   9  11
ENDBRANCH   6   7
BRANCH   5  83
ATOM     83  N   UNL A   1      47.060  20.860  38.756  1.00  0.00    -0.305 N 
ATOM     84  C   UNL A   1      46.071  21.821  39.251  1.00  0.00     0.154 C 
BRANCH  83  85
ATOM     85  C   UNL A   1      48.015  20.326  39.635  1.00  0.00     0.230 C 
ATOM     86  O   UNL A   1      48.729  21.059  40.329  1.00  0.00    -0.274 OA
BRANCH  85  87
ATOM     87  C   UNL A   1      48.137  18.789  39.854  1.00  0.00     0.076 C 
ATOM     88  C   UNL A   1      48.931  18.452  41.121  1.00  0.00     0.018 C 
BRANCH  87  89
ATOM     89  C   UNL A   1      46.871  17.916  39.749  1.00  0.00     0.013 C 
BRANCH  89  90
ATOM     90  C   UNL A   1      46.668  16.908  40.890  1.00  0.00     0.007 C 
BRANCH  90  91
ATOM     91  C   UNL A   1      45.248  16.333  40.976  1.00  0.00     0.064 C 
BRANCH  91  92
ATOM     92  C   UNL A   1      44.391  16.595  39.715  1.00  0.00     0.177 C 
ATOM     93  C   UNL A   1      42.890  16.563  40.017  1.00  0.00     0.075 C 
BRANCH  92  94
ATOM     94  N   UNL A   1      44.718  15.623  38.662  1.00  0.00    -0.355 N 
ATOM     95  H   UNL A   1      43.885  15.432  38.105  1.00  0.00     0.344 HD
ATOM     96  H   UNL A   1      45.048  14.757  39.088  1.00  0.00     0.344 HD
ATOM     97  H   UNL A   1      45.448  16.006  38.061  1.00  0.00     0.344 HD
ENDBRANCH  92  94
ENDBRANCH  91  92
ENDBRANCH  90  91
ENDBRANCH  89  90
ENDBRANCH  87  89
ENDBRANCH  85  87
ENDBRANCH  83  85
ENDBRANCH   5  83
TORSDOF 21
ENDMDL
