MODEL 1
REMARK VINA RESULT:     -14.0      0.000      0.000
REMARK SMILES O=C(NCCCNC(=O)c1ccc(-c2c3nc(c(-c4cccc(S(=O)(=O)[O-])c4F)c4ccc([nH]4)c(-c4cccc(S(=O)(=O)[O-])c4F)c4nc(c(-c5cccc(S(=O)(=O)[O-])c5F)c5ccc2[nH]5)C=C4)C=C3)cc1)C1=Cc2cc(S(F)(F)(F)(F)F)ccc2O[C@@H]1C(F)(F)F
REMARK SMILES IDX 6 1 5 2 4 3 3 4 1 5 2 6 73 8 74 9 88 10 75 11 87 12 76 13
REMARK SMILES IDX 86 14 77 15 85 16 84 17 89 18 90 19 91 20 92 21 78 22 79 23
REMARK SMILES IDX 80 24 81 25 82 26 83 27 7 28 8 29 9 31 10 32 11 33 72 34
REMARK SMILES IDX 12 35 71 36 13 37 14 38 15 39 65 40 16 41 70 42 64 43 66 44
REMARK SMILES IDX 17 45 69 46 63 47 62 48 18 50 50 51 30 52 49 53 31 54 34 55
REMARK SMILES IDX 48 56 67 57 32 58 33 59 47 61 68 62 35 63 19 64 20 65 28 66
REMARK SMILES IDX 21 67 23 68 29 69 22 70 24 71 25 72 26 73 27 74 51 75 52 76
REMARK SMILES IDX 60 77 53 78 55 79 61 80 54 81 56 82 57 83 58 84 59 85 36 86
REMARK SMILES IDX 37 87 45 88 38 89 40 90 46 91 39 92 41 93 42 94 43 95 44 96
REMARK H PARENT 3 7 7 30 66 49 34 60
REMARK Flexibility Score: inf
ROOT
ATOM      1  C   UNL A   1      33.645  28.941  25.256  1.00  0.00     0.118 C 
ENDROOT
BRANCH   1   2
ATOM      2  C   UNL A   1      34.066  29.178  23.815  1.00  0.00     0.042 C 
BRANCH   2   3
ATOM      3  C   UNL A   1      32.988  28.656  22.880  1.00  0.00     0.118 C 
BRANCH   3   4
ATOM      4  N   UNL A   1      33.552  27.604  22.022  1.00  0.00    -0.352 N 
ATOM      5  O   UNL A   1      33.291  25.449  21.055  1.00  0.00    -0.270 OA
ATOM      6  C   UNL A   1      32.803  26.359  21.797  1.00  0.00     0.251 C 
ATOM      7  H   UNL A   1      34.432  27.733  21.598  1.00  0.00     0.163 HD
BRANCH   6   8
ATOM      8  C   UNL A   1      31.446  26.160  22.451  1.00  0.00     0.067 C 
ATOM      9  C   UNL A   1      31.182  25.015  23.135  1.00  0.00     0.025 C 
ATOM     10  C   UNL A   1      30.383  27.242  22.339  1.00  0.00     0.314 C 
ATOM     11  C   UNL A   1      32.243  23.934  23.245  1.00  0.00     0.019 A 
ATOM     12  O   UNL A   1      33.795  25.722  23.453  1.00  0.00    -0.475 OA
ATOM     13  C   UNL A   1      31.933  22.585  23.170  1.00  0.00     0.036 A 
ATOM     14  C   UNL A   1      33.472  24.342  23.542  1.00  0.00     0.128 A 
ATOM     15  C   UNL A   1      32.928  21.738  23.712  1.00  0.00     0.107 A 
ATOM     16  C   UNL A   1      34.433  23.442  23.933  1.00  0.00     0.048 A 
ATOM     17  C   UNL A   1      34.178  22.099  23.940  1.00  0.00     0.028 A 
BRANCH  10  18
ATOM     18  C   UNL A   1      30.004  27.724  23.729  1.00  0.00     0.429 C 
ATOM     19  F   UNL A   1      30.931  27.338  24.601  1.00  0.00    -0.167 F 
ATOM     20  F   UNL A   1      29.920  29.051  23.731  1.00  0.00    -0.167 F 
ATOM     21  F   UNL A   1      28.829  27.206  24.073  1.00  0.00    -0.167 F 
ENDBRANCH  10  18
BRANCH  15  22
ATOM     22  S   UNL A   1      32.454  20.040  24.121  1.00  0.00     0.310 S 
ATOM     23  F   UNL A   1      33.964  19.553  24.142  1.00  0.00    -0.094 F 
ATOM     24  F   UNL A   1      32.441  19.706  22.582  1.00  0.00    -0.094 F 
ATOM     25  F   UNL A   1      32.044  18.581  24.469  1.00  0.00    -0.094 F 
ATOM     26  F   UNL A   1      32.610  20.354  25.661  1.00  0.00    -0.094 F 
ATOM     27  F   UNL A   1      32.981  21.492  23.786  1.00  0.00    -0.094 F 
ENDBRANCH  15  22
ENDBRANCH   6   8
ENDBRANCH   3   4
ENDBRANCH   2   3
ENDBRANCH   1   2
BRANCH   1  28
ATOM     28  N   UNL A   1      32.686  29.978  25.663  1.00  0.00    -0.352 N 
ATOM     29  C   UNL A   1      33.023  30.905  26.754  1.00  0.00     0.251 C 
ATOM     30  H   UNL A   1      31.817  30.053  25.205  1.00  0.00     0.163 HD
ATOM     31  O   UNL A   1      32.194  31.801  27.106  1.00  0.00    -0.269 OA
BRANCH  29  32
ATOM     32  C   UNL A   1      34.364  30.789  27.461  1.00  0.00     0.039 A 
ATOM     33  C   UNL A   1      35.228  31.855  27.649  1.00  0.00     0.014 A 
ATOM     34  C   UNL A   1      34.615  29.597  27.988  1.00  0.00     0.014 A 
ATOM     35  C   UNL A   1      36.490  31.484  28.173  1.00  0.00     0.010 A 
ATOM     36  C   UNL A   1      35.816  29.344  28.606  1.00  0.00     0.010 A 
ATOM     37  C   UNL A   1      36.742  30.336  28.775  1.00  0.00    -0.014 A 
BRANCH  37  38
ATOM     38  C   UNL A   1      37.996  30.128  29.609  1.00  0.00     0.031 A 
ATOM     39  C   UNL A   1      38.956  29.277  29.058  1.00  0.00     0.074 A 
ATOM     40  C   UNL A   1      38.071  30.655  30.887  1.00  0.00     0.049 A 
ATOM     41  N   UNL A   1      40.092  28.861  29.619  1.00  0.00    -0.248 NA
ATOM     42  C   UNL A   1      38.861  28.689  27.713  1.00  0.00     0.031 C 
ATOM     43  C   UNL A   1      37.111  31.520  31.447  1.00  0.00     0.029 A 
ATOM     44  N   UNL A   1      39.055  30.451  31.829  1.00  0.00    -0.354 N 
ATOM     45  C   UNL A   1      40.760  28.072  28.775  1.00  0.00     0.074 A 
ATOM     46  C   UNL A   1      39.976  27.944  27.540  1.00  0.00     0.031 C 
ATOM     47  C   UNL A   1      37.504  31.823  32.712  1.00  0.00     0.029 A 
ATOM     48  C   UNL A   1      38.717  31.154  32.963  1.00  0.00     0.049 A 
ATOM     49  H   UNL A   1      39.861  29.898  31.711  1.00  0.00     0.167 HD
ATOM     50  C   UNL A   1      41.995  27.454  28.987  1.00  0.00     0.034 A 
ATOM     51  C   UNL A   1      39.412  31.219  34.161  1.00  0.00     0.034 A 
ATOM     52  C   UNL A   1      42.711  27.554  30.169  1.00  0.00     0.049 A 
ATOM     53  C   UNL A   1      40.619  30.554  34.393  1.00  0.00     0.074 A 
ATOM     54  C   UNL A   1      43.960  26.945  30.396  1.00  0.00     0.029 A 
ATOM     55  N   UNL A   1      42.361  28.238  31.312  1.00  0.00    -0.354 N 
ATOM     56  N   UNL A   1      41.305  29.798  33.536  1.00  0.00    -0.248 NA
ATOM     57  C   UNL A   1      41.348  30.590  35.668  1.00  0.00     0.031 C 
ATOM     58  C   UNL A   1      44.353  27.249  31.662  1.00  0.00     0.029 A 
ATOM     59  C   UNL A   1      43.356  28.052  32.246  1.00  0.00     0.049 A 
ATOM     60  H   UNL A   1      41.541  28.767  31.440  1.00  0.00     0.167 HD
ATOM     61  C   UNL A   1      42.422  29.347  34.113  1.00  0.00     0.074 A 
ATOM     62  C   UNL A   1      42.461  29.844  35.495  1.00  0.00     0.031 C 
ATOM     63  C   UNL A   1      43.411  28.545  33.541  1.00  0.00     0.034 A 
BRANCH  50  64
ATOM     64  C   UNL A   1      42.585  26.626  27.857  1.00  0.00     0.023 A 
ATOM     65  C   UNL A   1      43.340  27.294  26.908  1.00  0.00     0.012 A 
ATOM     66  C   UNL A   1      42.311  25.332  27.734  1.00  0.00     0.148 A 
ATOM     67  C   UNL A   1      43.521  26.571  25.707  1.00  0.00     0.002 A 
ATOM     68  C   UNL A   1      42.639  24.655  26.585  1.00  0.00     0.091 A 
ATOM     69  F   UNL A   1      41.715  24.687  28.732  1.00  0.00    -0.205 F 
ATOM     70  C   UNL A   1      43.333  25.269  25.580  1.00  0.00     0.022 A 
BRANCH  68  71
ATOM     71  S   UNL A   1      42.144  22.923  26.398  1.00  0.00     0.127 S 
ATOM     72  O   UNL A   1      42.706  22.104  27.561  1.00  0.00    -0.237 OA
ATOM     73  O   UNL A   1      40.616  22.828  26.396  1.00  0.00    -0.237 OA
ATOM     74  O   UNL A   1      42.755  22.312  24.923  1.00  0.00    -0.744 OA
ENDBRANCH  68  71
ENDBRANCH  50  64
BRANCH  51  75
ATOM     75  C   UNL A   1      38.829  32.060  35.284  1.00  0.00     0.023 A 
ATOM     76  C   UNL A   1      38.902  33.435  35.127  1.00  0.00     0.012 A 
ATOM     77  C   UNL A   1      38.210  31.519  36.326  1.00  0.00     0.148 A 
ATOM     78  C   UNL A   1      38.539  34.164  36.284  1.00  0.00     0.002 A 
ATOM     79  C   UNL A   1      37.760  32.305  37.360  1.00  0.00     0.091 A 
ATOM     80  F   UNL A   1      38.026  30.202  36.372  1.00  0.00    -0.205 F 
ATOM     81  C   UNL A   1      37.853  33.668  37.298  1.00  0.00     0.022 A 
BRANCH  79  82
ATOM     82  S   UNL A   1      37.031  31.526  38.821  1.00  0.00     0.127 S 
ATOM     83  O   UNL A   1      35.706  32.214  39.158  1.00  0.00    -0.237 OA
ATOM     84  O   UNL A   1      36.779  30.044  38.537  1.00  0.00    -0.237 OA
ATOM     85  O   UNL A   1      38.104  31.679  40.143  1.00  0.00    -0.744 OA
ENDBRANCH  79  82
ENDBRANCH  51  75
BRANCH  63  86
ATOM     86  C   UNL A   1      44.621  28.190  34.389  1.00  0.00     0.023 A 
ATOM     87  C   UNL A   1      45.688  29.058  34.547  1.00  0.00     0.012 A 
ATOM     88  C   UNL A   1      44.588  27.018  35.013  1.00  0.00     0.148 A 
ATOM     89  C   UNL A   1      46.819  28.470  35.162  1.00  0.00     0.002 A 
ATOM     90  C   UNL A   1      45.682  26.566  35.711  1.00  0.00     0.091 A 
ATOM     91  F   UNL A   1      43.486  26.275  34.961  1.00  0.00    -0.205 F 
ATOM     92  C   UNL A   1      46.795  27.347  35.856  1.00  0.00     0.022 A 
BRANCH  90  93
ATOM     93  S   UNL A   1      45.650  24.913  36.446  1.00  0.00     0.127 S 
ATOM     94  O   UNL A   1      46.935  24.684  37.245  1.00  0.00    -0.237 OA
ATOM     95  O   UNL A   1      44.442  24.793  37.378  1.00  0.00    -0.237 OA
ATOM     96  O   UNL A   1      45.533  23.740  35.207  1.00  0.00    -0.744 OA
ENDBRANCH  90  93
ENDBRANCH  63  86
ENDBRANCH  37  38
ENDBRANCH  29  32
ENDBRANCH   1  28
TORSDOF 15
ENDMDL
MODEL 2
REMARK VINA RESULT:     -13.8      5.104      9.682
REMARK SMILES O=C(NCCCNC(=O)c1ccc(-c2c3nc(c(-c4cccc(S(=O)(=O)[O-])c4F)c4ccc([nH]4)c(-c4cccc(S(=O)(=O)[O-])c4F)c4nc(c(-c5cccc(S(=O)(=O)[O-])c5F)c5ccc2[nH]5)C=C4)C=C3)cc1)C1=Cc2cc(S(F)(F)(F)(F)F)ccc2O[C@@H]1C(F)(F)F
REMARK SMILES IDX 6 1 5 2 4 3 3 4 1 5 2 6 73 8 74 9 88 10 75 11 87 12 76 13
REMARK SMILES IDX 86 14 77 15 85 16 84 17 89 18 90 19 91 20 92 21 78 22 79 23
REMARK SMILES IDX 80 24 81 25 82 26 83 27 7 28 8 29 9 31 10 32 11 33 72 34
REMARK SMILES IDX 12 35 71 36 13 37 14 38 15 39 65 40 16 41 70 42 64 43 66 44
REMARK SMILES IDX 17 45 69 46 63 47 62 48 18 50 50 51 30 52 49 53 31 54 34 55
REMARK SMILES IDX 48 56 67 57 32 58 33 59 47 61 68 62 35 63 19 64 20 65 28 66
REMARK SMILES IDX 21 67 23 68 29 69 22 70 24 71 25 72 26 73 27 74 51 75 52 76
REMARK SMILES IDX 60 77 53 78 55 79 61 80 54 81 56 82 57 83 58 84 59 85 36 86
REMARK SMILES IDX 37 87 45 88 38 89 40 90 46 91 39 92 41 93 42 94 43 95 44 96
REMARK H PARENT 3 7 7 30 66 49 34 60
REMARK Flexibility Score: inf
ROOT
ATOM      1  C   UNL A   1      36.732  22.597  25.091  1.00  0.00     0.118 C 
ENDROOT
BRANCH   1   2
ATOM      2  C   UNL A   1      36.540  22.989  23.635  1.00  0.00     0.042 C 
BRANCH   2   3
ATOM      3  C   UNL A   1      35.327  23.896  23.510  1.00  0.00     0.118 C 
BRANCH   3   4
ATOM      4  N   UNL A   1      34.993  24.452  24.829  1.00  0.00    -0.352 N 
ATOM      5  O   UNL A   1      33.303  25.213  26.315  1.00  0.00    -0.270 OA
ATOM      6  C   UNL A   1      33.592  24.732  25.175  1.00  0.00     0.251 C 
ATOM      7  H   UNL A   1      35.707  24.637  25.481  1.00  0.00     0.163 HD
BRANCH   6   8
ATOM      8  C   UNL A   1      32.489  24.447  24.169  1.00  0.00     0.067 C 
ATOM      9  C   UNL A   1      32.147  23.162  23.882  1.00  0.00     0.025 C 
ATOM     10  C   UNL A   1      31.770  25.597  23.483  1.00  0.00     0.314 C 
ATOM     11  C   UNL A   1      32.867  22.012  24.566  1.00  0.00     0.019 A 
ATOM     12  O   UNL A   1      32.851  23.386  26.505  1.00  0.00    -0.475 OA
ATOM     13  C   UNL A   1      33.201  20.847  23.895  1.00  0.00     0.036 A 
ATOM     14  C   UNL A   1      33.051  22.129  25.877  1.00  0.00     0.128 A 
ATOM     15  C   UNL A   1      33.458  19.748  24.748  1.00  0.00     0.107 A 
ATOM     16  C   UNL A   1      33.436  21.045  26.628  1.00  0.00     0.048 A 
ATOM     17  C   UNL A   1      33.725  19.847  26.037  1.00  0.00     0.028 A 
BRANCH  10  18
ATOM     18  C   UNL A   1      30.287  25.531  23.808  1.00  0.00     0.429 C 
ATOM     19  F   UNL A   1      29.726  24.536  23.125  1.00  0.00    -0.167 F 
ATOM     20  F   UNL A   1      30.127  25.318  25.111  1.00  0.00    -0.167 F 
ATOM     21  F   UNL A   1      29.708  26.680  23.473  1.00  0.00    -0.167 F 
ENDBRANCH  10  18
BRANCH  15  22
ATOM     22  S   UNL A   1      33.420  18.092  24.020  1.00  0.00     0.310 S 
ATOM     23  F   UNL A   1      33.342  17.396  25.443  1.00  0.00    -0.094 F 
ATOM     24  F   UNL A   1      34.988  18.031  24.153  1.00  0.00    -0.094 F 
ATOM     25  F   UNL A   1      33.391  16.670  23.391  1.00  0.00    -0.094 F 
ATOM     26  F   UNL A   1      31.841  18.113  24.024  1.00  0.00    -0.094 F 
ATOM     27  F   UNL A   1      33.427  19.488  24.760  1.00  0.00    -0.094 F 
ENDBRANCH  15  22
ENDBRANCH   6   8
ENDBRANCH   3   4
ENDBRANCH   2   3
ENDBRANCH   1   2
BRANCH   1  28
ATOM     28  N   UNL A   1      37.328  21.255  25.163  1.00  0.00    -0.352 N 
ATOM     29  C   UNL A   1      38.639  21.066  25.802  1.00  0.00     0.251 C 
ATOM     30  H   UNL A   1      36.849  20.482  24.784  1.00  0.00     0.163 HD
ATOM     31  O   UNL A   1      39.154  19.907  25.864  1.00  0.00    -0.269 OA
BRANCH  29  32
ATOM     32  C   UNL A   1      39.377  22.259  26.387  1.00  0.00     0.039 A 
ATOM     33  C   UNL A   1      40.349  22.156  27.369  1.00  0.00     0.014 A 
ATOM     34  C   UNL A   1      39.099  23.423  25.814  1.00  0.00     0.014 A 
ATOM     35  C   UNL A   1      40.775  23.402  27.887  1.00  0.00     0.010 A 
ATOM     36  C   UNL A   1      39.657  24.587  26.285  1.00  0.00     0.010 A 
ATOM     37  C   UNL A   1      40.580  24.565  27.293  1.00  0.00    -0.014 A 
BRANCH  37  38
ATOM     38  C   UNL A   1      41.341  25.814  27.710  1.00  0.00     0.031 A 
ATOM     39  C   UNL A   1      40.604  26.765  28.417  1.00  0.00     0.074 A 
ATOM     40  C   UNL A   1      42.639  26.011  27.269  1.00  0.00     0.049 A 
ATOM     41  N   UNL A   1      41.005  27.973  28.814  1.00  0.00    -0.248 NA
ATOM     42  C   UNL A   1      39.214  26.571  28.856  1.00  0.00     0.031 C 
ATOM     43  C   UNL A   1      43.392  25.054  26.562  1.00  0.00     0.029 A 
ATOM     44  N   UNL A   1      43.423  27.133  27.424  1.00  0.00    -0.354 N 
ATOM     45  C   UNL A   1      40.026  28.587  29.484  1.00  0.00     0.074 A 
ATOM     46  C   UNL A   1      38.858  27.696  29.514  1.00  0.00     0.031 C 
ATOM     47  C   UNL A   1      44.608  25.594  26.285  1.00  0.00     0.029 A 
ATOM     48  C   UNL A   1      44.635  26.898  26.815  1.00  0.00     0.049 A 
ATOM     49  H   UNL A   1      43.162  27.960  27.891  1.00  0.00     0.167 HD
ATOM     50  C   UNL A   1      40.062  29.853  30.071  1.00  0.00     0.034 A 
ATOM     51  C   UNL A   1      45.716  27.760  26.714  1.00  0.00     0.034 A 
ATOM     52  C   UNL A   1      41.158  30.698  30.007  1.00  0.00     0.049 A 
ATOM     53  C   UNL A   1      45.731  29.050  27.252  1.00  0.00     0.074 A 
ATOM     54  C   UNL A   1      41.214  31.974  30.600  1.00  0.00     0.029 A 
ATOM     55  N   UNL A   1      42.362  30.473  29.377  1.00  0.00    -0.354 N 
ATOM     56  N   UNL A   1      44.767  29.646  27.954  1.00  0.00    -0.248 NA
ATOM     57  C   UNL A   1      46.858  29.983  27.124  1.00  0.00     0.031 C 
ATOM     58  C   UNL A   1      42.431  32.514  30.323  1.00  0.00     0.029 A 
ATOM     59  C   UNL A   1      43.154  31.586  29.552  1.00  0.00     0.049 A 
ATOM     60  H   UNL A   1      42.612  29.657  28.885  1.00  0.00     0.167 HD
ATOM     61  C   UNL A   1      45.153  30.872  28.316  1.00  0.00     0.074 A 
ATOM     62  C   UNL A   1      46.501  31.109  27.780  1.00  0.00     0.031 C 
ATOM     63  C   UNL A   1      44.438  31.800  29.074  1.00  0.00     0.034 A 
BRANCH  50  64
ATOM     64  C   UNL A   1      38.830  30.330  30.821  1.00  0.00     0.023 A 
ATOM     65  C   UNL A   1      38.639  29.844  32.104  1.00  0.00     0.012 A 
ATOM     66  C   UNL A   1      37.924  31.107  30.237  1.00  0.00     0.148 A 
ATOM     67  C   UNL A   1      37.319  29.999  32.586  1.00  0.00     0.002 A 
ATOM     68  C   UNL A   1      36.704  31.326  30.831  1.00  0.00     0.091 A 
ATOM     69  F   UNL A   1      38.201  31.680  29.070  1.00  0.00    -0.205 F 
ATOM     70  C   UNL A   1      36.426  30.827  32.072  1.00  0.00     0.022 A 
BRANCH  68  71
ATOM     71  S   UNL A   1      35.447  32.290  29.954  1.00  0.00     0.127 S 
ATOM     72  O   UNL A   1      34.911  31.476  28.775  1.00  0.00    -0.237 OA
ATOM     73  O   UNL A   1      34.299  32.619  30.911  1.00  0.00    -0.237 OA
ATOM     74  O   UNL A   1      36.142  33.741  29.376  1.00  0.00    -0.744 OA
ENDBRANCH  68  71
ENDBRANCH  50  64
BRANCH  51  75
ATOM     75  C   UNL A   1      46.954  27.275  25.977  1.00  0.00     0.023 A 
ATOM     76  C   UNL A   1      47.851  26.516  26.712  1.00  0.00     0.012 A 
ATOM     77  C   UNL A   1      47.137  27.494  24.682  1.00  0.00     0.148 A 
ATOM     78  C   UNL A   1      49.074  26.270  26.045  1.00  0.00     0.002 A 
ATOM     79  C   UNL A   1      48.302  27.106  24.063  1.00  0.00     0.091 A 
ATOM     80  F   UNL A   1      46.186  28.098  23.974  1.00  0.00    -0.205 F 
ATOM     81  C   UNL A   1      49.258  26.405  24.743  1.00  0.00     0.022 A 
BRANCH  79  82
ATOM     82  S   UNL A   1      48.573  27.529  22.325  1.00  0.00     0.127 S 
ATOM     83  O   UNL A   1      47.418  28.400  21.825  1.00  0.00    -0.237 OA
ATOM     84  O   UNL A   1      49.889  28.297  22.186  1.00  0.00    -0.237 OA
ATOM     85  O   UNL A   1      48.649  26.096  21.395  1.00  0.00    -0.744 OA
ENDBRANCH  79  82
ENDBRANCH  51  75
BRANCH  63  86
ATOM     86  C   UNL A   1      45.106  33.127  29.395  1.00  0.00     0.023 A 
ATOM     87  C   UNL A   1      45.861  33.311  30.542  1.00  0.00     0.012 A 
ATOM     88  C   UNL A   1      44.969  34.095  28.498  1.00  0.00     0.148 A 
ATOM     89  C   UNL A   1      46.199  34.662  30.794  1.00  0.00     0.002 A 
ATOM     90  C   UNL A   1      45.445  35.359  28.754  1.00  0.00     0.091 A 
ATOM     91  F   UNL A   1      44.365  33.840  27.340  1.00  0.00    -0.205 F 
ATOM     92  C   UNL A   1      46.148  35.627  29.896  1.00  0.00     0.022 A 
BRANCH  90  93
ATOM     93  S   UNL A   1      45.134  36.687  27.565  1.00  0.00     0.127 S 
ATOM     94  O   UNL A   1      45.916  36.414  26.278  1.00  0.00    -0.237 OA
ATOM     95  O   UNL A   1      43.637  36.748  27.248  1.00  0.00    -0.237 OA
ATOM     96  O   UNL A   1      45.636  38.180  28.231  1.00  0.00    -0.744 OA
ENDBRANCH  90  93
ENDBRANCH  63  86
ENDBRANCH  37  38
ENDBRANCH  29  32
ENDBRANCH   1  28
TORSDOF 15
ENDMDL
MODEL 3
REMARK VINA RESULT:     -13.7      2.323      2.806
REMARK SMILES O=C(NCCCNC(=O)c1ccc(-c2c3nc(c(-c4cccc(S(=O)(=O)[O-])c4F)c4ccc([nH]4)c(-c4cccc(S(=O)(=O)[O-])c4F)c4nc(c(-c5cccc(S(=O)(=O)[O-])c5F)c5ccc2[nH]5)C=C4)C=C3)cc1)C1=Cc2cc(S(F)(F)(F)(F)F)ccc2O[C@@H]1C(F)(F)F
REMARK SMILES IDX 6 1 5 2 4 3 3 4 1 5 2 6 73 8 74 9 88 10 75 11 87 12 76 13
REMARK SMILES IDX 86 14 77 15 85 16 84 17 89 18 90 19 91 20 92 21 78 22 79 23
REMARK SMILES IDX 80 24 81 25 82 26 83 27 7 28 8 29 9 31 10 32 11 33 72 34
REMARK SMILES IDX 12 35 71 36 13 37 14 38 15 39 65 40 16 41 70 42 64 43 66 44
REMARK SMILES IDX 17 45 69 46 63 47 62 48 18 50 50 51 30 52 49 53 31 54 34 55
REMARK SMILES IDX 48 56 67 57 32 58 33 59 47 61 68 62 35 63 19 64 20 65 28 66
REMARK SMILES IDX 21 67 23 68 29 69 22 70 24 71 25 72 26 73 27 74 51 75 52 76
REMARK SMILES IDX 60 77 53 78 55 79 61 80 54 81 56 82 57 83 58 84 59 85 36 86
REMARK SMILES IDX 37 87 45 88 38 89 40 90 46 91 39 92 41 93 42 94 43 95 44 96
REMARK H PARENT 3 7 7 30 66 49 34 60
REMARK Flexibility Score: inf
ROOT
ATOM      1  C   UNL A   1      33.252  30.794  26.911  1.00  0.00     0.118 C 
ENDROOT
BRANCH   1   2
ATOM      2  C   UNL A   1      32.115  29.816  27.156  1.00  0.00     0.042 C 
BRANCH   2   3
ATOM      3  C   UNL A   1      32.671  28.404  27.240  1.00  0.00     0.118 C 
BRANCH   3   4
ATOM      4  N   UNL A   1      31.571  27.458  27.477  1.00  0.00    -0.352 N 
ATOM      5  O   UNL A   1      29.972  25.967  26.547  1.00  0.00    -0.270 OA
ATOM      6  C   UNL A   1      30.923  26.784  26.342  1.00  0.00     0.251 C 
ATOM      7  H   UNL A   1      31.266  27.276  28.396  1.00  0.00     0.163 HD
BRANCH   6   8
ATOM      8  C   UNL A   1      31.392  27.064  24.924  1.00  0.00     0.067 C 
ATOM      9  C   UNL A   1      32.439  26.370  24.404  1.00  0.00     0.025 C 
ATOM     10  C   UNL A   1      30.691  28.122  24.087  1.00  0.00     0.314 C 
ATOM     11  C   UNL A   1      33.141  25.313  25.241  1.00  0.00     0.019 A 
ATOM     12  O   UNL A   1      30.976  24.772  26.058  1.00  0.00    -0.475 OA
ATOM     13  C   UNL A   1      34.515  25.141  25.211  1.00  0.00     0.036 A 
ATOM     14  C   UNL A   1      32.356  24.477  25.913  1.00  0.00     0.128 A 
ATOM     15  C   UNL A   1      34.945  23.880  25.688  1.00  0.00     0.107 A 
ATOM     16  C   UNL A   1      32.870  23.332  26.471  1.00  0.00     0.048 A 
ATOM     17  C   UNL A   1      34.211  23.068  26.427  1.00  0.00     0.028 A 
BRANCH  10  18
ATOM     18  C   UNL A   1      30.120  27.479  22.834  1.00  0.00     0.429 C 
ATOM     19  F   UNL A   1      29.680  26.257  23.124  1.00  0.00    -0.167 F 
ATOM     20  F   UNL A   1      29.110  28.216  22.379  1.00  0.00    -0.167 F 
ATOM     21  F   UNL A   1      31.066  27.402  21.904  1.00  0.00    -0.167 F 
ENDBRANCH  10  18
BRANCH  15  22
ATOM     22  S   UNL A   1      36.619  23.343  25.255  1.00  0.00     0.310 S 
ATOM     23  F   UNL A   1      36.492  22.024  26.126  1.00  0.00    -0.094 F 
ATOM     24  F   UNL A   1      37.150  24.064  26.551  1.00  0.00    -0.094 F 
ATOM     25  F   UNL A   1      38.058  22.887  24.885  1.00  0.00    -0.094 F 
ATOM     26  F   UNL A   1      36.051  22.510  24.040  1.00  0.00    -0.094 F 
ATOM     27  F   UNL A   1      35.140  23.704  25.681  1.00  0.00    -0.094 F 
ENDBRANCH  15  22
ENDBRANCH   6   8
ENDBRANCH   3   4
ENDBRANCH   2   3
ENDBRANCH   1   2
BRANCH   1  28
ATOM     28  N   UNL A   1      32.785  32.163  27.174  1.00  0.00    -0.352 N 
ATOM     29  C   UNL A   1      33.596  33.070  28.001  1.00  0.00     0.251 C 
ATOM     30  H   UNL A   1      31.930  32.473  26.797  1.00  0.00     0.163 HD
ATOM     31  O   UNL A   1      33.193  34.253  28.229  1.00  0.00    -0.269 OA
BRANCH  29  32
ATOM     32  C   UNL A   1      34.915  32.591  28.583  1.00  0.00     0.039 A 
ATOM     33  C   UNL A   1      36.135  33.192  28.321  1.00  0.00     0.014 A 
ATOM     34  C   UNL A   1      34.811  31.599  29.460  1.00  0.00     0.014 A 
ATOM     35  C   UNL A   1      37.247  32.476  28.826  1.00  0.00     0.010 A 
ATOM     36  C   UNL A   1      35.933  31.037  30.018  1.00  0.00     0.010 A 
ATOM     37  C   UNL A   1      37.176  31.542  29.757  1.00  0.00    -0.014 A 
BRANCH  37  38
ATOM     38  C   UNL A   1      38.412  31.055  30.498  1.00  0.00     0.031 A 
ATOM     39  C   UNL A   1      39.144  30.053  29.860  1.00  0.00     0.074 A 
ATOM     40  C   UNL A   1      38.670  31.505  31.781  1.00  0.00     0.049 A 
ATOM     41  N   UNL A   1      40.205  29.396  30.331  1.00  0.00    -0.248 NA
ATOM     42  C   UNL A   1      38.851  29.550  28.510  1.00  0.00     0.031 C 
ATOM     43  C   UNL A   1      37.940  32.521  32.429  1.00  0.00     0.029 A 
ATOM     44  N   UNL A   1      39.648  31.071  32.648  1.00  0.00    -0.354 N 
ATOM     45  C   UNL A   1      40.648  28.524  29.423  1.00  0.00     0.074 A 
ATOM     46  C   UNL A   1      39.779  28.605  28.241  1.00  0.00     0.031 C 
ATOM     47  C   UNL A   1      38.464  32.689  33.672  1.00  0.00     0.029 A 
ATOM     48  C   UNL A   1      39.529  31.782  33.822  1.00  0.00     0.049 A 
ATOM     49  H   UNL A   1      40.318  30.374  32.461  1.00  0.00     0.167 HD
ATOM     50  C   UNL A   1      41.743  27.665  29.533  1.00  0.00     0.034 A 
ATOM     51  C   UNL A   1      40.296  31.659  34.970  1.00  0.00     0.034 A 
ATOM     52  C   UNL A   1      42.536  27.572  30.665  1.00  0.00     0.049 A 
ATOM     53  C   UNL A   1      41.356  30.758  35.102  1.00  0.00     0.074 A 
ATOM     54  C   UNL A   1      43.648  26.717  30.790  1.00  0.00     0.029 A 
ATOM     55  N   UNL A   1      42.402  28.266  31.848  1.00  0.00    -0.354 N 
ATOM     56  N   UNL A   1      41.822  29.915  34.179  1.00  0.00    -0.248 NA
ATOM     57  C   UNL A   1      42.154  30.596  36.324  1.00  0.00     0.031 C 
ATOM     58  C   UNL A   1      44.171  26.886  32.034  1.00  0.00     0.029 A 
ATOM     59  C   UNL A   1      43.394  27.848  32.706  1.00  0.00     0.049 A 
ATOM     60  H   UNL A   1      41.715  28.942  32.046  1.00  0.00     0.167 HD
ATOM     61  C   UNL A   1      42.857  29.227  34.666  1.00  0.00     0.074 A 
ATOM     62  C   UNL A   1      43.081  29.651  36.056  1.00  0.00     0.031 C 
ATOM     63  C   UNL A   1      43.627  28.268  34.008  1.00  0.00     0.034 A 
BRANCH  50  64
ATOM     64  C   UNL A   1      42.083  26.781  28.344  1.00  0.00     0.023 A 
ATOM     65  C   UNL A   1      41.359  25.611  28.194  1.00  0.00     0.012 A 
ATOM     66  C   UNL A   1      43.095  27.074  27.534  1.00  0.00     0.148 A 
ATOM     67  C   UNL A   1      41.966  24.667  27.334  1.00  0.00     0.002 A 
ATOM     68  C   UNL A   1      43.550  26.151  26.623  1.00  0.00     0.091 A 
ATOM     69  F   UNL A   1      43.673  28.269  27.606  1.00  0.00    -0.205 F 
ATOM     70  C   UNL A   1      42.918  24.950  26.463  1.00  0.00     0.022 A 
BRANCH  68  71
ATOM     71  S   UNL A   1      45.008  26.532  25.619  1.00  0.00     0.127 S 
ATOM     72  O   UNL A   1      45.265  25.387  24.637  1.00  0.00    -0.237 OA
ATOM     73  O   UNL A   1      44.766  27.828  24.841  1.00  0.00    -0.237 OA
ATOM     74  O   UNL A   1      46.366  26.724  26.639  1.00  0.00    -0.744 OA
ENDBRANCH  68  71
ENDBRANCH  50  64
BRANCH  51  75
ATOM     75  C   UNL A   1      39.965  32.554  36.153  1.00  0.00     0.023 A 
ATOM     76  C   UNL A   1      40.715  33.712  36.279  1.00  0.00     0.012 A 
ATOM     77  C   UNL A   1      38.961  32.291  36.980  1.00  0.00     0.148 A 
ATOM     78  C   UNL A   1      40.511  34.397  37.500  1.00  0.00     0.002 A 
ATOM     79  C   UNL A   1      38.735  33.082  38.082  1.00  0.00     0.091 A 
ATOM     80  F   UNL A   1      38.167  31.251  36.743  1.00  0.00    -0.205 F 
ATOM     81  C   UNL A   1      39.478  34.209  38.301  1.00  0.00     0.022 A 
BRANCH  79  82
ATOM     82  S   UNL A   1      37.438  32.626  39.257  1.00  0.00     0.127 S 
ATOM     83  O   UNL A   1      36.074  32.696  38.564  1.00  0.00    -0.237 OA
ATOM     84  O   UNL A   1      37.682  31.201  39.759  1.00  0.00    -0.237 OA
ATOM     85  O   UNL A   1      37.461  33.708  40.580  1.00  0.00    -0.744 OA
ENDBRANCH  79  82
ENDBRANCH  51  75
BRANCH  63  86
ATOM     86  C   UNL A   1      44.790  27.644  34.761  1.00  0.00     0.023 A 
ATOM     87  C   UNL A   1      46.049  28.222  34.778  1.00  0.00     0.012 A 
ATOM     88  C   UNL A   1      44.532  26.536  35.444  1.00  0.00     0.148 A 
ATOM     89  C   UNL A   1      47.055  27.388  35.319  1.00  0.00     0.002 A 
ATOM     90  C   UNL A   1      45.545  25.844  36.063  1.00  0.00     0.091 A 
ATOM     91  F   UNL A   1      43.282  26.090  35.529  1.00  0.00    -0.205 F 
ATOM     92  C   UNL A   1      46.824  26.326  36.069  1.00  0.00     0.022 A 
BRANCH  90  93
ATOM     93  S   UNL A   1      45.180  24.271  36.882  1.00  0.00     0.127 S 
ATOM     94  O   UNL A   1      46.490  23.571  37.249  1.00  0.00    -0.237 OA
ATOM     95  O   UNL A   1      44.369  24.534  38.153  1.00  0.00    -0.237 OA
ATOM     96  O   UNL A   1      44.277  23.274  35.826  1.00  0.00    -0.744 OA
ENDBRANCH  90  93
ENDBRANCH  63  86
ENDBRANCH  37  38
ENDBRANCH  29  32
ENDBRANCH   1  28
TORSDOF 15
ENDMDL
