MODEL 1
REMARK VINA RESULT:     -13.1      0.000      0.000
REMARK SMILES CC[NH2+][C@@]1(C(=O)NCCCNC(=O)c2ccc(-c3c4nc(c(-c5cccc(S(=O)(=O)[O-])c5F)c5ccc([nH]5)c(-c5cccc(S(=O)(=O)[O-])c5F)c5nc(c(-c6cccc(S(=O)(=O)[O-])c6F)c6ccc3[nH]6)C=C5)C=C4)cc2)CC[C@@H](n2cnc3ccccc32)C1
REMARK SMILES IDX 9 1 8 2 7 3 5 4 6 5 4 7 77 8 89 9 78 10 79 11 3 12 2 15 1 16
REMARK SMILES IDX 80 17 81 18 88 19 82 20 83 21 87 22 84 23 86 24 85 25 10 26
REMARK SMILES IDX 11 27 12 28 13 30 14 31 15 32 76 33 16 34 75 35 17 36 18 37
REMARK SMILES IDX 19 38 69 39 20 40 74 41 68 42 70 43 21 44 73 45 67 46 66 47
REMARK SMILES IDX 22 49 54 50 34 51 53 52 35 53 38 54 52 55 71 56 36 57 37 58
REMARK SMILES IDX 51 60 72 61 39 62 23 63 24 64 32 65 25 66 27 67 33 68 26 69
REMARK SMILES IDX 28 70 29 71 30 72 31 73 55 74 56 75 64 76 57 77 59 78 65 79
REMARK SMILES IDX 58 80 60 81 61 82 62 83 63 84 40 85 41 86 49 87 42 88 44 89
REMARK SMILES IDX 50 90 43 91 45 92 46 93 47 94 48 95
REMARK H PARENT 7 6 3 13 3 14 11 29 70 48 38 59
REMARK Flexibility Score: inf
ROOT
ATOM      1  C   UNL A   1      31.823  29.354  27.024  1.00  0.00     0.042 C 
ENDROOT
BRANCH   1   2
ATOM      2  C   UNL A   1      31.958  27.840  27.227  1.00  0.00     0.118 C 
BRANCH   2   3
ATOM      3  N   UNL A   1      30.811  27.046  26.761  1.00  0.00    -0.351 N 
ATOM      4  C   UNL A   1      30.588  25.796  26.210  1.00  0.00     0.281 C 
ATOM      5  O   UNL A   1      29.521  25.389  26.708  1.00  0.00    -0.268 OA
ATOM      6  H   UNL A   1      29.967  27.540  26.874  1.00  0.00     0.163 HD
BRANCH   4   7
ATOM      7  C   UNL A   1      31.698  24.906  25.010  1.00  0.00     0.177 C 
ATOM      8  C   UNL A   1      30.686  23.429  25.006  1.00  0.00     0.081 C 
ATOM      9  C   UNL A   1      32.628  24.119  26.368  1.00  0.00     0.104 C 
ATOM     10  C   UNL A   1      31.509  22.228  25.556  1.00  0.00     0.033 C 
ATOM     11  C   UNL A   1      32.928  22.734  25.873  1.00  0.00     0.096 C 
BRANCH   7  12
ATOM     12  N   UNL A   1      32.617  25.787  23.333  1.00  0.00    -0.334 N 
ATOM     13  H   UNL A   1      33.338  25.099  23.121  1.00  0.00     0.347 HD
ATOM     14  H   UNL A   1      31.719  26.101  22.963  1.00  0.00     0.347 HD
BRANCH  12  15
ATOM     15  C   UNL A   1      33.323  27.106  22.878  1.00  0.00     0.257 C 
ATOM     16  C   UNL A   1      32.361  28.288  23.032  1.00  0.00     0.071 C 
ENDBRANCH  12  15
ENDBRANCH   7  12
BRANCH  11  17
ATOM     17  N   UNL A   1      33.785  22.991  24.710  1.00  0.00    -0.327 N 
ATOM     18  C   UNL A   1      35.135  23.295  24.909  1.00  0.00     0.200 A 
ATOM     19  C   UNL A   1      33.730  21.894  23.827  1.00  0.00     0.068 A 
ATOM     20  N   UNL A   1      35.902  22.228  25.102  1.00  0.00    -0.237 NA
ATOM     21  C   UNL A   1      35.132  21.184  24.663  1.00  0.00     0.088 A 
ATOM     22  C   UNL A   1      32.392  20.784  23.169  1.00  0.00     0.028 A 
ATOM     23  C   UNL A   1      35.209  19.395  24.954  1.00  0.00     0.030 A 
ATOM     24  C   UNL A   1      32.548  18.992  23.357  1.00  0.00     0.002 A 
ATOM     25  C   UNL A   1      33.928  18.306  24.312  1.00  0.00     0.002 A 
ENDBRANCH  11  17
ENDBRANCH   4   7
ENDBRANCH   2   3
ENDBRANCH   1   2
BRANCH   1  26
ATOM     26  C   UNL A   1      33.036  29.966  26.364  1.00  0.00     0.118 C 
BRANCH  26  27
ATOM     27  N   UNL A   1      33.095  31.388  26.651  1.00  0.00    -0.352 N 
ATOM     28  C   UNL A   1      33.823  32.024  27.627  1.00  0.00     0.251 C 
ATOM     29  H   UNL A   1      32.545  31.969  26.076  1.00  0.00     0.163 HD
ATOM     30  O   UNL A   1      33.422  33.091  28.082  1.00  0.00    -0.269 OA
BRANCH  28  31
ATOM     31  C   UNL A   1      35.093  31.429  28.099  1.00  0.00     0.039 A 
ATOM     32  C   UNL A   1      35.141  30.075  28.436  1.00  0.00     0.014 A 
ATOM     33  C   UNL A   1      36.221  32.233  28.287  1.00  0.00     0.014 A 
ATOM     34  C   UNL A   1      36.314  29.544  28.976  1.00  0.00     0.010 A 
ATOM     35  C   UNL A   1      37.425  31.672  28.674  1.00  0.00     0.010 A 
ATOM     36  C   UNL A   1      37.463  30.343  29.102  1.00  0.00    -0.014 A 
BRANCH  36  37
ATOM     37  C   UNL A   1      38.682  29.850  29.783  1.00  0.00     0.031 A 
ATOM     38  C   UNL A   1      39.023  30.365  31.160  1.00  0.00     0.074 A 
ATOM     39  C   UNL A   1      39.498  28.989  29.148  1.00  0.00     0.049 A 
ATOM     40  N   UNL A   1      40.052  30.082  31.915  1.00  0.00    -0.248 NA
ATOM     41  C   UNL A   1      38.113  31.363  31.754  1.00  0.00     0.031 C 
ATOM     42  C   UNL A   1      39.311  28.494  27.784  1.00  0.00     0.029 A 
ATOM     43  N   UNL A   1      40.656  28.391  29.566  1.00  0.00    -0.354 N 
ATOM     44  C   UNL A   1      39.933  30.891  33.039  1.00  0.00     0.074 A 
ATOM     45  C   UNL A   1      38.770  31.724  32.843  1.00  0.00     0.031 C 
ATOM     46  C   UNL A   1      40.306  27.643  27.485  1.00  0.00     0.029 A 
ATOM     47  C   UNL A   1      41.215  27.561  28.624  1.00  0.00     0.049 A 
ATOM     48  H   UNL A   1      41.051  28.540  30.456  1.00  0.00     0.167 HD
ATOM     49  C   UNL A   1      40.696  30.913  34.157  1.00  0.00     0.034 A 
ATOM     50  C   UNL A   1      42.336  26.818  28.678  1.00  0.00     0.034 A 
ATOM     51  C   UNL A   1      41.821  30.046  34.362  1.00  0.00     0.049 A 
ATOM     52  C   UNL A   1      43.135  26.814  29.953  1.00  0.00     0.074 A 
ATOM     53  C   UNL A   1      42.619  29.918  35.483  1.00  0.00     0.029 A 
ATOM     54  N   UNL A   1      42.307  29.155  33.417  1.00  0.00    -0.354 N 
ATOM     55  N   UNL A   1      42.925  27.482  31.062  1.00  0.00    -0.248 NA
ATOM     56  C   UNL A   1      44.296  25.917  30.000  1.00  0.00     0.031 C 
ATOM     57  C   UNL A   1      43.612  28.973  35.202  1.00  0.00     0.029 A 
ATOM     58  C   UNL A   1      43.400  28.476  33.926  1.00  0.00     0.049 A 
ATOM     59  H   UNL A   1      41.931  29.024  32.517  1.00  0.00     0.167 HD
ATOM     60  C   UNL A   1      43.901  27.053  31.954  1.00  0.00     0.074 A 
ATOM     61  C   UNL A   1      44.685  26.051  31.259  1.00  0.00     0.031 C 
ATOM     62  C   UNL A   1      44.135  27.453  33.229  1.00  0.00     0.034 A 
BRANCH  49  63
ATOM     63  C   UNL A   1      40.310  31.877  35.251  1.00  0.00     0.023 A 
ATOM     64  C   UNL A   1      40.971  33.120  35.361  1.00  0.00     0.012 A 
ATOM     65  C   UNL A   1      39.271  31.570  36.150  1.00  0.00     0.148 A 
ATOM     66  C   UNL A   1      40.637  34.018  36.374  1.00  0.00     0.002 A 
ATOM     67  C   UNL A   1      38.906  32.493  37.124  1.00  0.00     0.091 A 
ATOM     68  F   UNL A   1      38.669  30.377  36.048  1.00  0.00    -0.205 F 
ATOM     69  C   UNL A   1      39.597  33.709  37.247  1.00  0.00     0.022 A 
BRANCH  67  70
ATOM     70  S   UNL A   1      37.525  32.229  38.242  1.00  0.00     0.127 S 
ATOM     71  O   UNL A   1      38.043  32.794  39.487  1.00  0.00    -0.237 OA
ATOM     72  O   UNL A   1      36.466  33.015  37.609  1.00  0.00    -0.237 OA
ATOM     73  O   UNL A   1      37.291  30.792  38.261  1.00  0.00    -0.744 OA
ENDBRANCH  67  70
ENDBRANCH  49  63
BRANCH  50  74
ATOM     74  C   UNL A   1      42.721  25.963  27.521  1.00  0.00     0.023 A 
ATOM     75  C   UNL A   1      43.589  26.472  26.536  1.00  0.00     0.012 A 
ATOM     76  C   UNL A   1      42.250  24.642  27.404  1.00  0.00     0.148 A 
ATOM     77  C   UNL A   1      43.944  25.699  25.431  1.00  0.00     0.002 A 
ATOM     78  C   UNL A   1      42.653  23.856  26.333  1.00  0.00     0.091 A 
ATOM     79  F   UNL A   1      41.424  24.177  28.353  1.00  0.00    -0.205 F 
ATOM     80  C   UNL A   1      43.484  24.387  25.334  1.00  0.00     0.022 A 
BRANCH  78  81
ATOM     81  S   UNL A   1      42.218  22.119  26.196  1.00  0.00     0.127 S 
ATOM     82  O   UNL A   1      42.968  21.717  25.009  1.00  0.00    -0.237 OA
ATOM     83  O   UNL A   1      42.726  21.583  27.459  1.00  0.00    -0.237 OA
ATOM     84  O   UNL A   1      40.767  22.084  26.070  1.00  0.00    -0.744 OA
ENDBRANCH  78  81
ENDBRANCH  50  74
BRANCH  62  85
ATOM     85  C   UNL A   1      45.245  26.761  33.974  1.00  0.00     0.023 A 
ATOM     86  C   UNL A   1      46.575  27.212  33.855  1.00  0.00     0.012 A 
ATOM     87  C   UNL A   1      44.956  25.680  34.831  1.00  0.00     0.148 A 
ATOM     88  C   UNL A   1      47.606  26.562  34.529  1.00  0.00     0.002 A 
ATOM     89  C   UNL A   1      45.981  25.076  35.547  1.00  0.00     0.091 A 
ATOM     90  F   UNL A   1      43.687  25.254  34.920  1.00  0.00    -0.205 F 
ATOM     91  C   UNL A   1      47.309  25.501  35.382  1.00  0.00     0.022 A 
BRANCH  89  92
ATOM     92  S   UNL A   1      45.671  23.777  36.747  1.00  0.00     0.127 S 
ATOM     93  O   UNL A   1      45.118  22.719  35.904  1.00  0.00    -0.237 OA
ATOM     94  O   UNL A   1      47.012  23.508  37.266  1.00  0.00    -0.237 OA
ATOM     95  O   UNL A   1      44.752  24.347  37.724  1.00  0.00    -0.744 OA
ENDBRANCH  89  92
ENDBRANCH  62  85
ENDBRANCH  36  37
ENDBRANCH  28  31
ENDBRANCH  26  27
ENDBRANCH   1  26
TORSDOF 16
ENDMDL
MODEL 2
REMARK VINA RESULT:     -13.0      1.653      2.025
REMARK SMILES CC[NH2+][C@@]1(C(=O)NCCCNC(=O)c2ccc(-c3c4nc(c(-c5cccc(S(=O)(=O)[O-])c5F)c5ccc([nH]5)c(-c5cccc(S(=O)(=O)[O-])c5F)c5nc(c(-c6cccc(S(=O)(=O)[O-])c6F)c6ccc3[nH]6)C=C5)C=C4)cc2)CC[C@@H](n2cnc3ccccc32)C1
REMARK SMILES IDX 9 1 8 2 7 3 5 4 6 5 4 7 77 8 89 9 78 10 79 11 3 12 2 15 1 16
REMARK SMILES IDX 80 17 81 18 88 19 82 20 83 21 87 22 84 23 86 24 85 25 10 26
REMARK SMILES IDX 11 27 12 28 13 30 14 31 15 32 76 33 16 34 75 35 17 36 18 37
REMARK SMILES IDX 19 38 69 39 20 40 74 41 68 42 70 43 21 44 73 45 67 46 66 47
REMARK SMILES IDX 22 49 54 50 34 51 53 52 35 53 38 54 52 55 71 56 36 57 37 58
REMARK SMILES IDX 51 60 72 61 39 62 23 63 24 64 32 65 25 66 27 67 33 68 26 69
REMARK SMILES IDX 28 70 29 71 30 72 31 73 55 74 56 75 64 76 57 77 59 78 65 79
REMARK SMILES IDX 58 80 60 81 61 82 62 83 63 84 40 85 41 86 49 87 42 88 44 89
REMARK SMILES IDX 50 90 43 91 45 92 46 93 47 94 48 95
REMARK H PARENT 7 6 3 13 3 14 11 29 70 48 38 59
REMARK Flexibility Score: inf
ROOT
ATOM      1  C   UNL A   1      31.180  31.033  25.715  1.00  0.00     0.042 C 
ENDROOT
BRANCH   1   2
ATOM      2  C   UNL A   1      31.385  29.663  25.058  1.00  0.00     0.118 C 
BRANCH   2   3
ATOM      3  N   UNL A   1      31.174  28.509  25.945  1.00  0.00    -0.351 N 
ATOM      4  C   UNL A   1      31.727  27.257  26.144  1.00  0.00     0.281 C 
ATOM      5  O   UNL A   1      31.706  27.067  27.375  1.00  0.00    -0.268 OA
ATOM      6  H   UNL A   1      30.432  28.674  26.572  1.00  0.00     0.163 HD
BRANCH   4   7
ATOM      7  C   UNL A   1      32.401  26.127  24.828  1.00  0.00     0.177 C 
ATOM      8  C   UNL A   1      31.068  24.946  25.009  1.00  0.00     0.081 C 
ATOM      9  C   UNL A   1      33.293  25.126  26.067  1.00  0.00     0.104 C 
ATOM     10  C   UNL A   1      31.641  23.576  25.474  1.00  0.00     0.033 C 
ATOM     11  C   UNL A   1      33.171  23.713  25.576  1.00  0.00     0.096 C 
BRANCH   7  12
ATOM     12  N   UNL A   1      33.261  26.763  23.015  1.00  0.00    -0.334 N 
ATOM     13  H   UNL A   1      32.913  27.719  22.958  1.00  0.00     0.347 HD
ATOM     14  H   UNL A   1      34.133  26.273  23.216  1.00  0.00     0.347 HD
BRANCH  12  15
ATOM     15  C   UNL A   1      33.339  26.385  21.499  1.00  0.00     0.257 C 
ATOM     16  C   UNL A   1      32.047  25.683  21.074  1.00  0.00     0.071 C 
ENDBRANCH  12  15
ENDBRANCH   7  12
BRANCH  11  17
ATOM     17  N   UNL A   1      33.890  23.756  24.298  1.00  0.00    -0.327 N 
ATOM     18  C   UNL A   1      35.253  24.069  24.291  1.00  0.00     0.200 A 
ATOM     19  C   UNL A   1      33.740  22.527  23.625  1.00  0.00     0.068 A 
ATOM     20  N   UNL A   1      36.041  23.039  24.575  1.00  0.00    -0.237 NA
ATOM     21  C   UNL A   1      35.230  21.948  24.408  1.00  0.00     0.088 A 
ATOM     22  C   UNL A   1      32.342  21.342  23.318  1.00  0.00     0.028 A 
ATOM     23  C   UNL A   1      35.347  20.232  24.988  1.00  0.00     0.030 A 
ATOM     24  C   UNL A   1      32.526  19.605  23.789  1.00  0.00     0.002 A 
ATOM     25  C   UNL A   1      34.006  19.070  24.687  1.00  0.00     0.002 A 
ENDBRANCH  11  17
ENDBRANCH   4   7
ENDBRANCH   2   3
ENDBRANCH   1   2
BRANCH   1  26
ATOM     26  C   UNL A   1      32.155  31.294  26.840  1.00  0.00     0.118 C 
BRANCH  26  27
ATOM     27  N   UNL A   1      32.369  32.722  26.992  1.00  0.00    -0.352 N 
ATOM     28  C   UNL A   1      33.216  33.361  27.864  1.00  0.00     0.251 C 
ATOM     29  H   UNL A   1      31.843  33.304  26.396  1.00  0.00     0.163 HD
ATOM     30  O   UNL A   1      32.950  34.498  28.241  1.00  0.00    -0.269 OA
BRANCH  28  31
ATOM     31  C   UNL A   1      34.450  32.682  28.319  1.00  0.00     0.039 A 
ATOM     32  C   UNL A   1      34.396  31.348  28.728  1.00  0.00     0.014 A 
ATOM     33  C   UNL A   1      35.649  33.392  28.419  1.00  0.00     0.014 A 
ATOM     34  C   UNL A   1      35.541  30.744  29.250  1.00  0.00     0.010 A 
ATOM     35  C   UNL A   1      36.816  32.748  28.790  1.00  0.00     0.010 A 
ATOM     36  C   UNL A   1      36.758  31.445  29.288  1.00  0.00    -0.014 A 
BRANCH  36  37
ATOM     37  C   UNL A   1      37.959  30.882  29.948  1.00  0.00     0.031 A 
ATOM     38  C   UNL A   1      38.290  31.292  31.363  1.00  0.00     0.074 A 
ATOM     39  C   UNL A   1      38.769  30.054  29.264  1.00  0.00     0.049 A 
ATOM     40  N   UNL A   1      39.303  30.937  32.109  1.00  0.00    -0.248 NA
ATOM     41  C   UNL A   1      37.389  32.261  32.015  1.00  0.00     0.031 C 
ATOM     42  C   UNL A   1      38.593  29.661  27.865  1.00  0.00     0.029 A 
ATOM     43  N   UNL A   1      39.911  29.406  29.652  1.00  0.00    -0.354 N 
ATOM     44  C   UNL A   1      39.182  31.666  33.286  1.00  0.00     0.074 A 
ATOM     45  C   UNL A   1      38.036  32.532  33.135  1.00  0.00     0.031 C 
ATOM     46  C   UNL A   1      39.577  28.815  27.520  1.00  0.00     0.029 A 
ATOM     47  C   UNL A   1      40.469  28.636  28.661  1.00  0.00     0.049 A 
ATOM     48  H   UNL A   1      40.295  29.484  30.556  1.00  0.00     0.167 HD
ATOM     49  C   UNL A   1      39.929  31.594  34.412  1.00  0.00     0.034 A 
ATOM     50  C   UNL A   1      41.576  27.870  28.676  1.00  0.00     0.034 A 
ATOM     51  C   UNL A   1      41.036  30.693  34.569  1.00  0.00     0.049 A 
ATOM     52  C   UNL A   1      42.356  27.760  29.957  1.00  0.00     0.074 A 
ATOM     53  C   UNL A   1      41.816  30.472  35.688  1.00  0.00     0.029 A 
ATOM     54  N   UNL A   1      41.520  29.863  33.569  1.00  0.00    -0.354 N 
ATOM     55  N   UNL A   1      42.142  28.352  31.109  1.00  0.00    -0.248 NA
ATOM     56  C   UNL A   1      43.500  26.841  29.955  1.00  0.00     0.031 C 
ATOM     57  C   UNL A   1      42.796  29.531  35.354  1.00  0.00     0.029 A 
ATOM     58  C   UNL A   1      42.593  29.130  34.042  1.00  0.00     0.049 A 
ATOM     59  H   UNL A   1      41.155  29.804  32.658  1.00  0.00     0.167 HD
ATOM     60  C   UNL A   1      43.097  27.842  31.980  1.00  0.00     0.074 A 
ATOM     61  C   UNL A   1      43.873  26.878  31.226  1.00  0.00     0.031 C 
ATOM     62  C   UNL A   1      43.320  28.146  33.284  1.00  0.00     0.034 A 
BRANCH  49  63
ATOM     63  C   UNL A   1      39.545  32.484  35.568  1.00  0.00     0.023 A 
ATOM     64  C   UNL A   1      38.738  31.979  36.610  1.00  0.00     0.012 A 
ATOM     65  C   UNL A   1      40.011  33.811  35.641  1.00  0.00     0.148 A 
ATOM     66  C   UNL A   1      38.363  32.792  37.679  1.00  0.00     0.002 A 
ATOM     67  C   UNL A   1      39.678  34.599  36.738  1.00  0.00     0.091 A 
ATOM     68  F   UNL A   1      40.757  34.284  34.633  1.00  0.00    -0.205 F 
ATOM     69  C   UNL A   1      38.842  34.096  37.748  1.00  0.00     0.022 A 
BRANCH  67  70
ATOM     70  S   UNL A   1      40.313  36.263  36.965  1.00  0.00     0.127 S 
ATOM     71  O   UNL A   1      39.937  36.897  35.702  1.00  0.00    -0.237 OA
ATOM     72  O   UNL A   1      39.555  36.722  38.129  1.00  0.00    -0.237 OA
ATOM     73  O   UNL A   1      41.746  36.121  37.187  1.00  0.00    -0.744 OA
ENDBRANCH  67  70
ENDBRANCH  49  63
BRANCH  50  74
ATOM     74  C   UNL A   1      41.962  27.093  27.466  1.00  0.00     0.023 A 
ATOM     75  C   UNL A   1      42.519  27.759  26.357  1.00  0.00     0.012 A 
ATOM     76  C   UNL A   1      41.800  25.696  27.417  1.00  0.00     0.148 A 
ATOM     77  C   UNL A   1      42.866  27.055  25.205  1.00  0.00     0.002 A 
ATOM     78  C   UNL A   1      42.202  24.992  26.289  1.00  0.00     0.091 A 
ATOM     79  F   UNL A   1      41.268  25.081  28.483  1.00  0.00    -0.205 F 
ATOM     80  C   UNL A   1      42.716  25.671  25.173  1.00  0.00     0.022 A 
BRANCH  78  81
ATOM     81  S   UNL A   1      42.170  23.198  26.212  1.00  0.00     0.127 S 
ATOM     82  O   UNL A   1      40.741  22.920  26.325  1.00  0.00    -0.237 OA
ATOM     83  O   UNL A   1      42.746  22.945  24.891  1.00  0.00    -0.237 OA
ATOM     84  O   UNL A   1      42.993  22.740  27.323  1.00  0.00    -0.744 OA
ENDBRANCH  78  81
ENDBRANCH  50  74
BRANCH  62  85
ATOM     85  C   UNL A   1      44.408  27.383  33.992  1.00  0.00     0.023 A 
ATOM     86  C   UNL A   1      45.750  27.803  33.902  1.00  0.00     0.012 A 
ATOM     87  C   UNL A   1      44.085  26.264  34.786  1.00  0.00     0.148 A 
ATOM     88  C   UNL A   1      46.760  27.086  34.541  1.00  0.00     0.002 A 
ATOM     89  C   UNL A   1      45.089  25.592  35.469  1.00  0.00     0.091 A 
ATOM     90  F   UNL A   1      42.804  25.870  34.847  1.00  0.00    -0.205 F 
ATOM     91  C   UNL A   1      46.429  25.988  35.332  1.00  0.00     0.022 A 
BRANCH  89  92
ATOM     92  S   UNL A   1      44.738  24.238  36.594  1.00  0.00     0.127 S 
ATOM     93  O   UNL A   1      43.805  24.862  37.530  1.00  0.00    -0.237 OA
ATOM     94  O   UNL A   1      44.137  23.244  35.704  1.00  0.00    -0.237 OA
ATOM     95  O   UNL A   1      46.022  23.842  37.158  1.00  0.00    -0.744 OA
ENDBRANCH  89  92
ENDBRANCH  62  85
ENDBRANCH  36  37
ENDBRANCH  28  31
ENDBRANCH  26  27
ENDBRANCH   1  26
TORSDOF 16
ENDMDL
MODEL 3
REMARK VINA RESULT:     -12.8      5.731      8.857
REMARK SMILES CC[NH2+][C@@]1(C(=O)NCCCNC(=O)c2ccc(-c3c4nc(c(-c5cccc(S(=O)(=O)[O-])c5F)c5ccc([nH]5)c(-c5cccc(S(=O)(=O)[O-])c5F)c5nc(c(-c6cccc(S(=O)(=O)[O-])c6F)c6ccc3[nH]6)C=C5)C=C4)cc2)CC[C@@H](n2cnc3ccccc32)C1
REMARK SMILES IDX 9 1 8 2 7 3 5 4 6 5 4 7 77 8 89 9 78 10 79 11 3 12 2 15 1 16
REMARK SMILES IDX 80 17 81 18 88 19 82 20 83 21 87 22 84 23 86 24 85 25 10 26
REMARK SMILES IDX 11 27 12 28 13 30 14 31 15 32 76 33 16 34 75 35 17 36 18 37
REMARK SMILES IDX 19 38 69 39 20 40 74 41 68 42 70 43 21 44 73 45 67 46 66 47
REMARK SMILES IDX 22 49 54 50 34 51 53 52 35 53 38 54 52 55 71 56 36 57 37 58
REMARK SMILES IDX 51 60 72 61 39 62 23 63 24 64 32 65 25 66 27 67 33 68 26 69
REMARK SMILES IDX 28 70 29 71 30 72 31 73 55 74 56 75 64 76 57 77 59 78 65 79
REMARK SMILES IDX 58 80 60 81 61 82 62 83 63 84 40 85 41 86 49 87 42 88 44 89
REMARK SMILES IDX 50 90 43 91 45 92 46 93 47 94 48 95
REMARK H PARENT 7 6 3 13 3 14 11 29 70 48 38 59
REMARK Flexibility Score: inf
ROOT
ATOM      1  C   UNL A   1      37.988  20.098  25.035  1.00  0.00     0.042 C 
ENDROOT
BRANCH   1   2
ATOM      2  C   UNL A   1      36.725  20.950  25.202  1.00  0.00     0.118 C 
BRANCH   2   3
ATOM      3  N   UNL A   1      36.316  21.698  24.003  1.00  0.00    -0.351 N 
ATOM      4  C   UNL A   1      35.615  22.853  23.708  1.00  0.00     0.281 C 
ATOM      5  O   UNL A   1      36.194  23.363  22.730  1.00  0.00    -0.268 OA
ATOM      6  H   UNL A   1      36.628  21.252  23.183  1.00  0.00     0.163 HD
BRANCH   4   7
ATOM      7  C   UNL A   1      34.139  23.514  24.629  1.00  0.00     0.177 C 
ATOM      8  C   UNL A   1      33.041  23.313  23.230  1.00  0.00     0.081 C 
ATOM      9  C   UNL A   1      34.433  25.202  24.001  1.00  0.00     0.104 C 
ATOM     10  C   UNL A   1      32.492  24.702  22.789  1.00  0.00     0.033 C 
ATOM     11  C   UNL A   1      33.063  25.761  23.750  1.00  0.00     0.096 C 
BRANCH   7  12
ATOM     12  N   UNL A   1      33.680  23.089  26.639  1.00  0.00    -0.334 N 
ATOM     13  H   UNL A   1      34.324  22.322  26.829  1.00  0.00     0.347 HD
ATOM     14  H   UNL A   1      33.577  24.080  26.862  1.00  0.00     0.347 HD
BRANCH  12  15
ATOM     15  C   UNL A   1      32.480  22.704  27.565  1.00  0.00     0.257 C 
ATOM     16  C   UNL A   1      31.160  23.050  26.871  1.00  0.00     0.071 C 
ENDBRANCH  12  15
ENDBRANCH   7  12
BRANCH  11  17
ATOM     17  N   UNL A   1      32.476  25.781  25.094  1.00  0.00    -0.327 N 
ATOM     18  C   UNL A   1      33.183  26.382  26.140  1.00  0.00     0.200 A 
ATOM     19  C   UNL A   1      31.203  26.384  25.049  1.00  0.00     0.068 A 
ATOM     20  N   UNL A   1      33.055  27.703  26.183  1.00  0.00    -0.237 NA
ATOM     21  C   UNL A   1      31.965  27.955  25.393  1.00  0.00     0.088 A 
ATOM     22  C   UNL A   1      29.734  26.303  23.914  1.00  0.00     0.028 A 
ATOM     23  C   UNL A   1      31.370  29.457  24.567  1.00  0.00     0.030 A 
ATOM     24  C   UNL A   1      29.075  27.828  23.198  1.00  0.00     0.002 A 
ATOM     25  C   UNL A   1      29.940  29.397  23.475  1.00  0.00     0.002 A 
ENDBRANCH  11  17
ENDBRANCH   4   7
ENDBRANCH   2   3
ENDBRANCH   1   2
BRANCH   1  26
ATOM     26  C   UNL A   1      39.162  20.631  25.823  1.00  0.00     0.118 C 
BRANCH  26  27
ATOM     27  N   UNL A   1      40.103  19.560  26.100  1.00  0.00    -0.352 N 
ATOM     28  C   UNL A   1      41.475  19.609  26.057  1.00  0.00     0.251 C 
ATOM     29  H   UNL A   1      39.709  18.692  26.349  1.00  0.00     0.163 HD
ATOM     30  O   UNL A   1      42.109  18.587  25.816  1.00  0.00    -0.269 OA
BRANCH  28  31
ATOM     31  C   UNL A   1      42.172  20.886  26.328  1.00  0.00     0.039 A 
ATOM     32  C   UNL A   1      42.456  21.255  27.645  1.00  0.00     0.014 A 
ATOM     33  C   UNL A   1      42.474  21.761  25.281  1.00  0.00     0.014 A 
ATOM     34  C   UNL A   1      43.022  22.505  27.900  1.00  0.00     0.010 A 
ATOM     35  C   UNL A   1      43.175  22.928  25.523  1.00  0.00     0.010 A 
ATOM     36  C   UNL A   1      43.382  23.351  26.837  1.00  0.00    -0.014 A 
BRANCH  36  37
ATOM     37  C   UNL A   1      43.868  24.730  27.072  1.00  0.00     0.031 A 
ATOM     38  C   UNL A   1      42.928  25.760  27.651  1.00  0.00     0.074 A 
ATOM     39  C   UNL A   1      45.123  25.064  26.721  1.00  0.00     0.049 A 
ATOM     40  N   UNL A   1      43.146  27.023  27.909  1.00  0.00    -0.248 NA
ATOM     41  C   UNL A   1      41.546  25.330  27.940  1.00  0.00     0.031 C 
ATOM     42  C   UNL A   1      46.087  24.173  26.075  1.00  0.00     0.029 A 
ATOM     43  N   UNL A   1      45.795  26.250  26.847  1.00  0.00    -0.354 N 
ATOM     44  C   UNL A   1      41.930  27.538  28.345  1.00  0.00     0.074 A 
ATOM     45  C   UNL A   1      40.960  26.472  28.256  1.00  0.00     0.031 C 
ATOM     46  C   UNL A   1      47.239  24.835  25.886  1.00  0.00     0.029 A 
ATOM     47  C   UNL A   1      47.082  26.204  26.366  1.00  0.00     0.049 A 
ATOM     48  H   UNL A   1      45.396  27.058  27.245  1.00  0.00     0.167 HD
ATOM     49  C   UNL A   1      41.649  28.774  28.817  1.00  0.00     0.034 A 
ATOM     50  C   UNL A   1      48.026  27.163  26.322  1.00  0.00     0.034 A 
ATOM     51  C   UNL A   1      42.633  29.812  28.947  1.00  0.00     0.049 A 
ATOM     52  C   UNL A   1      47.709  28.511  26.908  1.00  0.00     0.074 A 
ATOM     53  C   UNL A   1      42.488  31.076  29.487  1.00  0.00     0.029 A 
ATOM     54  N   UNL A   1      43.950  29.701  28.528  1.00  0.00    -0.354 N 
ATOM     55  N   UNL A   1      46.591  28.937  27.446  1.00  0.00    -0.248 NA
ATOM     56  C   UNL A   1      48.798  29.496  26.923  1.00  0.00     0.031 C 
ATOM     57  C   UNL A   1      43.711  31.743  29.363  1.00  0.00     0.029 A 
ATOM     58  C   UNL A   1      44.631  30.876  28.792  1.00  0.00     0.049 A 
ATOM     59  H   UNL A   1      44.344  28.904  28.106  1.00  0.00     0.167 HD
ATOM     60  C   UNL A   1      46.855  30.222  27.905  1.00  0.00     0.074 A 
ATOM     61  C   UNL A   1      48.246  30.492  27.600  1.00  0.00     0.031 C 
ATOM     62  C   UNL A   1      46.025  31.104  28.517  1.00  0.00     0.034 A 
BRANCH  49  63
ATOM     63  C   UNL A   1      40.235  29.052  29.262  1.00  0.00     0.023 A 
ATOM     64  C   UNL A   1      39.260  29.434  28.316  1.00  0.00     0.012 A 
ATOM     65  C   UNL A   1      39.861  28.900  30.611  1.00  0.00     0.148 A 
ATOM     66  C   UNL A   1      37.951  29.707  28.711  1.00  0.00     0.002 A 
ATOM     67  C   UNL A   1      38.541  29.120  30.989  1.00  0.00     0.091 A 
ATOM     68  F   UNL A   1      40.803  28.558  31.502  1.00  0.00    -0.205 F 
ATOM     69  C   UNL A   1      37.590  29.539  30.045  1.00  0.00     0.022 A 
BRANCH  67  70
ATOM     70  S   UNL A   1      37.953  28.849  32.664  1.00  0.00     0.127 S 
ATOM     71  O   UNL A   1      36.588  29.368  32.586  1.00  0.00    -0.237 OA
ATOM     72  O   UNL A   1      38.046  27.394  32.788  1.00  0.00    -0.237 OA
ATOM     73  O   UNL A   1      38.854  29.595  33.533  1.00  0.00    -0.744 OA
ENDBRANCH  67  70
ENDBRANCH  49  63
BRANCH  50  74
ATOM     74  C   UNL A   1      49.376  26.856  25.773  1.00  0.00     0.023 A 
ATOM     75  C   UNL A   1      50.311  26.163  26.567  1.00  0.00     0.012 A 
ATOM     76  C   UNL A   1      49.730  27.228  24.463  1.00  0.00     0.148 A 
ATOM     77  C   UNL A   1      51.589  25.887  26.083  1.00  0.00     0.002 A 
ATOM     78  C   UNL A   1      50.983  26.898  23.965  1.00  0.00     0.091 A 
ATOM     79  F   UNL A   1      48.826  27.887  23.725  1.00  0.00    -0.205 F 
ATOM     80  C   UNL A   1      51.923  26.246  24.779  1.00  0.00     0.022 A 
BRANCH  78  81
ATOM     81  S   UNL A   1      51.451  27.202  22.259  1.00  0.00     0.127 S 
ATOM     82  O   UNL A   1      52.722  26.487  22.166  1.00  0.00    -0.237 OA
ATOM     83  O   UNL A   1      50.342  26.587  21.530  1.00  0.00    -0.237 OA
ATOM     84  O   UNL A   1      51.530  28.650  22.122  1.00  0.00    -0.744 OA
ENDBRANCH  78  81
ENDBRANCH  50  74
BRANCH  62  85
ATOM     85  C   UNL A   1      46.617  32.418  28.952  1.00  0.00     0.023 A 
ATOM     86  C   UNL A   1      47.252  32.535  30.204  1.00  0.00     0.012 A 
ATOM     87  C   UNL A   1      46.576  33.532  28.091  1.00  0.00     0.148 A 
ATOM     88  C   UNL A   1      47.784  33.755  30.617  1.00  0.00     0.002 A 
ATOM     89  C   UNL A   1      47.162  34.728  28.483  1.00  0.00     0.091 A 
ATOM     90  F   UNL A   1      45.953  33.406  26.909  1.00  0.00    -0.205 F 
ATOM     91  C   UNL A   1      47.748  34.848  29.753  1.00  0.00     0.022 A 
BRANCH  89  92
ATOM     92  S   UNL A   1      47.256  36.149  27.391  1.00  0.00     0.127 S 
ATOM     93  O   UNL A   1      45.842  36.445  27.164  1.00  0.00    -0.237 OA
ATOM     94  O   UNL A   1      47.961  37.129  28.218  1.00  0.00    -0.237 OA
ATOM     95  O   UNL A   1      48.000  35.705  26.219  1.00  0.00    -0.744 OA
ENDBRANCH  89  92
ENDBRANCH  62  85
ENDBRANCH  36  37
ENDBRANCH  28  31
ENDBRANCH  26  27
ENDBRANCH   1  26
TORSDOF 16
ENDMDL
