MODEL 1
REMARK VINA RESULT:     -12.5      0.000      0.000
REMARK SMILES CC1(C)O[C@](C)([C@H](O)C2CCCCC2)CC[C@H]1C(=O)NCCCNC(=O)c1ccc(-c2c3nc(c(-c4cccc(S(=O)(=O)[O-])c4F)c4ccc([nH]4)c(-c4cccc(S(=O)(=O)[O-])c4F)c4nc(c(-c5cccc(S(=O)(=O)[O-])c5F)c5ccc2[nH]5)C=C4)C=C3)cc1
REMARK SMILES IDX 22 1 21 2 20 3 18 4 19 5 17 7 1 8 2 9 3 10 4 11 5 12 16 13
REMARK SMILES IDX 6 14 15 15 7 16 9 17 10 18 14 19 11 20 13 21 12 22 8 23
REMARK SMILES IDX 23 25 24 26 25 27 26 29 27 30 28 31 89 32 29 33 88 34 30 35
REMARK SMILES IDX 31 36 32 37 82 38 33 39 87 40 81 41 83 42 34 43 86 44 80 45
REMARK SMILES IDX 79 46 35 48 67 49 47 50 66 51 48 52 51 53 65 54 84 55 49 56
REMARK SMILES IDX 50 57 64 59 85 60 52 61 36 62 37 63 45 64 38 65 40 66 46 67
REMARK SMILES IDX 39 68 41 69 42 70 43 71 44 72 68 73 69 74 77 75 70 76 72 77
REMARK SMILES IDX 78 78 71 79 73 80 74 81 75 82 76 83 53 84 54 85 62 86 55 87
REMARK SMILES IDX 57 88 63 89 56 90 58 91 59 92 60 93 61 94
REMARK H PARENT 20 6 8 24 24 28 83 47 51 58
REMARK Flexibility Score: inf
ROOT
ATOM      1  C   UNL A   1      31.501  32.164  26.697  1.00  0.00     0.042 C 
ENDROOT
BRANCH   1   2
ATOM      2  C   UNL A   1      31.672  30.731  26.209  1.00  0.00     0.117 C 
BRANCH   2   3
ATOM      3  N   UNL A   1      30.931  30.457  24.990  1.00  0.00    -0.356 N 
ATOM      4  C   UNL A   1      31.012  29.482  24.051  1.00  0.00     0.226 C 
ATOM      5  O   UNL A   1      30.212  29.569  23.112  1.00  0.00    -0.275 OA
ATOM      6  H   UNL A   1      30.224  31.117  24.808  1.00  0.00     0.163 HD
BRANCH   4   7
ATOM      7  C   UNL A   1      31.996  28.310  24.092  1.00  0.00     0.110 C 
ATOM      8  C   UNL A   1      30.006  26.572  24.167  1.00  0.00     0.043 C 
ATOM      9  C   UNL A   1      31.416  26.958  24.601  1.00  0.00     0.075 C 
ATOM     10  C   UNL A   1      31.349  27.023  26.148  1.00  0.00     0.043 C 
ATOM     11  O   UNL A   1      32.253  25.827  24.320  1.00  0.00    -0.366 OA
ATOM     12  C   UNL A   1      32.943  25.725  23.071  1.00  0.00     0.092 C 
ATOM     13  C   UNL A   1      32.951  28.266  22.896  1.00  0.00     0.019 C 
ATOM     14  C   UNL A   1      32.025  25.573  21.841  1.00  0.00     0.045 C 
ATOM     15  C   UNL A   1      33.800  26.997  22.895  1.00  0.00     0.039 C 
BRANCH  12  16
ATOM     16  C   UNL A   1      33.888  24.475  23.220  1.00  0.00     0.149 C 
BRANCH  16  17
ATOM     17  C   UNL A   1      33.925  23.744  24.611  1.00  0.00     0.021 C 
ATOM     18  C   UNL A   1      34.152  22.225  24.664  1.00  0.00     0.006 C 
ATOM     19  C   UNL A   1      34.934  24.395  25.581  1.00  0.00     0.006 C 
ATOM     20  C   UNL A   1      35.570  21.803  24.306  1.00  0.00     0.000 C 
ATOM     21  C   UNL A   1      36.391  23.982  25.347  1.00  0.00     0.000 C 
ATOM     22  C   UNL A   1      36.584  22.471  25.228  1.00  0.00     0.000 C 
ENDBRANCH  16  17
BRANCH  16  23
ATOM     23  O   UNL A   1      33.737  23.585  22.113  1.00  0.00    -0.390 OA
ATOM     24  H   UNL A   1      34.611  23.282  21.822  1.00  0.00     0.211 HD
ENDBRANCH  16  23
ENDBRANCH  12  16
ENDBRANCH   4   7
ENDBRANCH   2   3
ENDBRANCH   1   2
BRANCH   1  25
ATOM     25  C   UNL A   1      32.760  32.763  27.288  1.00  0.00     0.118 C 
BRANCH  25  26
ATOM     26  N   UNL A   1      32.576  34.159  27.637  1.00  0.00    -0.352 N 
ATOM     27  C   UNL A   1      33.109  34.874  28.683  1.00  0.00     0.251 C 
ATOM     28  H   UNL A   1      31.984  34.668  27.037  1.00  0.00     0.163 HD
ATOM     29  O   UNL A   1      32.624  35.969  28.962  1.00  0.00    -0.269 OA
BRANCH  27  30
ATOM     30  C   UNL A   1      34.245  34.340  29.473  1.00  0.00     0.039 A 
ATOM     31  C   UNL A   1      35.549  34.531  29.006  1.00  0.00     0.014 A 
ATOM     32  C   UNL A   1      34.037  33.599  30.639  1.00  0.00     0.014 A 
ATOM     33  C   UNL A   1      36.631  33.997  29.712  1.00  0.00     0.010 A 
ATOM     34  C   UNL A   1      35.117  33.178  31.407  1.00  0.00     0.010 A 
ATOM     35  C   UNL A   1      36.423  33.320  30.925  1.00  0.00    -0.014 A 
BRANCH  35  36
ATOM     36  C   UNL A   1      37.539  32.665  31.656  1.00  0.00     0.031 A 
ATOM     37  C   UNL A   1      38.268  31.506  31.018  1.00  0.00     0.074 A 
ATOM     38  C   UNL A   1      37.855  33.055  32.907  1.00  0.00     0.049 A 
ATOM     39  N   UNL A   1      39.218  30.754  31.510  1.00  0.00    -0.248 NA
ATOM     40  C   UNL A   1      37.843  31.112  29.662  1.00  0.00     0.031 C 
ATOM     41  C   UNL A   1      37.173  34.104  33.668  1.00  0.00     0.029 A 
ATOM     42  N   UNL A   1      38.820  32.594  33.768  1.00  0.00    -0.354 N 
ATOM     43  C   UNL A   1      39.462  29.775  30.552  1.00  0.00     0.074 A 
ATOM     44  C   UNL A   1      38.529  29.997  29.472  1.00  0.00     0.031 C 
ATOM     45  C   UNL A   1      37.749  34.214  34.876  1.00  0.00     0.029 A 
ATOM     46  C   UNL A   1      38.822  33.231  34.986  1.00  0.00     0.049 A 
ATOM     47  H   UNL A   1      39.450  31.875  33.536  1.00  0.00     0.167 HD
ATOM     48  C   UNL A   1      40.405  28.804  30.547  1.00  0.00     0.034 A 
ATOM     49  C   UNL A   1      39.606  33.046  36.067  1.00  0.00     0.034 A 
ATOM     50  C   UNL A   1      41.386  28.640  31.583  1.00  0.00     0.049 A 
ATOM     51  C   UNL A   1      40.705  32.020  36.002  1.00  0.00     0.074 A 
ATOM     52  C   UNL A   1      42.447  27.756  31.632  1.00  0.00     0.029 A 
ATOM     53  N   UNL A   1      41.429  29.387  32.749  1.00  0.00    -0.354 N 
ATOM     54  N   UNL A   1      41.018  31.206  35.022  1.00  0.00    -0.248 NA
ATOM     55  C   UNL A   1      41.590  31.917  37.172  1.00  0.00     0.031 C 
ATOM     56  C   UNL A   1      43.131  27.963  32.835  1.00  0.00     0.029 A 
ATOM     57  C   UNL A   1      42.504  28.990  33.524  1.00  0.00     0.049 A 
ATOM     58  H   UNL A   1      40.792  30.097  32.990  1.00  0.00     0.167 HD
ATOM     59  C   UNL A   1      42.158  30.526  35.439  1.00  0.00     0.074 A 
ATOM     60  C   UNL A   1      42.490  31.037  36.753  1.00  0.00     0.031 C 
ATOM     61  C   UNL A   1      42.857  29.558  34.798  1.00  0.00     0.034 A 
BRANCH  48  62
ATOM     62  C   UNL A   1      40.464  27.889  29.349  1.00  0.00     0.023 A 
ATOM     63  C   UNL A   1      39.575  26.796  29.265  1.00  0.00     0.012 A 
ATOM     64  C   UNL A   1      41.361  28.132  28.292  1.00  0.00     0.148 A 
ATOM     65  C   UNL A   1      39.608  25.935  28.169  1.00  0.00     0.002 A 
ATOM     66  C   UNL A   1      41.354  27.297  27.180  1.00  0.00     0.091 A 
ATOM     67  F   UNL A   1      42.213  29.161  28.398  1.00  0.00    -0.205 F 
ATOM     68  C   UNL A   1      40.490  26.192  27.123  1.00  0.00     0.022 A 
BRANCH  66  69
ATOM     69  S   UNL A   1      42.393  27.590  25.743  1.00  0.00     0.127 S 
ATOM     70  O   UNL A   1      42.002  26.486  24.866  1.00  0.00    -0.237 OA
ATOM     71  O   UNL A   1      41.940  28.909  25.300  1.00  0.00    -0.237 OA
ATOM     72  O   UNL A   1      43.765  27.551  26.225  1.00  0.00    -0.744 OA
ENDBRANCH  66  69
ENDBRANCH  48  62
BRANCH  49  73
ATOM     73  C   UNL A   1      39.438  33.916  37.267  1.00  0.00     0.023 A 
ATOM     74  C   UNL A   1      39.881  35.253  37.216  1.00  0.00     0.012 A 
ATOM     75  C   UNL A   1      38.817  33.443  38.439  1.00  0.00     0.148 A 
ATOM     76  C   UNL A   1      39.741  36.092  38.321  1.00  0.00     0.002 A 
ATOM     77  C   UNL A   1      38.632  34.301  39.518  1.00  0.00     0.091 A 
ATOM     78  F   UNL A   1      38.412  32.166  38.471  1.00  0.00    -0.205 F 
ATOM     79  C   UNL A   1      39.107  35.620  39.467  1.00  0.00     0.022 A 
BRANCH  77  80
ATOM     80  S   UNL A   1      37.709  33.816  40.982  1.00  0.00     0.127 S 
ATOM     81  O   UNL A   1      38.656  32.926  41.649  1.00  0.00    -0.237 OA
ATOM     82  O   UNL A   1      37.502  35.104  41.648  1.00  0.00    -0.237 OA
ATOM     83  O   UNL A   1      36.491  33.195  40.489  1.00  0.00    -0.744 OA
ENDBRANCH  77  80
ENDBRANCH  49  73
BRANCH  61  84
ATOM     84  C   UNL A   1      44.086  29.015  35.478  1.00  0.00     0.023 A 
ATOM     85  C   UNL A   1      45.336  29.625  35.264  1.00  0.00     0.012 A 
ATOM     86  C   UNL A   1      43.981  27.951  36.397  1.00  0.00     0.148 A 
ATOM     87  C   UNL A   1      46.470  29.167  35.932  1.00  0.00     0.002 A 
ATOM     88  C   UNL A   1      45.107  27.532  37.096  1.00  0.00     0.091 A 
ATOM     89  F   UNL A   1      42.784  27.370  36.572  1.00  0.00    -0.205 F 
ATOM     90  C   UNL A   1      46.354  28.130  36.856  1.00  0.00     0.022 A 
BRANCH  88  91
ATOM     91  S   UNL A   1      45.026  26.273  38.374  1.00  0.00     0.127 S 
ATOM     92  O   UNL A   1      44.568  25.109  37.618  1.00  0.00    -0.237 OA
ATOM     93  O   UNL A   1      46.414  26.199  38.828  1.00  0.00    -0.237 OA
ATOM     94  O   UNL A   1      44.093  26.779  39.373  1.00  0.00    -0.744 OA
ENDBRANCH  88  91
ENDBRANCH  61  84
ENDBRANCH  35  36
ENDBRANCH  27  30
ENDBRANCH  25  26
ENDBRANCH   1  25
TORSDOF 16
ENDMDL
MODEL 2
REMARK VINA RESULT:     -12.3      2.384      8.007
REMARK SMILES CC1(C)O[C@](C)([C@H](O)C2CCCCC2)CC[C@H]1C(=O)NCCCNC(=O)c1ccc(-c2c3nc(c(-c4cccc(S(=O)(=O)[O-])c4F)c4ccc([nH]4)c(-c4cccc(S(=O)(=O)[O-])c4F)c4nc(c(-c5cccc(S(=O)(=O)[O-])c5F)c5ccc2[nH]5)C=C4)C=C3)cc1
REMARK SMILES IDX 22 1 21 2 20 3 18 4 19 5 17 7 1 8 2 9 3 10 4 11 5 12 16 13
REMARK SMILES IDX 6 14 15 15 7 16 9 17 10 18 14 19 11 20 13 21 12 22 8 23
REMARK SMILES IDX 23 25 24 26 25 27 26 29 27 30 28 31 89 32 29 33 88 34 30 35
REMARK SMILES IDX 31 36 32 37 82 38 33 39 87 40 81 41 83 42 34 43 86 44 80 45
REMARK SMILES IDX 79 46 35 48 67 49 47 50 66 51 48 52 51 53 65 54 84 55 49 56
REMARK SMILES IDX 50 57 64 59 85 60 52 61 36 62 37 63 45 64 38 65 40 66 46 67
REMARK SMILES IDX 39 68 41 69 42 70 43 71 44 72 68 73 69 74 77 75 70 76 72 77
REMARK SMILES IDX 78 78 71 79 73 80 74 81 75 82 76 83 53 84 54 85 62 86 55 87
REMARK SMILES IDX 57 88 63 89 56 90 58 91 59 92 60 93 61 94
REMARK H PARENT 20 6 8 24 24 28 83 47 51 58
REMARK Flexibility Score: inf
ROOT
ATOM      1  C   UNL A   1      31.464  30.500  25.777  1.00  0.00     0.042 C 
ENDROOT
BRANCH   1   2
ATOM      2  C   UNL A   1      32.113  29.647  24.695  1.00  0.00     0.117 C 
BRANCH   2   3
ATOM      3  N   UNL A   1      31.251  29.440  23.545  1.00  0.00    -0.356 N 
ATOM      4  C   UNL A   1      30.793  28.331  22.913  1.00  0.00     0.226 C 
ATOM      5  O   UNL A   1      30.070  28.529  21.930  1.00  0.00    -0.275 OA
ATOM      6  H   UNL A   1      30.934  30.279  23.140  1.00  0.00     0.163 HD
BRANCH   4   7
ATOM      7  C   UNL A   1      31.098  26.893  23.341  1.00  0.00     0.110 C 
ATOM      8  C   UNL A   1      33.640  27.177  22.672  1.00  0.00     0.043 C 
ATOM      9  C   UNL A   1      32.410  26.281  22.767  1.00  0.00     0.075 C 
ATOM     10  C   UNL A   1      32.127  25.840  21.308  1.00  0.00     0.043 C 
ATOM     11  O   UNL A   1      32.828  25.082  23.435  1.00  0.00    -0.366 OA
ATOM     12  C   UNL A   1      32.709  24.960  24.855  1.00  0.00     0.092 C 
ATOM     13  C   UNL A   1      30.764  26.603  24.808  1.00  0.00     0.019 C 
ATOM     14  C   UNL A   1      33.599  25.929  25.660  1.00  0.00     0.045 C 
ATOM     15  C   UNL A   1      31.233  25.214  25.232  1.00  0.00     0.039 C 
BRANCH  12  16
ATOM     16  C   UNL A   1      33.079  23.465  25.176  1.00  0.00     0.149 C 
BRANCH  16  17
ATOM     17  C   UNL A   1      33.683  22.592  24.016  1.00  0.00     0.021 C 
ATOM     18  C   UNL A   1      35.007  21.845  24.239  1.00  0.00     0.006 C 
ATOM     19  C   UNL A   1      32.664  21.570  23.468  1.00  0.00     0.006 C 
ATOM     20  C   UNL A   1      34.892  20.660  25.188  1.00  0.00     0.000 C 
ATOM     21  C   UNL A   1      32.520  20.305  24.318  1.00  0.00     0.000 C 
ATOM     22  C   UNL A   1      33.857  19.661  24.683  1.00  0.00     0.000 C 
ENDBRANCH  16  17
BRANCH  16  23
ATOM     23  O   UNL A   1      33.810  23.370  26.399  1.00  0.00    -0.390 OA
ATOM     24  H   UNL A   1      33.210  23.105  27.114  1.00  0.00     0.211 HD
ENDBRANCH  16  23
ENDBRANCH  12  16
ENDBRANCH   4   7
ENDBRANCH   2   3
ENDBRANCH   1   2
BRANCH   1  25
ATOM     25  C   UNL A   1      32.410  30.899  26.891  1.00  0.00     0.118 C 
BRANCH  25  26
ATOM     26  N   UNL A   1      32.582  32.338  26.957  1.00  0.00    -0.352 N 
ATOM     27  C   UNL A   1      33.524  33.074  27.636  1.00  0.00     0.251 C 
ATOM     28  H   UNL A   1      31.930  32.863  26.440  1.00  0.00     0.163 HD
ATOM     29  O   UNL A   1      33.341  34.281  27.784  1.00  0.00    -0.269 OA
BRANCH  27  30
ATOM     30  C   UNL A   1      34.739  32.431  28.192  1.00  0.00     0.039 A 
ATOM     31  C   UNL A   1      34.653  31.126  28.686  1.00  0.00     0.014 A 
ATOM     32  C   UNL A   1      35.950  33.122  28.288  1.00  0.00     0.014 A 
ATOM     33  C   UNL A   1      35.777  30.518  29.255  1.00  0.00     0.010 A 
ATOM     34  C   UNL A   1      37.095  32.474  28.736  1.00  0.00     0.010 A 
ATOM     35  C   UNL A   1      37.011  31.187  29.279  1.00  0.00    -0.014 A 
BRANCH  35  36
ATOM     36  C   UNL A   1      38.203  30.607  29.952  1.00  0.00     0.031 A 
ATOM     37  C   UNL A   1      38.539  31.030  31.363  1.00  0.00     0.074 A 
ATOM     38  C   UNL A   1      39.018  29.764  29.288  1.00  0.00     0.049 A 
ATOM     39  N   UNL A   1      39.564  30.700  32.104  1.00  0.00    -0.248 NA
ATOM     40  C   UNL A   1      37.621  31.984  32.013  1.00  0.00     0.031 C 
ATOM     41  C   UNL A   1      38.852  29.343  27.896  1.00  0.00     0.029 A 
ATOM     42  N   UNL A   1      40.164  29.127  29.694  1.00  0.00    -0.354 N 
ATOM     43  C   UNL A   1      39.443  31.443  33.274  1.00  0.00     0.074 A 
ATOM     44  C   UNL A   1      38.272  32.276  33.127  1.00  0.00     0.031 C 
ATOM     45  C   UNL A   1      39.852  28.509  27.567  1.00  0.00     0.029 A 
ATOM     46  C   UNL A   1      40.742  28.354  28.714  1.00  0.00     0.049 A 
ATOM     47  H   UNL A   1      40.538  29.215  30.600  1.00  0.00     0.167 HD
ATOM     48  C   UNL A   1      40.208  31.407  34.390  1.00  0.00     0.034 A 
ATOM     49  C   UNL A   1      41.860  27.602  28.741  1.00  0.00     0.034 A 
ATOM     50  C   UNL A   1      41.321  30.515  34.565  1.00  0.00     0.049 A 
ATOM     51  C   UNL A   1      42.644  27.509  30.023  1.00  0.00     0.074 A 
ATOM     52  C   UNL A   1      42.102  30.323  35.689  1.00  0.00     0.029 A 
ATOM     53  N   UNL A   1      41.801  29.658  33.588  1.00  0.00    -0.354 N 
ATOM     54  N   UNL A   1      42.422  28.103  31.172  1.00  0.00    -0.248 NA
ATOM     55  C   UNL A   1      43.804  26.606  30.030  1.00  0.00     0.031 C 
ATOM     56  C   UNL A   1      43.063  29.353  35.390  1.00  0.00     0.029 A 
ATOM     57  C   UNL A   1      42.866  28.928  34.085  1.00  0.00     0.049 A 
ATOM     58  H   UNL A   1      41.438  29.578  32.677  1.00  0.00     0.167 HD
ATOM     59  C   UNL A   1      43.387  27.615  32.047  1.00  0.00     0.074 A 
ATOM     60  C   UNL A   1      44.183  26.664  31.300  1.00  0.00     0.031 C 
ATOM     61  C   UNL A   1      43.602  27.936  33.346  1.00  0.00     0.034 A 
BRANCH  48  62
ATOM     62  C   UNL A   1      39.822  32.309  35.535  1.00  0.00     0.023 A 
ATOM     63  C   UNL A   1      39.035  31.799  36.588  1.00  0.00     0.012 A 
ATOM     64  C   UNL A   1      40.271  33.642  35.593  1.00  0.00     0.148 A 
ATOM     65  C   UNL A   1      38.664  32.611  37.659  1.00  0.00     0.002 A 
ATOM     66  C   UNL A   1      39.938  34.432  36.689  1.00  0.00     0.091 A 
ATOM     67  F   UNL A   1      41.000  34.119  34.574  1.00  0.00    -0.205 F 
ATOM     68  C   UNL A   1      39.125  33.923  37.714  1.00  0.00     0.022 A 
BRANCH  66  69
ATOM     69  S   UNL A   1      40.550  36.109  36.895  1.00  0.00     0.127 S 
ATOM     70  O   UNL A   1      39.887  36.803  35.790  1.00  0.00    -0.237 OA
ATOM     71  O   UNL A   1      40.047  36.460  38.223  1.00  0.00    -0.237 OA
ATOM     72  O   UNL A   1      41.999  36.023  36.798  1.00  0.00    -0.744 OA
ENDBRANCH  66  69
ENDBRANCH  48  62
BRANCH  49  73
ATOM     73  C   UNL A   1      42.251  26.805  27.543  1.00  0.00     0.023 A 
ATOM     74  C   UNL A   1      42.945  27.438  26.492  1.00  0.00     0.012 A 
ATOM     75  C   UNL A   1      41.972  25.428  27.450  1.00  0.00     0.148 A 
ATOM     76  C   UNL A   1      43.323  26.722  25.356  1.00  0.00     0.002 A 
ATOM     77  C   UNL A   1      42.400  24.709  26.339  1.00  0.00     0.091 A 
ATOM     78  F   UNL A   1      41.303  24.847  28.456  1.00  0.00    -0.205 F 
ATOM     79  C   UNL A   1      43.060  25.357  25.284  1.00  0.00     0.022 A 
BRANCH  77  80
ATOM     80  S   UNL A   1      42.222  22.925  26.224  1.00  0.00     0.127 S 
ATOM     81  O   UNL A   1      42.977  22.474  27.391  1.00  0.00    -0.237 OA
ATOM     82  O   UNL A   1      40.770  22.759  26.328  1.00  0.00    -0.237 OA
ATOM     83  O   UNL A   1      42.774  22.560  24.930  1.00  0.00    -0.744 OA
ENDBRANCH  77  80
ENDBRANCH  49  73
BRANCH  61  84
ATOM     84  C   UNL A   1      44.712  27.221  34.070  1.00  0.00     0.023 A 
ATOM     85  C   UNL A   1      46.017  27.748  34.052  1.00  0.00     0.012 A 
ATOM     86  C   UNL A   1      44.438  26.071  34.838  1.00  0.00     0.148 A 
ATOM     87  C   UNL A   1      47.041  27.127  34.764  1.00  0.00     0.002 A 
ATOM     88  C   UNL A   1      45.454  25.485  35.584  1.00  0.00     0.091 A 
ATOM     89  F   UNL A   1      43.193  25.573  34.825  1.00  0.00    -0.205 F 
ATOM     90  C   UNL A   1      46.758  26.004  35.539  1.00  0.00     0.022 A 
BRANCH  88  91
ATOM     91  S   UNL A   1      45.153  24.099  36.687  1.00  0.00     0.127 S 
ATOM     92  O   UNL A   1      44.431  23.176  35.814  1.00  0.00    -0.237 OA
ATOM     93  O   UNL A   1      46.509  23.677  37.035  1.00  0.00    -0.237 OA
ATOM     94  O   UNL A   1      44.386  24.638  37.803  1.00  0.00    -0.744 OA
ENDBRANCH  88  91
ENDBRANCH  61  84
ENDBRANCH  35  36
ENDBRANCH  27  30
ENDBRANCH  25  26
ENDBRANCH   1  25
TORSDOF 16
ENDMDL
MODEL 3
REMARK VINA RESULT:     -12.2      6.078     12.068
REMARK SMILES CC1(C)O[C@](C)([C@H](O)C2CCCCC2)CC[C@H]1C(=O)NCCCNC(=O)c1ccc(-c2c3nc(c(-c4cccc(S(=O)(=O)[O-])c4F)c4ccc([nH]4)c(-c4cccc(S(=O)(=O)[O-])c4F)c4nc(c(-c5cccc(S(=O)(=O)[O-])c5F)c5ccc2[nH]5)C=C4)C=C3)cc1
REMARK SMILES IDX 22 1 21 2 20 3 18 4 19 5 17 7 1 8 2 9 3 10 4 11 5 12 16 13
REMARK SMILES IDX 6 14 15 15 7 16 9 17 10 18 14 19 11 20 13 21 12 22 8 23
REMARK SMILES IDX 23 25 24 26 25 27 26 29 27 30 28 31 89 32 29 33 88 34 30 35
REMARK SMILES IDX 31 36 32 37 82 38 33 39 87 40 81 41 83 42 34 43 86 44 80 45
REMARK SMILES IDX 79 46 35 48 67 49 47 50 66 51 48 52 51 53 65 54 84 55 49 56
REMARK SMILES IDX 50 57 64 59 85 60 52 61 36 62 37 63 45 64 38 65 40 66 46 67
REMARK SMILES IDX 39 68 41 69 42 70 43 71 44 72 68 73 69 74 77 75 70 76 72 77
REMARK SMILES IDX 78 78 71 79 73 80 74 81 75 82 76 83 53 84 54 85 62 86 55 87
REMARK SMILES IDX 57 88 63 89 56 90 58 91 59 92 60 93 61 94
REMARK H PARENT 20 6 8 24 24 28 83 47 51 58
REMARK Flexibility Score: inf
ROOT
ATOM      1  C   UNL A   1      38.119  19.673  24.996  1.00  0.00     0.042 C 
ENDROOT
BRANCH   1   2
ATOM      2  C   UNL A   1      36.922  20.613  24.938  1.00  0.00     0.117 C 
BRANCH   2   3
ATOM      3  N   UNL A   1      35.651  19.910  24.943  1.00  0.00    -0.356 N 
ATOM      4  C   UNL A   1      34.373  20.298  25.180  1.00  0.00     0.226 C 
ATOM      5  O   UNL A   1      33.517  19.409  25.112  1.00  0.00    -0.275 OA
ATOM      6  H   UNL A   1      35.735  18.952  24.731  1.00  0.00     0.163 HD
BRANCH   4   7
ATOM      7  C   UNL A   1      33.942  21.731  25.502  1.00  0.00     0.110 C 
ATOM      8  C   UNL A   1      32.300  21.761  23.431  1.00  0.00     0.043 C 
ATOM      9  C   UNL A   1      33.269  22.513  24.336  1.00  0.00     0.075 C 
ATOM     10  C   UNL A   1      34.391  23.010  23.389  1.00  0.00     0.043 C 
ATOM     11  O   UNL A   1      32.592  23.707  24.756  1.00  0.00    -0.366 OA
ATOM     12  C   UNL A   1      31.841  23.728  25.973  1.00  0.00     0.092 C 
ATOM     13  C   UNL A   1      33.343  21.893  26.903  1.00  0.00     0.019 C 
ATOM     14  C   UNL A   1      30.601  22.812  25.979  1.00  0.00     0.045 C 
ATOM     15  C   UNL A   1      32.781  23.296  27.119  1.00  0.00     0.039 C 
BRANCH  12  16
ATOM     16  C   UNL A   1      31.426  25.232  26.178  1.00  0.00     0.149 C 
BRANCH  16  17
ATOM     17  C   UNL A   1      31.953  26.288  25.139  1.00  0.00     0.021 C 
ATOM     18  C   UNL A   1      31.287  27.671  25.058  1.00  0.00     0.006 C 
ATOM     19  C   UNL A   1      33.475  26.515  25.264  1.00  0.00     0.006 C 
ATOM     20  C   UNL A   1      31.587  28.567  26.252  1.00  0.00     0.000 C 
ATOM     21  C   UNL A   1      33.880  27.460  26.399  1.00  0.00     0.000 C 
ATOM     22  C   UNL A   1      33.089  28.767  26.416  1.00  0.00     0.000 C 
ENDBRANCH  16  17
BRANCH  16  23
ATOM     23  O   UNL A   1      30.027  25.345  26.444  1.00  0.00    -0.390 OA
ATOM     24  H   UNL A   1      29.896  25.779  27.301  1.00  0.00     0.211 HD
ENDBRANCH  16  23
ENDBRANCH  12  16
ENDBRANCH   4   7
ENDBRANCH   2   3
ENDBRANCH   1   2
BRANCH   1  25
ATOM     25  C   UNL A   1      39.288  20.221  25.788  1.00  0.00     0.118 C 
BRANCH  25  26
ATOM     26  N   UNL A   1      40.302  19.209  26.015  1.00  0.00    -0.352 N 
ATOM     27  C   UNL A   1      41.661  19.353  26.167  1.00  0.00     0.251 C 
ATOM     28  H   UNL A   1      39.969  18.284  26.069  1.00  0.00     0.163 HD
ATOM     29  O   UNL A   1      42.378  18.358  26.083  1.00  0.00    -0.269 OA
BRANCH  27  30
ATOM     30  C   UNL A   1      42.263  20.684  26.422  1.00  0.00     0.039 A 
ATOM     31  C   UNL A   1      42.402  21.127  27.742  1.00  0.00     0.014 A 
ATOM     32  C   UNL A   1      42.637  21.528  25.373  1.00  0.00     0.014 A 
ATOM     33  C   UNL A   1      42.925  22.397  28.002  1.00  0.00     0.010 A 
ATOM     34  C   UNL A   1      43.274  22.735  25.636  1.00  0.00     0.010 A 
ATOM     35  C   UNL A   1      43.373  23.211  26.949  1.00  0.00    -0.014 A 
BRANCH  35  36
ATOM     36  C   UNL A   1      43.854  24.598  27.181  1.00  0.00     0.031 A 
ATOM     37  C   UNL A   1      42.895  25.639  27.711  1.00  0.00     0.074 A 
ATOM     38  C   UNL A   1      45.115  24.945  26.858  1.00  0.00     0.049 A 
ATOM     39  N   UNL A   1      43.090  26.915  27.918  1.00  0.00    -0.248 NA
ATOM     40  C   UNL A   1      41.521  25.194  28.008  1.00  0.00     0.031 C 
ATOM     41  C   UNL A   1      46.114  24.056  26.261  1.00  0.00     0.029 A 
ATOM     42  N   UNL A   1      45.765  26.149  26.967  1.00  0.00    -0.354 N 
ATOM     43  C   UNL A   1      41.860  27.429  28.312  1.00  0.00     0.074 A 
ATOM     44  C   UNL A   1      40.912  26.339  28.271  1.00  0.00     0.031 C 
ATOM     45  C   UNL A   1      47.253  24.742  26.068  1.00  0.00     0.029 A 
ATOM     46  C   UNL A   1      47.060  26.122  26.504  1.00  0.00     0.049 A 
ATOM     47  H   UNL A   1      45.345  26.956  27.341  1.00  0.00     0.167 HD
ATOM     48  C   UNL A   1      41.550  28.682  28.717  1.00  0.00     0.034 A 
ATOM     49  C   UNL A   1      47.986  27.098  26.444  1.00  0.00     0.034 A 
ATOM     50  C   UNL A   1      42.512  29.742  28.839  1.00  0.00     0.049 A 
ATOM     51  C   UNL A   1      47.644  28.461  26.983  1.00  0.00     0.074 A 
ATOM     52  C   UNL A   1      42.329  31.020  29.333  1.00  0.00     0.029 A 
ATOM     53  N   UNL A   1      43.844  29.638  28.473  1.00  0.00    -0.354 N 
ATOM     54  N   UNL A   1      46.514  28.886  27.497  1.00  0.00    -0.248 NA
ATOM     55  C   UNL A   1      48.715  29.468  26.978  1.00  0.00     0.031 C 
ATOM     56  C   UNL A   1      43.551  31.695  29.258  1.00  0.00     0.029 A 
ATOM     57  C   UNL A   1      44.499  30.828  28.735  1.00  0.00     0.049 A 
ATOM     58  H   UNL A   1      44.264  28.837  28.085  1.00  0.00     0.167 HD
ATOM     59  C   UNL A   1      46.750  30.191  27.914  1.00  0.00     0.074 A 
ATOM     60  C   UNL A   1      48.136  30.481  27.609  1.00  0.00     0.031 C 
ATOM     61  C   UNL A   1      45.895  31.074  28.486  1.00  0.00     0.034 A 
BRANCH  48  62
ATOM     62  C   UNL A   1      40.124  28.956  29.124  1.00  0.00     0.023 A 
ATOM     63  C   UNL A   1      39.146  29.174  28.131  1.00  0.00     0.012 A 
ATOM     64  C   UNL A   1      39.742  28.955  30.480  1.00  0.00     0.148 A 
ATOM     65  C   UNL A   1      37.820  29.429  28.480  1.00  0.00     0.002 A 
ATOM     66  C   UNL A   1      38.408  29.162  30.818  1.00  0.00     0.091 A 
ATOM     67  F   UNL A   1      40.686  28.769  31.412  1.00  0.00    -0.205 F 
ATOM     68  C   UNL A   1      37.451  29.412  29.822  1.00  0.00     0.022 A 
BRANCH  66  69
ATOM     69  S   UNL A   1      37.815  29.077  32.511  1.00  0.00     0.127 S 
ATOM     70  O   UNL A   1      38.795  29.909  33.209  1.00  0.00    -0.237 OA
ATOM     71  O   UNL A   1      36.482  29.671  32.401  1.00  0.00    -0.237 OA
ATOM     72  O   UNL A   1      37.823  27.667  32.870  1.00  0.00    -0.744 OA
ENDBRANCH  66  69
ENDBRANCH  48  62
BRANCH  49  73
ATOM     73  C   UNL A   1      49.355  26.796  25.937  1.00  0.00     0.023 A 
ATOM     74  C   UNL A   1      50.248  26.072  26.753  1.00  0.00     0.012 A 
ATOM     75  C   UNL A   1      49.768  27.187  24.649  1.00  0.00     0.148 A 
ATOM     76  C   UNL A   1      51.536  25.774  26.310  1.00  0.00     0.002 A 
ATOM     77  C   UNL A   1      51.035  26.840  24.193  1.00  0.00     0.091 A 
ATOM     78  F   UNL A   1      48.909  27.883  23.891  1.00  0.00    -0.205 F 
ATOM     79  C   UNL A   1      51.926  26.149  25.027  1.00  0.00     0.022 A 
BRANCH  77  80
ATOM     80  S   UNL A   1      51.572  27.165  22.509  1.00  0.00     0.127 S 
ATOM     81  O   UNL A   1      51.778  28.611  22.536  1.00  0.00    -0.237 OA
ATOM     82  O   UNL A   1      52.799  26.370  22.424  1.00  0.00    -0.237 OA
ATOM     83  O   UNL A   1      50.493  26.693  21.656  1.00  0.00    -0.744 OA
ENDBRANCH  77  80
ENDBRANCH  49  73
BRANCH  61  84
ATOM     84  C   UNL A   1      46.436  32.426  28.869  1.00  0.00     0.023 A 
ATOM     85  C   UNL A   1      46.988  32.625  30.150  1.00  0.00     0.012 A 
ATOM     86  C   UNL A   1      46.474  33.473  27.927  1.00  0.00     0.148 A 
ATOM     87  C   UNL A   1      47.543  33.855  30.497  1.00  0.00     0.002 A 
ATOM     88  C   UNL A   1      47.073  34.681  28.264  1.00  0.00     0.091 A 
ATOM     89  F   UNL A   1      45.925  33.269  26.720  1.00  0.00    -0.205 F 
ATOM     90  C   UNL A   1      47.597  34.878  29.552  1.00  0.00     0.022 A 
BRANCH  88  91
ATOM     91  S   UNL A   1      47.274  36.013  27.077  1.00  0.00     0.127 S 
ATOM     92  O   UNL A   1      47.807  35.301  25.917  1.00  0.00    -0.237 OA
ATOM     93  O   UNL A   1      45.904  36.500  26.919  1.00  0.00    -0.237 OA
ATOM     94  O   UNL A   1      48.182  36.967  27.699  1.00  0.00    -0.744 OA
ENDBRANCH  88  91
ENDBRANCH  61  84
ENDBRANCH  35  36
ENDBRANCH  27  30
ENDBRANCH  25  26
ENDBRANCH   1  25
TORSDOF 16
ENDMDL
