MODEL 1
REMARK VINA RESULT:     -11.3      0.000      0.000
REMARK SMILES CC[C@@H](C)CN(C)c1cccc(Cl)c1/C=C/C(=O)NCCCNC(=O)c1ccc(-c2c3nc(c(-c4cccc(S(=O)(=O)[O-])c4F)c4ccc([nH]4)c(-c4cccc(S(=O)(=O)[O-])c4F)c4nc(c(-c5cccc(S(=O)(=O)[O-])c5F)c5ccc2[nH]5)C=C4)C=C3)cc1
REMARK SMILES IDX 20 1 19 2 17 3 18 4 16 6 15 7 14 8 8 9 9 10 10 11 12 12
REMARK SMILES IDX 11 13 13 14 6 15 7 16 5 17 3 18 4 19 2 20 1 21 21 22 22 23
REMARK SMILES IDX 23 24 24 25 25 27 26 28 27 29 88 30 28 31 87 32 29 33 30 34
REMARK SMILES IDX 31 35 81 36 32 37 86 38 80 39 82 40 33 41 85 42 79 43 78 44
REMARK SMILES IDX 34 46 66 47 46 48 65 49 47 50 50 51 64 52 83 53 48 54 49 55
REMARK SMILES IDX 63 57 84 58 51 59 35 60 36 61 44 62 37 63 39 64 45 65 38 66
REMARK SMILES IDX 40 67 41 68 42 69 43 70 67 71 68 72 76 73 69 74 71 75 77 76
REMARK SMILES IDX 70 77 72 78 73 79 74 80 75 81 52 82 53 83 61 84 54 85 56 86
REMARK SMILES IDX 62 87 55 88 57 89 58 90 59 91 60 92
REMARK H PARENT 19 5 23 26 82 45 50 56
REMARK Flexibility Score: inf
ROOT
ATOM      1  C   UNL A   1      33.876  21.734  26.830  1.00  0.00     0.118 C 
ENDROOT
BRANCH   1   2
ATOM      2  N   UNL A   1      32.707  22.319  27.468  1.00  0.00    -0.352 N 
ATOM      3  C   UNL A   1      31.620  22.911  26.899  1.00  0.00     0.244 C 
ATOM      4  O   UNL A   1      30.624  23.154  27.575  1.00  0.00    -0.270 OA
ATOM      5  H   UNL A   1      32.701  22.282  28.452  1.00  0.00     0.163 HD
BRANCH   3   6
ATOM      6  C   UNL A   1      31.615  23.221  25.452  1.00  0.00     0.072 C 
ATOM      7  C   UNL A   1      32.147  24.364  25.001  1.00  0.00     0.017 C 
BRANCH   7   8
ATOM      8  C   UNL A   1      32.102  24.854  23.612  1.00  0.00     0.017 A 
ATOM      9  C   UNL A   1      31.484  26.083  23.282  1.00  0.00     0.045 A 
ATOM     10  C   UNL A   1      31.738  26.625  22.011  1.00  0.00     0.026 A 
ATOM     11  C   UNL A   1      32.453  25.933  21.035  1.00  0.00     0.004 A 
ATOM     12  C   UNL A   1      32.810  24.150  22.611  1.00  0.00     0.050 A 
ATOM     13  C   UNL A   1      32.961  24.677  21.326  1.00  0.00     0.021 A 
ATOM     14  Cl  UNL A   1      33.521  22.595  22.902  1.00  0.00    -0.084 Cl
BRANCH   9  15
ATOM     15  N   UNL A   1      30.629  26.777  24.130  1.00  0.00    -0.374 N 
ATOM     16  C   UNL A   1      29.299  26.248  24.387  1.00  0.00     0.143 C 
BRANCH  15  17
ATOM     17  C   UNL A   1      31.010  28.110  24.616  1.00  0.00     0.119 C 
BRANCH  17  18
ATOM     18  C   UNL A   1      32.182  28.043  25.627  1.00  0.00     0.005 C 
ATOM     19  C   UNL A   1      31.698  27.515  26.983  1.00  0.00     0.009 C 
BRANCH  18  20
ATOM     20  C   UNL A   1      32.847  29.425  25.828  1.00  0.00     0.002 C 
ATOM     21  C   UNL A   1      32.159  30.248  26.911  1.00  0.00     0.004 C 
ENDBRANCH  18  20
ENDBRANCH  17  18
ENDBRANCH  15  17
ENDBRANCH   9  15
ENDBRANCH   7   8
ENDBRANCH   3   6
ENDBRANCH   1   2
BRANCH   1  22
ATOM     22  C   UNL A   1      35.068  22.686  26.797  1.00  0.00     0.042 C 
BRANCH  22  23
ATOM     23  C   UNL A   1      35.921  22.564  25.536  1.00  0.00     0.118 C 
BRANCH  23  24
ATOM     24  N   UNL A   1      36.806  21.405  25.581  1.00  0.00    -0.352 N 
ATOM     25  C   UNL A   1      38.161  21.332  25.775  1.00  0.00     0.251 C 
ATOM     26  H   UNL A   1      36.358  20.537  25.452  1.00  0.00     0.163 HD
ATOM     27  O   UNL A   1      38.746  20.277  25.533  1.00  0.00    -0.269 OA
BRANCH  25  28
ATOM     28  C   UNL A   1      38.920  22.498  26.275  1.00  0.00     0.039 A 
ATOM     29  C   UNL A   1      40.019  22.282  27.112  1.00  0.00     0.014 A 
ATOM     30  C   UNL A   1      38.519  23.801  25.968  1.00  0.00     0.014 A 
ATOM     31  C   UNL A   1      40.743  23.372  27.602  1.00  0.00     0.010 A 
ATOM     32  C   UNL A   1      39.282  24.882  26.400  1.00  0.00     0.010 A 
ATOM     33  C   UNL A   1      40.395  24.680  27.231  1.00  0.00    -0.014 A 
BRANCH  33  34
ATOM     34  C   UNL A   1      41.178  25.852  27.695  1.00  0.00     0.031 A 
ATOM     35  C   UNL A   1      40.521  26.927  28.517  1.00  0.00     0.074 A 
ATOM     36  C   UNL A   1      42.457  25.996  27.290  1.00  0.00     0.049 A 
ATOM     37  N   UNL A   1      41.018  28.059  28.943  1.00  0.00    -0.248 NA
ATOM     38  C   UNL A   1      39.110  26.718  28.882  1.00  0.00     0.031 C 
ATOM     39  C   UNL A   1      43.177  25.062  26.422  1.00  0.00     0.029 A 
ATOM     40  N   UNL A   1      43.364  26.997  27.526  1.00  0.00    -0.354 N 
ATOM     41  C   UNL A   1      39.976  28.713  29.590  1.00  0.00     0.074 A 
ATOM     42  C   UNL A   1      38.809  27.866  29.473  1.00  0.00     0.031 C 
ATOM     43  C   UNL A   1      44.412  25.537  26.194  1.00  0.00     0.029 A 
ATOM     44  C   UNL A   1      44.562  26.819  26.875  1.00  0.00     0.049 A 
ATOM     45  H   UNL A   1      43.175  27.771  28.106  1.00  0.00     0.167 HD
ATOM     46  C   UNL A   1      39.995  29.897  30.249  1.00  0.00     0.034 A 
ATOM     47  C   UNL A   1      45.656  27.604  26.824  1.00  0.00     0.034 A 
ATOM     48  C   UNL A   1      41.170  30.711  30.404  1.00  0.00     0.049 A 
ATOM     49  C   UNL A   1      45.670  28.887  27.610  1.00  0.00     0.074 A 
ATOM     50  C   UNL A   1      41.319  31.878  31.131  1.00  0.00     0.029 A 
ATOM     51  N   UNL A   1      42.399  30.445  29.818  1.00  0.00    -0.354 N 
ATOM     52  N   UNL A   1      44.724  29.408  28.353  1.00  0.00    -0.248 NA
ATOM     53  C   UNL A   1      46.913  29.670  27.583  1.00  0.00     0.031 C 
ATOM     54  C   UNL A   1      42.634  32.328  30.972  1.00  0.00     0.029 A 
ATOM     55  C   UNL A   1      43.311  31.428  30.162  1.00  0.00     0.049 A 
ATOM     56  H   UNL A   1      42.594  29.670  29.243  1.00  0.00     0.167 HD
ATOM     57  C   UNL A   1      45.266  30.561  28.907  1.00  0.00     0.074 A 
ATOM     58  C   UNL A   1      46.631  30.650  28.432  1.00  0.00     0.031 C 
ATOM     59  C   UNL A   1      44.682  31.474  29.723  1.00  0.00     0.034 A 
BRANCH  46  60
ATOM     60  C   UNL A   1      38.717  30.354  30.904  1.00  0.00     0.023 A 
ATOM     61  C   UNL A   1      38.510  30.094  32.275  1.00  0.00     0.012 A 
ATOM     62  C   UNL A   1      37.747  31.081  30.187  1.00  0.00     0.148 A 
ATOM     63  C   UNL A   1      37.344  30.516  32.913  1.00  0.00     0.002 A 
ATOM     64  C   UNL A   1      36.607  31.538  30.839  1.00  0.00     0.091 A 
ATOM     65  F   UNL A   1      37.949  31.302  28.880  1.00  0.00    -0.205 F 
ATOM     66  C   UNL A   1      36.399  31.246  32.197  1.00  0.00     0.022 A 
BRANCH  64  67
ATOM     67  S   UNL A   1      35.367  32.553  30.027  1.00  0.00     0.127 S 
ATOM     68  O   UNL A   1      36.149  33.730  29.653  1.00  0.00    -0.237 OA
ATOM     69  O   UNL A   1      34.964  31.707  28.902  1.00  0.00    -0.237 OA
ATOM     70  O   UNL A   1      34.325  32.781  31.017  1.00  0.00    -0.744 OA
ENDBRANCH  64  67
ENDBRANCH  46  60
BRANCH  47  71
ATOM     71  C   UNL A   1      46.852  27.158  26.055  1.00  0.00     0.023 A 
ATOM     72  C   UNL A   1      47.720  26.205  26.621  1.00  0.00     0.012 A 
ATOM     73  C   UNL A   1      47.109  27.636  24.755  1.00  0.00     0.148 A 
ATOM     74  C   UNL A   1      48.839  25.757  25.919  1.00  0.00     0.002 A 
ATOM     75  C   UNL A   1      48.196  27.144  24.040  1.00  0.00     0.091 A 
ATOM     76  F   UNL A   1      46.278  28.551  24.238  1.00  0.00    -0.205 F 
ATOM     77  C   UNL A   1      49.071  26.217  24.626  1.00  0.00     0.022 A 
BRANCH  75  78
ATOM     78  S   UNL A   1      48.491  27.581  22.322  1.00  0.00     0.127 S 
ATOM     79  O   UNL A   1      47.282  28.336  21.994  1.00  0.00    -0.237 OA
ATOM     80  O   UNL A   1      49.710  28.387  22.420  1.00  0.00    -0.237 OA
ATOM     81  O   UNL A   1      48.663  26.320  21.620  1.00  0.00    -0.744 OA
ENDBRANCH  75  78
ENDBRANCH  47  71
BRANCH  59  82
ATOM     82  C   UNL A   1      45.519  32.637  30.182  1.00  0.00     0.023 A 
ATOM     83  C   UNL A   1      46.253  32.541  31.381  1.00  0.00     0.012 A 
ATOM     84  C   UNL A   1      45.641  33.794  29.387  1.00  0.00     0.148 A 
ATOM     85  C   UNL A   1      47.073  33.589  31.795  1.00  0.00     0.002 A 
ATOM     86  C   UNL A   1      46.497  34.816  29.783  1.00  0.00     0.091 A 
ATOM     87  F   UNL A   1      44.919  33.875  28.260  1.00  0.00    -0.205 F 
ATOM     88  C   UNL A   1      47.205  34.720  30.991  1.00  0.00     0.022 A 
BRANCH  86  89
ATOM     89  S   UNL A   1      46.801  36.264  28.765  1.00  0.00     0.127 S 
ATOM     90  O   UNL A   1      47.660  37.065  29.636  1.00  0.00    -0.237 OA
ATOM     91  O   UNL A   1      47.477  35.690  27.601  1.00  0.00    -0.237 OA
ATOM     92  O   UNL A   1      45.491  36.835  28.480  1.00  0.00    -0.744 OA
ENDBRANCH  86  89
ENDBRANCH  59  82
ENDBRANCH  33  34
ENDBRANCH  25  28
ENDBRANCH  23  24
ENDBRANCH  22  23
ENDBRANCH   1  22
TORSDOF 18
ENDMDL
MODEL 2
REMARK VINA RESULT:     -11.2      5.540     10.645
REMARK SMILES CC[C@@H](C)CN(C)c1cccc(Cl)c1/C=C/C(=O)NCCCNC(=O)c1ccc(-c2c3nc(c(-c4cccc(S(=O)(=O)[O-])c4F)c4ccc([nH]4)c(-c4cccc(S(=O)(=O)[O-])c4F)c4nc(c(-c5cccc(S(=O)(=O)[O-])c5F)c5ccc2[nH]5)C=C4)C=C3)cc1
REMARK SMILES IDX 20 1 19 2 17 3 18 4 16 6 15 7 14 8 8 9 9 10 10 11 12 12
REMARK SMILES IDX 11 13 13 14 6 15 7 16 5 17 3 18 4 19 2 20 1 21 21 22 22 23
REMARK SMILES IDX 23 24 24 25 25 27 26 28 27 29 88 30 28 31 87 32 29 33 30 34
REMARK SMILES IDX 31 35 81 36 32 37 86 38 80 39 82 40 33 41 85 42 79 43 78 44
REMARK SMILES IDX 34 46 66 47 46 48 65 49 47 50 50 51 64 52 83 53 48 54 49 55
REMARK SMILES IDX 63 57 84 58 51 59 35 60 36 61 44 62 37 63 39 64 45 65 38 66
REMARK SMILES IDX 40 67 41 68 42 69 43 70 67 71 68 72 76 73 69 74 71 75 77 76
REMARK SMILES IDX 70 77 72 78 73 79 74 80 75 81 52 82 53 83 61 84 54 85 56 86
REMARK SMILES IDX 62 87 55 88 57 89 58 90 59 91 60 92
REMARK H PARENT 19 5 23 26 82 45 50 56
REMARK Flexibility Score: inf
ROOT
ATOM      1  C   UNL A   1      31.484  30.411  26.514  1.00  0.00     0.118 C 
ENDROOT
BRANCH   1   2
ATOM      2  N   UNL A   1      32.660  29.847  27.158  1.00  0.00    -0.352 N 
ATOM      3  C   UNL A   1      33.436  28.796  26.770  1.00  0.00     0.244 C 
ATOM      4  O   UNL A   1      34.518  28.592  27.313  1.00  0.00    -0.270 OA
ATOM      5  H   UNL A   1      32.935  30.288  27.994  1.00  0.00     0.163 HD
BRANCH   3   6
ATOM      6  C   UNL A   1      33.000  27.923  25.658  1.00  0.00     0.072 C 
ATOM      7  C   UNL A   1      33.893  27.194  24.977  1.00  0.00     0.017 C 
BRANCH   7   8
ATOM      8  C   UNL A   1      33.618  26.382  23.778  1.00  0.00     0.017 A 
ATOM      9  C   UNL A   1      33.780  24.976  23.785  1.00  0.00     0.045 A 
ATOM     10  C   UNL A   1      33.221  24.245  22.723  1.00  0.00     0.026 A 
ATOM     11  C   UNL A   1      32.647  24.864  21.615  1.00  0.00     0.004 A 
ATOM     12  C   UNL A   1      33.050  27.002  22.642  1.00  0.00     0.050 A 
ATOM     13  C   UNL A   1      32.592  26.248  21.559  1.00  0.00     0.021 A 
ATOM     14  Cl  UNL A   1      32.898  28.725  22.509  1.00  0.00    -0.084 Cl
BRANCH   9  15
ATOM     15  N   UNL A   1      34.471  24.277  24.768  1.00  0.00    -0.374 N 
ATOM     16  C   UNL A   1      33.812  23.987  26.031  1.00  0.00     0.143 C 
BRANCH  15  17
ATOM     17  C   UNL A   1      35.901  23.991  24.588  1.00  0.00     0.119 C 
BRANCH  17  18
ATOM     18  C   UNL A   1      36.362  22.787  25.448  1.00  0.00     0.005 C 
ATOM     19  C   UNL A   1      37.767  23.032  26.011  1.00  0.00     0.009 C 
BRANCH  18  20
ATOM     20  C   UNL A   1      36.362  21.469  24.639  1.00  0.00     0.002 C 
ATOM     21  C   UNL A   1      37.632  20.655  24.855  1.00  0.00     0.004 C 
ENDBRANCH  18  20
ENDBRANCH  17  18
ENDBRANCH  15  17
ENDBRANCH   9  15
ENDBRANCH   7   8
ENDBRANCH   3   6
ENDBRANCH   1   2
BRANCH   1  22
ATOM     22  C   UNL A   1      31.440  31.934  26.599  1.00  0.00     0.042 C 
BRANCH  22  23
ATOM     23  C   UNL A   1      32.768  32.568  27.008  1.00  0.00     0.118 C 
BRANCH  23  24
ATOM     24  N   UNL A   1      32.601  33.937  27.482  1.00  0.00    -0.352 N 
ATOM     25  C   UNL A   1      33.172  34.581  28.549  1.00  0.00     0.251 C 
ATOM     26  H   UNL A   1      31.980  34.486  26.950  1.00  0.00     0.163 HD
ATOM     27  O   UNL A   1      32.709  35.661  28.916  1.00  0.00    -0.269 OA
BRANCH  25  28
ATOM     28  C   UNL A   1      34.333  33.999  29.254  1.00  0.00     0.039 A 
ATOM     29  C   UNL A   1      34.119  32.974  30.180  1.00  0.00     0.014 A 
ATOM     30  C   UNL A   1      35.622  34.498  29.049  1.00  0.00     0.014 A 
ATOM     31  C   UNL A   1      35.203  32.418  30.865  1.00  0.00     0.010 A 
ATOM     32  C   UNL A   1      36.708  33.896  29.678  1.00  0.00     0.010 A 
ATOM     33  C   UNL A   1      36.509  32.858  30.601  1.00  0.00    -0.014 A 
BRANCH  33  34
ATOM     34  C   UNL A   1      37.683  32.248  31.274  1.00  0.00     0.031 A 
ATOM     35  C   UNL A   1      38.423  31.109  30.626  1.00  0.00     0.074 A 
ATOM     36  C   UNL A   1      38.020  32.655  32.514  1.00  0.00     0.049 A 
ATOM     37  N   UNL A   1      39.415  30.398  31.094  1.00  0.00    -0.248 NA
ATOM     38  C   UNL A   1      37.967  30.693  29.289  1.00  0.00     0.031 C 
ATOM     39  C   UNL A   1      37.326  33.693  33.279  1.00  0.00     0.029 A 
ATOM     40  N   UNL A   1      39.007  32.222  33.363  1.00  0.00    -0.354 N 
ATOM     41  C   UNL A   1      39.677  29.430  30.132  1.00  0.00     0.074 A 
ATOM     42  C   UNL A   1      38.718  29.624  29.066  1.00  0.00     0.031 C 
ATOM     43  C   UNL A   1      37.905  33.812  34.485  1.00  0.00     0.029 A 
ATOM     44  C   UNL A   1      38.991  32.844  34.590  1.00  0.00     0.049 A 
ATOM     45  H   UNL A   1      39.665  31.532  33.116  1.00  0.00     0.167 HD
ATOM     46  C   UNL A   1      40.647  28.484  30.120  1.00  0.00     0.034 A 
ATOM     47  C   UNL A   1      39.759  32.648  35.679  1.00  0.00     0.034 A 
ATOM     48  C   UNL A   1      41.629  28.328  31.160  1.00  0.00     0.049 A 
ATOM     49  C   UNL A   1      40.865  31.630  35.620  1.00  0.00     0.074 A 
ATOM     50  C   UNL A   1      42.709  27.466  31.201  1.00  0.00     0.029 A 
ATOM     51  N   UNL A   1      41.647  29.049  32.344  1.00  0.00    -0.354 N 
ATOM     52  N   UNL A   1      41.200  30.835  34.633  1.00  0.00    -0.248 NA
ATOM     53  C   UNL A   1      41.721  31.509  36.807  1.00  0.00     0.031 C 
ATOM     54  C   UNL A   1      43.372  27.653  32.419  1.00  0.00     0.029 A 
ATOM     55  C   UNL A   1      42.716  28.648  33.127  1.00  0.00     0.049 A 
ATOM     56  H   UNL A   1      40.996  29.744  32.592  1.00  0.00     0.167 HD
ATOM     57  C   UNL A   1      42.324  30.143  35.066  1.00  0.00     0.074 A 
ATOM     58  C   UNL A   1      42.626  30.629  36.397  1.00  0.00     0.031 C 
ATOM     59  C   UNL A   1      43.034  29.179  34.427  1.00  0.00     0.034 A 
BRANCH  46  60
ATOM     60  C   UNL A   1      40.731  27.582  28.916  1.00  0.00     0.023 A 
ATOM     61  C   UNL A   1      39.799  26.532  28.771  1.00  0.00     0.012 A 
ATOM     62  C   UNL A   1      41.688  27.798  27.906  1.00  0.00     0.148 A 
ATOM     63  C   UNL A   1      39.843  25.690  27.661  1.00  0.00     0.002 A 
ATOM     64  C   UNL A   1      41.698  26.981  26.780  1.00  0.00     0.091 A 
ATOM     65  F   UNL A   1      42.579  28.786  28.069  1.00  0.00    -0.205 F 
ATOM     66  C   UNL A   1      40.785  25.921  26.662  1.00  0.00     0.022 A 
BRANCH  64  67
ATOM     67  S   UNL A   1      42.820  27.245  25.402  1.00  0.00     0.127 S 
ATOM     68  O   UNL A   1      42.673  25.995  24.659  1.00  0.00    -0.237 OA
ATOM     69  O   UNL A   1      42.235  28.416  24.747  1.00  0.00    -0.237 OA
ATOM     70  O   UNL A   1      44.131  27.473  25.992  1.00  0.00    -0.744 OA
ENDBRANCH  64  67
ENDBRANCH  46  60
BRANCH  47  71
ATOM     71  C   UNL A   1      39.548  33.489  36.892  1.00  0.00     0.023 A 
ATOM     72  C   UNL A   1      40.056  34.802  36.918  1.00  0.00     0.012 A 
ATOM     73  C   UNL A   1      38.815  33.013  37.997  1.00  0.00     0.148 A 
ATOM     74  C   UNL A   1      39.861  35.618  38.033  1.00  0.00     0.002 A 
ATOM     75  C   UNL A   1      38.579  33.850  39.082  1.00  0.00     0.091 A 
ATOM     76  F   UNL A   1      38.351  31.757  37.959  1.00  0.00    -0.205 F 
ATOM     77  C   UNL A   1      39.115  35.146  39.109  1.00  0.00     0.022 A 
BRANCH  75  78
ATOM     78  S   UNL A   1      37.515  33.371  40.449  1.00  0.00     0.127 S 
ATOM     79  O   UNL A   1      37.478  34.598  41.243  1.00  0.00    -0.237 OA
ATOM     80  O   UNL A   1      36.264  33.049  39.760  1.00  0.00    -0.237 OA
ATOM     81  O   UNL A   1      38.165  32.230  41.072  1.00  0.00    -0.744 OA
ENDBRANCH  75  78
ENDBRANCH  47  71
BRANCH  59  82
ATOM     82  C   UNL A   1      44.226  28.601  35.142  1.00  0.00     0.023 A 
ATOM     83  C   UNL A   1      45.518  29.078  34.845  1.00  0.00     0.012 A 
ATOM     84  C   UNL A   1      44.059  27.643  36.161  1.00  0.00     0.148 A 
ATOM     85  C   UNL A   1      46.628  28.590  35.532  1.00  0.00     0.002 A 
ATOM     86  C   UNL A   1      45.165  27.195  36.874  1.00  0.00     0.091 A 
ATOM     87  F   UNL A   1      42.824  27.187  36.414  1.00  0.00    -0.205 F 
ATOM     88  C   UNL A   1      46.451  27.659  36.554  1.00  0.00     0.022 A 
BRANCH  86  89
ATOM     89  S   UNL A   1      45.020  26.070  38.267  1.00  0.00     0.127 S 
ATOM     90  O   UNL A   1      44.437  24.887  37.636  1.00  0.00    -0.237 OA
ATOM     91  O   UNL A   1      46.413  25.914  38.687  1.00  0.00    -0.237 OA
ATOM     92  O   UNL A   1      44.170  26.745  39.239  1.00  0.00    -0.744 OA
ENDBRANCH  86  89
ENDBRANCH  59  82
ENDBRANCH  33  34
ENDBRANCH  25  28
ENDBRANCH  23  24
ENDBRANCH  22  23
ENDBRANCH   1  22
TORSDOF 18
ENDMDL
MODEL 3
REMARK VINA RESULT:     -11.1      5.070      7.308
REMARK SMILES CC[C@@H](C)CN(C)c1cccc(Cl)c1/C=C/C(=O)NCCCNC(=O)c1ccc(-c2c3nc(c(-c4cccc(S(=O)(=O)[O-])c4F)c4ccc([nH]4)c(-c4cccc(S(=O)(=O)[O-])c4F)c4nc(c(-c5cccc(S(=O)(=O)[O-])c5F)c5ccc2[nH]5)C=C4)C=C3)cc1
REMARK SMILES IDX 20 1 19 2 17 3 18 4 16 6 15 7 14 8 8 9 9 10 10 11 12 12
REMARK SMILES IDX 11 13 13 14 6 15 7 16 5 17 3 18 4 19 2 20 1 21 21 22 22 23
REMARK SMILES IDX 23 24 24 25 25 27 26 28 27 29 88 30 28 31 87 32 29 33 30 34
REMARK SMILES IDX 31 35 81 36 32 37 86 38 80 39 82 40 33 41 85 42 79 43 78 44
REMARK SMILES IDX 34 46 66 47 46 48 65 49 47 50 50 51 64 52 83 53 48 54 49 55
REMARK SMILES IDX 63 57 84 58 51 59 35 60 36 61 44 62 37 63 39 64 45 65 38 66
REMARK SMILES IDX 40 67 41 68 42 69 43 70 67 71 68 72 76 73 69 74 71 75 77 76
REMARK SMILES IDX 70 77 72 78 73 79 74 80 75 81 52 82 53 83 61 84 54 85 56 86
REMARK SMILES IDX 62 87 55 88 57 89 58 90 59 91 60 92
REMARK H PARENT 19 5 23 26 82 45 50 56
REMARK Flexibility Score: inf
ROOT
ATOM      1  C   UNL A   1      32.202  27.490  23.954  1.00  0.00     0.118 C 
ENDROOT
BRANCH   1   2
ATOM      2  N   UNL A   1      32.596  27.102  22.608  1.00  0.00    -0.352 N 
ATOM      3  C   UNL A   1      33.203  25.958  22.183  1.00  0.00     0.244 C 
ATOM      4  O   UNL A   1      33.264  25.700  20.983  1.00  0.00    -0.270 OA
ATOM      5  H   UNL A   1      32.395  27.760  21.904  1.00  0.00     0.163 HD
BRANCH   3   6
ATOM      6  C   UNL A   1      33.748  24.997  23.166  1.00  0.00     0.072 C 
ATOM      7  C   UNL A   1      34.055  23.748  22.796  1.00  0.00     0.017 C 
BRANCH   7   8
ATOM      8  C   UNL A   1      34.488  22.659  23.690  1.00  0.00     0.017 A 
ATOM      9  C   UNL A   1      33.575  21.689  24.167  1.00  0.00     0.045 A 
ATOM     10  C   UNL A   1      34.101  20.527  24.758  1.00  0.00     0.026 A 
ATOM     11  C   UNL A   1      35.462  20.370  25.008  1.00  0.00     0.004 A 
ATOM     12  C   UNL A   1      35.866  22.499  23.963  1.00  0.00     0.050 A 
ATOM     13  C   UNL A   1      36.344  21.374  24.640  1.00  0.00     0.021 A 
ATOM     14  Cl  UNL A   1      37.044  23.683  23.496  1.00  0.00    -0.084 Cl
BRANCH   9  15
ATOM     15  N   UNL A   1      32.193  21.822  24.104  1.00  0.00    -0.374 N 
ATOM     16  C   UNL A   1      31.513  21.585  22.841  1.00  0.00     0.143 C 
BRANCH  15  17
ATOM     17  C   UNL A   1      31.461  22.362  25.257  1.00  0.00     0.119 C 
BRANCH  17  18
ATOM     18  C   UNL A   1      32.360  23.259  26.145  1.00  0.00     0.005 C 
ATOM     19  C   UNL A   1      32.497  22.663  27.551  1.00  0.00     0.009 C 
BRANCH  18  20
ATOM     20  C   UNL A   1      31.806  24.698  26.255  1.00  0.00     0.002 C 
ATOM     21  C   UNL A   1      30.287  24.746  26.142  1.00  0.00     0.004 C 
ENDBRANCH  18  20
ENDBRANCH  17  18
ENDBRANCH  15  17
ENDBRANCH   9  15
ENDBRANCH   7   8
ENDBRANCH   3   6
ENDBRANCH   1   2
BRANCH   1  22
ATOM     22  C   UNL A   1      32.274  28.998  24.177  1.00  0.00     0.042 C 
BRANCH  22  23
ATOM     23  C   UNL A   1      33.099  29.402  25.397  1.00  0.00     0.118 C 
BRANCH  23  24
ATOM     24  N   UNL A   1      32.780  30.750  25.854  1.00  0.00    -0.352 N 
ATOM     25  C   UNL A   1      33.262  31.461  26.923  1.00  0.00     0.251 C 
ATOM     26  H   UNL A   1      32.113  31.225  25.307  1.00  0.00     0.163 HD
ATOM     27  O   UNL A   1      32.681  32.488  27.272  1.00  0.00    -0.269 OA
BRANCH  25  28
ATOM     28  C   UNL A   1      34.467  31.012  27.651  1.00  0.00     0.039 A 
ATOM     29  C   UNL A   1      35.497  31.928  27.885  1.00  0.00     0.014 A 
ATOM     30  C   UNL A   1      34.609  29.681  28.054  1.00  0.00     0.014 A 
ATOM     31  C   UNL A   1      36.649  31.519  28.563  1.00  0.00     0.010 A 
ATOM     32  C   UNL A   1      35.725  29.293  28.789  1.00  0.00     0.010 A 
ATOM     33  C   UNL A   1      36.761  30.205  29.042  1.00  0.00    -0.014 A 
BRANCH  33  34
ATOM     34  C   UNL A   1      37.950  29.759  29.811  1.00  0.00     0.031 A 
ATOM     35  C   UNL A   1      38.209  30.302  31.190  1.00  0.00     0.074 A 
ATOM     36  C   UNL A   1      38.850  28.943  29.226  1.00  0.00     0.049 A 
ATOM     37  N   UNL A   1      39.231  30.096  31.980  1.00  0.00    -0.248 NA
ATOM     38  C   UNL A   1      37.202  31.223  31.744  1.00  0.00     0.031 C 
ATOM     39  C   UNL A   1      38.751  28.419  27.862  1.00  0.00     0.029 A 
ATOM     40  N   UNL A   1      40.039  28.440  29.689  1.00  0.00    -0.354 N 
ATOM     41  C   UNL A   1      39.011  30.887  33.102  1.00  0.00     0.074 A 
ATOM     42  C   UNL A   1      37.774  31.602  32.877  1.00  0.00     0.031 C 
ATOM     43  C   UNL A   1      39.836  27.673  27.598  1.00  0.00     0.029 A 
ATOM     44  C   UNL A   1      40.719  27.688  28.760  1.00  0.00     0.049 A 
ATOM     45  H   UNL A   1      40.374  28.603  30.601  1.00  0.00     0.167 HD
ATOM     46  C   UNL A   1      39.756  30.986  34.230  1.00  0.00     0.034 A 
ATOM     47  C   UNL A   1      41.922  27.087  28.832  1.00  0.00     0.034 A 
ATOM     48  C   UNL A   1      40.958  30.234  34.467  1.00  0.00     0.049 A 
ATOM     49  C   UNL A   1      42.702  27.167  30.116  1.00  0.00     0.074 A 
ATOM     50  C   UNL A   1      41.734  30.190  35.611  1.00  0.00     0.029 A 
ATOM     51  N   UNL A   1      41.563  29.398  33.541  1.00  0.00    -0.354 N 
ATOM     52  N   UNL A   1      42.396  27.789  31.228  1.00  0.00    -0.248 NA
ATOM     53  C   UNL A   1      43.973  26.432  30.169  1.00  0.00     0.031 C 
ATOM     54  C   UNL A   1      42.818  29.339  35.372  1.00  0.00     0.029 A 
ATOM     55  C   UNL A   1      42.705  28.836  34.084  1.00  0.00     0.049 A 
ATOM     56  H   UNL A   1      41.229  29.227  32.631  1.00  0.00     0.167 HD
ATOM     57  C   UNL A   1      43.417  27.496  32.123  1.00  0.00     0.074 A 
ATOM     58  C   UNL A   1      44.340  26.621  31.430  1.00  0.00     0.031 C 
ATOM     59  C   UNL A   1      43.585  27.924  33.399  1.00  0.00     0.034 A 
BRANCH  46  60
ATOM     60  C   UNL A   1      39.256  31.898  35.320  1.00  0.00     0.023 A 
ATOM     61  C   UNL A   1      38.303  31.417  36.243  1.00  0.00     0.012 A 
ATOM     62  C   UNL A   1      39.759  33.205  35.467  1.00  0.00     0.148 A 
ATOM     63  C   UNL A   1      37.832  32.233  37.272  1.00  0.00     0.002 A 
ATOM     64  C   UNL A   1      39.317  33.999  36.521  1.00  0.00     0.091 A 
ATOM     65  F   UNL A   1      40.647  33.655  34.570  1.00  0.00    -0.205 F 
ATOM     66  C   UNL A   1      38.346  33.518  37.415  1.00  0.00     0.022 A 
BRANCH  64  67
ATOM     67  S   UNL A   1      39.975  35.640  36.840  1.00  0.00     0.127 S 
ATOM     68  O   UNL A   1      39.262  36.011  38.061  1.00  0.00    -0.237 OA
ATOM     69  O   UNL A   1      41.401  35.371  37.025  1.00  0.00    -0.237 OA
ATOM     70  O   UNL A   1      39.656  36.434  35.662  1.00  0.00    -0.744 OA
ENDBRANCH  64  67
ENDBRANCH  46  60
BRANCH  47  71
ATOM     71  C   UNL A   1      42.425  26.297  27.672  1.00  0.00     0.023 A 
ATOM     72  C   UNL A   1      43.337  26.889  26.777  1.00  0.00     0.012 A 
ATOM     73  C   UNL A   1      42.041  24.956  27.476  1.00  0.00     0.148 A 
ATOM     74  C   UNL A   1      43.835  26.169  25.691  1.00  0.00     0.002 A 
ATOM     75  C   UNL A   1      42.584  24.229  26.422  1.00  0.00     0.091 A 
ATOM     76  F   UNL A   1      41.163  24.414  28.331  1.00  0.00    -0.205 F 
ATOM     77  C   UNL A   1      43.468  24.838  25.519  1.00  0.00     0.022 A 
BRANCH  75  78
ATOM     78  S   UNL A   1      42.271  22.472  26.208  1.00  0.00     0.127 S 
ATOM     79  O   UNL A   1      43.016  22.183  24.984  1.00  0.00    -0.237 OA
ATOM     80  O   UNL A   1      42.853  21.910  27.429  1.00  0.00    -0.237 OA
ATOM     81  O   UNL A   1      40.826  22.338  26.119  1.00  0.00    -0.744 OA
ENDBRANCH  75  78
ENDBRANCH  47  71
BRANCH  59  82
ATOM     82  C   UNL A   1      44.797  27.435  34.146  1.00  0.00     0.023 A 
ATOM     83  C   UNL A   1      45.977  28.206  34.145  1.00  0.00     0.012 A 
ATOM     84  C   UNL A   1      44.743  26.253  34.910  1.00  0.00     0.148 A 
ATOM     85  C   UNL A   1      47.093  27.793  34.872  1.00  0.00     0.002 A 
ATOM     86  C   UNL A   1      45.844  25.872  35.669  1.00  0.00     0.091 A 
ATOM     87  F   UNL A   1      43.619  25.523  34.881  1.00  0.00    -0.205 F 
ATOM     88  C   UNL A   1      47.022  26.634  35.643  1.00  0.00     0.022 A 
BRANCH  86  89
ATOM     89  S   UNL A   1      45.810  24.448  36.765  1.00  0.00     0.127 S 
ATOM     90  O   UNL A   1      45.695  23.343  35.814  1.00  0.00    -0.237 OA
ATOM     91  O   UNL A   1      47.106  24.542  37.437  1.00  0.00    -0.237 OA
ATOM     92  O   UNL A   1      44.662  24.644  37.640  1.00  0.00    -0.744 OA
ENDBRANCH  86  89
ENDBRANCH  59  82
ENDBRANCH  33  34
ENDBRANCH  25  28
ENDBRANCH  23  24
ENDBRANCH  22  23
ENDBRANCH   1  22
TORSDOF 18
ENDMDL
