MODEL 1
REMARK VINA RESULT:     -12.2      0.000      0.000
REMARK SMILES O=C(NCCCNC(=O)[C@H]1CS[C@]2(c3ccccc3)CCC(=O)N12)c1ccc(-c2c3nc(c(-c4cccc(S(=O)(=O)[O-])c4F)c4ccc([nH]4)c(-c4cccc(S(=O)(=O)[O-])c4F)c4nc(c(-c5cccc(S(=O)(=O)[O-])c5F)c5ccc2[nH]5)C=C4)C=C3)cc1
REMARK SMILES IDX 4 1 3 2 1 3 2 4 25 6 26 7 87 8 27 9 86 10 28 11 29 12 30 13
REMARK SMILES IDX 80 14 31 15 85 16 79 17 81 18 32 19 84 20 78 21 77 22 33 24
REMARK SMILES IDX 65 25 45 26 64 27 46 28 49 29 63 30 82 31 47 32 48 33 62 35
REMARK SMILES IDX 83 36 50 37 34 38 35 39 43 40 36 41 38 42 44 43 37 44 39 45
REMARK SMILES IDX 40 46 41 47 42 48 66 49 67 50 75 51 68 52 70 53 76 54 69 55
REMARK SMILES IDX 71 56 72 57 73 58 74 59 51 60 52 61 60 62 53 63 55 64 61 65
REMARK SMILES IDX 54 66 56 67 57 68 58 69 59 70 5 71 6 72 7 73 8 74 9 76 10 77
REMARK SMILES IDX 11 78 24 79 12 80 13 81 22 82 20 83 21 84 23 85 14 86 15 87
REMARK SMILES IDX 19 88 16 89 18 90 17 91
REMARK H PARENT 3 5 81 23 49 34 7 75
REMARK Flexibility Score: inf
ROOT
ATOM      1  C   UNL A   1      33.251  29.227  25.320  1.00  0.00     0.118 C 
ENDROOT
BRANCH   1   2
ATOM      2  N   UNL A   1      32.701  30.481  25.820  1.00  0.00    -0.352 N 
ATOM      3  O   UNL A   1      32.421  32.195  27.251  1.00  0.00    -0.269 OA
ATOM      4  C   UNL A   1      33.122  31.263  26.870  1.00  0.00     0.251 C 
ATOM      5  H   UNL A   1      31.912  30.817  25.336  1.00  0.00     0.163 HD
BRANCH   4   6
ATOM      6  C   UNL A   1      34.403  30.960  27.540  1.00  0.00     0.039 A 
ATOM      7  C   UNL A   1      34.663  29.674  28.018  1.00  0.00     0.014 A 
ATOM      8  C   UNL A   1      35.358  31.970  27.689  1.00  0.00     0.014 A 
ATOM      9  C   UNL A   1      35.800  29.438  28.777  1.00  0.00     0.010 A 
ATOM     10  C   UNL A   1      36.549  31.705  28.374  1.00  0.00     0.010 A 
ATOM     11  C   UNL A   1      36.765  30.445  28.952  1.00  0.00    -0.014 A 
BRANCH  11  12
ATOM     12  C   UNL A   1      38.014  30.114  29.681  1.00  0.00     0.031 A 
ATOM     13  C   UNL A   1      38.265  30.602  31.080  1.00  0.00     0.074 A 
ATOM     14  C   UNL A   1      38.913  29.317  29.068  1.00  0.00     0.049 A 
ATOM     15  N   UNL A   1      39.261  30.314  31.879  1.00  0.00    -0.248 NA
ATOM     16  C   UNL A   1      37.287  31.537  31.656  1.00  0.00     0.031 C 
ATOM     17  C   UNL A   1      38.802  28.836  27.689  1.00  0.00     0.029 A 
ATOM     18  N   UNL A   1      40.077  28.757  29.523  1.00  0.00    -0.354 N 
ATOM     19  C   UNL A   1      39.047  31.047  33.039  1.00  0.00     0.074 A 
ATOM     20  C   UNL A   1      37.832  31.809  32.836  1.00  0.00     0.031 C 
ATOM     21  C   UNL A   1      39.831  28.019  27.423  1.00  0.00     0.029 A 
ATOM     22  C   UNL A   1      40.694  27.949  28.596  1.00  0.00     0.049 A 
ATOM     23  H   UNL A   1      40.438  28.917  30.424  1.00  0.00     0.167 HD
ATOM     24  C   UNL A   1      39.782  31.067  34.177  1.00  0.00     0.034 A 
ATOM     25  C   UNL A   1      41.828  27.228  28.678  1.00  0.00     0.034 A 
ATOM     26  C   UNL A   1      40.971  30.281  34.385  1.00  0.00     0.049 A 
ATOM     27  C   UNL A   1      42.584  27.217  29.975  1.00  0.00     0.074 A 
ATOM     28  C   UNL A   1      41.768  30.208  35.514  1.00  0.00     0.029 A 
ATOM     29  N   UNL A   1      41.529  29.426  33.446  1.00  0.00    -0.354 N 
ATOM     30  N   UNL A   1      42.297  27.825  31.099  1.00  0.00    -0.248 NA
ATOM     31  C   UNL A   1      43.801  26.397  30.025  1.00  0.00     0.031 C 
ATOM     32  C   UNL A   1      42.810  29.309  35.256  1.00  0.00     0.029 A 
ATOM     33  C   UNL A   1      42.658  28.817  33.970  1.00  0.00     0.049 A 
ATOM     34  H   UNL A   1      41.176  29.275  32.540  1.00  0.00     0.167 HD
ATOM     35  C   UNL A   1      43.292  27.459  31.994  1.00  0.00     0.074 A 
ATOM     36  C   UNL A   1      44.165  26.538  31.293  1.00  0.00     0.031 C 
ATOM     37  C   UNL A   1      43.487  27.871  33.271  1.00  0.00     0.034 A 
BRANCH  24  38
ATOM     38  C   UNL A   1      39.290  31.918  35.317  1.00  0.00     0.023 A 
ATOM     39  C   UNL A   1      38.385  31.364  36.246  1.00  0.00     0.012 A 
ATOM     40  C   UNL A   1      39.771  33.227  35.518  1.00  0.00     0.148 A 
ATOM     41  C   UNL A   1      37.953  32.103  37.347  1.00  0.00     0.002 A 
ATOM     42  C   UNL A   1      39.361  33.947  36.636  1.00  0.00     0.091 A 
ATOM     43  F   UNL A   1      40.612  33.746  34.613  1.00  0.00    -0.205 F 
ATOM     44  C   UNL A   1      38.448  33.389  37.547  1.00  0.00     0.022 A 
BRANCH  42  45
ATOM     45  S   UNL A   1      39.991  35.585  37.019  1.00  0.00     0.127 S 
ATOM     46  O   UNL A   1      39.278  35.894  38.258  1.00  0.00    -0.237 OA
ATOM     47  O   UNL A   1      41.423  35.336  37.187  1.00  0.00    -0.237 OA
ATOM     48  O   UNL A   1      39.653  36.420  35.876  1.00  0.00    -0.744 OA
ENDBRANCH  42  45
ENDBRANCH  24  38
BRANCH  25  49
ATOM     49  C   UNL A   1      42.266  26.414  27.511  1.00  0.00     0.023 A 
ATOM     50  C   UNL A   1      43.158  26.965  26.572  1.00  0.00     0.012 A 
ATOM     51  C   UNL A   1      41.859  25.073  27.366  1.00  0.00     0.148 A 
ATOM     52  C   UNL A   1      43.620  26.202  25.499  1.00  0.00     0.002 A 
ATOM     53  C   UNL A   1      42.374  24.300  26.331  1.00  0.00     0.091 A 
ATOM     54  F   UNL A   1      40.992  24.567  28.255  1.00  0.00    -0.205 F 
ATOM     55  C   UNL A   1      43.242  24.866  25.387  1.00  0.00     0.022 A 
BRANCH  53  56
ATOM     56  S   UNL A   1      42.050  22.536  26.240  1.00  0.00     0.127 S 
ATOM     57  O   UNL A   1      42.736  22.166  25.005  1.00  0.00    -0.237 OA
ATOM     58  O   UNL A   1      42.677  22.037  27.465  1.00  0.00    -0.237 OA
ATOM     59  O   UNL A   1      40.598  22.423  26.231  1.00  0.00    -0.744 OA
ENDBRANCH  53  56
ENDBRANCH  25  49
BRANCH  37  60
ATOM     60  C   UNL A   1      44.697  27.333  33.985  1.00  0.00     0.023 A 
ATOM     61  C   UNL A   1      45.907  28.053  33.924  1.00  0.00     0.012 A 
ATOM     62  C   UNL A   1      44.629  26.153  34.747  1.00  0.00     0.148 A 
ATOM     63  C   UNL A   1      47.043  27.586  34.586  1.00  0.00     0.002 A 
ATOM     64  C   UNL A   1      45.755  25.715  35.436  1.00  0.00     0.091 A 
ATOM     65  F   UNL A   1      43.477  25.468  34.772  1.00  0.00    -0.205 F 
ATOM     66  C   UNL A   1      46.964  26.424  35.349  1.00  0.00     0.022 A 
BRANCH  64  67
ATOM     67  S   UNL A   1      45.711  24.269  36.503  1.00  0.00     0.127 S 
ATOM     68  O   UNL A   1      47.072  24.248  37.034  1.00  0.00    -0.237 OA
ATOM     69  O   UNL A   1      44.681  24.627  37.479  1.00  0.00    -0.237 OA
ATOM     70  O   UNL A   1      45.351  23.156  35.635  1.00  0.00    -0.744 OA
ENDBRANCH  64  67
ENDBRANCH  37  60
ENDBRANCH  11  12
ENDBRANCH   4   6
ENDBRANCH   1   2
BRANCH   1  71
ATOM     71  C   UNL A   1      32.171  28.234  24.904  1.00  0.00     0.042 C 
BRANCH  71  72
ATOM     72  C   UNL A   1      32.128  27.998  23.404  1.00  0.00     0.117 C 
BRANCH  72  73
ATOM     73  N   UNL A   1      33.040  26.947  22.994  1.00  0.00    -0.354 N 
ATOM     74  C   UNL A   1      33.000  25.592  23.012  1.00  0.00     0.243 C 
ATOM     75  H   UNL A   1      33.880  27.296  22.618  1.00  0.00     0.163 HD
ATOM     76  O   UNL A   1      33.929  25.045  22.403  1.00  0.00    -0.273 OA
BRANCH  74  77
ATOM     77  C   UNL A   1      31.943  24.725  23.721  1.00  0.00     0.186 C 
ATOM     78  C   UNL A   1      31.295  23.480  23.131  1.00  0.00     0.107 C 
ATOM     79  N   UNL A   1      32.374  24.318  25.067  1.00  0.00    -0.311 N 
ATOM     80  S   UNL A   1      32.207  22.042  23.814  1.00  0.00    -0.126 SA
ATOM     81  C   UNL A   1      33.013  23.008  25.186  1.00  0.00     0.115 C 
ATOM     82  C   UNL A   1      31.442  24.554  26.083  1.00  0.00     0.224 C 
ATOM     83  C   UNL A   1      32.536  22.530  26.574  1.00  0.00     0.055 C 
ATOM     84  C   UNL A   1      31.268  23.293  26.876  1.00  0.00     0.104 C 
ATOM     85  O   UNL A   1      30.708  25.526  26.186  1.00  0.00    -0.275 OA
BRANCH  81  86
ATOM     86  C   UNL A   1      34.553  22.972  25.034  1.00  0.00    -0.012 A 
ATOM     87  C   UNL A   1      35.401  23.733  25.857  1.00  0.00     0.007 A 
ATOM     88  C   UNL A   1      35.210  22.229  24.030  1.00  0.00     0.007 A 
ATOM     89  C   UNL A   1      36.797  23.708  25.753  1.00  0.00     0.000 A 
ATOM     90  C   UNL A   1      36.609  22.202  23.909  1.00  0.00     0.000 A 
ATOM     91  C   UNL A   1      37.404  22.933  24.780  1.00  0.00     0.000 A 
ENDBRANCH  81  86
ENDBRANCH  74  77
ENDBRANCH  72  73
ENDBRANCH  71  72
ENDBRANCH   1  71
TORSDOF 14
ENDMDL
MODEL 2
REMARK VINA RESULT:     -12.2      1.306      1.633
REMARK SMILES O=C(NCCCNC(=O)[C@H]1CS[C@]2(c3ccccc3)CCC(=O)N12)c1ccc(-c2c3nc(c(-c4cccc(S(=O)(=O)[O-])c4F)c4ccc([nH]4)c(-c4cccc(S(=O)(=O)[O-])c4F)c4nc(c(-c5cccc(S(=O)(=O)[O-])c5F)c5ccc2[nH]5)C=C4)C=C3)cc1
REMARK SMILES IDX 4 1 3 2 1 3 2 4 25 6 26 7 87 8 27 9 86 10 28 11 29 12 30 13
REMARK SMILES IDX 80 14 31 15 85 16 79 17 81 18 32 19 84 20 78 21 77 22 33 24
REMARK SMILES IDX 65 25 45 26 64 27 46 28 49 29 63 30 82 31 47 32 48 33 62 35
REMARK SMILES IDX 83 36 50 37 34 38 35 39 43 40 36 41 38 42 44 43 37 44 39 45
REMARK SMILES IDX 40 46 41 47 42 48 66 49 67 50 75 51 68 52 70 53 76 54 69 55
REMARK SMILES IDX 71 56 72 57 73 58 74 59 51 60 52 61 60 62 53 63 55 64 61 65
REMARK SMILES IDX 54 66 56 67 57 68 58 69 59 70 5 71 6 72 7 73 8 74 9 76 10 77
REMARK SMILES IDX 11 78 24 79 12 80 13 81 22 82 20 83 21 84 23 85 14 86 15 87
REMARK SMILES IDX 19 88 16 89 18 90 17 91
REMARK H PARENT 3 5 81 23 49 34 7 75
REMARK Flexibility Score: inf
ROOT
ATOM      1  C   UNL A   1      33.264  29.305  25.083  1.00  0.00     0.118 C 
ENDROOT
BRANCH   1   2
ATOM      2  N   UNL A   1      32.611  30.464  25.679  1.00  0.00    -0.352 N 
ATOM      3  O   UNL A   1      32.169  32.012  27.252  1.00  0.00    -0.269 OA
ATOM      4  C   UNL A   1      32.947  31.172  26.809  1.00  0.00     0.251 C 
ATOM      5  H   UNL A   1      31.811  30.787  25.203  1.00  0.00     0.163 HD
BRANCH   4   6
ATOM      6  C   UNL A   1      34.230  30.898  27.489  1.00  0.00     0.039 A 
ATOM      7  C   UNL A   1      34.519  29.617  27.962  1.00  0.00     0.014 A 
ATOM      8  C   UNL A   1      35.156  31.933  27.652  1.00  0.00     0.014 A 
ATOM      9  C   UNL A   1      35.656  29.406  28.729  1.00  0.00     0.010 A 
ATOM     10  C   UNL A   1      36.347  31.694  28.346  1.00  0.00     0.010 A 
ATOM     11  C   UNL A   1      36.591  30.438  28.918  1.00  0.00    -0.014 A 
BRANCH  11  12
ATOM     12  C   UNL A   1      37.843  30.135  29.656  1.00  0.00     0.031 A 
ATOM     13  C   UNL A   1      38.076  30.635  31.054  1.00  0.00     0.074 A 
ATOM     14  C   UNL A   1      38.761  29.353  29.053  1.00  0.00     0.049 A 
ATOM     15  N   UNL A   1      39.072  30.370  31.860  1.00  0.00    -0.248 NA
ATOM     16  C   UNL A   1      37.075  31.553  31.620  1.00  0.00     0.031 C 
ATOM     17  C   UNL A   1      38.668  28.863  27.675  1.00  0.00     0.029 A 
ATOM     18  N   UNL A   1      39.934  28.818  29.517  1.00  0.00    -0.354 N 
ATOM     19  C   UNL A   1      38.837  31.105  33.016  1.00  0.00     0.074 A 
ATOM     20  C   UNL A   1      37.608  31.842  32.802  1.00  0.00     0.031 C 
ATOM     21  C   UNL A   1      39.714  28.066  27.419  1.00  0.00     0.029 A 
ATOM     22  C   UNL A   1      40.572  28.019  28.598  1.00  0.00     0.049 A 
ATOM     23  H   UNL A   1      40.286  28.990  30.420  1.00  0.00     0.167 HD
ATOM     24  C   UNL A   1      39.564  31.145  34.158  1.00  0.00     0.034 A 
ATOM     25  C   UNL A   1      41.720  27.320  28.690  1.00  0.00     0.034 A 
ATOM     26  C   UNL A   1      40.767  30.384  34.377  1.00  0.00     0.049 A 
ATOM     27  C   UNL A   1      42.467  27.331  29.992  1.00  0.00     0.074 A 
ATOM     28  C   UNL A   1      41.559  30.332  35.511  1.00  0.00     0.029 A 
ATOM     29  N   UNL A   1      41.348  29.536  33.446  1.00  0.00    -0.354 N 
ATOM     30  N   UNL A   1      42.161  27.939  31.111  1.00  0.00    -0.248 NA
ATOM     31  C   UNL A   1      43.701  26.536  30.053  1.00  0.00     0.031 C 
ATOM     32  C   UNL A   1      42.620  29.454  35.264  1.00  0.00     0.029 A 
ATOM     33  C   UNL A   1      42.485  28.952  33.979  1.00  0.00     0.049 A 
ATOM     34  H   UNL A   1      41.004  29.373  32.538  1.00  0.00     0.167 HD
ATOM     35  C   UNL A   1      43.158  27.597  32.014  1.00  0.00     0.074 A 
ATOM     36  C   UNL A   1      44.054  26.691  31.323  1.00  0.00     0.031 C 
ATOM     37  C   UNL A   1      43.338  28.020  33.290  1.00  0.00     0.034 A 
BRANCH  24  38
ATOM     38  C   UNL A   1      39.048  31.992  35.291  1.00  0.00     0.023 A 
ATOM     39  C   UNL A   1      39.122  33.395  35.187  1.00  0.00     0.012 A 
ATOM     40  C   UNL A   1      38.425  31.414  36.416  1.00  0.00     0.148 A 
ATOM     41  C   UNL A   1      38.603  34.213  36.190  1.00  0.00     0.002 A 
ATOM     42  C   UNL A   1      37.880  32.236  37.397  1.00  0.00     0.091 A 
ATOM     43  F   UNL A   1      38.385  30.078  36.509  1.00  0.00    -0.205 F 
ATOM     44  C   UNL A   1      37.974  33.634  37.289  1.00  0.00     0.022 A 
BRANCH  42  45
ATOM     45  S   UNL A   1      36.991  31.589  38.818  1.00  0.00     0.127 S 
ATOM     46  O   UNL A   1      37.978  31.756  39.885  1.00  0.00    -0.237 OA
ATOM     47  O   UNL A   1      35.843  32.492  38.905  1.00  0.00    -0.237 OA
ATOM     48  O   UNL A   1      36.654  30.213  38.486  1.00  0.00    -0.744 OA
ENDBRANCH  42  45
ENDBRANCH  24  38
BRANCH  25  49
ATOM     49  C   UNL A   1      42.180  26.510  27.530  1.00  0.00     0.023 A 
ATOM     50  C   UNL A   1      43.066  27.074  26.593  1.00  0.00     0.012 A 
ATOM     51  C   UNL A   1      41.802  25.160  27.390  1.00  0.00     0.148 A 
ATOM     52  C   UNL A   1      43.550  26.315  25.527  1.00  0.00     0.002 A 
ATOM     53  C   UNL A   1      42.338  24.393  26.362  1.00  0.00     0.091 A 
ATOM     54  F   UNL A   1      40.940  24.641  28.276  1.00  0.00    -0.205 F 
ATOM     55  C   UNL A   1      43.199  24.971  25.420  1.00  0.00     0.022 A 
BRANCH  53  56
ATOM     56  S   UNL A   1      42.051  22.621  26.278  1.00  0.00     0.127 S 
ATOM     57  O   UNL A   1      42.690  22.154  27.505  1.00  0.00    -0.237 OA
ATOM     58  O   UNL A   1      40.590  22.538  26.275  1.00  0.00    -0.237 OA
ATOM     59  O   UNL A   1      42.669  22.203  25.027  1.00  0.00    -0.744 OA
ENDBRANCH  53  56
ENDBRANCH  25  49
BRANCH  37  60
ATOM     60  C   UNL A   1      44.554  27.509  34.014  1.00  0.00     0.023 A 
ATOM     61  C   UNL A   1      45.755  28.242  33.940  1.00  0.00     0.012 A 
ATOM     62  C   UNL A   1      44.500  26.342  34.797  1.00  0.00     0.148 A 
ATOM     63  C   UNL A   1      46.896  27.801  34.610  1.00  0.00     0.002 A 
ATOM     64  C   UNL A   1      45.631  25.930  35.494  1.00  0.00     0.091 A 
ATOM     65  F   UNL A   1      43.356  25.645  34.835  1.00  0.00    -0.205 F 
ATOM     66  C   UNL A   1      46.831  26.653  35.394  1.00  0.00     0.022 A 
BRANCH  64  67
ATOM     67  S   UNL A   1      45.604  24.505  36.588  1.00  0.00     0.127 S 
ATOM     68  O   UNL A   1      44.578  24.889  37.555  1.00  0.00    -0.237 OA
ATOM     69  O   UNL A   1      45.215  23.420  35.685  1.00  0.00    -0.237 OA
ATOM     70  O   UNL A   1      46.958  24.389  37.111  1.00  0.00    -0.744 OA
ENDBRANCH  64  67
ENDBRANCH  37  60
ENDBRANCH  11  12
ENDBRANCH   4   6
ENDBRANCH   1   2
BRANCH   1  71
ATOM     71  C   UNL A   1      32.331  28.106  24.952  1.00  0.00     0.042 C 
BRANCH  71  72
ATOM     72  C   UNL A   1      31.963  27.796  23.511  1.00  0.00     0.117 C 
BRANCH  72  73
ATOM     73  N   UNL A   1      32.821  26.775  22.940  1.00  0.00    -0.354 N 
ATOM     74  C   UNL A   1      32.779  25.422  22.876  1.00  0.00     0.243 C 
ATOM     75  H   UNL A   1      33.617  27.150  22.497  1.00  0.00     0.163 HD
ATOM     76  O   UNL A   1      33.635  24.918  22.137  1.00  0.00    -0.273 OA
BRANCH  74  77
ATOM     77  C   UNL A   1      31.802  24.508  23.639  1.00  0.00     0.186 C 
ATOM     78  C   UNL A   1      31.266  23.180  23.126  1.00  0.00     0.107 C 
ATOM     79  N   UNL A   1      32.268  24.220  25.005  1.00  0.00    -0.311 N 
ATOM     80  S   UNL A   1      32.300  21.869  23.886  1.00  0.00    -0.126 SA
ATOM     81  C   UNL A   1      33.019  22.980  25.196  1.00  0.00     0.115 C 
ATOM     82  C   UNL A   1      31.318  24.432  26.010  1.00  0.00     0.224 C 
ATOM     83  C   UNL A   1      32.586  22.543  26.612  1.00  0.00     0.055 C 
ATOM     84  C   UNL A   1      31.255  23.208  26.875  1.00  0.00     0.104 C 
ATOM     85  O   UNL A   1      30.502  25.340  26.061  1.00  0.00    -0.275 OA
BRANCH  81  86
ATOM     86  C   UNL A   1      34.556  23.070  25.039  1.00  0.00    -0.012 A 
ATOM     87  C   UNL A   1      35.375  23.630  26.034  1.00  0.00     0.007 A 
ATOM     88  C   UNL A   1      35.236  22.657  23.873  1.00  0.00     0.007 A 
ATOM     89  C   UNL A   1      36.768  23.711  25.926  1.00  0.00     0.000 A 
ATOM     90  C   UNL A   1      36.632  22.740  23.748  1.00  0.00     0.000 A 
ATOM     91  C   UNL A   1      37.400  23.256  24.782  1.00  0.00     0.000 A 
ENDBRANCH  81  86
ENDBRANCH  74  77
ENDBRANCH  72  73
ENDBRANCH  71  72
ENDBRANCH   1  71
TORSDOF 14
ENDMDL
MODEL 3
REMARK VINA RESULT:     -12.1      0.983      2.544
REMARK SMILES O=C(NCCCNC(=O)[C@H]1CS[C@]2(c3ccccc3)CCC(=O)N12)c1ccc(-c2c3nc(c(-c4cccc(S(=O)(=O)[O-])c4F)c4ccc([nH]4)c(-c4cccc(S(=O)(=O)[O-])c4F)c4nc(c(-c5cccc(S(=O)(=O)[O-])c5F)c5ccc2[nH]5)C=C4)C=C3)cc1
REMARK SMILES IDX 4 1 3 2 1 3 2 4 25 6 26 7 87 8 27 9 86 10 28 11 29 12 30 13
REMARK SMILES IDX 80 14 31 15 85 16 79 17 81 18 32 19 84 20 78 21 77 22 33 24
REMARK SMILES IDX 65 25 45 26 64 27 46 28 49 29 63 30 82 31 47 32 48 33 62 35
REMARK SMILES IDX 83 36 50 37 34 38 35 39 43 40 36 41 38 42 44 43 37 44 39 45
REMARK SMILES IDX 40 46 41 47 42 48 66 49 67 50 75 51 68 52 70 53 76 54 69 55
REMARK SMILES IDX 71 56 72 57 73 58 74 59 51 60 52 61 60 62 53 63 55 64 61 65
REMARK SMILES IDX 54 66 56 67 57 68 58 69 59 70 5 71 6 72 7 73 8 74 9 76 10 77
REMARK SMILES IDX 11 78 24 79 12 80 13 81 22 82 20 83 21 84 23 85 14 86 15 87
REMARK SMILES IDX 19 88 16 89 18 90 17 91
REMARK H PARENT 3 5 81 23 49 34 7 75
REMARK Flexibility Score: inf
ROOT
ATOM      1  C   UNL A   1      32.941  29.205  25.521  1.00  0.00     0.118 C 
ENDROOT
BRANCH   1   2
ATOM      2  N   UNL A   1      32.470  30.525  25.924  1.00  0.00    -0.352 N 
ATOM      3  O   UNL A   1      32.318  32.368  27.205  1.00  0.00    -0.269 OA
ATOM      4  C   UNL A   1      32.961  31.371  26.889  1.00  0.00     0.251 C 
ATOM      5  H   UNL A   1      31.685  30.859  25.432  1.00  0.00     0.163 HD
BRANCH   4   6
ATOM      6  C   UNL A   1      34.245  31.060  27.551  1.00  0.00     0.039 A 
ATOM      7  C   UNL A   1      34.509  29.767  28.006  1.00  0.00     0.014 A 
ATOM      8  C   UNL A   1      35.197  32.071  27.714  1.00  0.00     0.014 A 
ATOM      9  C   UNL A   1      35.649  29.521  28.758  1.00  0.00     0.010 A 
ATOM     10  C   UNL A   1      36.390  31.797  28.391  1.00  0.00     0.010 A 
ATOM     11  C   UNL A   1      36.611  30.529  28.947  1.00  0.00    -0.014 A 
BRANCH  11  12
ATOM     12  C   UNL A   1      37.864  30.188  29.667  1.00  0.00     0.031 A 
ATOM     13  C   UNL A   1      38.127  30.671  31.066  1.00  0.00     0.074 A 
ATOM     14  C   UNL A   1      38.754  29.388  29.046  1.00  0.00     0.049 A 
ATOM     15  N   UNL A   1      39.125  30.375  31.857  1.00  0.00    -0.248 NA
ATOM     16  C   UNL A   1      37.157  31.609  31.651  1.00  0.00     0.031 C 
ATOM     17  C   UNL A   1      38.631  28.911  27.666  1.00  0.00     0.029 A 
ATOM     18  N   UNL A   1      39.918  28.820  29.491  1.00  0.00    -0.354 N 
ATOM     19  C   UNL A   1      38.923  31.106  33.021  1.00  0.00     0.074 A 
ATOM     20  C   UNL A   1      37.712  31.875  32.828  1.00  0.00     0.031 C 
ATOM     21  C   UNL A   1      39.654  28.090  27.391  1.00  0.00     0.029 A 
ATOM     22  C   UNL A   1      40.525  28.012  28.558  1.00  0.00     0.049 A 
ATOM     23  H   UNL A   1      40.286  28.976  30.391  1.00  0.00     0.167 HD
ATOM     24  C   UNL A   1      39.665  31.118  34.154  1.00  0.00     0.034 A 
ATOM     25  C   UNL A   1      41.655  27.284  28.631  1.00  0.00     0.034 A 
ATOM     26  C   UNL A   1      40.851  30.325  34.352  1.00  0.00     0.049 A 
ATOM     27  C   UNL A   1      42.419  27.265  29.923  1.00  0.00     0.074 A 
ATOM     28  C   UNL A   1      41.656  30.245  35.475  1.00  0.00     0.029 A 
ATOM     29  N   UNL A   1      41.399  29.470  33.408  1.00  0.00    -0.354 N 
ATOM     30  N   UNL A   1      42.143  27.872  31.051  1.00  0.00    -0.248 NA
ATOM     31  C   UNL A   1      43.632  26.439  29.963  1.00  0.00     0.031 C 
ATOM     32  C   UNL A   1      42.692  29.341  35.209  1.00  0.00     0.029 A 
ATOM     33  C   UNL A   1      42.528  28.854  33.922  1.00  0.00     0.049 A 
ATOM     34  H   UNL A   1      41.040  29.324  32.503  1.00  0.00     0.167 HD
ATOM     35  C   UNL A   1      43.141  27.498  31.939  1.00  0.00     0.074 A 
ATOM     36  C   UNL A   1      44.005  26.574  31.229  1.00  0.00     0.031 C 
ATOM     37  C   UNL A   1      43.348  27.905  33.215  1.00  0.00     0.034 A 
BRANCH  24  38
ATOM     38  C   UNL A   1      39.186  31.969  35.300  1.00  0.00     0.023 A 
ATOM     39  C   UNL A   1      38.265  31.426  36.219  1.00  0.00     0.012 A 
ATOM     40  C   UNL A   1      39.694  33.266  35.516  1.00  0.00     0.148 A 
ATOM     41  C   UNL A   1      37.842  32.163  37.325  1.00  0.00     0.002 A 
ATOM     42  C   UNL A   1      39.293  33.983  36.639  1.00  0.00     0.091 A 
ATOM     43  F   UNL A   1      40.550  33.775  34.620  1.00  0.00    -0.205 F 
ATOM     44  C   UNL A   1      38.363  33.437  37.539  1.00  0.00     0.022 A 
BRANCH  42  45
ATOM     45  S   UNL A   1      39.956  35.605  37.040  1.00  0.00     0.127 S 
ATOM     46  O   UNL A   1      39.233  35.922  38.271  1.00  0.00    -0.237 OA
ATOM     47  O   UNL A   1      41.379  35.321  37.227  1.00  0.00    -0.237 OA
ATOM     48  O   UNL A   1      39.653  36.454  35.898  1.00  0.00    -0.744 OA
ENDBRANCH  42  45
ENDBRANCH  24  38
BRANCH  25  49
ATOM     49  C   UNL A   1      42.081  26.471  27.459  1.00  0.00     0.023 A 
ATOM     50  C   UNL A   1      42.910  27.044  26.477  1.00  0.00     0.012 A 
ATOM     51  C   UNL A   1      41.726  25.113  27.349  1.00  0.00     0.148 A 
ATOM     52  C   UNL A   1      43.362  26.285  25.398  1.00  0.00     0.002 A 
ATOM     53  C   UNL A   1      42.231  24.346  26.305  1.00  0.00     0.091 A 
ATOM     54  F   UNL A   1      40.916  24.585  28.279  1.00  0.00    -0.205 F 
ATOM     55  C   UNL A   1      43.037  24.933  25.320  1.00  0.00     0.022 A 
BRANCH  53  56
ATOM     56  S   UNL A   1      41.980  22.568  26.252  1.00  0.00     0.127 S 
ATOM     57  O   UNL A   1      42.653  22.205  25.008  1.00  0.00    -0.237 OA
ATOM     58  O   UNL A   1      42.655  22.117  27.470  1.00  0.00    -0.237 OA
ATOM     59  O   UNL A   1      40.534  22.395  26.279  1.00  0.00    -0.744 OA
ENDBRANCH  53  56
ENDBRANCH  25  49
BRANCH  37  60
ATOM     60  C   UNL A   1      44.559  27.359  33.920  1.00  0.00     0.023 A 
ATOM     61  C   UNL A   1      45.780  28.056  33.828  1.00  0.00     0.012 A 
ATOM     62  C   UNL A   1      44.483  26.193  34.703  1.00  0.00     0.148 A 
ATOM     63  C   UNL A   1      46.918  27.581  34.480  1.00  0.00     0.002 A 
ATOM     64  C   UNL A   1      45.612  25.747  35.382  1.00  0.00     0.091 A 
ATOM     65  F   UNL A   1      43.320  25.529  34.757  1.00  0.00    -0.205 F 
ATOM     66  C   UNL A   1      46.831  26.434  35.264  1.00  0.00     0.022 A 
BRANCH  64  67
ATOM     67  S   UNL A   1      45.560  24.321  36.474  1.00  0.00     0.127 S 
ATOM     68  O   UNL A   1      44.538  24.720  37.439  1.00  0.00    -0.237 OA
ATOM     69  O   UNL A   1      45.157  23.243  35.570  1.00  0.00    -0.237 OA
ATOM     70  O   UNL A   1      46.911  24.185  37.001  1.00  0.00    -0.744 OA
ENDBRANCH  64  67
ENDBRANCH  37  60
ENDBRANCH  11  12
ENDBRANCH   4   6
ENDBRANCH   1   2
BRANCH   1  71
ATOM     71  C   UNL A   1      31.948  28.097  25.855  1.00  0.00     0.042 C 
BRANCH  71  72
ATOM     72  C   UNL A   1      32.603  26.889  26.501  1.00  0.00     0.117 C 
BRANCH  72  73
ATOM     73  N   UNL A   1      31.630  25.877  26.868  1.00  0.00    -0.354 N 
ATOM     74  C   UNL A   1      31.481  24.557  26.595  1.00  0.00     0.243 C 
ATOM     75  H   UNL A   1      30.915  26.227  27.446  1.00  0.00     0.163 HD
ATOM     76  O   UNL A   1      30.591  23.998  27.251  1.00  0.00    -0.273 OA
BRANCH  74  77
ATOM     77  C   UNL A   1      32.286  23.748  25.562  1.00  0.00     0.186 C 
ATOM     78  C   UNL A   1      31.780  22.509  24.837  1.00  0.00     0.107 C 
ATOM     79  N   UNL A   1      32.839  24.602  24.500  1.00  0.00    -0.311 N 
ATOM     80  S   UNL A   1      31.188  23.070  23.193  1.00  0.00    -0.126 SA
ATOM     81  C   UNL A   1      32.054  24.716  23.271  1.00  0.00     0.115 C 
ATOM     82  C   UNL A   1      34.203  24.425  24.250  1.00  0.00     0.224 C 
ATOM     83  C   UNL A   1      33.147  24.835  22.188  1.00  0.00     0.055 C 
ATOM     84  C   UNL A   1      34.398  24.227  22.775  1.00  0.00     0.104 C 
ATOM     85  O   UNL A   1      35.077  24.223  25.081  1.00  0.00    -0.275 OA
BRANCH  81  86
ATOM     86  C   UNL A   1      31.021  25.868  23.213  1.00  0.00    -0.012 A 
ATOM     87  C   UNL A   1      29.775  25.783  23.858  1.00  0.00     0.007 A 
ATOM     88  C   UNL A   1      31.225  27.048  22.467  1.00  0.00     0.007 A 
ATOM     89  C   UNL A   1      28.828  26.814  23.837  1.00  0.00     0.000 A 
ATOM     90  C   UNL A   1      30.280  28.085  22.430  1.00  0.00     0.000 A 
ATOM     91  C   UNL A   1      29.085  27.974  23.126  1.00  0.00     0.000 A 
ENDBRANCH  81  86
ENDBRANCH  74  77
ENDBRANCH  72  73
ENDBRANCH  71  72
ENDBRANCH   1  71
TORSDOF 14
ENDMDL
