MODEL 1
REMARK VINA RESULT:     -14.5      0.000      0.000
REMARK SMILES Cc1ccc(NC(=O)c2ccccc2NC(=O)[C@H]2CCCC[C@H]2C(=O)NCCCNC(=O)c2ccc(-c3c4nc(c(-c5cccc(S(=O)(=O)[O-])c5F)c5ccc([nH]5)c(-c5cccc(S(=O)(=O)[O-])c5F)c5nc(c(-c6cccc(S(=O)(=O)[O-])c6F)c6ccc3[nH]6)C=C5)C=C4)cc2)cc1
REMARK SMILES IDX 27 1 26 2 24 3 25 4 23 6 18 7 19 8 20 9 22 10 21 11 16 12
REMARK SMILES IDX 15 13 17 15 14 16 9 17 10 18 11 19 13 20 12 21 7 22 6 23
REMARK SMILES IDX 8 25 5 26 1 27 2 28 3 29 97 30 4 31 96 32 28 33 29 34 30 35
REMARK SMILES IDX 31 36 32 38 33 39 34 40 95 41 35 42 94 43 36 44 37 45 38 46
REMARK SMILES IDX 88 47 39 48 93 49 87 50 89 51 40 52 92 53 86 54 85 55 41 57
REMARK SMILES IDX 73 58 53 59 72 60 54 61 57 62 71 63 90 64 55 65 56 66 70 68
REMARK SMILES IDX 91 69 58 70 42 71 43 72 51 73 44 74 46 75 52 76 45 77 47 78
REMARK SMILES IDX 48 79 49 80 50 81 74 82 75 83 83 84 76 85 78 86 84 87 77 88
REMARK SMILES IDX 79 89 80 90 81 91 82 92 59 93 60 94 68 95 61 96 63 97 69 98
REMARK SMILES IDX 62 99 64 100 65 101 66 102 67 103
REMARK H PARENT 26 5 15 14 6 24 30 37 89 56 57 67
REMARK Flexibility Score: inf
ROOT
ATOM      1  C   UNL A   1      32.159  30.917  26.874  1.00  0.00     0.117 C 
ENDROOT
BRANCH   1   2
ATOM      2  N   UNL A   1      31.896  29.528  27.221  1.00  0.00    -0.356 N 
ATOM      3  C   UNL A   1      31.684  28.395  26.512  1.00  0.00     0.223 C 
ATOM      4  O   UNL A   1      31.407  27.383  27.172  1.00  0.00    -0.275 OA
ATOM      5  H   UNL A   1      31.863  29.379  28.194  1.00  0.00     0.163 HD
BRANCH   3   6
ATOM      6  C   UNL A   1      31.719  28.259  24.987  1.00  0.00     0.091 C 
ATOM      7  C   UNL A   1      32.624  27.099  24.504  1.00  0.00     0.091 C 
ATOM      8  C   UNL A   1      32.720  27.059  22.963  1.00  0.00     0.014 C 
ATOM      9  C   UNL A   1      31.373  27.234  22.249  1.00  0.00     0.001 C 
ATOM     10  C   UNL A   1      30.414  28.459  24.219  1.00  0.00     0.014 C 
ATOM     11  C   UNL A   1      30.651  28.493  22.711  1.00  0.00     0.001 C 
BRANCH   7  12
ATOM     12  C   UNL A   1      32.150  25.742  24.975  1.00  0.00     0.228 C 
ATOM     13  N   UNL A   1      32.930  24.636  25.125  1.00  0.00    -0.325 N 
ATOM     14  H   UNL A   1      32.462  23.945  25.649  1.00  0.00     0.169 HD
ATOM     15  O   UNL A   1      30.950  25.617  25.252  1.00  0.00    -0.274 OA
BRANCH  13  16
ATOM     16  C   UNL A   1      34.217  24.193  24.746  1.00  0.00     0.054 A 
ATOM     17  C   UNL A   1      34.428  23.544  23.496  1.00  0.00     0.063 A 
ATOM     18  C   UNL A   1      35.698  22.980  23.219  1.00  0.00     0.016 A 
ATOM     19  C   UNL A   1      36.761  23.095  24.104  1.00  0.00     0.001 A 
ATOM     20  C   UNL A   1      35.337  24.382  25.568  1.00  0.00     0.027 A 
ATOM     21  C   UNL A   1      36.586  23.820  25.267  1.00  0.00     0.002 A 
BRANCH  17  22
ATOM     22  C   UNL A   1      33.446  23.241  22.409  1.00  0.00     0.257 C 
ATOM     23  N   UNL A   1      32.655  22.126  22.283  1.00  0.00    -0.322 N 
ATOM     24  H   UNL A   1      32.143  22.123  21.441  1.00  0.00     0.170 HD
ATOM     25  O   UNL A   1      33.347  24.067  21.494  1.00  0.00    -0.269 OA
BRANCH  23  26
ATOM     26  C   UNL A   1      32.403  21.000  23.059  1.00  0.00     0.041 A 
ATOM     27  C   UNL A   1      32.592  17.251  25.115  1.00  0.00     0.044 C 
ATOM     28  C   UNL A   1      32.401  18.555  24.404  1.00  0.00    -0.051 A 
ATOM     29  C   UNL A   1      32.450  19.762  25.118  1.00  0.00     0.005 A 
ATOM     30  C   UNL A   1      32.235  18.587  23.019  1.00  0.00     0.005 A 
ATOM     31  C   UNL A   1      32.453  20.987  24.446  1.00  0.00     0.026 A 
ATOM     32  C   UNL A   1      32.200  19.810  22.356  1.00  0.00     0.026 A 
ENDBRANCH  23  26
ENDBRANCH  17  22
ENDBRANCH  13  16
ENDBRANCH   7  12
ENDBRANCH   3   6
ENDBRANCH   1   2
BRANCH   1  33
ATOM     33  C   UNL A   1      33.322  31.507  27.662  1.00  0.00     0.042 C 
BRANCH  33  34
ATOM     34  C   UNL A   1      34.691  30.920  27.359  1.00  0.00     0.118 C 
BRANCH  34  35
ATOM     35  N   UNL A   1      35.729  31.676  28.076  1.00  0.00    -0.352 N 
ATOM     36  C   UNL A   1      36.967  31.291  28.552  1.00  0.00     0.251 C 
ATOM     37  H   UNL A   1      35.503  32.619  28.245  1.00  0.00     0.163 HD
ATOM     38  O   UNL A   1      37.679  32.073  29.173  1.00  0.00    -0.269 OA
BRANCH  36  39
ATOM     39  C   UNL A   1      37.396  29.914  28.285  1.00  0.00     0.039 A 
ATOM     40  C   UNL A   1      37.376  29.026  29.358  1.00  0.00     0.014 A 
ATOM     41  C   UNL A   1      38.204  29.706  27.175  1.00  0.00     0.014 A 
ATOM     42  C   UNL A   1      38.409  28.111  29.466  1.00  0.00     0.010 A 
ATOM     43  C   UNL A   1      39.241  28.815  27.288  1.00  0.00     0.010 A 
ATOM     44  C   UNL A   1      39.402  28.122  28.490  1.00  0.00    -0.014 A 
BRANCH  44  45
ATOM     45  C   UNL A   1      40.681  27.464  28.637  1.00  0.00     0.031 A 
ATOM     46  C   UNL A   1      40.736  26.014  28.450  1.00  0.00     0.074 A 
ATOM     47  C   UNL A   1      41.801  28.202  28.800  1.00  0.00     0.049 A 
ATOM     48  N   UNL A   1      41.664  25.257  28.916  1.00  0.00    -0.248 NA
ATOM     49  C   UNL A   1      39.677  25.300  27.753  1.00  0.00     0.031 C 
ATOM     50  C   UNL A   1      43.174  27.771  28.586  1.00  0.00     0.029 A 
ATOM     51  N   UNL A   1      41.923  29.463  29.395  1.00  0.00    -0.354 N 
ATOM     52  C   UNL A   1      41.490  24.016  28.343  1.00  0.00     0.074 A 
ATOM     53  C   UNL A   1      40.184  24.067  27.730  1.00  0.00     0.031 C 
ATOM     54  C   UNL A   1      43.995  28.593  29.256  1.00  0.00     0.029 A 
ATOM     55  C   UNL A   1      43.162  29.466  30.066  1.00  0.00     0.049 A 
ATOM     56  H   UNL A   1      41.272  30.201  29.354  1.00  0.00     0.167 HD
ATOM     57  C   UNL A   1      42.550  23.161  28.303  1.00  0.00     0.034 A 
ATOM     58  C   UNL A   1      43.307  29.680  31.408  1.00  0.00     0.034 A 
ATOM     59  C   UNL A   1      43.705  23.735  29.015  1.00  0.00     0.049 A 
ATOM     60  C   UNL A   1      43.972  28.518  32.123  1.00  0.00     0.074 A 
ATOM     61  C   UNL A   1      44.818  24.437  28.579  1.00  0.00     0.029 A 
ATOM     62  N   UNL A   1      43.655  23.903  30.395  1.00  0.00    -0.354 N 
ATOM     63  N   UNL A   1      44.263  27.380  31.558  1.00  0.00    -0.248 NA
ATOM     64  C   UNL A   1      44.310  28.528  33.545  1.00  0.00     0.031 C 
ATOM     65  C   UNL A   1      45.391  25.095  29.699  1.00  0.00     0.029 A 
ATOM     66  C   UNL A   1      44.650  24.771  30.822  1.00  0.00     0.049 A 
ATOM     67  H   UNL A   1      43.003  23.464  30.988  1.00  0.00     0.167 HD
ATOM     68  C   UNL A   1      44.644  26.472  32.512  1.00  0.00     0.074 A 
ATOM     69  C   UNL A   1      44.752  27.270  33.722  1.00  0.00     0.031 C 
ATOM     70  C   UNL A   1      44.758  25.135  32.235  1.00  0.00     0.034 A 
BRANCH  57  71
ATOM     71  C   UNL A   1      42.672  21.992  27.334  1.00  0.00     0.023 A 
ATOM     72  C   UNL A   1      41.827  20.883  27.559  1.00  0.00     0.012 A 
ATOM     73  C   UNL A   1      43.594  21.852  26.271  1.00  0.00     0.148 A 
ATOM     74  C   UNL A   1      41.962  19.677  26.863  1.00  0.00     0.002 A 
ATOM     75  C   UNL A   1      43.780  20.628  25.621  1.00  0.00     0.091 A 
ATOM     76  F   UNL A   1      44.237  22.921  25.798  1.00  0.00    -0.205 F 
ATOM     77  C   UNL A   1      42.967  19.534  25.920  1.00  0.00     0.022 A 
BRANCH  75  78
ATOM     78  S   UNL A   1      45.104  20.354  24.426  1.00  0.00     0.127 S 
ATOM     79  O   UNL A   1      45.069  18.899  24.254  1.00  0.00    -0.237 OA
ATOM     80  O   UNL A   1      44.642  21.112  23.266  1.00  0.00    -0.237 OA
ATOM     81  O   UNL A   1      46.325  20.848  25.051  1.00  0.00    -0.744 OA
ENDBRANCH  75  78
ENDBRANCH  57  71
BRANCH  58  82
ATOM     82  C   UNL A   1      42.229  30.534  31.988  1.00  0.00     0.023 A 
ATOM     83  C   UNL A   1      42.045  31.812  31.406  1.00  0.00     0.012 A 
ATOM     84  C   UNL A   1      41.178  29.962  32.721  1.00  0.00     0.148 A 
ATOM     85  C   UNL A   1      40.784  32.410  31.393  1.00  0.00     0.002 A 
ATOM     86  C   UNL A   1      39.922  30.565  32.700  1.00  0.00     0.091 A 
ATOM     87  F   UNL A   1      41.387  28.800  33.352  1.00  0.00    -0.205 F 
ATOM     88  C   UNL A   1      39.711  31.757  31.989  1.00  0.00     0.022 A 
BRANCH  86  89
ATOM     89  S   UNL A   1      38.511  29.763  33.467  1.00  0.00     0.127 S 
ATOM     90  O   UNL A   1      38.911  29.748  34.871  1.00  0.00    -0.237 OA
ATOM     91  O   UNL A   1      37.414  30.676  33.153  1.00  0.00    -0.237 OA
ATOM     92  O   UNL A   1      38.424  28.473  32.801  1.00  0.00    -0.744 OA
ENDBRANCH  86  89
ENDBRANCH  58  82
BRANCH  70  93
ATOM     93  C   UNL A   1      44.973  24.038  33.263  1.00  0.00     0.023 A 
ATOM     94  C   UNL A   1      43.960  23.128  33.625  1.00  0.00     0.012 A 
ATOM     95  C   UNL A   1      46.261  23.800  33.812  1.00  0.00     0.148 A 
ATOM     96  C   UNL A   1      44.184  22.091  34.539  1.00  0.00     0.002 A 
ATOM     97  C   UNL A   1      46.508  22.697  34.626  1.00  0.00     0.091 A 
ATOM     98  F   UNL A   1      47.262  24.660  33.567  1.00  0.00    -0.205 F 
ATOM     99  C   UNL A   1      45.464  21.862  35.024  1.00  0.00     0.022 A 
BRANCH  97 100
ATOM    100  S   UNL A   1      48.187  22.224  35.065  1.00  0.00     0.127 S 
ATOM    101  O   UNL A   1      48.983  23.185  34.305  1.00  0.00    -0.237 OA
ATOM    102  O   UNL A   1      48.204  22.433  36.515  1.00  0.00    -0.237 OA
ATOM    103  O   UNL A   1      48.304  20.829  34.665  1.00  0.00    -0.744 OA
ENDBRANCH  97 100
ENDBRANCH  70  93
ENDBRANCH  44  45
ENDBRANCH  36  39
ENDBRANCH  34  35
ENDBRANCH  33  34
ENDBRANCH   1  33
TORSDOF 17
ENDMDL
MODEL 2
REMARK VINA RESULT:     -14.3      3.824      9.953
REMARK SMILES Cc1ccc(NC(=O)c2ccccc2NC(=O)[C@H]2CCCC[C@H]2C(=O)NCCCNC(=O)c2ccc(-c3c4nc(c(-c5cccc(S(=O)(=O)[O-])c5F)c5ccc([nH]5)c(-c5cccc(S(=O)(=O)[O-])c5F)c5nc(c(-c6cccc(S(=O)(=O)[O-])c6F)c6ccc3[nH]6)C=C5)C=C4)cc2)cc1
REMARK SMILES IDX 27 1 26 2 24 3 25 4 23 6 18 7 19 8 20 9 22 10 21 11 16 12
REMARK SMILES IDX 15 13 17 15 14 16 9 17 10 18 11 19 13 20 12 21 7 22 6 23
REMARK SMILES IDX 8 25 5 26 1 27 2 28 3 29 97 30 4 31 96 32 28 33 29 34 30 35
REMARK SMILES IDX 31 36 32 38 33 39 34 40 95 41 35 42 94 43 36 44 37 45 38 46
REMARK SMILES IDX 88 47 39 48 93 49 87 50 89 51 40 52 92 53 86 54 85 55 41 57
REMARK SMILES IDX 73 58 53 59 72 60 54 61 57 62 71 63 90 64 55 65 56 66 70 68
REMARK SMILES IDX 91 69 58 70 42 71 43 72 51 73 44 74 46 75 52 76 45 77 47 78
REMARK SMILES IDX 48 79 49 80 50 81 74 82 75 83 83 84 76 85 78 86 84 87 77 88
REMARK SMILES IDX 79 89 80 90 81 91 82 92 59 93 60 94 68 95 61 96 63 97 69 98
REMARK SMILES IDX 62 99 64 100 65 101 66 102 67 103
REMARK H PARENT 26 5 15 14 6 24 30 37 89 56 57 67
REMARK Flexibility Score: inf
ROOT
ATOM      1  C   UNL A   1      37.860  24.102  26.495  1.00  0.00     0.117 C 
ENDROOT
BRANCH   1   2
ATOM      2  N   UNL A   1      37.586  23.706  25.121  1.00  0.00    -0.356 N 
ATOM      3  C   UNL A   1      36.610  22.992  24.513  1.00  0.00     0.223 C 
ATOM      4  O   UNL A   1      36.757  22.789  23.300  1.00  0.00    -0.275 OA
ATOM      5  H   UNL A   1      38.267  24.032  24.489  1.00  0.00     0.163 HD
BRANCH   3   6
ATOM      6  C   UNL A   1      35.376  22.387  25.189  1.00  0.00     0.091 C 
ATOM      7  C   UNL A   1      34.359  23.455  25.658  1.00  0.00     0.091 C 
ATOM      8  C   UNL A   1      33.181  22.818  26.427  1.00  0.00     0.014 C 
ATOM      9  C   UNL A   1      32.609  21.559  25.761  1.00  0.00     0.001 C 
ATOM     10  C   UNL A   1      34.784  21.112  24.590  1.00  0.00     0.014 C 
ATOM     11  C   UNL A   1      33.694  20.526  25.485  1.00  0.00     0.001 C 
BRANCH   7  12
ATOM     12  C   UNL A   1      33.784  24.269  24.520  1.00  0.00     0.228 C 
ATOM     13  N   UNL A   1      33.336  25.551  24.606  1.00  0.00    -0.325 N 
ATOM     14  H   UNL A   1      33.220  25.944  23.710  1.00  0.00     0.169 HD
ATOM     15  O   UNL A   1      33.712  23.729  23.408  1.00  0.00    -0.274 OA
BRANCH  13  16
ATOM     16  C   UNL A   1      32.987  26.482  25.611  1.00  0.00     0.054 A 
ATOM     17  C   UNL A   1      31.666  26.527  26.139  1.00  0.00     0.063 A 
ATOM     18  C   UNL A   1      31.317  27.571  27.032  1.00  0.00     0.016 A 
ATOM     19  C   UNL A   1      32.242  28.516  27.455  1.00  0.00     0.001 A 
ATOM     20  C   UNL A   1      33.922  27.385  26.139  1.00  0.00     0.027 A 
ATOM     21  C   UNL A   1      33.552  28.404  27.028  1.00  0.00     0.002 A 
BRANCH  17  22
ATOM     22  C   UNL A   1      30.483  25.675  25.804  1.00  0.00     0.257 C 
ATOM     23  N   UNL A   1      29.513  25.922  24.865  1.00  0.00    -0.322 N 
ATOM     24  H   UNL A   1      28.795  25.247  24.882  1.00  0.00     0.170 HD
ATOM     25  O   UNL A   1      30.330  24.640  26.465  1.00  0.00    -0.269 OA
BRANCH  23  26
ATOM     26  C   UNL A   1      29.301  26.897  23.896  1.00  0.00     0.041 A 
ATOM     27  C   UNL A   1      28.433  30.499  21.755  1.00  0.00     0.044 C 
ATOM     28  C   UNL A   1      28.711  29.175  22.398  1.00  0.00    -0.051 A 
ATOM     29  C   UNL A   1      30.022  28.680  22.457  1.00  0.00     0.005 A 
ATOM     30  C   UNL A   1      27.680  28.452  23.000  1.00  0.00     0.005 A 
ATOM     31  C   UNL A   1      30.320  27.540  23.208  1.00  0.00     0.026 A 
ATOM     32  C   UNL A   1      27.974  27.296  23.715  1.00  0.00     0.026 A 
ENDBRANCH  23  26
ENDBRANCH  17  22
ENDBRANCH  13  16
ENDBRANCH   7  12
ENDBRANCH   3   6
ENDBRANCH   1   2
BRANCH   1  33
ATOM     33  C   UNL A   1      39.097  23.419  27.065  1.00  0.00     0.042 C 
BRANCH  33  34
ATOM     34  C   UNL A   1      40.373  23.578  26.253  1.00  0.00     0.118 C 
BRANCH  34  35
ATOM     35  N   UNL A   1      40.875  22.256  25.847  1.00  0.00    -0.352 N 
ATOM     36  C   UNL A   1      42.088  21.638  26.074  1.00  0.00     0.251 C 
ATOM     37  H   UNL A   1      40.237  21.721  25.323  1.00  0.00     0.163 HD
ATOM     38  O   UNL A   1      42.334  20.531  25.607  1.00  0.00    -0.269 OA
BRANCH  36  39
ATOM     39  C   UNL A   1      43.069  22.353  26.899  1.00  0.00     0.039 A 
ATOM     40  C   UNL A   1      42.868  22.335  28.277  1.00  0.00     0.014 A 
ATOM     41  C   UNL A   1      43.815  23.346  26.279  1.00  0.00     0.014 A 
ATOM     42  C   UNL A   1      43.132  23.493  28.990  1.00  0.00     0.010 A 
ATOM     43  C   UNL A   1      44.059  24.502  26.976  1.00  0.00     0.010 A 
ATOM     44  C   UNL A   1      43.596  24.603  28.290  1.00  0.00    -0.014 A 
BRANCH  44  45
ATOM     45  C   UNL A   1      43.608  25.946  28.828  1.00  0.00     0.031 A 
ATOM     46  C   UNL A   1      42.352  26.697  28.834  1.00  0.00     0.074 A 
ATOM     47  C   UNL A   1      44.721  26.417  29.432  1.00  0.00     0.049 A 
ATOM     48  N   UNL A   1      42.275  27.978  28.899  1.00  0.00    -0.248 NA
ATOM     49  C   UNL A   1      41.069  26.027  28.699  1.00  0.00     0.031 C 
ATOM     50  C   UNL A   1      44.812  27.547  30.344  1.00  0.00     0.029 A 
ATOM     51  N   UNL A   1      46.053  26.072  29.175  1.00  0.00    -0.354 N 
ATOM     52  C   UNL A   1      40.948  28.285  29.111  1.00  0.00     0.074 A 
ATOM     53  C   UNL A   1      40.235  27.055  28.860  1.00  0.00     0.031 C 
ATOM     54  C   UNL A   1      46.083  27.976  30.376  1.00  0.00     0.029 A 
ATOM     55  C   UNL A   1      46.808  27.248  29.348  1.00  0.00     0.049 A 
ATOM     56  H   UNL A   1      46.395  25.183  28.923  1.00  0.00     0.167 HD
ATOM     57  C   UNL A   1      40.636  29.496  29.650  1.00  0.00     0.034 A 
ATOM     58  C   UNL A   1      47.581  27.813  28.373  1.00  0.00     0.034 A 
ATOM     59  C   UNL A   1      41.847  30.319  29.810  1.00  0.00     0.049 A 
ATOM     60  C   UNL A   1      47.166  29.234  28.037  1.00  0.00     0.074 A 
ATOM     61  C   UNL A   1      42.687  30.548  30.890  1.00  0.00     0.029 A 
ATOM     62  N   UNL A   1      42.523  30.785  28.687  1.00  0.00    -0.354 N 
ATOM     63  N   UNL A   1      46.109  29.821  28.522  1.00  0.00    -0.248 NA
ATOM     64  C   UNL A   1      47.878  30.082  27.084  1.00  0.00     0.031 C 
ATOM     65  C   UNL A   1      43.906  31.081  30.396  1.00  0.00     0.029 A 
ATOM     66  C   UNL A   1      43.801  31.210  29.021  1.00  0.00     0.049 A 
ATOM     67  H   UNL A   1      42.145  30.811  27.779  1.00  0.00     0.167 HD
ATOM     68  C   UNL A   1      45.889  31.001  27.860  1.00  0.00     0.074 A 
ATOM     69  C   UNL A   1      47.079  31.163  27.041  1.00  0.00     0.031 C 
ATOM     70  C   UNL A   1      44.714  31.696  27.987  1.00  0.00     0.034 A 
BRANCH  57  71
ATOM     71  C   UNL A   1      39.325  29.807  30.361  1.00  0.00     0.023 A 
ATOM     72  C   UNL A   1      38.873  28.863  31.311  1.00  0.00     0.012 A 
ATOM     73  C   UNL A   1      38.460  30.901  30.126  1.00  0.00     0.148 A 
ATOM     74  C   UNL A   1      37.605  28.932  31.898  1.00  0.00     0.002 A 
ATOM     75  C   UNL A   1      37.166  30.937  30.656  1.00  0.00     0.091 A 
ATOM     76  F   UNL A   1      38.903  31.975  29.472  1.00  0.00    -0.205 F 
ATOM     77  C   UNL A   1      36.733  29.947  31.540  1.00  0.00     0.022 A 
BRANCH  75  78
ATOM     78  S   UNL A   1      35.960  32.195  30.191  1.00  0.00     0.127 S 
ATOM     79  O   UNL A   1      35.570  31.765  28.845  1.00  0.00    -0.237 OA
ATOM     80  O   UNL A   1      34.923  32.028  31.206  1.00  0.00    -0.237 OA
ATOM     81  O   UNL A   1      36.669  33.469  30.223  1.00  0.00    -0.744 OA
ENDBRANCH  75  78
ENDBRANCH  57  71
BRANCH  58  82
ATOM     82  C   UNL A   1      48.104  26.820  27.387  1.00  0.00     0.023 A 
ATOM     83  C   UNL A   1      47.249  26.480  26.311  1.00  0.00     0.012 A 
ATOM     84  C   UNL A   1      49.483  26.597  27.258  1.00  0.00     0.148 A 
ATOM     85  C   UNL A   1      47.778  26.111  25.075  1.00  0.00     0.002 A 
ATOM     86  C   UNL A   1      50.003  26.231  26.019  1.00  0.00     0.091 A 
ATOM     87  F   UNL A   1      50.277  26.827  28.312  1.00  0.00    -0.205 F 
ATOM     88  C   UNL A   1      49.158  26.045  24.913  1.00  0.00     0.022 A 
BRANCH  86  89
ATOM     89  S   UNL A   1      51.778  26.121  25.769  1.00  0.00     0.127 S 
ATOM     90  O   UNL A   1      52.244  27.319  26.460  1.00  0.00    -0.237 OA
ATOM     91  O   UNL A   1      52.116  24.862  26.430  1.00  0.00    -0.237 OA
ATOM     92  O   UNL A   1      51.937  26.099  24.323  1.00  0.00    -0.744 OA
ENDBRANCH  86  89
ENDBRANCH  58  82
BRANCH  70  93
ATOM     93  C   UNL A   1      44.302  32.891  27.145  1.00  0.00     0.023 A 
ATOM     94  C   UNL A   1      44.124  32.813  25.750  1.00  0.00     0.012 A 
ATOM     95  C   UNL A   1      43.948  34.122  27.759  1.00  0.00     0.148 A 
ATOM     96  C   UNL A   1      43.698  33.911  24.993  1.00  0.00     0.002 A 
ATOM     97  C   UNL A   1      43.412  35.172  27.017  1.00  0.00     0.091 A 
ATOM     98  F   UNL A   1      44.152  34.297  29.074  1.00  0.00    -0.205 F 
ATOM     99  C   UNL A   1      43.321  35.085  25.628  1.00  0.00     0.022 A 
BRANCH  97 100
ATOM    100  S   UNL A   1      42.681  36.603  27.827  1.00  0.00     0.127 S 
ATOM    101  O   UNL A   1      43.830  37.183  28.517  1.00  0.00    -0.237 OA
ATOM    102  O   UNL A   1      42.192  37.391  26.693  1.00  0.00    -0.237 OA
ATOM    103  O   UNL A   1      41.626  36.060  28.672  1.00  0.00    -0.744 OA
ENDBRANCH  97 100
ENDBRANCH  70  93
ENDBRANCH  44  45
ENDBRANCH  36  39
ENDBRANCH  34  35
ENDBRANCH  33  34
ENDBRANCH   1  33
TORSDOF 17
ENDMDL
MODEL 3
REMARK VINA RESULT:     -14.3      3.994      9.999
REMARK SMILES Cc1ccc(NC(=O)c2ccccc2NC(=O)[C@H]2CCCC[C@H]2C(=O)NCCCNC(=O)c2ccc(-c3c4nc(c(-c5cccc(S(=O)(=O)[O-])c5F)c5ccc([nH]5)c(-c5cccc(S(=O)(=O)[O-])c5F)c5nc(c(-c6cccc(S(=O)(=O)[O-])c6F)c6ccc3[nH]6)C=C5)C=C4)cc2)cc1
REMARK SMILES IDX 27 1 26 2 24 3 25 4 23 6 18 7 19 8 20 9 22 10 21 11 16 12
REMARK SMILES IDX 15 13 17 15 14 16 9 17 10 18 11 19 13 20 12 21 7 22 6 23
REMARK SMILES IDX 8 25 5 26 1 27 2 28 3 29 97 30 4 31 96 32 28 33 29 34 30 35
REMARK SMILES IDX 31 36 32 38 33 39 34 40 95 41 35 42 94 43 36 44 37 45 38 46
REMARK SMILES IDX 88 47 39 48 93 49 87 50 89 51 40 52 92 53 86 54 85 55 41 57
REMARK SMILES IDX 73 58 53 59 72 60 54 61 57 62 71 63 90 64 55 65 56 66 70 68
REMARK SMILES IDX 91 69 58 70 42 71 43 72 51 73 44 74 46 75 52 76 45 77 47 78
REMARK SMILES IDX 48 79 49 80 50 81 74 82 75 83 83 84 76 85 78 86 84 87 77 88
REMARK SMILES IDX 79 89 80 90 81 91 82 92 59 93 60 94 68 95 61 96 63 97 69 98
REMARK SMILES IDX 62 99 64 100 65 101 66 102 67 103
REMARK H PARENT 26 5 15 14 6 24 30 37 89 56 57 67
REMARK Flexibility Score: inf
ROOT
ATOM      1  C   UNL A   1      37.154  21.826  24.903  1.00  0.00     0.117 C 
ENDROOT
BRANCH   1   2
ATOM      2  N   UNL A   1      36.365  22.413  25.977  1.00  0.00    -0.356 N 
ATOM      3  C   UNL A   1      35.041  22.516  26.237  1.00  0.00     0.223 C 
ATOM      4  O   UNL A   1      34.731  23.175  27.240  1.00  0.00    -0.275 OA
ATOM      5  H   UNL A   1      36.922  22.833  26.672  1.00  0.00     0.163 HD
BRANCH   3   6
ATOM      6  C   UNL A   1      33.903  21.931  25.394  1.00  0.00     0.091 C 
ATOM      7  C   UNL A   1      33.118  23.008  24.607  1.00  0.00     0.091 C 
ATOM      8  C   UNL A   1      31.915  22.398  23.855  1.00  0.00     0.014 C 
ATOM      9  C   UNL A   1      32.240  21.094  23.114  1.00  0.00     0.001 C 
ATOM     10  C   UNL A   1      34.157  20.614  24.662  1.00  0.00     0.014 C 
ATOM     11  C   UNL A   1      32.877  20.064  24.039  1.00  0.00     0.001 C 
BRANCH   7  12
ATOM     12  C   UNL A   1      33.970  23.746  23.599  1.00  0.00     0.228 C 
ATOM     13  N   UNL A   1      34.390  25.036  23.705  1.00  0.00    -0.325 N 
ATOM     14  H   UNL A   1      35.106  25.228  23.056  1.00  0.00     0.169 HD
ATOM     15  O   UNL A   1      34.323  23.129  22.585  1.00  0.00    -0.274 OA
BRANCH  13  16
ATOM     16  C   UNL A   1      34.094  26.182  24.478  1.00  0.00     0.054 A 
ATOM     17  C   UNL A   1      33.507  27.335  23.882  1.00  0.00     0.063 A 
ATOM     18  C   UNL A   1      33.366  28.514  24.655  1.00  0.00     0.016 A 
ATOM     19  C   UNL A   1      33.728  28.560  25.995  1.00  0.00     0.001 A 
ATOM     20  C   UNL A   1      34.349  26.232  25.856  1.00  0.00     0.027 A 
ATOM     21  C   UNL A   1      34.194  27.409  26.601  1.00  0.00     0.002 A 
BRANCH  17  22
ATOM     22  C   UNL A   1      33.092  27.558  22.462  1.00  0.00     0.257 C 
ATOM     23  N   UNL A   1      31.825  27.787  21.987  1.00  0.00    -0.322 N 
ATOM     24  H   UNL A   1      31.796  27.831  21.003  1.00  0.00     0.170 HD
ATOM     25  O   UNL A   1      33.978  27.502  21.601  1.00  0.00    -0.269 OA
BRANCH  23  26
ATOM     26  C   UNL A   1      30.572  27.972  22.563  1.00  0.00     0.041 A 
ATOM     27  C   UNL A   1      26.385  28.400  23.340  1.00  0.00     0.044 C 
ATOM     28  C   UNL A   1      27.871  28.315  23.174  1.00  0.00    -0.051 A 
ATOM     29  C   UNL A   1      28.570  27.188  23.634  1.00  0.00     0.005 A 
ATOM     30  C   UNL A   1      28.566  29.323  22.505  1.00  0.00     0.005 A 
ATOM     31  C   UNL A   1      29.922  27.015  23.328  1.00  0.00     0.026 A 
ATOM     32  C   UNL A   1      29.921  29.164  22.235  1.00  0.00     0.026 A 
ENDBRANCH  23  26
ENDBRANCH  17  22
ENDBRANCH  13  16
ENDBRANCH   7  12
ENDBRANCH   3   6
ENDBRANCH   1   2
BRANCH   1  33
ATOM     33  C   UNL A   1      38.594  21.552  25.319  1.00  0.00     0.042 C 
BRANCH  33  34
ATOM     34  C   UNL A   1      39.068  22.267  26.574  1.00  0.00     0.118 C 
BRANCH  34  35
ATOM     35  N   UNL A   1      40.498  22.591  26.455  1.00  0.00    -0.352 N 
ATOM     36  C   UNL A   1      41.153  23.806  26.423  1.00  0.00     0.251 C 
ATOM     37  H   UNL A   1      41.089  21.807  26.386  1.00  0.00     0.163 HD
ATOM     38  O   UNL A   1      42.369  23.868  26.272  1.00  0.00    -0.269 OA
BRANCH  36  39
ATOM     39  C   UNL A   1      40.341  25.017  26.580  1.00  0.00     0.039 A 
ATOM     40  C   UNL A   1      40.840  26.190  26.018  1.00  0.00     0.014 A 
ATOM     41  C   UNL A   1      39.424  25.036  27.623  1.00  0.00     0.014 A 
ATOM     42  C   UNL A   1      40.676  27.372  26.721  1.00  0.00     0.010 A 
ATOM     43  C   UNL A   1      39.277  26.200  28.334  1.00  0.00     0.010 A 
ATOM     44  C   UNL A   1      40.011  27.322  27.943  1.00  0.00    -0.014 A 
BRANCH  44  45
ATOM     45  C   UNL A   1      40.045  28.387  28.921  1.00  0.00     0.031 A 
ATOM     46  C   UNL A   1      39.165  29.539  28.716  1.00  0.00     0.074 A 
ATOM     47  C   UNL A   1      40.767  28.237  30.052  1.00  0.00     0.049 A 
ATOM     48  N   UNL A   1      39.352  30.696  29.243  1.00  0.00    -0.248 NA
ATOM     49  C   UNL A   1      38.018  29.466  27.826  1.00  0.00     0.031 C 
ATOM     50  C   UNL A   1      40.629  28.994  31.288  1.00  0.00     0.029 A 
ATOM     51  N   UNL A   1      41.928  27.477  30.240  1.00  0.00    -0.354 N 
ATOM     52  C   UNL A   1      38.210  31.429  29.005  1.00  0.00     0.074 A 
ATOM     53  C   UNL A   1      37.472  30.666  28.028  1.00  0.00     0.031 C 
ATOM     54  C   UNL A   1      41.765  28.881  31.993  1.00  0.00     0.029 A 
ATOM     55  C   UNL A   1      42.729  28.196  31.149  1.00  0.00     0.049 A 
ATOM     56  H   UNL A   1      42.143  26.613  29.819  1.00  0.00     0.167 HD
ATOM     57  C   UNL A   1      37.945  32.502  29.802  1.00  0.00     0.034 A 
ATOM     58  C   UNL A   1      43.994  28.634  30.875  1.00  0.00     0.034 A 
ATOM     59  C   UNL A   1      39.054  32.733  30.745  1.00  0.00     0.049 A 
ATOM     60  C   UNL A   1      44.136  30.141  30.988  1.00  0.00     0.074 A 
ATOM     61  C   UNL A   1      39.252  32.358  32.065  1.00  0.00     0.029 A 
ATOM     62  N   UNL A   1      40.291  33.155  30.270  1.00  0.00    -0.354 N 
ATOM     63  N   UNL A   1      43.142  30.956  31.196  1.00  0.00    -0.248 NA
ATOM     64  C   UNL A   1      45.403  30.851  30.820  1.00  0.00     0.031 C 
ATOM     65  C   UNL A   1      40.636  32.483  32.356  1.00  0.00     0.029 A 
ATOM     66  C   UNL A   1      41.278  32.963  31.227  1.00  0.00     0.049 A 
ATOM     67  H   UNL A   1      40.446  33.540  29.377  1.00  0.00     0.167 HD
ATOM     68  C   UNL A   1      43.559  32.251  31.024  1.00  0.00     0.074 A 
ATOM     69  C   UNL A   1      45.001  32.132  30.889  1.00  0.00     0.031 C 
ATOM     70  C   UNL A   1      42.672  33.292  30.930  1.00  0.00     0.034 A 
BRANCH  57  71
ATOM     71  C   UNL A   1      36.563  33.114  29.985  1.00  0.00     0.023 A 
ATOM     72  C   UNL A   1      35.995  33.759  28.863  1.00  0.00     0.012 A 
ATOM     73  C   UNL A   1      35.805  33.180  31.177  1.00  0.00     0.148 A 
ATOM     74  C   UNL A   1      34.822  34.517  28.942  1.00  0.00     0.002 A 
ATOM     75  C   UNL A   1      34.671  33.993  31.278  1.00  0.00     0.091 A 
ATOM     76  F   UNL A   1      36.103  32.384  32.204  1.00  0.00    -0.205 F 
ATOM     77  C   UNL A   1      34.179  34.669  30.161  1.00  0.00     0.022 A 
BRANCH  75  78
ATOM     78  S   UNL A   1      33.820  34.281  32.842  1.00  0.00     0.127 S 
ATOM     79  O   UNL A   1      33.385  32.931  33.211  1.00  0.00    -0.237 OA
ATOM     80  O   UNL A   1      34.883  34.827  33.683  1.00  0.00    -0.237 OA
ATOM     81  O   UNL A   1      32.723  35.197  32.546  1.00  0.00    -0.744 OA
ENDBRANCH  75  78
ENDBRANCH  57  71
BRANCH  58  82
ATOM     82  C   UNL A   1      44.710  27.782  29.879  1.00  0.00     0.023 A 
ATOM     83  C   UNL A   1      44.927  26.429  30.236  1.00  0.00     0.012 A 
ATOM     84  C   UNL A   1      44.750  28.144  28.524  1.00  0.00     0.148 A 
ATOM     85  C   UNL A   1      44.985  25.438  29.255  1.00  0.00     0.002 A 
ATOM     86  C   UNL A   1      44.806  27.147  27.552  1.00  0.00     0.091 A 
ATOM     87  F   UNL A   1      44.643  29.438  28.196  1.00  0.00    -0.205 F 
ATOM     88  C   UNL A   1      44.865  25.792  27.916  1.00  0.00     0.022 A 
BRANCH  86  89
ATOM     89  S   UNL A   1      44.666  27.562  25.811  1.00  0.00     0.127 S 
ATOM     90  O   UNL A   1      46.004  28.071  25.524  1.00  0.00    -0.237 OA
ATOM     91  O   UNL A   1      44.358  26.270  25.198  1.00  0.00    -0.237 OA
ATOM     92  O   UNL A   1      43.577  28.524  25.756  1.00  0.00    -0.744 OA
ENDBRANCH  86  89
ENDBRANCH  58  82
BRANCH  70  93
ATOM     93  C   UNL A   1      43.025  34.716  30.538  1.00  0.00     0.023 A 
ATOM     94  C   UNL A   1      43.439  35.681  31.477  1.00  0.00     0.012 A 
ATOM     95  C   UNL A   1      43.078  35.101  29.172  1.00  0.00     0.148 A 
ATOM     96  C   UNL A   1      43.808  36.977  31.097  1.00  0.00     0.002 A 
ATOM     97  C   UNL A   1      43.558  36.352  28.791  1.00  0.00     0.091 A 
ATOM     98  F   UNL A   1      42.636  34.261  28.223  1.00  0.00    -0.205 F 
ATOM     99  C   UNL A   1      43.888  37.307  29.753  1.00  0.00     0.022 A 
BRANCH  97 100
ATOM    100  S   UNL A   1      43.915  36.723  27.068  1.00  0.00     0.127 S 
ATOM    101  O   UNL A   1      44.878  35.680  26.724  1.00  0.00    -0.237 OA
ATOM    102  O   UNL A   1      42.603  36.572  26.435  1.00  0.00    -0.237 OA
ATOM    103  O   UNL A   1      44.418  38.090  27.072  1.00  0.00    -0.744 OA
ENDBRANCH  97 100
ENDBRANCH  70  93
ENDBRANCH  44  45
ENDBRANCH  36  39
ENDBRANCH  34  35
ENDBRANCH  33  34
ENDBRANCH   1  33
TORSDOF 17
ENDMDL
