MODEL 1
REMARK VINA RESULT:     -11.9      0.000      0.000
REMARK SMILES Cc1ccc(C)c(NC(=O)/C=C/C(=O)NCCCNC(=O)c2ccc(-c3c4nc(c(-c5cccc(S(=O)(=O)[O-])c5F)c5ccc([nH]5)c(-c5cccc(S(=O)(=O)[O-])c5F)c5nc(c(-c6cccc(S(=O)(=O)[O-])c6F)c6ccc3[nH]6)C=C5)C=C4)cc2)c1
REMARK SMILES IDX 17 1 16 2 15 3 13 4 14 5 12 7 11 8 9 9 8 10 10 12 7 13 1 14
REMARK SMILES IDX 2 15 3 16 85 17 4 18 5 19 6 20 18 21 19 22 20 23 21 25 22 26
REMARK SMILES IDX 23 27 84 28 24 29 83 30 25 31 26 32 27 33 77 34 28 35 82 36
REMARK SMILES IDX 76 37 78 38 29 39 81 40 75 41 74 42 30 44 62 45 42 46 61 47
REMARK SMILES IDX 43 48 46 49 60 50 79 51 44 52 45 53 59 55 80 56 47 57 31 58
REMARK SMILES IDX 32 59 40 60 33 61 35 62 41 63 34 64 36 65 37 66 38 67 39 68
REMARK SMILES IDX 63 69 64 70 72 71 65 72 67 73 73 74 66 75 68 76 69 77 70 78
REMARK SMILES IDX 71 79 48 80 49 81 57 82 50 83 52 84 58 85 51 86 53 87 54 88
REMARK SMILES IDX 55 89 56 90
REMARK H PARENT 15 6 8 11 19 24 78 43 46 54
REMARK Flexibility Score: inf
ROOT
ATOM      1  C   UNL A   1      34.169  35.635  28.489  1.00  0.00     0.042 C 
ENDROOT
BRANCH   1   2
ATOM      2  C   UNL A   1      32.936  36.238  29.170  1.00  0.00     0.118 C 
BRANCH   2   3
ATOM      3  N   UNL A   1      33.266  37.178  30.214  1.00  0.00    -0.352 N 
ATOM      4  C   UNL A   1      33.240  36.998  31.561  1.00  0.00     0.244 C 
ATOM      5  O   UNL A   1      33.284  37.955  32.305  1.00  0.00    -0.270 OA
ATOM      6  H   UNL A   1      33.548  38.070  29.910  1.00  0.00     0.163 HD
BRANCH   4   7
ATOM      7  C   UNL A   1      33.241  35.605  32.056  1.00  0.00     0.077 C 
ATOM      8  C   UNL A   1      34.197  35.193  32.900  1.00  0.00     0.077 C 
BRANCH   8   9
ATOM      9  C   UNL A   1      34.297  33.751  33.123  1.00  0.00     0.248 C 
ATOM     10  N   UNL A   1      35.492  33.115  33.239  1.00  0.00    -0.322 N 
ATOM     11  H   UNL A   1      35.362  32.177  33.506  1.00  0.00     0.170 HD
ATOM     12  O   UNL A   1      33.259  33.090  33.230  1.00  0.00    -0.270 OA
BRANCH  10  13
ATOM     13  C   UNL A   1      36.873  33.406  33.087  1.00  0.00     0.044 A 
ATOM     14  C   UNL A   1      38.820  34.794  30.068  1.00  0.00     0.044 C 
ATOM     15  C   UNL A   1      38.510  34.210  31.411  1.00  0.00    -0.049 A 
ATOM     16  C   UNL A   1      39.538  34.029  32.325  1.00  0.00     0.004 A 
ATOM     17  C   UNL A   1      37.201  33.876  31.791  1.00  0.00     0.029 A 
ATOM     18  C   UNL A   1      39.242  33.595  33.608  1.00  0.00     0.006 A 
ATOM     19  C   UNL A   1      37.916  33.344  34.026  1.00  0.00    -0.027 A 
ATOM     20  C   UNL A   1      37.795  33.090  35.493  1.00  0.00     0.046 C 
ENDBRANCH  10  13
ENDBRANCH   8   9
ENDBRANCH   4   7
ENDBRANCH   2   3
ENDBRANCH   1   2
BRANCH   1  21
ATOM     21  C   UNL A   1      34.634  34.256  28.974  1.00  0.00     0.118 C 
BRANCH  21  22
ATOM     22  N   UNL A   1      33.913  33.162  28.337  1.00  0.00    -0.352 N 
ATOM     23  C   UNL A   1      34.247  31.890  27.942  1.00  0.00     0.251 C 
ATOM     24  H   UNL A   1      32.973  33.385  28.146  1.00  0.00     0.163 HD
ATOM     25  O   UNL A   1      33.397  31.258  27.312  1.00  0.00    -0.269 OA
BRANCH  23  26
ATOM     26  C   UNL A   1      35.562  31.258  28.219  1.00  0.00     0.039 A 
ATOM     27  C   UNL A   1      36.659  32.084  28.518  1.00  0.00     0.014 A 
ATOM     28  C   UNL A   1      35.754  29.881  28.182  1.00  0.00     0.014 A 
ATOM     29  C   UNL A   1      37.899  31.518  28.813  1.00  0.00     0.010 A 
ATOM     30  C   UNL A   1      36.945  29.312  28.571  1.00  0.00     0.010 A 
ATOM     31  C   UNL A   1      38.029  30.124  28.848  1.00  0.00    -0.014 A 
BRANCH  31  32
ATOM     32  C   UNL A   1      39.264  29.496  29.283  1.00  0.00     0.031 A 
ATOM     33  C   UNL A   1      39.561  29.643  30.725  1.00  0.00     0.074 A 
ATOM     34  C   UNL A   1      39.989  28.634  28.545  1.00  0.00     0.049 A 
ATOM     35  N   UNL A   1      40.379  30.481  31.267  1.00  0.00    -0.248 NA
ATOM     36  C   UNL A   1      38.767  28.865  31.684  1.00  0.00     0.031 C 
ATOM     37  C   UNL A   1      39.651  28.028  27.253  1.00  0.00     0.029 A 
ATOM     38  N   UNL A   1      41.154  28.017  28.881  1.00  0.00    -0.354 N 
ATOM     39  C   UNL A   1      40.395  30.152  32.617  1.00  0.00     0.074 A 
ATOM     40  C   UNL A   1      39.233  29.331  32.846  1.00  0.00     0.031 C 
ATOM     41  C   UNL A   1      40.471  26.978  27.027  1.00  0.00     0.029 A 
ATOM     42  C   UNL A   1      41.489  26.949  28.062  1.00  0.00     0.049 A 
ATOM     43  H   UNL A   1      41.712  28.304  29.640  1.00  0.00     0.167 HD
ATOM     44  C   UNL A   1      41.505  30.350  33.379  1.00  0.00     0.034 A 
ATOM     45  C   UNL A   1      42.518  26.092  28.247  1.00  0.00     0.034 A 
ATOM     46  C   UNL A   1      42.511  31.104  32.671  1.00  0.00     0.049 A 
ATOM     47  C   UNL A   1      43.495  26.768  29.133  1.00  0.00     0.074 A 
ATOM     48  C   UNL A   1      42.566  32.331  32.040  1.00  0.00     0.029 A 
ATOM     49  N   UNL A   1      43.591  30.390  32.209  1.00  0.00    -0.354 N 
ATOM     50  N   UNL A   1      44.201  27.808  28.780  1.00  0.00    -0.248 NA
ATOM     51  C   UNL A   1      43.455  26.501  30.561  1.00  0.00     0.031 C 
ATOM     52  C   UNL A   1      43.410  32.128  30.907  1.00  0.00     0.029 A 
ATOM     53  C   UNL A   1      43.858  30.805  30.931  1.00  0.00     0.049 A 
ATOM     54  H   UNL A   1      44.086  29.700  32.708  1.00  0.00     0.167 HD
ATOM     55  C   UNL A   1      44.305  28.567  29.937  1.00  0.00     0.074 A 
ATOM     56  C   UNL A   1      43.975  27.644  31.017  1.00  0.00     0.031 C 
ATOM     57  C   UNL A   1      44.355  29.933  29.883  1.00  0.00     0.034 A 
BRANCH  44  58
ATOM     58  C   UNL A   1      41.863  29.566  34.618  1.00  0.00     0.023 A 
ATOM     59  C   UNL A   1      42.476  30.275  35.675  1.00  0.00     0.012 A 
ATOM     60  C   UNL A   1      41.861  28.157  34.708  1.00  0.00     0.148 A 
ATOM     61  C   UNL A   1      43.082  29.615  36.749  1.00  0.00     0.002 A 
ATOM     62  C   UNL A   1      42.375  27.510  35.826  1.00  0.00     0.091 A 
ATOM     63  F   UNL A   1      41.499  27.418  33.655  1.00  0.00    -0.205 F 
ATOM     64  C   UNL A   1      43.016  28.230  36.835  1.00  0.00     0.022 A 
BRANCH  62  65
ATOM     65  S   UNL A   1      42.224  25.731  36.014  1.00  0.00     0.127 S 
ATOM     66  O   UNL A   1      42.682  25.538  37.386  1.00  0.00    -0.237 OA
ATOM     67  O   UNL A   1      40.790  25.523  35.804  1.00  0.00    -0.237 OA
ATOM     68  O   UNL A   1      43.064  25.169  34.963  1.00  0.00    -0.744 OA
ENDBRANCH  62  65
ENDBRANCH  44  58
BRANCH  45  69
ATOM     69  C   UNL A   1      42.686  24.685  27.827  1.00  0.00     0.023 A 
ATOM     70  C   UNL A   1      41.690  23.747  28.160  1.00  0.00     0.012 A 
ATOM     71  C   UNL A   1      43.663  24.314  26.877  1.00  0.00     0.148 A 
ATOM     72  C   UNL A   1      41.635  22.498  27.532  1.00  0.00     0.002 A 
ATOM     73  C   UNL A   1      43.611  23.067  26.262  1.00  0.00     0.091 A 
ATOM     74  F   UNL A   1      44.585  25.215  26.511  1.00  0.00    -0.205 F 
ATOM     75  C   UNL A   1      42.587  22.163  26.576  1.00  0.00     0.022 A 
BRANCH  73  76
ATOM     76  S   UNL A   1      44.797  22.567  25.006  1.00  0.00     0.127 S 
ATOM     77  O   UNL A   1      46.032  22.440  25.783  1.00  0.00    -0.237 OA
ATOM     78  O   UNL A   1      44.235  21.301  24.544  1.00  0.00    -0.237 OA
ATOM     79  O   UNL A   1      44.818  23.649  24.030  1.00  0.00    -0.744 OA
ENDBRANCH  73  76
ENDBRANCH  45  69
BRANCH  57  80
ATOM     80  C   UNL A   1      44.665  30.584  28.556  1.00  0.00     0.023 A 
ATOM     81  C   UNL A   1      43.676  30.812  27.577  1.00  0.00     0.012 A 
ATOM     82  C   UNL A   1      45.954  31.112  28.347  1.00  0.00     0.148 A 
ATOM     83  C   UNL A   1      43.972  31.510  26.404  1.00  0.00     0.002 A 
ATOM     84  C   UNL A   1      46.231  31.849  27.201  1.00  0.00     0.091 A 
ATOM     85  F   UNL A   1      46.891  30.897  29.283  1.00  0.00    -0.205 F 
ATOM     86  C   UNL A   1      45.246  32.040  26.220  1.00  0.00     0.022 A 
BRANCH  84  87
ATOM     87  S   UNL A   1      47.815  32.666  26.978  1.00  0.00     0.127 S 
ATOM     88  O   UNL A   1      48.728  31.535  26.836  1.00  0.00    -0.237 OA
ATOM     89  O   UNL A   1      47.608  33.440  25.751  1.00  0.00    -0.237 OA
ATOM     90  O   UNL A   1      48.002  33.488  28.168  1.00  0.00    -0.744 OA
ENDBRANCH  84  87
ENDBRANCH  57  80
ENDBRANCH  31  32
ENDBRANCH  23  26
ENDBRANCH  21  22
ENDBRANCH   1  21
TORSDOF 15
ENDMDL
MODEL 2
REMARK VINA RESULT:     -11.3      3.201      5.851
REMARK SMILES Cc1ccc(C)c(NC(=O)/C=C/C(=O)NCCCNC(=O)c2ccc(-c3c4nc(c(-c5cccc(S(=O)(=O)[O-])c5F)c5ccc([nH]5)c(-c5cccc(S(=O)(=O)[O-])c5F)c5nc(c(-c6cccc(S(=O)(=O)[O-])c6F)c6ccc3[nH]6)C=C5)C=C4)cc2)c1
REMARK SMILES IDX 17 1 16 2 15 3 13 4 14 5 12 7 11 8 9 9 8 10 10 12 7 13 1 14
REMARK SMILES IDX 2 15 3 16 85 17 4 18 5 19 6 20 18 21 19 22 20 23 21 25 22 26
REMARK SMILES IDX 23 27 84 28 24 29 83 30 25 31 26 32 27 33 77 34 28 35 82 36
REMARK SMILES IDX 76 37 78 38 29 39 81 40 75 41 74 42 30 44 62 45 42 46 61 47
REMARK SMILES IDX 43 48 46 49 60 50 79 51 44 52 45 53 59 55 80 56 47 57 31 58
REMARK SMILES IDX 32 59 40 60 33 61 35 62 41 63 34 64 36 65 37 66 38 67 39 68
REMARK SMILES IDX 63 69 64 70 72 71 65 72 67 73 73 74 66 75 68 76 69 77 70 78
REMARK SMILES IDX 71 79 48 80 49 81 57 82 50 83 52 84 58 85 51 86 53 87 54 88
REMARK SMILES IDX 55 89 56 90
REMARK H PARENT 15 6 8 11 19 24 78 43 46 54
REMARK Flexibility Score: inf
ROOT
ATOM      1  C   UNL A   1      32.186  30.728  26.878  1.00  0.00     0.042 C 
ENDROOT
BRANCH   1   2
ATOM      2  C   UNL A   1      31.853  29.417  26.157  1.00  0.00     0.118 C 
BRANCH   2   3
ATOM      3  N   UNL A   1      32.517  29.284  24.883  1.00  0.00    -0.352 N 
ATOM      4  C   UNL A   1      33.385  28.322  24.472  1.00  0.00     0.244 C 
ATOM      5  O   UNL A   1      34.060  28.494  23.478  1.00  0.00    -0.270 OA
ATOM      6  H   UNL A   1      32.315  29.985  24.222  1.00  0.00     0.163 HD
BRANCH   4   7
ATOM      7  C   UNL A   1      33.398  27.055  25.232  1.00  0.00     0.077 C 
ATOM      8  C   UNL A   1      32.411  26.164  25.072  1.00  0.00     0.077 C 
BRANCH   8   9
ATOM      9  C   UNL A   1      32.343  25.077  26.048  1.00  0.00     0.248 C 
ATOM     10  N   UNL A   1      33.285  24.101  26.115  1.00  0.00    -0.322 N 
ATOM     11  H   UNL A   1      33.141  23.531  26.904  1.00  0.00     0.170 HD
ATOM     12  O   UNL A   1      31.407  25.056  26.854  1.00  0.00    -0.270 OA
BRANCH  10  13
ATOM     13  C   UNL A   1      34.417  23.661  25.380  1.00  0.00     0.044 A 
ATOM     14  C   UNL A   1      38.178  24.007  26.134  1.00  0.00     0.044 C 
ATOM     15  C   UNL A   1      36.893  23.702  25.429  1.00  0.00    -0.049 A 
ATOM     16  C   UNL A   1      36.931  23.051  24.204  1.00  0.00     0.004 A 
ATOM     17  C   UNL A   1      35.646  24.019  25.988  1.00  0.00     0.029 A 
ATOM     18  C   UNL A   1      35.743  22.666  23.600  1.00  0.00     0.006 A 
ATOM     19  C   UNL A   1      34.486  22.900  24.201  1.00  0.00    -0.027 A 
ATOM     20  C   UNL A   1      33.356  22.226  23.494  1.00  0.00     0.046 C 
ENDBRANCH  10  13
ENDBRANCH   8   9
ENDBRANCH   4   7
ENDBRANCH   2   3
ENDBRANCH   1   2
BRANCH   1  21
ATOM     21  C   UNL A   1      33.657  30.982  27.225  1.00  0.00     0.118 C 
BRANCH  21  22
ATOM     22  N   UNL A   1      33.822  31.782  28.431  1.00  0.00    -0.352 N 
ATOM     23  C   UNL A   1      34.812  31.908  29.375  1.00  0.00     0.251 C 
ATOM     24  H   UNL A   1      33.049  32.365  28.611  1.00  0.00     0.163 HD
ATOM     25  O   UNL A   1      34.565  32.614  30.355  1.00  0.00    -0.269 OA
BRANCH  23  26
ATOM     26  C   UNL A   1      36.133  31.236  29.281  1.00  0.00     0.039 A 
ATOM     27  C   UNL A   1      37.296  32.022  29.329  1.00  0.00     0.014 A 
ATOM     28  C   UNL A   1      36.263  29.858  29.134  1.00  0.00     0.014 A 
ATOM     29  C   UNL A   1      38.551  31.415  29.274  1.00  0.00     0.010 A 
ATOM     30  C   UNL A   1      37.494  29.245  29.183  1.00  0.00     0.010 A 
ATOM     31  C   UNL A   1      38.639  30.020  29.212  1.00  0.00    -0.014 A 
BRANCH  31  32
ATOM     32  C   UNL A   1      39.922  29.344  29.291  1.00  0.00     0.031 A 
ATOM     33  C   UNL A   1      40.420  29.114  30.665  1.00  0.00     0.074 A 
ATOM     34  C   UNL A   1      40.535  28.736  28.257  1.00  0.00     0.049 A 
ATOM     35  N   UNL A   1      41.307  29.807  31.296  1.00  0.00    -0.248 NA
ATOM     36  C   UNL A   1      39.767  28.081  31.479  1.00  0.00     0.031 C 
ATOM     37  C   UNL A   1      40.019  28.483  26.909  1.00  0.00     0.029 A 
ATOM     38  N   UNL A   1      41.736  28.096  28.254  1.00  0.00    -0.354 N 
ATOM     39  C   UNL A   1      41.512  29.133  32.493  1.00  0.00     0.074 A 
ATOM     40  C   UNL A   1      40.393  28.238  32.649  1.00  0.00     0.031 C 
ATOM     41  C   UNL A   1      40.798  27.561  26.300  1.00  0.00     0.029 A 
ATOM     42  C   UNL A   1      41.951  27.296  27.141  1.00  0.00     0.049 A 
ATOM     43  H   UNL A   1      42.395  28.190  28.980  1.00  0.00     0.167 HD
ATOM     44  C   UNL A   1      42.718  29.161  33.122  1.00  0.00     0.034 A 
ATOM     45  C   UNL A   1      42.994  26.458  26.948  1.00  0.00     0.034 A 
ATOM     46  C   UNL A   1      43.616  30.113  32.512  1.00  0.00     0.049 A 
ATOM     47  C   UNL A   1      44.087  26.911  27.841  1.00  0.00     0.074 A 
ATOM     48  C   UNL A   1      43.583  31.464  32.231  1.00  0.00     0.029 A 
ATOM     49  N   UNL A   1      44.619  29.587  31.733  1.00  0.00    -0.354 N 
ATOM     50  N   UNL A   1      44.737  28.032  27.688  1.00  0.00    -0.248 NA
ATOM     51  C   UNL A   1      44.248  26.273  29.138  1.00  0.00     0.031 C 
ATOM     52  C   UNL A   1      44.259  31.601  30.981  1.00  0.00     0.029 A 
ATOM     53  C   UNL A   1      44.704  30.336  30.590  1.00  0.00     0.049 A 
ATOM     54  H   UNL A   1      45.178  28.808  31.957  1.00  0.00     0.167 HD
ATOM     55  C   UNL A   1      45.004  28.460  28.981  1.00  0.00     0.074 A 
ATOM     56  C   UNL A   1      44.828  27.272  29.809  1.00  0.00     0.031 C 
ATOM     57  C   UNL A   1      45.048  29.792  29.289  1.00  0.00     0.034 A 
BRANCH  44  58
ATOM     58  C   UNL A   1      43.246  28.091  34.045  1.00  0.00     0.023 A 
ATOM     59  C   UNL A   1      43.680  28.499  35.326  1.00  0.00     0.012 A 
ATOM     60  C   UNL A   1      43.567  26.774  33.650  1.00  0.00     0.148 A 
ATOM     61  C   UNL A   1      44.421  27.652  36.156  1.00  0.00     0.002 A 
ATOM     62  C   UNL A   1      44.216  25.903  34.519  1.00  0.00     0.091 A 
ATOM     63  F   UNL A   1      43.385  26.390  32.383  1.00  0.00    -0.205 F 
ATOM     64  C   UNL A   1      44.674  26.345  35.760  1.00  0.00     0.022 A 
BRANCH  62  65
ATOM     65  S   UNL A   1      44.477  24.182  34.077  1.00  0.00     0.127 S 
ATOM     66  O   UNL A   1      45.422  23.754  35.104  1.00  0.00    -0.237 OA
ATOM     67  O   UNL A   1      43.128  23.627  34.205  1.00  0.00    -0.237 OA
ATOM     68  O   UNL A   1      44.975  24.217  32.708  1.00  0.00    -0.744 OA
ENDBRANCH  62  65
ENDBRANCH  44  58
BRANCH  45  69
ATOM     69  C   UNL A   1      43.100  25.221  26.148  1.00  0.00     0.023 A 
ATOM     70  C   UNL A   1      44.111  25.120  25.173  1.00  0.00     0.012 A 
ATOM     71  C   UNL A   1      42.405  24.047  26.514  1.00  0.00     0.148 A 
ATOM     72  C   UNL A   1      44.458  23.885  24.617  1.00  0.00     0.002 A 
ATOM     73  C   UNL A   1      42.747  22.821  25.951  1.00  0.00     0.091 A 
ATOM     74  F   UNL A   1      41.478  24.119  27.479  1.00  0.00    -0.205 F 
ATOM     75  C   UNL A   1      43.784  22.735  25.014  1.00  0.00     0.022 A 
BRANCH  73  76
ATOM     76  S   UNL A   1      41.932  21.289  26.424  1.00  0.00     0.127 S 
ATOM     77  O   UNL A   1      42.580  20.312  25.546  1.00  0.00    -0.237 OA
ATOM     78  O   UNL A   1      42.294  21.175  27.835  1.00  0.00    -0.237 OA
ATOM     79  O   UNL A   1      40.516  21.493  26.144  1.00  0.00    -0.744 OA
ENDBRANCH  73  76
ENDBRANCH  45  69
BRANCH  57  80
ATOM     80  C   UNL A   1      45.169  30.783  28.156  1.00  0.00     0.023 A 
ATOM     81  C   UNL A   1      44.050  31.243  27.431  1.00  0.00     0.012 A 
ATOM     82  C   UNL A   1      46.421  31.379  27.909  1.00  0.00     0.148 A 
ATOM     83  C   UNL A   1      44.180  32.237  26.458  1.00  0.00     0.002 A 
ATOM     84  C   UNL A   1      46.538  32.403  26.975  1.00  0.00     0.091 A 
ATOM     85  F   UNL A   1      47.483  30.942  28.604  1.00  0.00    -0.205 F 
ATOM     86  C   UNL A   1      45.422  32.826  26.238  1.00  0.00     0.022 A 
BRANCH  84  87
ATOM     87  S   UNL A   1      48.085  33.287  26.750  1.00  0.00     0.127 S 
ATOM     88  O   UNL A   1      49.011  32.208  26.418  1.00  0.00    -0.237 OA
ATOM     89  O   UNL A   1      47.779  34.192  25.640  1.00  0.00    -0.237 OA
ATOM     90  O   UNL A   1      48.333  33.970  28.015  1.00  0.00    -0.744 OA
ENDBRANCH  84  87
ENDBRANCH  57  80
ENDBRANCH  31  32
ENDBRANCH  23  26
ENDBRANCH  21  22
ENDBRANCH   1  21
TORSDOF 15
ENDMDL
MODEL 3
REMARK VINA RESULT:     -11.3      1.319      2.039
REMARK SMILES Cc1ccc(C)c(NC(=O)/C=C/C(=O)NCCCNC(=O)c2ccc(-c3c4nc(c(-c5cccc(S(=O)(=O)[O-])c5F)c5ccc([nH]5)c(-c5cccc(S(=O)(=O)[O-])c5F)c5nc(c(-c6cccc(S(=O)(=O)[O-])c6F)c6ccc3[nH]6)C=C5)C=C4)cc2)c1
REMARK SMILES IDX 17 1 16 2 15 3 13 4 14 5 12 7 11 8 9 9 8 10 10 12 7 13 1 14
REMARK SMILES IDX 2 15 3 16 85 17 4 18 5 19 6 20 18 21 19 22 20 23 21 25 22 26
REMARK SMILES IDX 23 27 84 28 24 29 83 30 25 31 26 32 27 33 77 34 28 35 82 36
REMARK SMILES IDX 76 37 78 38 29 39 81 40 75 41 74 42 30 44 62 45 42 46 61 47
REMARK SMILES IDX 43 48 46 49 60 50 79 51 44 52 45 53 59 55 80 56 47 57 31 58
REMARK SMILES IDX 32 59 40 60 33 61 35 62 41 63 34 64 36 65 37 66 38 67 39 68
REMARK SMILES IDX 63 69 64 70 72 71 65 72 67 73 73 74 66 75 68 76 69 77 70 78
REMARK SMILES IDX 71 79 48 80 49 81 57 82 50 83 52 84 58 85 51 86 53 87 54 88
REMARK SMILES IDX 55 89 56 90
REMARK H PARENT 15 6 8 11 19 24 78 43 46 54
REMARK Flexibility Score: inf
ROOT
ATOM      1  C   UNL A   1      34.332  35.653  28.551  1.00  0.00     0.042 C 
ENDROOT
BRANCH   1   2
ATOM      2  C   UNL A   1      33.226  35.962  29.566  1.00  0.00     0.118 C 
BRANCH   2   3
ATOM      3  N   UNL A   1      33.604  36.964  30.532  1.00  0.00    -0.352 N 
ATOM      4  C   UNL A   1      33.563  36.898  31.889  1.00  0.00     0.244 C 
ATOM      5  O   UNL A   1      33.659  37.910  32.552  1.00  0.00    -0.270 OA
ATOM      6  H   UNL A   1      33.938  37.812  30.158  1.00  0.00     0.163 HD
BRANCH   4   7
ATOM      7  C   UNL A   1      33.483  35.553  32.497  1.00  0.00     0.077 C 
ATOM      8  C   UNL A   1      34.604  34.888  32.805  1.00  0.00     0.077 C 
BRANCH   8   9
ATOM      9  C   UNL A   1      34.455  33.471  33.138  1.00  0.00     0.248 C 
ATOM     10  N   UNL A   1      35.514  32.688  33.473  1.00  0.00    -0.322 N 
ATOM     11  H   UNL A   1      35.209  31.804  33.780  1.00  0.00     0.170 HD
ATOM     12  O   UNL A   1      33.325  32.972  33.132  1.00  0.00    -0.270 OA
BRANCH  10  13
ATOM     13  C   UNL A   1      36.930  32.770  33.510  1.00  0.00     0.044 A 
ATOM     14  C   UNL A   1      39.480  31.006  35.795  1.00  0.00     0.044 C 
ATOM     15  C   UNL A   1      38.887  31.921  34.769  1.00  0.00    -0.049 A 
ATOM     16  C   UNL A   1      39.729  32.706  33.995  1.00  0.00     0.004 A 
ATOM     17  C   UNL A   1      37.504  31.979  34.536  1.00  0.00     0.029 A 
ATOM     18  C   UNL A   1      39.196  33.470  32.967  1.00  0.00     0.006 A 
ATOM     19  C   UNL A   1      37.815  33.464  32.668  1.00  0.00    -0.027 A 
ATOM     20  C   UNL A   1      37.479  34.184  31.403  1.00  0.00     0.046 C 
ENDBRANCH  10  13
ENDBRANCH   8   9
ENDBRANCH   4   7
ENDBRANCH   2   3
ENDBRANCH   1   2
BRANCH   1  21
ATOM     21  C   UNL A   1      35.075  34.321  28.708  1.00  0.00     0.118 C 
BRANCH  21  22
ATOM     22  N   UNL A   1      34.351  33.199  28.127  1.00  0.00    -0.352 N 
ATOM     23  C   UNL A   1      34.650  31.880  27.886  1.00  0.00     0.251 C 
ATOM     24  H   UNL A   1      33.440  33.441  27.841  1.00  0.00     0.163 HD
ATOM     25  O   UNL A   1      33.819  31.224  27.256  1.00  0.00    -0.269 OA
BRANCH  23  26
ATOM     26  C   UNL A   1      35.908  31.226  28.327  1.00  0.00     0.039 A 
ATOM     27  C   UNL A   1      35.957  29.823  28.382  1.00  0.00     0.014 A 
ATOM     28  C   UNL A   1      37.037  31.948  28.700  1.00  0.00     0.014 A 
ATOM     29  C   UNL A   1      37.135  29.180  28.763  1.00  0.00     0.010 A 
ATOM     30  C   UNL A   1      38.231  31.322  28.977  1.00  0.00     0.010 A 
ATOM     31  C   UNL A   1      38.274  29.942  29.048  1.00  0.00    -0.014 A 
BRANCH  31  32
ATOM     32  C   UNL A   1      39.553  29.308  29.315  1.00  0.00     0.031 A 
ATOM     33  C   UNL A   1      39.935  29.255  30.743  1.00  0.00     0.074 A 
ATOM     34  C   UNL A   1      40.259  28.595  28.417  1.00  0.00     0.049 A 
ATOM     35  N   UNL A   1      40.757  30.037  31.357  1.00  0.00    -0.248 NA
ATOM     36  C   UNL A   1      39.227  28.312  31.619  1.00  0.00     0.031 C 
ATOM     37  C   UNL A   1      39.863  28.172  27.070  1.00  0.00     0.029 A 
ATOM     38  N   UNL A   1      41.463  27.985  28.591  1.00  0.00    -0.354 N 
ATOM     39  C   UNL A   1      40.867  29.514  32.640  1.00  0.00     0.074 A 
ATOM     40  C   UNL A   1      39.749  28.620  32.809  1.00  0.00     0.031 C 
ATOM     41  C   UNL A   1      40.701  27.202  26.644  1.00  0.00     0.029 A 
ATOM     42  C   UNL A   1      41.781  27.064  27.604  1.00  0.00     0.049 A 
ATOM     43  H   UNL A   1      42.057  28.180  29.351  1.00  0.00     0.167 HD
ATOM     44  C   UNL A   1      42.015  29.644  33.359  1.00  0.00     0.034 A 
ATOM     45  C   UNL A   1      42.847  26.232  27.601  1.00  0.00     0.034 A 
ATOM     46  C   UNL A   1      42.950  30.535  32.716  1.00  0.00     0.049 A 
ATOM     47  C   UNL A   1      43.855  26.811  28.520  1.00  0.00     0.074 A 
ATOM     48  C   UNL A   1      42.925  31.843  32.273  1.00  0.00     0.029 A 
ATOM     49  N   UNL A   1      44.022  29.942  32.092  1.00  0.00    -0.354 N 
ATOM     50  N   UNL A   1      44.503  27.920  28.288  1.00  0.00    -0.248 NA
ATOM     51  C   UNL A   1      43.912  26.336  29.893  1.00  0.00     0.031 C 
ATOM     52  C   UNL A   1      43.704  31.844  31.076  1.00  0.00     0.029 A 
ATOM     53  C   UNL A   1      44.195  30.552  30.878  1.00  0.00     0.049 A 
ATOM     54  H   UNL A   1      44.569  29.208  32.454  1.00  0.00     0.167 HD
ATOM     55  C   UNL A   1      44.653  28.505  29.537  1.00  0.00     0.074 A 
ATOM     56  C   UNL A   1      44.421  27.420  30.484  1.00  0.00     0.031 C 
ATOM     57  C   UNL A   1      44.655  29.865  29.685  1.00  0.00     0.034 A 
BRANCH  44  58
ATOM     58  C   UNL A   1      42.475  28.703  34.445  1.00  0.00     0.023 A 
ATOM     59  C   UNL A   1      42.887  29.279  35.667  1.00  0.00     0.012 A 
ATOM     60  C   UNL A   1      42.757  27.332  34.256  1.00  0.00     0.148 A 
ATOM     61  C   UNL A   1      43.570  28.538  36.637  1.00  0.00     0.002 A 
ATOM     62  C   UNL A   1      43.346  26.577  35.264  1.00  0.00     0.091 A 
ATOM     63  F   UNL A   1      42.597  26.774  33.052  1.00  0.00    -0.205 F 
ATOM     64  C   UNL A   1      43.785  27.180  36.443  1.00  0.00     0.022 A 
BRANCH  62  65
ATOM     65  S   UNL A   1      43.555  24.802  35.085  1.00  0.00     0.127 S 
ATOM     66  O   UNL A   1      44.338  24.718  33.856  1.00  0.00    -0.237 OA
ATOM     67  O   UNL A   1      44.282  24.456  36.308  1.00  0.00    -0.237 OA
ATOM     68  O   UNL A   1      42.200  24.268  35.031  1.00  0.00    -0.744 OA
ENDBRANCH  62  65
ENDBRANCH  44  58
BRANCH  45  69
ATOM     69  C   UNL A   1      43.035  24.911  26.966  1.00  0.00     0.023 A 
ATOM     70  C   UNL A   1      44.319  24.541  26.522  1.00  0.00     0.012 A 
ATOM     71  C   UNL A   1      42.040  23.911  27.042  1.00  0.00     0.148 A 
ATOM     72  C   UNL A   1      44.621  23.211  26.211  1.00  0.00     0.002 A 
ATOM     73  C   UNL A   1      42.342  22.591  26.723  1.00  0.00     0.091 A 
ATOM     74  F   UNL A   1      40.830  24.238  27.514  1.00  0.00    -0.205 F 
ATOM     75  C   UNL A   1      43.636  22.235  26.323  1.00  0.00     0.022 A 
BRANCH  73  76
ATOM     76  S   UNL A   1      41.127  21.271  26.856  1.00  0.00     0.127 S 
ATOM     77  O   UNL A   1      40.064  21.740  25.965  1.00  0.00    -0.237 OA
ATOM     78  O   UNL A   1      41.875  20.119  26.359  1.00  0.00    -0.237 OA
ATOM     79  O   UNL A   1      40.747  21.225  28.262  1.00  0.00    -0.744 OA
ENDBRANCH  73  76
ENDBRANCH  45  69
BRANCH  57  80
ATOM     80  C   UNL A   1      44.860  30.716  28.455  1.00  0.00     0.023 A 
ATOM     81  C   UNL A   1      43.789  31.140  27.641  1.00  0.00     0.012 A 
ATOM     82  C   UNL A   1      46.147  31.224  28.191  1.00  0.00     0.148 A 
ATOM     83  C   UNL A   1      43.999  32.012  26.571  1.00  0.00     0.002 A 
ATOM     84  C   UNL A   1      46.343  32.132  27.156  1.00  0.00     0.091 A 
ATOM     85  F   UNL A   1      47.163  30.822  28.970  1.00  0.00    -0.205 F 
ATOM     86  C   UNL A   1      45.274  32.518  26.335  1.00  0.00     0.022 A 
BRANCH  84  87
ATOM     87  S   UNL A   1      47.938  32.916  26.893  1.00  0.00     0.127 S 
ATOM     88  O   UNL A   1      47.647  33.847  25.805  1.00  0.00    -0.237 OA
ATOM     89  O   UNL A   1      48.199  33.552  28.186  1.00  0.00    -0.237 OA
ATOM     90  O   UNL A   1      48.859  31.833  26.573  1.00  0.00    -0.744 OA
ENDBRANCH  84  87
ENDBRANCH  57  80
ENDBRANCH  31  32
ENDBRANCH  23  26
ENDBRANCH  21  22
ENDBRANCH   1  21
TORSDOF 15
ENDMDL
