MODEL 1
REMARK VINA RESULT:     -11.1      0.000      0.000
REMARK SMILES CCCC[C@@H](C(=O)NCCCNC(=O)c1ccc(-c2c3nc(c(-c4cccc(S(=O)(=O)[O-])c4F)c4ccc([nH]4)c(-c4cccc(S(=O)(=O)[O-])c4F)c4nc(c(-c5cccc(S(=O)(=O)[O-])c5F)c5ccc2[nH]5)C=C4)C=C3)cc1)[C@](C)(O)c1cccc(Br)c1
REMARK SMILES IDX 10 1 9 2 8 3 6 4 7 5 5 7 4 8 3 9 2 10 1 11 78 12 79 13 80 14
REMARK SMILES IDX 81 16 82 17 87 18 83 19 85 20 84 21 86 22 11 23 12 24 13 25
REMARK SMILES IDX 14 27 15 28 16 29 77 30 17 31 76 32 18 33 19 34 20 35 70 36
REMARK SMILES IDX 21 37 75 38 69 39 71 40 22 41 74 42 68 43 67 44 23 46 55 47
REMARK SMILES IDX 35 48 54 49 36 50 39 51 53 52 72 53 37 54 38 55 52 57 73 58
REMARK SMILES IDX 40 59 24 60 25 61 33 62 26 63 28 64 34 65 27 66 29 67 30 68
REMARK SMILES IDX 31 69 32 70 56 71 57 72 65 73 58 74 60 75 66 76 59 77 61 78
REMARK SMILES IDX 62 79 63 80 64 81 41 82 42 83 50 84 43 85 45 86 51 87 44 88
REMARK SMILES IDX 46 89 47 90 48 91 49 92
REMARK H PARENT 8 6 80 15 12 26 71 45 39 56
REMARK Flexibility Score: inf
ROOT
ATOM      1  C   UNL A   1      37.460  19.697  25.002  1.00  0.00     0.042 C 
ENDROOT
BRANCH   1   2
ATOM      2  C   UNL A   1      36.291  20.659  24.830  1.00  0.00     0.117 C 
BRANCH   2   3
ATOM      3  N   UNL A   1      35.566  20.837  26.077  1.00  0.00    -0.356 N 
ATOM      4  C   UNL A   1      34.434  21.540  26.363  1.00  0.00     0.226 C 
ATOM      5  O   UNL A   1      34.055  21.539  27.539  1.00  0.00    -0.275 OA
ATOM      6  H   UNL A   1      35.960  20.369  26.848  1.00  0.00     0.163 HD
BRANCH   4   7
ATOM      7  C   UNL A   1      33.657  22.310  25.282  1.00  0.00     0.114 C 
BRANCH   7   8
ATOM      8  C   UNL A   1      33.497  23.778  25.786  1.00  0.00     0.017 C 
BRANCH   8   9
ATOM      9  C   UNL A   1      34.496  24.831  25.271  1.00  0.00     0.001 C 
BRANCH   9  10
ATOM     10  C   UNL A   1      33.980  25.924  24.332  1.00  0.00    -0.003 C 
ATOM     11  C   UNL A   1      33.581  25.403  22.964  1.00  0.00     0.004 C 
ENDBRANCH   9  10
ENDBRANCH   8   9
ENDBRANCH   7   8
BRANCH   7  12
ATOM     12  C   UNL A   1      32.273  21.573  24.943  1.00  0.00     0.098 C 
ATOM     13  C   UNL A   1      31.424  22.485  24.013  1.00  0.00     0.048 C 
BRANCH  12  14
ATOM     14  O   UNL A   1      31.445  21.401  26.099  1.00  0.00    -0.385 OA
ATOM     15  H   UNL A   1      30.670  21.982  26.032  1.00  0.00     0.211 HD
ENDBRANCH  12  14
BRANCH  12  16
ATOM     16  C   UNL A   1      32.422  20.176  24.274  1.00  0.00    -0.015 A 
ATOM     17  C   UNL A   1      32.187  20.003  22.891  1.00  0.00     0.007 A 
ATOM     18  C   UNL A   1      32.776  19.015  24.986  1.00  0.00     0.022 A 
ATOM     19  C   UNL A   1      32.386  18.779  22.241  1.00  0.00     0.002 A 
ATOM     20  C   UNL A   1      32.943  17.782  24.340  1.00  0.00     0.018 A 
ATOM     21  C   UNL A   1      32.772  17.663  22.966  1.00  0.00     0.016 A 
ATOM     22  Br  UNL A   1      33.410  16.252  25.352  1.00  0.00    -0.051 Br
ENDBRANCH  12  16
ENDBRANCH   7  12
ENDBRANCH   4   7
ENDBRANCH   2   3
ENDBRANCH   1   2
BRANCH   1  23
ATOM     23  C   UNL A   1      38.761  20.350  25.435  1.00  0.00     0.118 C 
BRANCH  23  24
ATOM     24  N   UNL A   1      39.779  19.381  25.807  1.00  0.00    -0.352 N 
ATOM     25  C   UNL A   1      41.080  19.570  26.215  1.00  0.00     0.251 C 
ATOM     26  H   UNL A   1      39.493  18.441  25.759  1.00  0.00     0.163 HD
ATOM     27  O   UNL A   1      41.817  18.592  26.312  1.00  0.00    -0.269 OA
BRANCH  25  28
ATOM     28  C   UNL A   1      41.607  20.925  26.515  1.00  0.00     0.039 A 
ATOM     29  C   UNL A   1      41.868  21.796  25.451  1.00  0.00     0.014 A 
ATOM     30  C   UNL A   1      41.882  21.338  27.821  1.00  0.00     0.014 A 
ATOM     31  C   UNL A   1      42.346  23.087  25.702  1.00  0.00     0.010 A 
ATOM     32  C   UNL A   1      42.254  22.656  28.076  1.00  0.00     0.010 A 
ATOM     33  C   UNL A   1      42.512  23.541  27.020  1.00  0.00    -0.014 A 
BRANCH  33  34
ATOM     34  C   UNL A   1      42.972  24.925  27.315  1.00  0.00     0.031 A 
ATOM     35  C   UNL A   1      42.037  25.916  27.962  1.00  0.00     0.074 A 
ATOM     36  C   UNL A   1      44.204  25.318  26.932  1.00  0.00     0.049 A 
ATOM     37  N   UNL A   1      42.235  27.177  28.242  1.00  0.00    -0.248 NA
ATOM     38  C   UNL A   1      40.689  25.433  28.313  1.00  0.00     0.031 C 
ATOM     39  C   UNL A   1      45.179  24.481  26.229  1.00  0.00     0.029 A 
ATOM     40  N   UNL A   1      44.839  26.529  27.059  1.00  0.00    -0.354 N 
ATOM     41  C   UNL A   1      41.033  27.647  28.761  1.00  0.00     0.074 A 
ATOM     42  C   UNL A   1      40.098  26.546  28.719  1.00  0.00     0.031 C 
ATOM     43  C   UNL A   1      46.290  25.198  25.997  1.00  0.00     0.029 A 
ATOM     44  C   UNL A   1      46.097  26.554  26.501  1.00  0.00     0.049 A 
ATOM     45  H   UNL A   1      44.434  27.306  27.507  1.00  0.00     0.167 HD
ATOM     46  C   UNL A   1      40.740  28.873  29.257  1.00  0.00     0.034 A 
ATOM     47  C   UNL A   1      46.990  27.558  26.396  1.00  0.00     0.034 A 
ATOM     48  C   UNL A   1      41.686  29.952  29.340  1.00  0.00     0.049 A 
ATOM     49  C   UNL A   1      46.654  28.900  26.989  1.00  0.00     0.074 A 
ATOM     50  C   UNL A   1      41.515  31.203  29.906  1.00  0.00     0.029 A 
ATOM     51  N   UNL A   1      42.976  29.914  28.837  1.00  0.00    -0.354 N 
ATOM     52  N   UNL A   1      45.564  29.278  27.612  1.00  0.00    -0.248 NA
ATOM     53  C   UNL A   1      47.684  29.945  26.895  1.00  0.00     0.031 C 
ATOM     54  C   UNL A   1      42.694  31.932  29.717  1.00  0.00     0.029 A 
ATOM     55  C   UNL A   1      43.611  31.122  29.068  1.00  0.00     0.049 A 
ATOM     56  H   UNL A   1      43.382  29.140  28.382  1.00  0.00     0.167 HD
ATOM     57  C   UNL A   1      45.791  30.588  28.019  1.00  0.00     0.074 A 
ATOM     58  C   UNL A   1      47.131  30.931  27.588  1.00  0.00     0.031 C 
ATOM     59  C   UNL A   1      44.962  31.433  28.679  1.00  0.00     0.034 A 
BRANCH  46  60
ATOM     60  C   UNL A   1      39.350  29.098  29.797  1.00  0.00     0.023 A 
ATOM     61  C   UNL A   1      39.027  28.664  31.100  1.00  0.00     0.012 A 
ATOM     62  C   UNL A   1      38.381  29.786  29.041  1.00  0.00     0.148 A 
ATOM     63  C   UNL A   1      37.753  28.874  31.626  1.00  0.00     0.002 A 
ATOM     64  C   UNL A   1      37.129  30.035  29.591  1.00  0.00     0.091 A 
ATOM     65  F   UNL A   1      38.697  30.175  27.798  1.00  0.00    -0.205 F 
ATOM     66  C   UNL A   1      36.808  29.568  30.876  1.00  0.00     0.022 A 
BRANCH  64  67
ATOM     67  S   UNL A   1      35.868  30.992  28.740  1.00  0.00     0.127 S 
ATOM     68  O   UNL A   1      35.373  30.024  27.762  1.00  0.00    -0.237 OA
ATOM     69  O   UNL A   1      34.933  31.297  29.823  1.00  0.00    -0.237 OA
ATOM     70  O   UNL A   1      36.551  32.150  28.181  1.00  0.00    -0.744 OA
ENDBRANCH  64  67
ENDBRANCH  46  60
BRANCH  47  71
ATOM     71  C   UNL A   1      48.316  27.315  25.758  1.00  0.00     0.023 A 
ATOM     72  C   UNL A   1      49.398  26.882  26.550  1.00  0.00     0.012 A 
ATOM     73  C   UNL A   1      48.506  27.488  24.373  1.00  0.00     0.148 A 
ATOM     74  C   UNL A   1      50.653  26.660  25.981  1.00  0.00     0.002 A 
ATOM     75  C   UNL A   1      49.743  27.210  23.804  1.00  0.00     0.091 A 
ATOM     76  F   UNL A   1      47.467  27.909  23.639  1.00  0.00    -0.205 F 
ATOM     77  C   UNL A   1      50.823  26.814  24.609  1.00  0.00     0.022 A 
BRANCH  75  78
ATOM     78  S   UNL A   1      50.019  27.251  22.030  1.00  0.00     0.127 S 
ATOM     79  O   UNL A   1      48.980  26.350  21.543  1.00  0.00    -0.237 OA
ATOM     80  O   UNL A   1      49.803  28.666  21.724  1.00  0.00    -0.237 OA
ATOM     81  O   UNL A   1      51.391  26.799  21.834  1.00  0.00    -0.744 OA
ENDBRANCH  75  78
ENDBRANCH  47  71
BRANCH  59  82
ATOM     82  C   UNL A   1      45.489  32.803  29.024  1.00  0.00     0.023 A 
ATOM     83  C   UNL A   1      46.199  33.005  30.223  1.00  0.00     0.012 A 
ATOM     84  C   UNL A   1      45.343  33.871  28.117  1.00  0.00     0.148 A 
ATOM     85  C   UNL A   1      46.725  34.259  30.531  1.00  0.00     0.002 A 
ATOM     86  C   UNL A   1      45.916  35.103  28.405  1.00  0.00     0.091 A 
ATOM     87  F   UNL A   1      44.649  33.662  26.987  1.00  0.00    -0.205 F 
ATOM     88  C   UNL A   1      46.595  35.303  29.618  1.00  0.00     0.022 A 
BRANCH  86  89
ATOM     89  S   UNL A   1      45.886  36.475  27.247  1.00  0.00     0.127 S 
ATOM     90  O   UNL A   1      46.704  37.468  27.941  1.00  0.00    -0.237 OA
ATOM     91  O   UNL A   1      46.511  35.891  26.059  1.00  0.00    -0.237 OA
ATOM     92  O   UNL A   1      44.483  36.831  27.079  1.00  0.00    -0.744 OA
ENDBRANCH  86  89
ENDBRANCH  59  82
ENDBRANCH  33  34
ENDBRANCH  25  28
ENDBRANCH  23  24
ENDBRANCH   1  23
TORSDOF 19
ENDMDL
MODEL 2
REMARK VINA RESULT:     -11.0      5.464      8.430
REMARK SMILES CCCC[C@@H](C(=O)NCCCNC(=O)c1ccc(-c2c3nc(c(-c4cccc(S(=O)(=O)[O-])c4F)c4ccc([nH]4)c(-c4cccc(S(=O)(=O)[O-])c4F)c4nc(c(-c5cccc(S(=O)(=O)[O-])c5F)c5ccc2[nH]5)C=C4)C=C3)cc1)[C@](C)(O)c1cccc(Br)c1
REMARK SMILES IDX 10 1 9 2 8 3 6 4 7 5 5 7 4 8 3 9 2 10 1 11 78 12 79 13 80 14
REMARK SMILES IDX 81 16 82 17 87 18 83 19 85 20 84 21 86 22 11 23 12 24 13 25
REMARK SMILES IDX 14 27 15 28 16 29 77 30 17 31 76 32 18 33 19 34 20 35 70 36
REMARK SMILES IDX 21 37 75 38 69 39 71 40 22 41 74 42 68 43 67 44 23 46 55 47
REMARK SMILES IDX 35 48 54 49 36 50 39 51 53 52 72 53 37 54 38 55 52 57 73 58
REMARK SMILES IDX 40 59 24 60 25 61 33 62 26 63 28 64 34 65 27 66 29 67 30 68
REMARK SMILES IDX 31 69 32 70 56 71 57 72 65 73 58 74 60 75 66 76 59 77 61 78
REMARK SMILES IDX 62 79 63 80 64 81 41 82 42 83 50 84 43 85 45 86 51 87 44 88
REMARK SMILES IDX 46 89 47 90 48 91 49 92
REMARK H PARENT 8 6 80 15 12 26 71 45 39 56
REMARK Flexibility Score: inf
ROOT
ATOM      1  C   UNL A   1      33.434  27.889  26.039  1.00  0.00     0.042 C 
ENDROOT
BRANCH   1   2
ATOM      2  C   UNL A   1      32.157  27.922  25.209  1.00  0.00     0.117 C 
BRANCH   2   3
ATOM      3  N   UNL A   1      31.087  27.181  25.857  1.00  0.00    -0.356 N 
ATOM      4  C   UNL A   1      30.813  25.847  25.890  1.00  0.00     0.226 C 
ATOM      5  O   UNL A   1      29.802  25.496  26.505  1.00  0.00    -0.275 OA
ATOM      6  H   UNL A   1      30.451  27.740  26.359  1.00  0.00     0.163 HD
BRANCH   4   7
ATOM      7  C   UNL A   1      31.712  24.812  25.192  1.00  0.00     0.114 C 
BRANCH   7   8
ATOM      8  C   UNL A   1      31.061  24.492  23.811  1.00  0.00     0.017 C 
BRANCH   8   9
ATOM      9  C   UNL A   1      31.437  25.380  22.611  1.00  0.00     0.001 C 
BRANCH   9  10
ATOM     10  C   UNL A   1      32.621  24.960  21.738  1.00  0.00    -0.003 C 
ATOM     11  C   UNL A   1      32.600  25.584  20.354  1.00  0.00     0.004 C 
ENDBRANCH   9  10
ENDBRANCH   8   9
ENDBRANCH   7   8
BRANCH   7  12
ATOM     12  C   UNL A   1      31.940  23.531  26.129  1.00  0.00     0.098 C 
ATOM     13  C   UNL A   1      30.816  22.493  25.856  1.00  0.00     0.048 C 
BRANCH  12  14
ATOM     14  O   UNL A   1      31.789  23.836  27.521  1.00  0.00    -0.385 OA
ATOM     15  H   UNL A   1      32.543  24.368  27.820  1.00  0.00     0.211 HD
ENDBRANCH  12  14
BRANCH  12  16
ATOM     16  C   UNL A   1      33.319  22.831  25.960  1.00  0.00    -0.015 A 
ATOM     17  C   UNL A   1      33.405  21.446  25.693  1.00  0.00     0.007 A 
ATOM     18  C   UNL A   1      34.546  23.510  26.074  1.00  0.00     0.022 A 
ATOM     19  C   UNL A   1      34.623  20.798  25.458  1.00  0.00     0.002 A 
ATOM     20  C   UNL A   1      35.769  22.854  25.872  1.00  0.00     0.018 A 
ATOM     21  C   UNL A   1      35.812  21.505  25.542  1.00  0.00     0.016 A 
ATOM     22  Br  UNL A   1      37.388  23.817  26.049  1.00  0.00    -0.051 Br
ENDBRANCH  12  16
ENDBRANCH   7  12
ENDBRANCH   4   7
ENDBRANCH   2   3
ENDBRANCH   1   2
BRANCH   1  23
ATOM     23  C   UNL A   1      33.323  28.548  27.403  1.00  0.00     0.118 C 
BRANCH  23  24
ATOM     24  N   UNL A   1      33.480  29.991  27.342  1.00  0.00    -0.352 N 
ATOM     25  C   UNL A   1      34.518  30.792  27.764  1.00  0.00     0.251 C 
ATOM     26  H   UNL A   1      32.724  30.474  26.937  1.00  0.00     0.163 HD
ATOM     27  O   UNL A   1      34.361  32.010  27.770  1.00  0.00    -0.269 OA
BRANCH  25  28
ATOM     28  C   UNL A   1      35.804  30.211  28.226  1.00  0.00     0.039 A 
ATOM     29  C   UNL A   1      36.910  30.261  27.370  1.00  0.00     0.014 A 
ATOM     30  C   UNL A   1      35.928  29.587  29.469  1.00  0.00     0.014 A 
ATOM     31  C   UNL A   1      38.141  29.740  27.784  1.00  0.00     0.010 A 
ATOM     32  C   UNL A   1      37.177  29.168  29.922  1.00  0.00     0.010 A 
ATOM     33  C   UNL A   1      38.295  29.218  29.078  1.00  0.00    -0.014 A 
BRANCH  33  34
ATOM     34  C   UNL A   1      39.606  28.703  29.559  1.00  0.00     0.031 A 
ATOM     35  C   UNL A   1      40.340  29.413  30.669  1.00  0.00     0.074 A 
ATOM     36  C   UNL A   1      40.175  27.643  28.950  1.00  0.00     0.049 A 
ATOM     37  N   UNL A   1      41.514  29.151  31.182  1.00  0.00    -0.248 NA
ATOM     38  C   UNL A   1      39.682  30.591  31.261  1.00  0.00     0.031 C 
ATOM     39  C   UNL A   1      39.606  26.914  27.814  1.00  0.00     0.029 A 
ATOM     40  N   UNL A   1      41.371  27.010  29.183  1.00  0.00    -0.354 N 
ATOM     41  C   UNL A   1      41.752  30.149  32.121  1.00  0.00     0.074 A 
ATOM     42  C   UNL A   1      40.619  31.045  32.079  1.00  0.00     0.031 C 
ATOM     43  C   UNL A   1      40.444  25.928  27.458  1.00  0.00     0.029 A 
ATOM     44  C   UNL A   1      41.626  25.975  28.313  1.00  0.00     0.049 A 
ATOM     45  H   UNL A   1      41.987  27.270  29.905  1.00  0.00     0.167 HD
ATOM     46  C   UNL A   1      42.801  30.292  32.965  1.00  0.00     0.034 A 
ATOM     47  C   UNL A   1      42.696  25.161  28.208  1.00  0.00     0.034 A 
ATOM     48  C   UNL A   1      43.905  29.374  33.037  1.00  0.00     0.049 A 
ATOM     49  C   UNL A   1      43.832  25.318  29.182  1.00  0.00     0.074 A 
ATOM     50  C   UNL A   1      44.972  29.380  33.918  1.00  0.00     0.029 A 
ATOM     51  N   UNL A   1      44.089  28.290  32.193  1.00  0.00    -0.354 N 
ATOM     52  N   UNL A   1      43.966  26.177  30.163  1.00  0.00    -0.248 NA
ATOM     53  C   UNL A   1      44.950  24.371  29.058  1.00  0.00     0.031 C 
ATOM     54  C   UNL A   1      45.818  28.317  33.585  1.00  0.00     0.029 A 
ATOM     55  C   UNL A   1      45.257  27.627  32.522  1.00  0.00     0.049 A 
ATOM     56  H   UNL A   1      43.477  28.031  31.466  1.00  0.00     0.167 HD
ATOM     57  C   UNL A   1      45.159  25.850  30.797  1.00  0.00     0.074 A 
ATOM     58  C   UNL A   1      45.700  24.702  30.100  1.00  0.00     0.031 C 
ATOM     59  C   UNL A   1      45.758  26.453  31.853  1.00  0.00     0.034 A 
BRANCH  46  60
ATOM     60  C   UNL A   1      42.782  31.461  33.918  1.00  0.00     0.023 A 
ATOM     61  C   UNL A   1      43.341  32.695  33.522  1.00  0.00     0.012 A 
ATOM     62  C   UNL A   1      42.166  31.359  35.180  1.00  0.00     0.148 A 
ATOM     63  C   UNL A   1      43.322  33.793  34.380  1.00  0.00     0.002 A 
ATOM     64  C   UNL A   1      42.108  32.472  36.011  1.00  0.00     0.091 A 
ATOM     65  F   UNL A   1      41.657  30.175  35.549  1.00  0.00    -0.205 F 
ATOM     66  C   UNL A   1      42.697  33.685  35.619  1.00  0.00     0.022 A 
BRANCH  64  67
ATOM     67  S   UNL A   1      41.253  32.461  37.591  1.00  0.00     0.127 S 
ATOM     68  O   UNL A   1      42.113  31.584  38.385  1.00  0.00    -0.237 OA
ATOM     69  O   UNL A   1      41.300  33.872  37.974  1.00  0.00    -0.237 OA
ATOM     70  O   UNL A   1      39.917  31.947  37.322  1.00  0.00    -0.744 OA
ENDBRANCH  64  67
ENDBRANCH  46  60
BRANCH  47  71
ATOM     71  C   UNL A   1      42.715  24.082  27.178  1.00  0.00     0.023 A 
ATOM     72  C   UNL A   1      43.373  24.305  25.952  1.00  0.00     0.012 A 
ATOM     73  C   UNL A   1      42.108  22.833  27.414  1.00  0.00     0.148 A 
ATOM     74  C   UNL A   1      43.396  23.317  24.966  1.00  0.00     0.002 A 
ATOM     75  C   UNL A   1      42.183  21.834  26.450  1.00  0.00     0.091 A 
ATOM     76  F   UNL A   1      41.479  22.644  28.582  1.00  0.00    -0.205 F 
ATOM     77  C   UNL A   1      42.810  22.080  25.219  1.00  0.00     0.022 A 
BRANCH  75  78
ATOM     78  S   UNL A   1      41.575  20.168  26.738  1.00  0.00     0.127 S 
ATOM     79  O   UNL A   1      40.194  20.419  27.138  1.00  0.00    -0.237 OA
ATOM     80  O   UNL A   1      41.735  19.557  25.419  1.00  0.00    -0.237 OA
ATOM     81  O   UNL A   1      42.440  19.607  27.768  1.00  0.00    -0.744 OA
ENDBRANCH  75  78
ENDBRANCH  47  71
BRANCH  59  82
ATOM     82  C   UNL A   1      47.049  25.861  32.358  1.00  0.00     0.023 A 
ATOM     83  C   UNL A   1      48.281  26.320  31.854  1.00  0.00     0.012 A 
ATOM     84  C   UNL A   1      47.037  24.901  33.389  1.00  0.00     0.148 A 
ATOM     85  C   UNL A   1      49.481  25.807  32.344  1.00  0.00     0.002 A 
ATOM     86  C   UNL A   1      48.237  24.434  33.910  1.00  0.00     0.091 A 
ATOM     87  F   UNL A   1      45.853  24.464  33.844  1.00  0.00    -0.205 F 
ATOM     88  C   UNL A   1      49.459  24.876  33.379  1.00  0.00     0.022 A 
BRANCH  86  89
ATOM     89  S   UNL A   1      48.309  23.310  35.309  1.00  0.00     0.127 S 
ATOM     90  O   UNL A   1      49.706  22.882  35.276  1.00  0.00    -0.237 OA
ATOM     91  O   UNL A   1      47.964  24.187  36.429  1.00  0.00    -0.237 OA
ATOM     92  O   UNL A   1      47.330  22.265  35.036  1.00  0.00    -0.744 OA
ENDBRANCH  86  89
ENDBRANCH  59  82
ENDBRANCH  33  34
ENDBRANCH  25  28
ENDBRANCH  23  24
ENDBRANCH   1  23
TORSDOF 19
ENDMDL
MODEL 3
REMARK VINA RESULT:     -11.0      2.628      8.603
REMARK SMILES CCCC[C@@H](C(=O)NCCCNC(=O)c1ccc(-c2c3nc(c(-c4cccc(S(=O)(=O)[O-])c4F)c4ccc([nH]4)c(-c4cccc(S(=O)(=O)[O-])c4F)c4nc(c(-c5cccc(S(=O)(=O)[O-])c5F)c5ccc2[nH]5)C=C4)C=C3)cc1)[C@](C)(O)c1cccc(Br)c1
REMARK SMILES IDX 10 1 9 2 8 3 6 4 7 5 5 7 4 8 3 9 2 10 1 11 78 12 79 13 80 14
REMARK SMILES IDX 81 16 82 17 87 18 83 19 85 20 84 21 86 22 11 23 12 24 13 25
REMARK SMILES IDX 14 27 15 28 16 29 77 30 17 31 76 32 18 33 19 34 20 35 70 36
REMARK SMILES IDX 21 37 75 38 69 39 71 40 22 41 74 42 68 43 67 44 23 46 55 47
REMARK SMILES IDX 35 48 54 49 36 50 39 51 53 52 72 53 37 54 38 55 52 57 73 58
REMARK SMILES IDX 40 59 24 60 25 61 33 62 26 63 28 64 34 65 27 66 29 67 30 68
REMARK SMILES IDX 31 69 32 70 56 71 57 72 65 73 58 74 60 75 66 76 59 77 61 78
REMARK SMILES IDX 62 79 63 80 64 81 41 82 42 83 50 84 43 85 45 86 51 87 44 88
REMARK SMILES IDX 46 89 47 90 48 91 49 92
REMARK H PARENT 8 6 80 15 12 26 71 45 39 56
REMARK Flexibility Score: inf
ROOT
ATOM      1  C   UNL A   1      35.038  22.588  24.835  1.00  0.00     0.042 C 
ENDROOT
BRANCH   1   2
ATOM      2  C   UNL A   1      35.010  24.065  24.459  1.00  0.00     0.117 C 
BRANCH   2   3
ATOM      3  N   UNL A   1      34.559  24.253  23.090  1.00  0.00    -0.356 N 
ATOM      4  C   UNL A   1      33.472  24.902  22.587  1.00  0.00     0.226 C 
ATOM      5  O   UNL A   1      33.320  24.876  21.361  1.00  0.00    -0.275 OA
ATOM      6  H   UNL A   1      35.140  23.842  22.410  1.00  0.00     0.163 HD
BRANCH   4   7
ATOM      7  C   UNL A   1      32.467  25.635  23.491  1.00  0.00     0.114 C 
BRANCH   7   8
ATOM      8  C   UNL A   1      31.150  24.799  23.490  1.00  0.00     0.017 C 
BRANCH   8   9
ATOM      9  C   UNL A   1      30.974  23.726  24.579  1.00  0.00     0.001 C 
BRANCH   9  10
ATOM     10  C   UNL A   1      30.510  24.168  25.968  1.00  0.00    -0.003 C 
ATOM     11  C   UNL A   1      30.159  25.643  26.044  1.00  0.00     0.004 C 
ENDBRANCH   9  10
ENDBRANCH   8   9
ENDBRANCH   7   8
BRANCH   7  12
ATOM     12  C   UNL A   1      32.285  27.158  23.023  1.00  0.00     0.098 C 
ATOM     13  C   UNL A   1      30.898  27.319  22.340  1.00  0.00     0.048 C 
BRANCH  12  14
ATOM     14  O   UNL A   1      33.214  27.532  21.999  1.00  0.00    -0.385 OA
ATOM     15  H   UNL A   1      34.000  27.931  22.404  1.00  0.00     0.211 HD
ENDBRANCH  12  14
BRANCH  12  16
ATOM     16  C   UNL A   1      32.408  28.212  24.161  1.00  0.00    -0.015 A 
ATOM     17  C   UNL A   1      31.402  29.185  24.364  1.00  0.00     0.007 A 
ATOM     18  C   UNL A   1      33.509  28.278  25.034  1.00  0.00     0.022 A 
ATOM     19  C   UNL A   1      31.441  30.098  25.423  1.00  0.00     0.002 A 
ATOM     20  C   UNL A   1      33.564  29.216  26.076  1.00  0.00     0.018 A 
ATOM     21  C   UNL A   1      32.524  30.112  26.289  1.00  0.00     0.016 A 
ATOM     22  Br  UNL A   1      35.077  29.264  27.212  1.00  0.00    -0.051 Br
ENDBRANCH  12  16
ENDBRANCH   7  12
ENDBRANCH   4   7
ENDBRANCH   2   3
ENDBRANCH   1   2
BRANCH   1  23
ATOM     23  C   UNL A   1      35.826  22.267  26.092  1.00  0.00     0.118 C 
BRANCH  23  24
ATOM     24  N   UNL A   1      36.878  21.291  25.860  1.00  0.00    -0.352 N 
ATOM     25  C   UNL A   1      38.247  21.442  25.856  1.00  0.00     0.251 C 
ATOM     26  H   UNL A   1      36.563  20.377  25.676  1.00  0.00     0.163 HD
ATOM     27  O   UNL A   1      38.943  20.509  25.463  1.00  0.00    -0.269 OA
BRANCH  25  28
ATOM     28  C   UNL A   1      38.886  22.708  26.294  1.00  0.00     0.039 A 
ATOM     29  C   UNL A   1      39.941  22.646  27.211  1.00  0.00     0.014 A 
ATOM     30  C   UNL A   1      38.441  23.954  25.847  1.00  0.00     0.014 A 
ATOM     31  C   UNL A   1      40.578  23.819  27.629  1.00  0.00     0.010 A 
ATOM     32  C   UNL A   1      39.143  25.111  26.178  1.00  0.00     0.010 A 
ATOM     33  C   UNL A   1      40.207  25.061  27.090  1.00  0.00    -0.014 A 
BRANCH  33  34
ATOM     34  C   UNL A   1      40.901  26.319  27.480  1.00  0.00     0.031 A 
ATOM     35  C   UNL A   1      42.344  26.540  27.102  1.00  0.00     0.074 A 
ATOM     36  C   UNL A   1      40.260  27.230  28.242  1.00  0.00     0.049 A 
ATOM     37  N   UNL A   1      43.132  27.540  27.401  1.00  0.00    -0.248 NA
ATOM     38  C   UNL A   1      42.997  25.484  26.308  1.00  0.00     0.031 C 
ATOM     39  C   UNL A   1      38.889  27.101  28.741  1.00  0.00     0.029 A 
ATOM     40  N   UNL A   1      40.686  28.432  28.750  1.00  0.00    -0.354 N 
ATOM     41  C   UNL A   1      44.377  27.217  26.870  1.00  0.00     0.074 A 
ATOM     42  C   UNL A   1      44.250  25.910  26.266  1.00  0.00     0.031 C 
ATOM     43  C   UNL A   1      38.583  28.185  29.472  1.00  0.00     0.029 A 
ATOM     44  C   UNL A   1      39.744  29.068  29.526  1.00  0.00     0.049 A 
ATOM     45  H   UNL A   1      41.580  28.805  28.576  1.00  0.00     0.167 HD
ATOM     46  C   UNL A   1      45.514  27.951  26.857  1.00  0.00     0.034 A 
ATOM     47  C   UNL A   1      39.809  30.227  30.212  1.00  0.00     0.034 A 
ATOM     48  C   UNL A   1      45.624  29.271  27.418  1.00  0.00     0.049 A 
ATOM     49  C   UNL A   1      41.073  31.042  30.151  1.00  0.00     0.074 A 
ATOM     50  C   UNL A   1      46.705  30.134  27.379  1.00  0.00     0.029 A 
ATOM     51  N   UNL A   1      44.622  29.915  28.126  1.00  0.00    -0.354 N 
ATOM     52  N   UNL A   1      42.191  30.786  29.514  1.00  0.00    -0.248 NA
ATOM     53  C   UNL A   1      41.074  32.322  30.873  1.00  0.00     0.031 C 
ATOM     54  C   UNL A   1      46.366  31.289  28.091  1.00  0.00     0.029 A 
ATOM     55  C   UNL A   1      45.062  31.160  28.540  1.00  0.00     0.049 A 
ATOM     56  H   UNL A   1      43.730  29.542  28.308  1.00  0.00     0.167 HD
ATOM     57  C   UNL A   1      43.011  31.888  29.725  1.00  0.00     0.074 A 
ATOM     58  C   UNL A   1      42.254  32.823  30.533  1.00  0.00     0.031 C 
ATOM     59  C   UNL A   1      44.280  32.102  29.299  1.00  0.00     0.034 A 
BRANCH  46  60
ATOM     60  C   UNL A   1      46.722  27.365  26.170  1.00  0.00     0.023 A 
ATOM     61  C   UNL A   1      47.496  26.388  26.830  1.00  0.00     0.012 A 
ATOM     62  C   UNL A   1      47.059  27.737  24.854  1.00  0.00     0.148 A 
ATOM     63  C   UNL A   1      48.608  25.822  26.209  1.00  0.00     0.002 A 
ATOM     64  C   UNL A   1      48.140  27.132  24.223  1.00  0.00     0.091 A 
ATOM     65  F   UNL A   1      46.324  28.680  24.247  1.00  0.00    -0.205 F 
ATOM     66  C   UNL A   1      48.924  26.185  24.903  1.00  0.00     0.022 A 
BRANCH  64  67
ATOM     67  S   UNL A   1      48.580  27.468  22.515  1.00  0.00     0.127 S 
ATOM     68  O   UNL A   1      49.837  28.200  22.673  1.00  0.00    -0.237 OA
ATOM     69  O   UNL A   1      48.725  26.120  21.964  1.00  0.00    -0.237 OA
ATOM     70  O   UNL A   1      47.477  28.239  21.959  1.00  0.00    -0.744 OA
ENDBRANCH  64  67
ENDBRANCH  46  60
BRANCH  47  71
ATOM     71  C   UNL A   1      38.619  30.717  30.966  1.00  0.00     0.023 A 
ATOM     72  C   UNL A   1      38.542  30.502  32.356  1.00  0.00     0.012 A 
ATOM     73  C   UNL A   1      37.578  31.412  30.320  1.00  0.00     0.148 A 
ATOM     74  C   UNL A   1      37.434  30.939  33.084  1.00  0.00     0.002 A 
ATOM     75  C   UNL A   1      36.505  31.894  31.061  1.00  0.00     0.091 A 
ATOM     76  F   UNL A   1      37.665  31.599  28.996  1.00  0.00    -0.205 F 
ATOM     77  C   UNL A   1      36.422  31.642  32.439  1.00  0.00     0.022 A 
BRANCH  75  78
ATOM     78  S   UNL A   1      35.222  32.925  30.340  1.00  0.00     0.127 S 
ATOM     79  O   UNL A   1      35.998  34.039  29.804  1.00  0.00    -0.237 OA
ATOM     80  O   UNL A   1      34.647  32.032  29.334  1.00  0.00    -0.237 OA
ATOM     81  O   UNL A   1      34.319  33.253  31.436  1.00  0.00    -0.744 OA
ENDBRANCH  75  78
ENDBRANCH  47  71
BRANCH  59  82
ATOM     82  C   UNL A   1      44.925  33.417  29.654  1.00  0.00     0.023 A 
ATOM     83  C   UNL A   1      45.628  33.554  30.867  1.00  0.00     0.012 A 
ATOM     84  C   UNL A   1      44.897  34.493  28.746  1.00  0.00     0.148 A 
ATOM     85  C   UNL A   1      46.262  34.754  31.186  1.00  0.00     0.002 A 
ATOM     86  C   UNL A   1      45.576  35.667  29.046  1.00  0.00     0.091 A 
ATOM     87  F   UNL A   1      44.208  34.349  27.603  1.00  0.00    -0.205 F 
ATOM     88  C   UNL A   1      46.248  35.804  30.271  1.00  0.00     0.022 A 
BRANCH  86  89
ATOM     89  S   UNL A   1      45.697  37.035  27.888  1.00  0.00     0.127 S 
ATOM     90  O   UNL A   1      46.399  38.039  28.685  1.00  0.00    -0.237 OA
ATOM     91  O   UNL A   1      46.488  36.453  26.803  1.00  0.00    -0.237 OA
ATOM     92  O   UNL A   1      44.327  37.375  27.522  1.00  0.00    -0.744 OA
ENDBRANCH  86  89
ENDBRANCH  59  82
ENDBRANCH  33  34
ENDBRANCH  25  28
ENDBRANCH  23  24
ENDBRANCH   1  23
TORSDOF 19
ENDMDL
