MODEL 1
REMARK VINA RESULT:     -12.7      0.000      0.000
REMARK SMILES Cc1c2c([nH]c(=O)c1C(=O)NCCCNC(=O)c1ccc(-c3c4nc(c(-c5cccc(S(=O)(=O)[O-])c5F)c5ccc([nH]5)c(-c5cccc(S(=O)(=O)[O-])c5F)c5nc(c(-c6cccc(S(=O)(=O)[O-])c6F)c6ccc3[nH]6)C=C5)C=C4)cc1)CC(C)(C)CC2=O
REMARK SMILES IDX 15 1 16 2 17 3 14 5 13 6 12 7 11 8 9 9 10 10 8 12 1 13 2 14
REMARK SMILES IDX 3 15 4 16 86 17 6 18 5 19 81 20 85 21 87 22 7 23 82 25 83 26
REMARK SMILES IDX 84 27 18 28 19 29 80 30 20 31 79 32 21 33 22 34 23 35 73 36
REMARK SMILES IDX 24 37 78 38 72 39 74 40 25 41 77 42 71 43 70 44 26 46 58 47
REMARK SMILES IDX 38 48 57 49 39 50 42 51 56 52 75 53 40 54 41 55 55 57 76 58
REMARK SMILES IDX 43 59 27 60 28 61 36 62 29 63 31 64 37 65 30 66 32 67 33 68
REMARK SMILES IDX 34 69 35 70 59 71 60 72 68 73 61 74 63 75 69 76 62 77 64 78
REMARK SMILES IDX 65 79 66 80 67 81 44 82 45 83 53 84 46 85 48 86 54 87 47 88
REMARK SMILES IDX 49 89 50 90 51 91 52 92
REMARK H PARENT 15 4 11 11 5 24 74 45 42 56
REMARK Flexibility Score: inf
ROOT
ATOM      1  N   UNL A   1      32.465  31.013  25.941  1.00  0.00    -0.352 N 
ATOM      2  C   UNL A   1      33.012  31.723  26.983  1.00  0.00     0.251 C 
ATOM      3  O   UNL A   1      32.432  32.732  27.380  1.00  0.00    -0.269 OA
ATOM      4  H   UNL A   1      31.761  31.484  25.437  1.00  0.00     0.163 HD
ENDROOT
BRANCH   1   5
ATOM      5  C   UNL A   1      32.768  29.673  25.472  1.00  0.00     0.118 C 
BRANCH   5   6
ATOM      6  C   UNL A   1      31.501  28.886  25.168  1.00  0.00     0.042 C 
BRANCH   6   7
ATOM      7  C   UNL A   1      31.163  28.790  23.679  1.00  0.00     0.118 C 
BRANCH   7   8
ATOM      8  N   UNL A   1      32.380  28.707  22.885  1.00  0.00    -0.352 N 
ATOM      9  C   UNL A   1      33.189  27.667  22.527  1.00  0.00     0.257 C 
ATOM     10  O   UNL A   1      34.236  27.950  21.943  1.00  0.00    -0.269 OA
ATOM     11  H   UNL A   1      32.681  29.577  22.535  1.00  0.00     0.163 HD
BRANCH   9  12
ATOM     12  C   UNL A   1      32.814  26.239  22.763  1.00  0.00     0.108 A 
ATOM     13  C   UNL A   1      33.901  26.001  25.040  1.00  0.00     0.046 C 
ATOM     14  C   UNL A   1      33.016  25.552  23.911  1.00  0.00    -0.020 A 
ATOM     15  C   UNL A   1      32.599  24.159  24.027  1.00  0.00     0.041 A 
ATOM     16  C   UNL A   1      32.545  23.403  22.920  1.00  0.00     0.030 A 
ATOM     17  C   UNL A   1      32.238  23.534  25.342  1.00  0.00     0.165 C 
ATOM     18  C   UNL A   1      32.445  25.411  21.553  1.00  0.00     0.261 A 
ATOM     19  N   UNL A   1      32.509  24.038  21.702  1.00  0.00    -0.325 N 
ATOM     20  C   UNL A   1      32.481  21.900  22.940  1.00  0.00     0.061 C 
ATOM     21  C   UNL A   1      32.071  22.031  25.406  1.00  0.00     0.088 C 
ATOM     22  O   UNL A   1      31.959  24.235  26.314  1.00  0.00    -0.294 OA
ATOM     23  O   UNL A   1      32.130  25.890  20.469  1.00  0.00    -0.269 OA
ATOM     24  H   UNL A   1      32.530  23.484  20.889  1.00  0.00     0.169 HD
ATOM     25  C   UNL A   1      32.881  21.312  24.317  1.00  0.00    -0.023 C 
ATOM     26  C   UNL A   1      34.393  21.474  24.596  1.00  0.00     0.012 C 
ATOM     27  C   UNL A   1      32.556  19.811  24.348  1.00  0.00     0.012 C 
ENDBRANCH   9  12
ENDBRANCH   7   8
ENDBRANCH   6   7
ENDBRANCH   5   6
ENDBRANCH   1   5
BRANCH   2  28
ATOM     28  C   UNL A   1      34.276  31.296  27.632  1.00  0.00     0.039 A 
ATOM     29  C   UNL A   1      34.416  29.957  28.016  1.00  0.00     0.014 A 
ATOM     30  C   UNL A   1      35.290  32.207  27.940  1.00  0.00     0.014 A 
ATOM     31  C   UNL A   1      35.574  29.533  28.677  1.00  0.00     0.010 A 
ATOM     32  C   UNL A   1      36.482  31.766  28.516  1.00  0.00     0.010 A 
ATOM     33  C   UNL A   1      36.623  30.433  28.923  1.00  0.00    -0.014 A 
BRANCH  33  34
ATOM     34  C   UNL A   1      37.851  30.006  29.644  1.00  0.00     0.031 A 
ATOM     35  C   UNL A   1      38.122  30.505  31.040  1.00  0.00     0.074 A 
ATOM     36  C   UNL A   1      38.756  29.222  29.026  1.00  0.00     0.049 A 
ATOM     37  N   UNL A   1      39.144  30.262  31.818  1.00  0.00    -0.248 NA
ATOM     38  C   UNL A   1      37.128  31.418  31.629  1.00  0.00     0.031 C 
ATOM     39  C   UNL A   1      38.647  28.737  27.650  1.00  0.00     0.029 A 
ATOM     40  N   UNL A   1      39.954  28.714  29.466  1.00  0.00    -0.354 N 
ATOM     41  C   UNL A   1      38.937  31.018  32.966  1.00  0.00     0.074 A 
ATOM     42  C   UNL A   1      37.711  31.757  32.769  1.00  0.00     0.031 C 
ATOM     43  C   UNL A   1      39.728  27.995  27.360  1.00  0.00     0.029 A 
ATOM     44  C   UNL A   1      40.619  27.973  28.518  1.00  0.00     0.049 A 
ATOM     45  H   UNL A   1      40.302  28.866  30.374  1.00  0.00     0.167 HD
ATOM     46  C   UNL A   1      39.679  31.065  34.098  1.00  0.00     0.034 A 
ATOM     47  C   UNL A   1      41.812  27.346  28.571  1.00  0.00     0.034 A 
ATOM     48  C   UNL A   1      40.867  30.284  34.311  1.00  0.00     0.049 A 
ATOM     49  C   UNL A   1      42.597  27.370  29.855  1.00  0.00     0.074 A 
ATOM     50  C   UNL A   1      41.627  30.177  35.463  1.00  0.00     0.029 A 
ATOM     51  N   UNL A   1      41.472  29.485  33.354  1.00  0.00    -0.354 N 
ATOM     52  N   UNL A   1      42.297  27.951  30.991  1.00  0.00    -0.248 NA
ATOM     53  C   UNL A   1      43.864  26.626  29.878  1.00  0.00     0.031 C 
ATOM     54  C   UNL A   1      42.711  29.336  35.191  1.00  0.00     0.029 A 
ATOM     55  C   UNL A   1      42.610  28.897  33.880  1.00  0.00     0.049 A 
ATOM     56  H   UNL A   1      41.142  29.354  32.436  1.00  0.00     0.167 HD
ATOM     57  C   UNL A   1      43.326  27.632  31.870  1.00  0.00     0.074 A 
ATOM     58  C   UNL A   1      44.245  26.780  31.142  1.00  0.00     0.031 C 
ATOM     59  C   UNL A   1      43.501  28.022  33.158  1.00  0.00     0.034 A 
BRANCH  46  60
ATOM     60  C   UNL A   1      39.197  31.950  35.220  1.00  0.00     0.023 A 
ATOM     61  C   UNL A   1      38.267  31.446  36.154  1.00  0.00     0.012 A 
ATOM     62  C   UNL A   1      39.709  33.252  35.391  1.00  0.00     0.148 A 
ATOM     63  C   UNL A   1      37.828  32.234  37.217  1.00  0.00     0.002 A 
ATOM     64  C   UNL A   1      39.303  34.013  36.481  1.00  0.00     0.091 A 
ATOM     65  F   UNL A   1      40.575  33.723  34.482  1.00  0.00    -0.205 F 
ATOM     66  C   UNL A   1      38.354  33.511  37.386  1.00  0.00     0.022 A 
BRANCH  64  67
ATOM     67  S   UNL A   1      39.987  35.635  36.838  1.00  0.00     0.127 S 
ATOM     68  O   UNL A   1      41.416  35.339  36.928  1.00  0.00    -0.237 OA
ATOM     69  O   UNL A   1      39.598  36.402  35.653  1.00  0.00    -0.237 OA
ATOM     70  O   UNL A   1      39.359  36.073  38.076  1.00  0.00    -0.744 OA
ENDBRANCH  64  67
ENDBRANCH  46  60
BRANCH  47  71
ATOM     71  C   UNL A   1      42.278  26.576  27.383  1.00  0.00     0.023 A 
ATOM     72  C   UNL A   1      43.108  27.204  26.436  1.00  0.00     0.012 A 
ATOM     73  C   UNL A   1      41.993  25.203  27.244  1.00  0.00     0.148 A 
ATOM     74  C   UNL A   1      43.642  26.482  25.368  1.00  0.00     0.002 A 
ATOM     75  C   UNL A   1      42.576  24.476  26.212  1.00  0.00     0.091 A 
ATOM     76  F   UNL A   1      41.193  24.626  28.153  1.00  0.00    -0.205 F 
ATOM     77  C   UNL A   1      43.390  25.117  25.264  1.00  0.00     0.022 A 
BRANCH  75  78
ATOM     78  S   UNL A   1      42.435  22.688  26.085  1.00  0.00     0.127 S 
ATOM     79  O   UNL A   1      43.112  22.423  24.818  1.00  0.00    -0.237 OA
ATOM     80  O   UNL A   1      43.160  22.246  27.276  1.00  0.00    -0.237 OA
ATOM     81  O   UNL A   1      41.008  22.400  26.105  1.00  0.00    -0.744 OA
ENDBRANCH  75  78
ENDBRANCH  47  71
BRANCH  59  82
ATOM     82  C   UNL A   1      44.735  27.550  33.882  1.00  0.00     0.023 A 
ATOM     83  C   UNL A   1      45.882  28.368  33.901  1.00  0.00     0.012 A 
ATOM     84  C   UNL A   1      44.718  26.365  34.645  1.00  0.00     0.148 A 
ATOM     85  C   UNL A   1      47.000  28.004  34.652  1.00  0.00     0.002 A 
ATOM     86  C   UNL A   1      45.817  26.036  35.432  1.00  0.00     0.091 A 
ATOM     87  F   UNL A   1      43.623  25.592  34.603  1.00  0.00    -0.205 F 
ATOM     88  C   UNL A   1      46.961  26.849  35.429  1.00  0.00     0.022 A 
BRANCH  86  89
ATOM     89  S   UNL A   1      45.820  24.627  36.548  1.00  0.00     0.127 S 
ATOM     90  O   UNL A   1      47.086  24.811  37.256  1.00  0.00    -0.237 OA
ATOM     91  O   UNL A   1      44.626  24.871  37.358  1.00  0.00    -0.237 OA
ATOM     92  O   UNL A   1      45.746  23.444  35.702  1.00  0.00    -0.744 OA
ENDBRANCH  86  89
ENDBRANCH  59  82
ENDBRANCH  33  34
ENDBRANCH   2  28
TORSDOF 13
ENDMDL
MODEL 2
REMARK VINA RESULT:     -12.7      5.194     10.093
REMARK SMILES Cc1c2c([nH]c(=O)c1C(=O)NCCCNC(=O)c1ccc(-c3c4nc(c(-c5cccc(S(=O)(=O)[O-])c5F)c5ccc([nH]5)c(-c5cccc(S(=O)(=O)[O-])c5F)c5nc(c(-c6cccc(S(=O)(=O)[O-])c6F)c6ccc3[nH]6)C=C5)C=C4)cc1)CC(C)(C)CC2=O
REMARK SMILES IDX 15 1 16 2 17 3 14 5 13 6 12 7 11 8 9 9 10 10 8 12 1 13 2 14
REMARK SMILES IDX 3 15 4 16 86 17 6 18 5 19 81 20 85 21 87 22 7 23 82 25 83 26
REMARK SMILES IDX 84 27 18 28 19 29 80 30 20 31 79 32 21 33 22 34 23 35 73 36
REMARK SMILES IDX 24 37 78 38 72 39 74 40 25 41 77 42 71 43 70 44 26 46 58 47
REMARK SMILES IDX 38 48 57 49 39 50 42 51 56 52 75 53 40 54 41 55 55 57 76 58
REMARK SMILES IDX 43 59 27 60 28 61 36 62 29 63 31 64 37 65 30 66 32 67 33 68
REMARK SMILES IDX 34 69 35 70 59 71 60 72 68 73 61 74 63 75 69 76 62 77 64 78
REMARK SMILES IDX 65 79 66 80 67 81 44 82 45 83 53 84 46 85 48 86 54 87 47 88
REMARK SMILES IDX 49 89 50 90 51 91 52 92
REMARK H PARENT 15 4 11 11 5 24 74 45 42 56
REMARK Flexibility Score: inf
ROOT
ATOM      1  N   UNL A   1      37.104  20.610  25.736  1.00  0.00    -0.352 N 
ATOM      2  C   UNL A   1      38.468  20.774  25.771  1.00  0.00     0.251 C 
ATOM      3  O   UNL A   1      39.186  19.842  25.413  1.00  0.00    -0.269 OA
ATOM      4  H   UNL A   1      36.796  19.680  25.636  1.00  0.00     0.163 HD
ENDROOT
BRANCH   1   5
ATOM      5  C   UNL A   1      36.048  21.603  25.825  1.00  0.00     0.118 C 
BRANCH   5   6
ATOM      6  C   UNL A   1      34.948  21.343  24.806  1.00  0.00     0.042 C 
BRANCH   6   7
ATOM      7  C   UNL A   1      33.637  20.837  25.411  1.00  0.00     0.118 C 
BRANCH   7   8
ATOM      8  N   UNL A   1      33.455  21.374  26.752  1.00  0.00    -0.352 N 
ATOM      9  C   UNL A   1      32.852  22.503  27.229  1.00  0.00     0.257 C 
ATOM     10  O   UNL A   1      32.983  22.739  28.430  1.00  0.00    -0.269 OA
ATOM     11  H   UNL A   1      33.845  20.809  27.458  1.00  0.00     0.163 HD
BRANCH   9  12
ATOM     12  C   UNL A   1      32.015  23.391  26.367  1.00  0.00     0.108 A 
ATOM     13  C   UNL A   1      33.908  24.775  25.407  1.00  0.00     0.046 C 
ATOM     14  C   UNL A   1      32.485  24.298  25.479  1.00  0.00    -0.020 A 
ATOM     15  C   UNL A   1      31.566  25.106  24.685  1.00  0.00     0.041 A 
ATOM     16  C   UNL A   1      30.350  25.380  25.178  1.00  0.00     0.030 A 
ATOM     17  C   UNL A   1      31.936  25.654  23.338  1.00  0.00     0.165 C 
ATOM     18  C   UNL A   1      30.545  23.499  26.706  1.00  0.00     0.261 A 
ATOM     19  N   UNL A   1      29.875  24.600  26.204  1.00  0.00    -0.325 N 
ATOM     20  C   UNL A   1      29.459  26.468  24.642  1.00  0.00     0.061 C 
ATOM     21  C   UNL A   1      31.030  26.688  22.706  1.00  0.00     0.088 C 
ATOM     22  O   UNL A   1      32.881  25.182  22.707  1.00  0.00    -0.294 OA
ATOM     23  O   UNL A   1      29.946  22.693  27.410  1.00  0.00    -0.269 OA
ATOM     24  H   UNL A   1      29.009  24.838  26.606  1.00  0.00     0.169 HD
ATOM     25  C   UNL A   1      30.231  27.477  23.754  1.00  0.00    -0.023 C 
ATOM     26  C   UNL A   1      31.189  28.362  24.586  1.00  0.00     0.012 C 
ATOM     27  C   UNL A   1      29.233  28.403  23.044  1.00  0.00     0.012 C 
ENDBRANCH   9  12
ENDBRANCH   7   8
ENDBRANCH   6   7
ENDBRANCH   5   6
ENDBRANCH   1   5
BRANCH   2  28
ATOM     28  C   UNL A   1      39.085  22.045  26.227  1.00  0.00     0.039 A 
ATOM     29  C   UNL A   1      38.518  23.255  25.810  1.00  0.00     0.014 A 
ATOM     30  C   UNL A   1      40.254  22.063  26.993  1.00  0.00     0.014 A 
ATOM     31  C   UNL A   1      39.106  24.470  26.179  1.00  0.00     0.010 A 
ATOM     32  C   UNL A   1      40.786  23.273  27.437  1.00  0.00     0.010 A 
ATOM     33  C   UNL A   1      40.240  24.490  27.007  1.00  0.00    -0.014 A 
BRANCH  33  34
ATOM     34  C   UNL A   1      40.891  25.770  27.391  1.00  0.00     0.031 A 
ATOM     35  C   UNL A   1      42.310  26.054  26.972  1.00  0.00     0.074 A 
ATOM     36  C   UNL A   1      40.233  26.652  28.169  1.00  0.00     0.049 A 
ATOM     37  N   UNL A   1      43.051  27.100  27.228  1.00  0.00    -0.248 NA
ATOM     38  C   UNL A   1      42.995  25.016  26.184  1.00  0.00     0.031 C 
ATOM     39  C   UNL A   1      38.886  26.459  28.705  1.00  0.00     0.029 A 
ATOM     40  N   UNL A   1      40.617  27.875  28.663  1.00  0.00    -0.354 N 
ATOM     41  C   UNL A   1      44.295  26.830  26.671  1.00  0.00     0.074 A 
ATOM     42  C   UNL A   1      44.222  25.507  26.094  1.00  0.00     0.031 C 
ATOM     43  C   UNL A   1      38.551  27.528  29.445  1.00  0.00     0.029 A 
ATOM     44  C   UNL A   1      39.667  28.470  29.459  1.00  0.00     0.049 A 
ATOM     45  H   UNL A   1      41.489  28.286  28.464  1.00  0.00     0.167 HD
ATOM     46  C   UNL A   1      45.390  27.626  26.610  1.00  0.00     0.034 A 
ATOM     47  C   UNL A   1      39.690  29.641  30.128  1.00  0.00     0.034 A 
ATOM     48  C   UNL A   1      45.439  28.964  27.134  1.00  0.00     0.049 A 
ATOM     49  C   UNL A   1      40.897  30.532  30.007  1.00  0.00     0.074 A 
ATOM     50  C   UNL A   1      46.461  29.890  27.025  1.00  0.00     0.029 A 
ATOM     51  N   UNL A   1      44.430  29.563  27.871  1.00  0.00    -0.354 N 
ATOM     52  N   UNL A   1      42.001  30.332  29.328  1.00  0.00    -0.248 NA
ATOM     53  C   UNL A   1      40.850  31.821  30.711  1.00  0.00     0.031 C 
ATOM     54  C   UNL A   1      46.082  31.039  27.726  1.00  0.00     0.029 A 
ATOM     55  C   UNL A   1      44.813  30.840  28.246  1.00  0.00     0.049 A 
ATOM     56  H   UNL A   1      43.569  29.143  28.097  1.00  0.00     0.167 HD
ATOM     57  C   UNL A   1      42.774  31.474  29.508  1.00  0.00     0.074 A 
ATOM     58  C   UNL A   1      41.999  32.375  30.337  1.00  0.00     0.031 C 
ATOM     59  C   UNL A   1      44.020  31.744  29.042  1.00  0.00     0.034 A 
BRANCH  46  60
ATOM     60  C   UNL A   1      46.610  27.093  25.901  1.00  0.00     0.023 A 
ATOM     61  C   UNL A   1      47.385  26.085  26.512  1.00  0.00     0.012 A 
ATOM     62  C   UNL A   1      46.951  27.538  24.608  1.00  0.00     0.148 A 
ATOM     63  C   UNL A   1      48.501  25.556  25.864  1.00  0.00     0.002 A 
ATOM     64  C   UNL A   1      48.036  26.970  23.950  1.00  0.00     0.091 A 
ATOM     65  F   UNL A   1      46.217  28.512  24.051  1.00  0.00    -0.205 F 
ATOM     66  C   UNL A   1      48.818  25.989  24.580  1.00  0.00     0.022 A 
BRANCH  64  67
ATOM     67  S   UNL A   1      48.475  27.395  22.261  1.00  0.00     0.127 S 
ATOM     68  O   UNL A   1      49.695  28.176  22.460  1.00  0.00    -0.237 OA
ATOM     69  O   UNL A   1      48.686  26.079  21.656  1.00  0.00    -0.237 OA
ATOM     70  O   UNL A   1      47.340  28.133  21.724  1.00  0.00    -0.744 OA
ENDBRANCH  64  67
ENDBRANCH  46  60
BRANCH  47  71
ATOM     71  C   UNL A   1      38.484  30.056  30.900  1.00  0.00     0.023 A 
ATOM     72  C   UNL A   1      38.407  29.755  32.273  1.00  0.00     0.012 A 
ATOM     73  C   UNL A   1      37.471  30.837  30.309  1.00  0.00     0.148 A 
ATOM     74  C   UNL A   1      37.339  30.219  33.043  1.00  0.00     0.002 A 
ATOM     75  C   UNL A   1      36.442  31.346  31.094  1.00  0.00     0.091 A 
ATOM     76  F   UNL A   1      37.561  31.105  28.998  1.00  0.00    -0.205 F 
ATOM     77  C   UNL A   1      36.366  31.026  32.459  1.00  0.00     0.022 A 
BRANCH  75  78
ATOM     78  S   UNL A   1      35.232  32.517  30.466  1.00  0.00     0.127 S 
ATOM     79  O   UNL A   1      34.310  32.629  31.594  1.00  0.00    -0.237 OA
ATOM     80  O   UNL A   1      36.059  33.700  30.225  1.00  0.00    -0.237 OA
ATOM     81  O   UNL A   1      34.679  31.911  29.263  1.00  0.00    -0.744 OA
ENDBRANCH  75  78
ENDBRANCH  47  71
BRANCH  59  82
ATOM     82  C   UNL A   1      44.647  33.062  29.414  1.00  0.00     0.023 A 
ATOM     83  C   UNL A   1      45.407  33.158  30.597  1.00  0.00     0.012 A 
ATOM     84  C   UNL A   1      44.593  34.164  28.537  1.00  0.00     0.148 A 
ATOM     85  C   UNL A   1      46.087  34.335  30.911  1.00  0.00     0.002 A 
ATOM     86  C   UNL A   1      45.315  35.316  28.830  1.00  0.00     0.091 A 
ATOM     87  F   UNL A   1      43.853  34.059  27.423  1.00  0.00    -0.205 F 
ATOM     88  C   UNL A   1      46.054  35.406  30.021  1.00  0.00     0.022 A 
BRANCH  86  89
ATOM     89  S   UNL A   1      45.423  36.706  27.696  1.00  0.00     0.127 S 
ATOM     90  O   UNL A   1      44.027  37.135  27.618  1.00  0.00    -0.237 OA
ATOM     91  O   UNL A   1      46.306  37.624  28.414  1.00  0.00    -0.237 OA
ATOM     92  O   UNL A   1      45.980  36.173  26.459  1.00  0.00    -0.744 OA
ENDBRANCH  86  89
ENDBRANCH  59  82
ENDBRANCH  33  34
ENDBRANCH   2  28
TORSDOF 13
ENDMDL
MODEL 3
REMARK VINA RESULT:     -12.6      4.657      9.941
REMARK SMILES Cc1c2c([nH]c(=O)c1C(=O)NCCCNC(=O)c1ccc(-c3c4nc(c(-c5cccc(S(=O)(=O)[O-])c5F)c5ccc([nH]5)c(-c5cccc(S(=O)(=O)[O-])c5F)c5nc(c(-c6cccc(S(=O)(=O)[O-])c6F)c6ccc3[nH]6)C=C5)C=C4)cc1)CC(C)(C)CC2=O
REMARK SMILES IDX 15 1 16 2 17 3 14 5 13 6 12 7 11 8 9 9 10 10 8 12 1 13 2 14
REMARK SMILES IDX 3 15 4 16 86 17 6 18 5 19 81 20 85 21 87 22 7 23 82 25 83 26
REMARK SMILES IDX 84 27 18 28 19 29 80 30 20 31 79 32 21 33 22 34 23 35 73 36
REMARK SMILES IDX 24 37 78 38 72 39 74 40 25 41 77 42 71 43 70 44 26 46 58 47
REMARK SMILES IDX 38 48 57 49 39 50 42 51 56 52 75 53 40 54 41 55 55 57 76 58
REMARK SMILES IDX 43 59 27 60 28 61 36 62 29 63 31 64 37 65 30 66 32 67 33 68
REMARK SMILES IDX 34 69 35 70 59 71 60 72 68 73 61 74 63 75 69 76 62 77 64 78
REMARK SMILES IDX 65 79 66 80 67 81 44 82 45 83 53 84 46 85 48 86 54 87 47 88
REMARK SMILES IDX 49 89 50 90 51 91 52 92
REMARK H PARENT 15 4 11 11 5 24 74 45 42 56
REMARK Flexibility Score: inf
ROOT
ATOM      1  N   UNL A   1      37.195  20.873  25.764  1.00  0.00    -0.352 N 
ATOM      2  C   UNL A   1      38.558  21.014  25.875  1.00  0.00     0.251 C 
ATOM      3  O   UNL A   1      39.277  20.060  25.586  1.00  0.00    -0.269 OA
ATOM      4  H   UNL A   1      36.876  19.946  25.673  1.00  0.00     0.163 HD
ENDROOT
BRANCH   1   5
ATOM      5  C   UNL A   1      36.155  21.886  25.761  1.00  0.00     0.118 C 
BRANCH   5   6
ATOM      6  C   UNL A   1      35.117  21.620  24.680  1.00  0.00     0.042 C 
BRANCH   6   7
ATOM      7  C   UNL A   1      33.863  20.898  25.178  1.00  0.00     0.118 C 
BRANCH   7   8
ATOM      8  N   UNL A   1      33.521  21.340  26.523  1.00  0.00    -0.352 N 
ATOM      9  C   UNL A   1      32.856  22.431  27.002  1.00  0.00     0.257 C 
ATOM     10  O   UNL A   1      32.843  22.583  28.224  1.00  0.00    -0.269 OA
ATOM     11  H   UNL A   1      33.832  20.728  27.228  1.00  0.00     0.163 HD
BRANCH   9  12
ATOM     12  C   UNL A   1      32.115  23.376  26.112  1.00  0.00     0.108 A 
ATOM     13  C   UNL A   1      34.032  24.979  25.691  1.00  0.00     0.046 C 
ATOM     14  C   UNL A   1      32.661  24.417  25.441  1.00  0.00    -0.020 A 
ATOM     15  C   UNL A   1      31.835  25.269  24.592  1.00  0.00     0.041 A 
ATOM     16  C   UNL A   1      30.533  25.406  24.880  1.00  0.00     0.030 A 
ATOM     17  C   UNL A   1      32.392  26.008  23.412  1.00  0.00     0.165 C 
ATOM     18  C   UNL A   1      30.605  23.355  26.183  1.00  0.00     0.261 A 
ATOM     19  N   UNL A   1      29.948  24.472  25.701  1.00  0.00    -0.325 N 
ATOM     20  C   UNL A   1      29.667  26.502  24.322  1.00  0.00     0.061 C 
ATOM     21  C   UNL A   1      31.532  27.064  22.749  1.00  0.00     0.088 C 
ATOM     22  O   UNL A   1      33.468  25.678  22.914  1.00  0.00    -0.294 OA
ATOM     23  O   UNL A   1      29.957  22.431  26.664  1.00  0.00    -0.269 OA
ATOM     24  H   UNL A   1      29.009  24.606  25.960  1.00  0.00     0.169 HD
ATOM     25  C   UNL A   1      30.501  27.661  23.718  1.00  0.00    -0.023 C 
ATOM     26  C   UNL A   1      31.223  28.482  24.812  1.00  0.00     0.012 C 
ATOM     27  C   UNL A   1      29.573  28.615  22.951  1.00  0.00     0.012 C 
ENDBRANCH   9  12
ENDBRANCH   7   8
ENDBRANCH   6   7
ENDBRANCH   5   6
ENDBRANCH   1   5
BRANCH   2  28
ATOM     28  C   UNL A   1      39.171  22.287  26.329  1.00  0.00     0.039 A 
ATOM     29  C   UNL A   1      38.694  23.491  25.796  1.00  0.00     0.014 A 
ATOM     30  C   UNL A   1      40.256  22.309  27.209  1.00  0.00     0.014 A 
ATOM     31  C   UNL A   1      39.285  24.704  26.163  1.00  0.00     0.010 A 
ATOM     32  C   UNL A   1      40.784  23.524  27.645  1.00  0.00     0.010 A 
ATOM     33  C   UNL A   1      40.329  24.733  27.101  1.00  0.00    -0.014 A 
BRANCH  33  34
ATOM     34  C   UNL A   1      40.984  26.011  27.487  1.00  0.00     0.031 A 
ATOM     35  C   UNL A   1      42.411  26.282  27.086  1.00  0.00     0.074 A 
ATOM     36  C   UNL A   1      40.322  26.902  28.252  1.00  0.00     0.049 A 
ATOM     37  N   UNL A   1      43.156  27.324  27.347  1.00  0.00    -0.248 NA
ATOM     38  C   UNL A   1      43.100  25.234  26.314  1.00  0.00     0.031 C 
ATOM     39  C   UNL A   1      38.966  26.721  28.769  1.00  0.00     0.029 A 
ATOM     40  N   UNL A   1      40.708  28.124  28.743  1.00  0.00    -0.354 N 
ATOM     41  C   UNL A   1      44.406  27.042  26.808  1.00  0.00     0.074 A 
ATOM     42  C   UNL A   1      44.331  25.716  26.238  1.00  0.00     0.031 C 
ATOM     43  C   UNL A   1      38.629  27.797  29.499  1.00  0.00     0.029 A 
ATOM     44  C   UNL A   1      39.752  28.731  29.523  1.00  0.00     0.049 A 
ATOM     45  H   UNL A   1      41.586  28.529  28.554  1.00  0.00     0.167 HD
ATOM     46  C   UNL A   1      45.507  27.830  26.757  1.00  0.00     0.034 A 
ATOM     47  C   UNL A   1      39.774  29.905  30.186  1.00  0.00     0.034 A 
ATOM     48  C   UNL A   1      45.559  29.170  27.275  1.00  0.00     0.049 A 
ATOM     49  C   UNL A   1      40.989  30.787  30.076  1.00  0.00     0.074 A 
ATOM     50  C   UNL A   1      46.588  30.088  27.175  1.00  0.00     0.029 A 
ATOM     51  N   UNL A   1      44.544  29.781  27.995  1.00  0.00    -0.354 N 
ATOM     52  N   UNL A   1      42.101  30.576  29.414  1.00  0.00    -0.248 NA
ATOM     53  C   UNL A   1      40.942  32.081  30.772  1.00  0.00     0.031 C 
ATOM     54  C   UNL A   1      46.208  31.245  27.863  1.00  0.00     0.029 A 
ATOM     55  C   UNL A   1      44.930  31.058  28.367  1.00  0.00     0.049 A 
ATOM     56  H   UNL A   1      43.677  29.369  28.211  1.00  0.00     0.167 HD
ATOM     57  C   UNL A   1      42.879  31.713  29.597  1.00  0.00     0.074 A 
ATOM     58  C   UNL A   1      42.099  32.624  30.410  1.00  0.00     0.031 C 
ATOM     59  C   UNL A   1      44.133  31.972  29.147  1.00  0.00     0.034 A 
BRANCH  46  60
ATOM     60  C   UNL A   1      46.733  27.284  26.068  1.00  0.00     0.023 A 
ATOM     61  C   UNL A   1      46.881  27.454  24.675  1.00  0.00     0.012 A 
ATOM     62  C   UNL A   1      47.764  26.665  26.802  1.00  0.00     0.148 A 
ATOM     63  C   UNL A   1      48.019  26.985  24.019  1.00  0.00     0.002 A 
ATOM     64  C   UNL A   1      48.915  26.244  26.147  1.00  0.00     0.091 A 
ATOM     65  F   UNL A   1      47.597  26.492  28.121  1.00  0.00    -0.205 F 
ATOM     66  C   UNL A   1      49.039  26.391  24.756  1.00  0.00     0.022 A 
BRANCH  64  67
ATOM     67  S   UNL A   1      50.325  25.548  27.017  1.00  0.00     0.127 S 
ATOM     68  O   UNL A   1      49.755  24.318  27.566  1.00  0.00    -0.237 OA
ATOM     69  O   UNL A   1      51.286  25.343  25.933  1.00  0.00    -0.237 OA
ATOM     70  O   UNL A   1      50.723  26.546  28.000  1.00  0.00    -0.744 OA
ENDBRANCH  64  67
ENDBRANCH  46  60
BRANCH  47  71
ATOM     71  C   UNL A   1      38.561  30.334  30.939  1.00  0.00     0.023 A 
ATOM     72  C   UNL A   1      38.499  30.117  32.328  1.00  0.00     0.012 A 
ATOM     73  C   UNL A   1      37.523  31.048  30.308  1.00  0.00     0.148 A 
ATOM     74  C   UNL A   1      37.422  30.597  33.075  1.00  0.00     0.002 A 
ATOM     75  C   UNL A   1      36.484  31.575  31.066  1.00  0.00     0.091 A 
ATOM     76  F   UNL A   1      37.598  31.236  28.982  1.00  0.00    -0.205 F 
ATOM     77  C   UNL A   1      36.424  31.338  32.449  1.00  0.00     0.022 A 
BRANCH  75  78
ATOM     78  S   UNL A   1      35.237  32.670  30.375  1.00  0.00     0.127 S 
ATOM     79  O   UNL A   1      36.039  33.822  29.972  1.00  0.00    -0.237 OA
ATOM     80  O   UNL A   1      34.713  31.866  29.271  1.00  0.00    -0.237 OA
ATOM     81  O   UNL A   1      34.284  32.915  31.449  1.00  0.00    -0.744 OA
ENDBRANCH  75  78
ENDBRANCH  47  71
BRANCH  59  82
ATOM     82  C   UNL A   1      44.765  33.288  29.520  1.00  0.00     0.023 A 
ATOM     83  C   UNL A   1      45.590  33.361  30.660  1.00  0.00     0.012 A 
ATOM     84  C   UNL A   1      44.647  34.412  28.679  1.00  0.00     0.148 A 
ATOM     85  C   UNL A   1      46.273  34.537  30.968  1.00  0.00     0.002 A 
ATOM     86  C   UNL A   1      45.371  35.565  28.964  1.00  0.00     0.091 A 
ATOM     87  F   UNL A   1      43.846  34.329  27.607  1.00  0.00    -0.205 F 
ATOM     88  C   UNL A   1      46.176  35.632  30.112  1.00  0.00     0.022 A 
BRANCH  86  89
ATOM     89  S   UNL A   1      45.397  36.988  27.865  1.00  0.00     0.127 S 
ATOM     90  O   UNL A   1      46.278  37.904  28.587  1.00  0.00    -0.237 OA
ATOM     91  O   UNL A   1      45.969  36.425  26.643  1.00  0.00    -0.237 OA
ATOM     92  O   UNL A   1      44.012  37.424  27.741  1.00  0.00    -0.744 OA
ENDBRANCH  86  89
ENDBRANCH  59  82
ENDBRANCH  33  34
ENDBRANCH   2  28
TORSDOF 13
ENDMDL
