MODEL 1
REMARK VINA RESULT:     -12.7      0.000      0.000
REMARK SMILES CC1=C(C#N)C(=O)N(C)C(=O)/C1=C\Nc1ccc(C(=O)NCCCNC(=O)c2ccc(-c3c4nc(c(-c5cccc(S(=O)(=O)[O-])c5F)c5ccc([nH]5)c(-c5cccc(S(=O)(=O)[O-])c5F)c5nc(c(-c6cccc(S(=O)(=O)[O-])c6F)c6ccc3[nH]6)C=C5)C=C4)cc2)c(O)c1
REMARK SMILES IDX 23 1 22 2 21 3 19 4 20 5 18 7 15 8 16 9 93 10 17 11 91 12
REMARK SMILES IDX 14 13 13 15 1 16 2 17 3 18 12 19 6 20 10 21 7 22 8 23 11 24
REMARK SMILES IDX 9 25 4 26 5 27 92 28 24 30 25 31 26 32 27 34 28 35 29 36
REMARK SMILES IDX 90 37 30 38 89 39 31 40 32 41 33 42 83 43 34 44 88 45 82 46
REMARK SMILES IDX 84 47 35 48 87 49 81 50 80 51 36 53 68 54 48 55 67 56 49 57
REMARK SMILES IDX 52 58 66 59 85 60 50 61 51 62 65 64 86 65 53 66 37 67 38 68
REMARK SMILES IDX 46 69 39 70 41 71 47 72 40 73 42 74 43 75 44 76 45 77 69 78
REMARK SMILES IDX 70 79 78 80 71 81 73 82 79 83 72 84 74 85 75 86 76 87 77 88
REMARK SMILES IDX 54 89 55 90 63 91 56 92 58 93 64 94 57 95 59 96 60 97 61 98
REMARK SMILES IDX 62 99
REMARK H PARENT 21 6 14 14 92 29 25 33 84 52 52 63
REMARK Flexibility Score: inf
ROOT
ATOM      1  C   UNL A   1      37.484  19.271  24.806  1.00  0.00     0.042 C 
ENDROOT
BRANCH   1   2
ATOM      2  C   UNL A   1      36.098  19.868  24.941  1.00  0.00     0.118 C 
BRANCH   2   3
ATOM      3  N   UNL A   1      34.993  18.936  24.756  1.00  0.00    -0.352 N 
ATOM      4  C   UNL A   1      33.641  19.168  24.645  1.00  0.00     0.255 C 
ATOM      5  O   UNL A   1      32.889  18.211  24.475  1.00  0.00    -0.269 OA
ATOM      6  H   UNL A   1      35.255  17.989  24.704  1.00  0.00     0.163 HD
BRANCH   4   7
ATOM      7  C   UNL A   1      33.062  20.530  24.770  1.00  0.00     0.081 A 
ATOM      8  C   UNL A   1      32.229  23.205  25.147  1.00  0.00     0.042 A 
ATOM      9  C   UNL A   1      32.741  22.470  26.218  1.00  0.00     0.027 A 
ATOM     10  C   UNL A   1      32.099  22.568  23.907  1.00  0.00     0.073 A 
ATOM     11  C   UNL A   1      33.162  21.146  26.029  1.00  0.00     0.020 A 
ATOM     12  C   UNL A   1      32.435  21.230  23.742  1.00  0.00     0.130 A 
BRANCH   8  13
ATOM     13  N   UNL A   1      31.840  24.544  25.218  1.00  0.00    -0.361 N 
ATOM     14  H   UNL A   1      32.486  25.124  25.681  1.00  0.00     0.166 HD
BRANCH  13  15
ATOM     15  C   UNL A   1      30.728  25.203  24.764  1.00  0.00     0.097 C 
ATOM     16  C   UNL A   1      28.156  26.433  24.041  1.00  0.00     0.047 C 
ATOM     17  C   UNL A   1      29.482  27.081  23.695  1.00  0.00    -0.013 C 
ATOM     18  C   UNL A   1      29.561  28.254  23.030  1.00  0.00     0.121 C 
ATOM     19  C   UNL A   1      30.703  26.396  24.124  1.00  0.00     0.060 C 
ATOM     20  C   UNL A   1      30.875  28.871  22.699  1.00  0.00     0.271 C 
ATOM     21  C   UNL A   1      32.045  27.037  23.844  1.00  0.00     0.262 C 
ATOM     22  O   UNL A   1      30.919  29.917  22.052  1.00  0.00    -0.268 OA
ATOM     23  N   UNL A   1      32.018  28.224  23.136  1.00  0.00    -0.277 N 
ATOM     24  O   UNL A   1      33.099  26.519  24.219  1.00  0.00    -0.269 OA
ATOM     25  C   UNL A   1      33.289  28.855  22.820  1.00  0.00     0.157 C 
BRANCH  18  26
ATOM     26  C   UNL A   1      28.408  28.972  22.604  1.00  0.00     0.105 C 
ATOM     27  N   UNL A   1      27.474  29.544  22.205  1.00  0.00    -0.192 NA
ENDBRANCH  18  26
ENDBRANCH  13  15
ENDBRANCH   8  13
BRANCH  12  28
ATOM     28  O   UNL A   1      32.054  20.686  22.547  1.00  0.00    -0.507 OA
ATOM     29  H   UNL A   1      32.190  21.162  21.751  1.00  0.00     0.293 HD
ENDBRANCH  12  28
ENDBRANCH   4   7
ENDBRANCH   2   3
ENDBRANCH   1   2
BRANCH   1  30
ATOM     30  C   UNL A   1      38.571  19.970  25.600  1.00  0.00     0.118 C 
BRANCH  30  31
ATOM     31  N   UNL A   1      39.787  19.183  25.772  1.00  0.00    -0.352 N 
ATOM     32  C   UNL A   1      41.057  19.554  26.157  1.00  0.00     0.251 C 
ATOM     33  H   UNL A   1      39.683  18.222  25.580  1.00  0.00     0.163 HD
ATOM     34  O   UNL A   1      41.965  18.728  26.116  1.00  0.00    -0.269 OA
BRANCH  32  35
ATOM     35  C   UNL A   1      41.340  20.944  26.581  1.00  0.00     0.039 A 
ATOM     36  C   UNL A   1      42.083  21.166  27.745  1.00  0.00     0.014 A 
ATOM     37  C   UNL A   1      40.900  22.030  25.827  1.00  0.00     0.014 A 
ATOM     38  C   UNL A   1      42.463  22.467  28.086  1.00  0.00     0.010 A 
ATOM     39  C   UNL A   1      41.398  23.300  26.087  1.00  0.00     0.010 A 
ATOM     40  C   UNL A   1      42.173  23.541  27.228  1.00  0.00    -0.014 A 
BRANCH  40  41
ATOM     41  C   UNL A   1      42.662  24.917  27.507  1.00  0.00     0.031 A 
ATOM     42  C   UNL A   1      41.752  25.927  28.157  1.00  0.00     0.074 A 
ATOM     43  C   UNL A   1      43.892  25.288  27.095  1.00  0.00     0.049 A 
ATOM     44  N   UNL A   1      41.978  27.187  28.425  1.00  0.00    -0.248 NA
ATOM     45  C   UNL A   1      40.397  25.476  28.530  1.00  0.00     0.031 C 
ATOM     46  C   UNL A   1      44.838  24.433  26.371  1.00  0.00     0.029 A 
ATOM     47  N   UNL A   1      44.550  26.489  27.198  1.00  0.00    -0.354 N 
ATOM     48  C   UNL A   1      40.791  27.686  28.946  1.00  0.00     0.074 A 
ATOM     49  C   UNL A   1      39.831  26.605  28.929  1.00  0.00     0.031 C 
ATOM     50  C   UNL A   1      45.954  25.131  26.108  1.00  0.00     0.029 A 
ATOM     51  C   UNL A   1      45.789  26.495  26.597  1.00  0.00     0.049 A 
ATOM     52  H   UNL A   1      44.171  27.272  27.658  1.00  0.00     0.167 HD
ATOM     53  C   UNL A   1      40.525  28.926  29.416  1.00  0.00     0.034 A 
ATOM     54  C   UNL A   1      46.682  27.492  26.436  1.00  0.00     0.034 A 
ATOM     55  C   UNL A   1      41.491  29.988  29.472  1.00  0.00     0.049 A 
ATOM     56  C   UNL A   1      46.372  28.849  27.004  1.00  0.00     0.074 A 
ATOM     57  C   UNL A   1      41.351  31.243  30.034  1.00  0.00     0.029 A 
ATOM     58  N   UNL A   1      42.762  29.931  28.926  1.00  0.00    -0.354 N 
ATOM     59  N   UNL A   1      45.304  29.250  27.649  1.00  0.00    -0.248 NA
ATOM     60  C   UNL A   1      47.404  29.886  26.854  1.00  0.00     0.031 C 
ATOM     61  C   UNL A   1      42.517  31.969  29.774  1.00  0.00     0.029 A 
ATOM     62  C   UNL A   1      43.407  31.141  29.111  1.00  0.00     0.049 A 
ATOM     63  H   UNL A   1      43.149  29.147  28.473  1.00  0.00     0.167 HD
ATOM     64  C   UNL A   1      45.550  30.569  28.013  1.00  0.00     0.074 A 
ATOM     65  C   UNL A   1      46.879  30.891  27.538  1.00  0.00     0.031 C 
ATOM     66  C   UNL A   1      44.746  31.437  28.672  1.00  0.00     0.034 A 
BRANCH  53  67
ATOM     67  C   UNL A   1      39.138  29.211  29.931  1.00  0.00     0.023 A 
ATOM     68  C   UNL A   1      38.789  28.874  31.253  1.00  0.00     0.012 A 
ATOM     69  C   UNL A   1      38.209  29.894  29.122  1.00  0.00     0.148 A 
ATOM     70  C   UNL A   1      37.526  29.190  31.755  1.00  0.00     0.002 A 
ATOM     71  C   UNL A   1      36.974  30.252  29.645  1.00  0.00     0.091 A 
ATOM     72  F   UNL A   1      38.555  30.184  27.859  1.00  0.00    -0.205 F 
ATOM     73  C   UNL A   1      36.626  29.891  30.956  1.00  0.00     0.022 A 
BRANCH  71  74
ATOM     74  S   UNL A   1      35.782  31.232  28.729  1.00  0.00     0.127 S 
ATOM     75  O   UNL A   1      34.882  31.673  29.794  1.00  0.00    -0.237 OA
ATOM     76  O   UNL A   1      36.624  32.287  28.165  1.00  0.00    -0.237 OA
ATOM     77  O   UNL A   1      35.186  30.334  27.748  1.00  0.00    -0.744 OA
ENDBRANCH  71  74
ENDBRANCH  53  67
BRANCH  54  78
ATOM     78  C   UNL A   1      47.964  27.245  25.713  1.00  0.00     0.023 A 
ATOM     79  C   UNL A   1      49.097  26.798  26.421  1.00  0.00     0.012 A 
ATOM     80  C   UNL A   1      48.065  27.464  24.326  1.00  0.00     0.148 A 
ATOM     81  C   UNL A   1      50.318  26.621  25.770  1.00  0.00     0.002 A 
ATOM     82  C   UNL A   1      49.267  27.225  23.672  1.00  0.00     0.091 A 
ATOM     83  F   UNL A   1      46.979  27.897  23.671  1.00  0.00    -0.205 F 
ATOM     84  C   UNL A   1      50.402  26.826  24.394  1.00  0.00     0.022 A 
BRANCH  82  85
ATOM     85  S   UNL A   1      49.428  27.337  21.888  1.00  0.00     0.127 S 
ATOM     86  O   UNL A   1      50.856  27.096  21.700  1.00  0.00    -0.237 OA
ATOM     87  O   UNL A   1      48.554  26.253  21.438  1.00  0.00    -0.237 OA
ATOM     88  O   UNL A   1      48.960  28.670  21.532  1.00  0.00    -0.744 OA
ENDBRANCH  82  85
ENDBRANCH  54  78
BRANCH  66  89
ATOM     89  C   UNL A   1      45.292  32.807  28.977  1.00  0.00     0.023 A 
ATOM     90  C   UNL A   1      46.062  33.026  30.138  1.00  0.00     0.012 A 
ATOM     91  C   UNL A   1      45.098  33.865  28.066  1.00  0.00     0.148 A 
ATOM     92  C   UNL A   1      46.593  34.286  30.406  1.00  0.00     0.002 A 
ATOM     93  C   UNL A   1      45.679  35.101  28.311  1.00  0.00     0.091 A 
ATOM     94  F   UNL A   1      44.352  33.639  26.975  1.00  0.00    -0.205 F 
ATOM     95  C   UNL A   1      46.413  35.319  29.489  1.00  0.00     0.022 A 
BRANCH  93  96
ATOM     96  S   UNL A   1      45.587  36.458  27.139  1.00  0.00     0.127 S 
ATOM     97  O   UNL A   1      46.305  37.514  27.850  1.00  0.00    -0.237 OA
ATOM     98  O   UNL A   1      46.294  35.912  25.980  1.00  0.00    -0.237 OA
ATOM     99  O   UNL A   1      44.168  36.709  26.921  1.00  0.00    -0.744 OA
ENDBRANCH  93  96
ENDBRANCH  66  89
ENDBRANCH  40  41
ENDBRANCH  32  35
ENDBRANCH  30  31
ENDBRANCH   1  30
TORSDOF 17
ENDMDL
MODEL 2
REMARK VINA RESULT:     -12.5      5.256      9.447
REMARK SMILES CC1=C(C#N)C(=O)N(C)C(=O)/C1=C\Nc1ccc(C(=O)NCCCNC(=O)c2ccc(-c3c4nc(c(-c5cccc(S(=O)(=O)[O-])c5F)c5ccc([nH]5)c(-c5cccc(S(=O)(=O)[O-])c5F)c5nc(c(-c6cccc(S(=O)(=O)[O-])c6F)c6ccc3[nH]6)C=C5)C=C4)cc2)c(O)c1
REMARK SMILES IDX 23 1 22 2 21 3 19 4 20 5 18 7 15 8 16 9 93 10 17 11 91 12
REMARK SMILES IDX 14 13 13 15 1 16 2 17 3 18 12 19 6 20 10 21 7 22 8 23 11 24
REMARK SMILES IDX 9 25 4 26 5 27 92 28 24 30 25 31 26 32 27 34 28 35 29 36
REMARK SMILES IDX 90 37 30 38 89 39 31 40 32 41 33 42 83 43 34 44 88 45 82 46
REMARK SMILES IDX 84 47 35 48 87 49 81 50 80 51 36 53 68 54 48 55 67 56 49 57
REMARK SMILES IDX 52 58 66 59 85 60 50 61 51 62 65 64 86 65 53 66 37 67 38 68
REMARK SMILES IDX 46 69 39 70 41 71 47 72 40 73 42 74 43 75 44 76 45 77 69 78
REMARK SMILES IDX 70 79 78 80 71 81 73 82 79 83 72 84 74 85 75 86 76 87 77 88
REMARK SMILES IDX 54 89 55 90 63 91 56 92 58 93 64 94 57 95 59 96 60 97 61 98
REMARK SMILES IDX 62 99
REMARK H PARENT 21 6 14 14 92 29 25 33 84 52 52 63
REMARK Flexibility Score: inf
ROOT
ATOM      1  C   UNL A   1      31.321  31.003  26.006  1.00  0.00     0.042 C 
ENDROOT
BRANCH   1   2
ATOM      2  C   UNL A   1      31.471  29.715  25.221  1.00  0.00     0.118 C 
BRANCH   2   3
ATOM      3  N   UNL A   1      30.731  29.655  23.966  1.00  0.00    -0.352 N 
ATOM      4  C   UNL A   1      30.474  28.590  23.134  1.00  0.00     0.255 C 
ATOM      5  O   UNL A   1      29.802  28.780  22.121  1.00  0.00    -0.269 OA
ATOM      6  H   UNL A   1      30.357  30.515  23.665  1.00  0.00     0.163 HD
BRANCH   4   7
ATOM      7  C   UNL A   1      31.020  27.234  23.397  1.00  0.00     0.081 A 
ATOM      8  C   UNL A   1      32.315  24.797  24.006  1.00  0.00     0.042 A 
ATOM      9  C   UNL A   1      32.968  25.770  23.248  1.00  0.00     0.027 A 
ATOM     10  C   UNL A   1      30.997  25.043  24.410  1.00  0.00     0.073 A 
ATOM     11  C   UNL A   1      32.328  26.982  22.953  1.00  0.00     0.020 A 
ATOM     12  C   UNL A   1      30.334  26.208  24.043  1.00  0.00     0.130 A 
BRANCH   8  13
ATOM     13  N   UNL A   1      32.885  23.585  24.403  1.00  0.00    -0.361 N 
ATOM     14  H   UNL A   1      32.227  22.900  24.661  1.00  0.00     0.166 HD
BRANCH  13  15
ATOM     15  C   UNL A   1      34.187  23.171  24.502  1.00  0.00     0.097 C 
ATOM     16  C   UNL A   1      37.054  22.611  24.847  1.00  0.00     0.047 C 
ATOM     17  C   UNL A   1      36.024  21.503  24.756  1.00  0.00    -0.013 C 
ATOM     18  C   UNL A   1      36.362  20.196  24.820  1.00  0.00     0.121 C 
ATOM     19  C   UNL A   1      34.620  21.892  24.609  1.00  0.00     0.060 C 
ATOM     20  C   UNL A   1      35.332  19.124  24.726  1.00  0.00     0.271 C 
ATOM     21  C   UNL A   1      33.557  20.817  24.568  1.00  0.00     0.262 C 
ATOM     22  O   UNL A   1      35.672  17.941  24.742  1.00  0.00    -0.268 OA
ATOM     23  N   UNL A   1      34.008  19.511  24.616  1.00  0.00    -0.277 N 
ATOM     24  O   UNL A   1      32.359  21.095  24.485  1.00  0.00    -0.269 OA
ATOM     25  C   UNL A   1      33.018  18.448  24.547  1.00  0.00     0.157 C 
BRANCH  18  26
ATOM     26  C   UNL A   1      37.707  19.759  24.978  1.00  0.00     0.105 C 
ATOM     27  N   UNL A   1      38.790  19.355  25.126  1.00  0.00    -0.192 NA
ENDBRANCH  18  26
ENDBRANCH  13  15
ENDBRANCH   8  13
BRANCH  12  28
ATOM     28  O   UNL A   1      28.995  26.216  24.319  1.00  0.00    -0.507 OA
ATOM     29  H   UNL A   1      28.660  25.708  25.031  1.00  0.00     0.293 HD
ENDBRANCH  12  28
ENDBRANCH   4   7
ENDBRANCH   2   3
ENDBRANCH   1   2
BRANCH   1  30
ATOM     30  C   UNL A   1      32.436  31.292  26.994  1.00  0.00     0.118 C 
BRANCH  30  31
ATOM     31  N   UNL A   1      32.699  32.712  27.199  1.00  0.00    -0.352 N 
ATOM     32  C   UNL A   1      33.765  33.358  27.786  1.00  0.00     0.251 C 
ATOM     33  H   UNL A   1      31.994  33.312  26.861  1.00  0.00     0.163 HD
ATOM     34  O   UNL A   1      33.714  34.574  27.956  1.00  0.00    -0.269 OA
BRANCH  32  35
ATOM     35  C   UNL A   1      34.949  32.596  28.244  1.00  0.00     0.039 A 
ATOM     36  C   UNL A   1      36.209  33.201  28.205  1.00  0.00     0.014 A 
ATOM     37  C   UNL A   1      34.823  31.297  28.734  1.00  0.00     0.014 A 
ATOM     38  C   UNL A   1      37.311  32.538  28.751  1.00  0.00     0.010 A 
ATOM     39  C   UNL A   1      35.885  30.704  29.403  1.00  0.00     0.010 A 
ATOM     40  C   UNL A   1      37.149  31.307  29.408  1.00  0.00    -0.014 A 
BRANCH  40  41
ATOM     41  C   UNL A   1      38.281  30.633  30.096  1.00  0.00     0.031 A 
ATOM     42  C   UNL A   1      38.657  31.027  31.502  1.00  0.00     0.074 A 
ATOM     43  C   UNL A   1      39.030  29.730  29.429  1.00  0.00     0.049 A 
ATOM     44  N   UNL A   1      39.645  30.597  32.241  1.00  0.00    -0.248 NA
ATOM     45  C   UNL A   1      37.836  32.064  32.156  1.00  0.00     0.031 C 
ATOM     46  C   UNL A   1      38.829  29.327  28.034  1.00  0.00     0.029 A 
ATOM     47  N   UNL A   1      40.130  29.008  29.823  1.00  0.00    -0.354 N 
ATOM     48  C   UNL A   1      39.595  31.338  33.416  1.00  0.00     0.074 A 
ATOM     49  C   UNL A   1      38.499  32.271  33.283  1.00  0.00     0.031 C 
ATOM     50  C   UNL A   1      39.763  28.425  27.695  1.00  0.00     0.029 A 
ATOM     51  C   UNL A   1      40.660  28.219  28.827  1.00  0.00     0.049 A 
ATOM     52  H   UNL A   1      40.504  29.051  30.732  1.00  0.00     0.167 HD
ATOM     53  C   UNL A   1      40.376  31.239  34.516  1.00  0.00     0.034 A 
ATOM     54  C   UNL A   1      41.758  27.437  28.816  1.00  0.00     0.034 A 
ATOM     55  C   UNL A   1      41.437  30.283  34.664  1.00  0.00     0.049 A 
ATOM     56  C   UNL A   1      42.583  27.319  30.068  1.00  0.00     0.074 A 
ATOM     57  C   UNL A   1      42.210  30.028  35.782  1.00  0.00     0.029 A 
ATOM     58  N   UNL A   1      41.893  29.444  33.661  1.00  0.00    -0.354 N 
ATOM     59  N   UNL A   1      42.411  27.904  31.228  1.00  0.00    -0.248 NA
ATOM     60  C   UNL A   1      43.735  26.407  30.023  1.00  0.00     0.031 C 
ATOM     61  C   UNL A   1      43.176  29.079  35.437  1.00  0.00     0.029 A 
ATOM     62  C   UNL A   1      42.958  28.692  34.124  1.00  0.00     0.049 A 
ATOM     63  H   UNL A   1      41.517  29.391  32.753  1.00  0.00     0.167 HD
ATOM     64  C   UNL A   1      43.407  27.405  32.059  1.00  0.00     0.074 A 
ATOM     65  C   UNL A   1      44.163  26.450  31.277  1.00  0.00     0.031 C 
ATOM     66  C   UNL A   1      43.677  27.714  33.350  1.00  0.00     0.034 A 
BRANCH  53  67
ATOM     67  C   UNL A   1      40.107  32.174  35.666  1.00  0.00     0.023 A 
ATOM     68  C   UNL A   1      40.814  33.388  35.774  1.00  0.00     0.012 A 
ATOM     69  C   UNL A   1      39.087  31.882  36.592  1.00  0.00     0.148 A 
ATOM     70  C   UNL A   1      40.528  34.285  36.802  1.00  0.00     0.002 A 
ATOM     71  C   UNL A   1      38.771  32.805  37.580  1.00  0.00     0.091 A 
ATOM     72  F   UNL A   1      38.442  30.712  36.483  1.00  0.00    -0.205 F 
ATOM     73  C   UNL A   1      39.498  34.000  37.695  1.00  0.00     0.022 A 
BRANCH  71  74
ATOM     74  S   UNL A   1      37.405  32.572  38.721  1.00  0.00     0.127 S 
ATOM     75  O   UNL A   1      36.268  33.009  37.912  1.00  0.00    -0.237 OA
ATOM     76  O   UNL A   1      37.460  31.131  38.971  1.00  0.00    -0.237 OA
ATOM     77  O   UNL A   1      37.696  33.405  39.880  1.00  0.00    -0.744 OA
ENDBRANCH  71  74
ENDBRANCH  53  67
BRANCH  54  78
ATOM     78  C   UNL A   1      42.139  26.690  27.582  1.00  0.00     0.023 A 
ATOM     79  C   UNL A   1      42.730  27.372  26.501  1.00  0.00     0.012 A 
ATOM     80  C   UNL A   1      41.905  25.306  27.474  1.00  0.00     0.148 A 
ATOM     81  C   UNL A   1      43.035  26.699  25.317  1.00  0.00     0.002 A 
ATOM     82  C   UNL A   1      42.270  24.629  26.317  1.00  0.00     0.091 A 
ATOM     83  F   UNL A   1      41.334  24.675  28.509  1.00  0.00    -0.205 F 
ATOM     84  C   UNL A   1      42.813  25.327  25.227  1.00  0.00     0.022 A 
BRANCH  82  85
ATOM     85  S   UNL A   1      42.141  22.845  26.166  1.00  0.00     0.127 S 
ATOM     86  O   UNL A   1      42.745  22.611  24.857  1.00  0.00    -0.237 OA
ATOM     87  O   UNL A   1      42.939  22.389  27.305  1.00  0.00    -0.237 OA
ATOM     88  O   UNL A   1      40.720  22.542  26.270  1.00  0.00    -0.744 OA
ENDBRANCH  82  85
ENDBRANCH  54  78
BRANCH  66  89
ATOM     89  C   UNL A   1      44.801  26.978  34.028  1.00  0.00     0.023 A 
ATOM     90  C   UNL A   1      46.128  27.436  33.909  1.00  0.00     0.012 A 
ATOM     91  C   UNL A   1      44.525  25.864  34.848  1.00  0.00     0.148 A 
ATOM     92  C   UNL A   1      47.167  26.772  34.560  1.00  0.00     0.002 A 
ATOM     93  C   UNL A   1      45.555  25.245  35.540  1.00  0.00     0.091 A 
ATOM     94  F   UNL A   1      43.257  25.437  34.938  1.00  0.00    -0.205 F 
ATOM     95  C   UNL A   1      46.880  25.686  35.385  1.00  0.00     0.022 A 
BRANCH  93  96
ATOM     96  S   UNL A   1      45.268  23.907  36.702  1.00  0.00     0.127 S 
ATOM     97  O   UNL A   1      44.604  22.916  35.857  1.00  0.00    -0.237 OA
ATOM     98  O   UNL A   1      46.629  23.552  37.106  1.00  0.00    -0.237 OA
ATOM     99  O   UNL A   1      44.445  24.465  37.768  1.00  0.00    -0.744 OA
ENDBRANCH  93  96
ENDBRANCH  66  89
ENDBRANCH  40  41
ENDBRANCH  32  35
ENDBRANCH  30  31
ENDBRANCH   1  30
TORSDOF 17
ENDMDL
MODEL 3
REMARK VINA RESULT:     -12.1      1.343      1.731
REMARK SMILES CC1=C(C#N)C(=O)N(C)C(=O)/C1=C\Nc1ccc(C(=O)NCCCNC(=O)c2ccc(-c3c4nc(c(-c5cccc(S(=O)(=O)[O-])c5F)c5ccc([nH]5)c(-c5cccc(S(=O)(=O)[O-])c5F)c5nc(c(-c6cccc(S(=O)(=O)[O-])c6F)c6ccc3[nH]6)C=C5)C=C4)cc2)c(O)c1
REMARK SMILES IDX 23 1 22 2 21 3 19 4 20 5 18 7 15 8 16 9 93 10 17 11 91 12
REMARK SMILES IDX 14 13 13 15 1 16 2 17 3 18 12 19 6 20 10 21 7 22 8 23 11 24
REMARK SMILES IDX 9 25 4 26 5 27 92 28 24 30 25 31 26 32 27 34 28 35 29 36
REMARK SMILES IDX 90 37 30 38 89 39 31 40 32 41 33 42 83 43 34 44 88 45 82 46
REMARK SMILES IDX 84 47 35 48 87 49 81 50 80 51 36 53 68 54 48 55 67 56 49 57
REMARK SMILES IDX 52 58 66 59 85 60 50 61 51 62 65 64 86 65 53 66 37 67 38 68
REMARK SMILES IDX 46 69 39 70 41 71 47 72 40 73 42 74 43 75 44 76 45 77 69 78
REMARK SMILES IDX 70 79 78 80 71 81 73 82 79 83 72 84 74 85 75 86 76 87 77 88
REMARK SMILES IDX 54 89 55 90 63 91 56 92 58 93 64 94 57 95 59 96 60 97 61 98
REMARK SMILES IDX 62 99
REMARK H PARENT 21 6 14 14 92 29 25 33 84 52 52 63
REMARK Flexibility Score: inf
ROOT
ATOM      1  C   UNL A   1      38.123  19.983  24.829  1.00  0.00     0.042 C 
ENDROOT
BRANCH   1   2
ATOM      2  C   UNL A   1      36.787  20.637  25.119  1.00  0.00     0.118 C 
BRANCH   2   3
ATOM      3  N   UNL A   1      35.624  19.767  25.002  1.00  0.00    -0.352 N 
ATOM      4  C   UNL A   1      34.282  20.070  24.993  1.00  0.00     0.255 C 
ATOM      5  O   UNL A   1      33.469  19.156  24.865  1.00  0.00    -0.269 OA
ATOM      6  H   UNL A   1      35.831  18.808  24.918  1.00  0.00     0.163 HD
BRANCH   4   7
ATOM      7  C   UNL A   1      33.786  21.458  25.180  1.00  0.00     0.081 A 
ATOM      8  C   UNL A   1      32.584  24.008  25.381  1.00  0.00     0.042 A 
ATOM      9  C   UNL A   1      32.678  23.371  24.143  1.00  0.00     0.027 A 
ATOM     10  C   UNL A   1      33.139  23.374  26.498  1.00  0.00     0.073 A 
ATOM     11  C   UNL A   1      33.267  22.102  24.044  1.00  0.00     0.020 A 
ATOM     12  C   UNL A   1      33.800  22.156  26.385  1.00  0.00     0.130 A 
BRANCH   8  13
ATOM     13  N   UNL A   1      31.965  25.242  25.593  1.00  0.00    -0.361 N 
ATOM     14  H   UNL A   1      32.026  25.564  26.521  1.00  0.00     0.166 HD
BRANCH  13  15
ATOM     15  C   UNL A   1      31.289  26.088  24.754  1.00  0.00     0.097 C 
ATOM     16  C   UNL A   1      29.641  27.614  22.854  1.00  0.00     0.047 C 
ATOM     17  C   UNL A   1      30.389  28.284  23.989  1.00  0.00    -0.013 C 
ATOM     18  C   UNL A   1      30.350  29.620  24.190  1.00  0.00     0.121 C 
ATOM     19  C   UNL A   1      31.161  27.428  24.893  1.00  0.00     0.060 C 
ATOM     20  C   UNL A   1      31.095  30.258  25.311  1.00  0.00     0.271 C 
ATOM     21  C   UNL A   1      31.878  28.054  26.068  1.00  0.00     0.262 C 
ATOM     22  O   UNL A   1      31.079  31.481  25.444  1.00  0.00    -0.268 OA
ATOM     23  N   UNL A   1      31.796  29.431  26.171  1.00  0.00    -0.277 N 
ATOM     24  O   UNL A   1      32.508  27.372  26.879  1.00  0.00    -0.269 OA
ATOM     25  C   UNL A   1      32.498  30.073  27.270  1.00  0.00     0.157 C 
BRANCH  18  26
ATOM     26  C   UNL A   1      29.604  30.499  23.355  1.00  0.00     0.105 C 
ATOM     27  N   UNL A   1      29.000  31.257  22.707  1.00  0.00    -0.192 NA
ENDBRANCH  18  26
ENDBRANCH  13  15
ENDBRANCH   8  13
BRANCH  12  28
ATOM     28  O   UNL A   1      34.477  21.764  27.507  1.00  0.00    -0.507 OA
ATOM     29  H   UNL A   1      34.022  21.326  28.199  1.00  0.00     0.293 HD
ENDBRANCH  12  28
ENDBRANCH   4   7
ENDBRANCH   2   3
ENDBRANCH   1   2
BRANCH   1  30
ATOM     30  C   UNL A   1      39.224  20.289  25.827  1.00  0.00     0.118 C 
BRANCH  30  31
ATOM     31  N   UNL A   1      40.237  19.244  25.939  1.00  0.00    -0.352 N 
ATOM     32  C   UNL A   1      41.593  19.322  26.168  1.00  0.00     0.251 C 
ATOM     33  H   UNL A   1      39.892  18.327  25.833  1.00  0.00     0.163 HD
ATOM     34  O   UNL A   1      42.275  18.302  26.102  1.00  0.00    -0.269 OA
BRANCH  32  35
ATOM     35  C   UNL A   1      42.236  20.624  26.453  1.00  0.00     0.039 A 
ATOM     36  C   UNL A   1      42.555  21.476  25.392  1.00  0.00     0.014 A 
ATOM     37  C   UNL A   1      42.506  21.021  27.762  1.00  0.00     0.014 A 
ATOM     38  C   UNL A   1      43.046  22.758  25.657  1.00  0.00     0.010 A 
ATOM     39  C   UNL A   1      42.855  22.339  28.026  1.00  0.00     0.010 A 
ATOM     40  C   UNL A   1      43.146  23.223  26.979  1.00  0.00    -0.014 A 
BRANCH  40  41
ATOM     41  C   UNL A   1      43.556  24.618  27.288  1.00  0.00     0.031 A 
ATOM     42  C   UNL A   1      42.574  25.576  27.912  1.00  0.00     0.074 A 
ATOM     43  C   UNL A   1      44.782  25.052  26.927  1.00  0.00     0.049 A 
ATOM     44  N   UNL A   1      42.730  26.842  28.200  1.00  0.00    -0.248 NA
ATOM     45  C   UNL A   1      41.230  25.057  28.228  1.00  0.00     0.031 C 
ATOM     46  C   UNL A   1      45.794  24.250  26.233  1.00  0.00     0.029 A 
ATOM     47  N   UNL A   1      45.377  26.282  27.066  1.00  0.00    -0.354 N 
ATOM     48  C   UNL A   1      41.500  27.278  28.679  1.00  0.00     0.074 A 
ATOM     49  C   UNL A   1      40.596  26.153  28.616  1.00  0.00     0.031 C 
ATOM     50  C   UNL A   1      46.885  25.004  26.019  1.00  0.00     0.029 A 
ATOM     51  C   UNL A   1      46.635  26.354  26.513  1.00  0.00     0.049 A 
ATOM     52  H   UNL A   1      44.943  27.041  27.518  1.00  0.00     0.167 HD
ATOM     53  C   UNL A   1      41.157  28.499  29.150  1.00  0.00     0.034 A 
ATOM     54  C   UNL A   1      47.485  27.394  26.395  1.00  0.00     0.034 A 
ATOM     55  C   UNL A   1      42.068  29.605  29.252  1.00  0.00     0.049 A 
ATOM     56  C   UNL A   1      47.089  28.728  26.963  1.00  0.00     0.074 A 
ATOM     57  C   UNL A   1      41.846  30.847  29.820  1.00  0.00     0.029 A 
ATOM     58  N   UNL A   1      43.360  29.615  28.755  1.00  0.00    -0.354 N 
ATOM     59  N   UNL A   1      45.979  29.071  27.570  1.00  0.00    -0.248 NA
ATOM     60  C   UNL A   1      48.075  29.814  26.862  1.00  0.00     0.031 C 
ATOM     61  C   UNL A   1      42.985  31.630  29.611  1.00  0.00     0.029 A 
ATOM     62  C   UNL A   1      43.939  30.852  28.975  1.00  0.00     0.049 A 
ATOM     63  H   UNL A   1      43.802  28.856  28.310  1.00  0.00     0.167 HD
ATOM     64  C   UNL A   1      46.147  30.396  27.955  1.00  0.00     0.074 A 
ATOM     65  C   UNL A   1      47.476  30.787  27.535  1.00  0.00     0.031 C 
ATOM     66  C   UNL A   1      45.278  31.217  28.591  1.00  0.00     0.034 A 
BRANCH  53  67
ATOM     67  C   UNL A   1      39.740  28.711  29.614  1.00  0.00     0.023 A 
ATOM     68  C   UNL A   1      39.333  28.258  30.884  1.00  0.00     0.012 A 
ATOM     69  C   UNL A   1      38.836  29.441  28.817  1.00  0.00     0.148 A 
ATOM     70  C   UNL A   1      38.040  28.505  31.344  1.00  0.00     0.002 A 
ATOM     71  C   UNL A   1      37.568  29.729  29.303  1.00  0.00     0.091 A 
ATOM     72  F   UNL A   1      39.237  29.843  27.602  1.00  0.00    -0.205 F 
ATOM     73  C   UNL A   1      37.164  29.252  30.560  1.00  0.00     0.022 A 
BRANCH  71  74
ATOM     74  S   UNL A   1      36.399  30.757  28.409  1.00  0.00     0.127 S 
ATOM     75  O   UNL A   1      37.171  31.985  28.222  1.00  0.00    -0.237 OA
ATOM     76  O   UNL A   1      36.181  29.980  27.189  1.00  0.00    -0.237 OA
ATOM     77  O   UNL A   1      35.231  30.887  29.269  1.00  0.00    -0.744 OA
ENDBRANCH  71  74
ENDBRANCH  53  67
BRANCH  54  78
ATOM     78  C   UNL A   1      48.804  27.216  25.720  1.00  0.00     0.023 A 
ATOM     79  C   UNL A   1      49.926  26.804  26.464  1.00  0.00     0.012 A 
ATOM     80  C   UNL A   1      48.949  27.466  24.342  1.00  0.00     0.148 A 
ATOM     81  C   UNL A   1      51.179  26.692  25.859  1.00  0.00     0.002 A 
ATOM     82  C   UNL A   1      50.185  27.293  23.732  1.00  0.00     0.091 A 
ATOM     83  F   UNL A   1      47.872  27.866  23.652  1.00  0.00    -0.205 F 
ATOM     84  C   UNL A   1      51.307  26.928  24.492  1.00  0.00     0.022 A 
BRANCH  82  85
ATOM     85  S   UNL A   1      50.411  27.447  21.958  1.00  0.00     0.127 S 
ATOM     86  O   UNL A   1      49.341  26.597  21.445  1.00  0.00    -0.237 OA
ATOM     87  O   UNL A   1      50.212  28.882  21.753  1.00  0.00    -0.237 OA
ATOM     88  O   UNL A   1      51.767  26.986  21.691  1.00  0.00    -0.744 OA
ENDBRANCH  82  85
ENDBRANCH  54  78
BRANCH  66  89
ATOM     89  C   UNL A   1      45.745  32.608  28.929  1.00  0.00     0.023 A 
ATOM     90  C   UNL A   1      46.595  32.827  30.032  1.00  0.00     0.012 A 
ATOM     91  C   UNL A   1      45.394  33.694  28.101  1.00  0.00     0.148 A 
ATOM     92  C   UNL A   1      47.052  34.110  30.328  1.00  0.00     0.002 A 
ATOM     93  C   UNL A   1      45.900  34.957  28.368  1.00  0.00     0.091 A 
ATOM     94  F   UNL A   1      44.574  33.466  27.064  1.00  0.00    -0.205 F 
ATOM     95  C   UNL A   1      46.716  35.172  29.491  1.00  0.00     0.022 A 
BRANCH  93  96
ATOM     96  S   UNL A   1      45.606  36.361  27.289  1.00  0.00     0.127 S 
ATOM     97  O   UNL A   1      44.149  36.479  27.345  1.00  0.00    -0.237 OA
ATOM     98  O   UNL A   1      46.331  37.433  27.972  1.00  0.00    -0.237 OA
ATOM     99  O   UNL A   1      46.149  35.994  25.988  1.00  0.00    -0.744 OA
ENDBRANCH  93  96
ENDBRANCH  66  89
ENDBRANCH  40  41
ENDBRANCH  32  35
ENDBRANCH  30  31
ENDBRANCH   1  30
TORSDOF 17
ENDMDL
