MODEL 1
REMARK VINA RESULT:     -12.3      0.000      0.000
REMARK SMILES O=C(/C=C/C(=O)NNC(=O)CSc1ccc2ccccc2n1)NCCCNC(=O)c1ccc(-c2c3nc(c(-c4cccc(S(=O)(=O)[O-])c4F)c4ccc([nH]4)c(-c4cccc(S(=O)(=O)[O-])c4F)c4nc(c(-c5cccc(S(=O)(=O)[O-])c5F)c5ccc2[nH]5)C=C4)C=C3)cc1
REMARK SMILES IDX 24 1 23 2 1 3 2 4 3 6 4 7 5 8 6 9 7 10 8 12 9 13 10 15 11 16
REMARK SMILES IDX 12 17 13 18 14 19 22 20 15 21 21 22 16 23 20 24 17 25 19 26
REMARK SMILES IDX 18 27 25 28 26 29 27 30 28 31 29 33 30 34 31 35 92 36 32 37
REMARK SMILES IDX 91 38 33 39 34 40 35 41 85 42 36 43 90 44 84 45 86 46 37 47
REMARK SMILES IDX 89 48 83 49 82 50 38 52 70 53 50 54 69 55 51 56 54 57 68 58
REMARK SMILES IDX 87 59 52 60 53 61 67 63 88 64 55 65 39 66 40 67 48 68 41 69
REMARK SMILES IDX 43 70 49 71 42 72 44 73 45 74 46 75 47 76 71 77 72 78 80 79
REMARK SMILES IDX 73 80 75 81 81 82 74 83 76 84 77 85 78 86 79 87 56 88 57 89
REMARK SMILES IDX 65 90 58 91 60 92 66 93 59 94 61 95 62 96 63 97 64 98
REMARK H PARENT 23 5 7 11 8 14 27 32 86 51 54 62
REMARK Flexibility Score: inf
ROOT
ATOM      1  C   UNL A   1      35.818  20.771  24.935  1.00  0.00     0.118 C 
ENDROOT
BRANCH   1   2
ATOM      2  N   UNL A   1      34.495  21.355  25.086  1.00  0.00    -0.352 N 
ATOM      3  O   UNL A   1      33.340  19.380  24.842  1.00  0.00    -0.270 OA
ATOM      4  C   UNL A   1      33.361  20.585  25.045  1.00  0.00     0.244 C 
ATOM      5  H   UNL A   1      34.412  22.327  25.221  1.00  0.00     0.163 HD
BRANCH   4   6
ATOM      6  C   UNL A   1      32.095  21.281  25.372  1.00  0.00     0.077 C 
ATOM      7  C   UNL A   1      32.038  22.508  25.902  1.00  0.00     0.078 C 
BRANCH   7   8
ATOM      8  C   UNL A   1      30.795  23.250  26.228  1.00  0.00     0.262 C 
ATOM      9  O   UNL A   1      30.406  23.238  27.396  1.00  0.00    -0.268 OA
ATOM     10  N   UNL A   1      30.126  23.999  25.298  1.00  0.00    -0.264 N 
ATOM     11  H   UNL A   1      29.342  24.501  25.619  1.00  0.00     0.191 HD
BRANCH  10  12
ATOM     12  N   UNL A   1      30.436  24.127  23.947  1.00  0.00    -0.267 N 
ATOM     13  C   UNL A   1      31.215  25.134  23.426  1.00  0.00     0.248 C 
ATOM     14  H   UNL A   1      30.074  23.456  23.325  1.00  0.00     0.191 HD
ATOM     15  O   UNL A   1      31.235  25.312  22.206  1.00  0.00    -0.272 OA
BRANCH  13  16
ATOM     16  C   UNL A   1      32.147  25.915  24.331  1.00  0.00     0.178 C 
BRANCH  16  17
ATOM     17  S   UNL A   1      33.084  27.226  23.512  1.00  0.00    -0.096 SA
BRANCH  17  18
ATOM     18  C   UNL A   1      31.982  28.605  23.706  1.00  0.00     0.097 A 
ATOM     19  C   UNL A   1      31.977  29.381  24.856  1.00  0.00     0.036 A 
ATOM     20  N   UNL A   1      31.085  28.761  22.711  1.00  0.00    -0.241 NA
ATOM     21  C   UNL A   1      30.989  30.352  24.995  1.00  0.00     0.013 A 
ATOM     22  C   UNL A   1      30.126  29.690  22.850  1.00  0.00     0.072 A 
ATOM     23  C   UNL A   1      30.028  30.513  23.991  1.00  0.00     0.000 A 
ATOM     24  C   UNL A   1      29.177  29.839  21.849  1.00  0.00     0.029 A 
ATOM     25  C   UNL A   1      28.981  31.448  24.102  1.00  0.00     0.010 A 
ATOM     26  C   UNL A   1      28.134  30.765  21.955  1.00  0.00     0.002 A 
ATOM     27  C   UNL A   1      28.034  31.567  23.086  1.00  0.00     0.001 A 
ENDBRANCH  17  18
ENDBRANCH  16  17
ENDBRANCH  13  16
ENDBRANCH  10  12
ENDBRANCH   7   8
ENDBRANCH   4   6
ENDBRANCH   1   2
BRANCH   1  28
ATOM     28  C   UNL A   1      36.878  21.444  25.799  1.00  0.00     0.042 C 
BRANCH  28  29
ATOM     29  C   UNL A   1      38.293  21.380  25.232  1.00  0.00     0.118 C 
BRANCH  29  30
ATOM     30  N   UNL A   1      39.176  20.499  25.988  1.00  0.00    -0.352 N 
ATOM     31  C   UNL A   1      40.240  20.801  26.807  1.00  0.00     0.251 C 
ATOM     32  H   UNL A   1      38.980  19.539  25.898  1.00  0.00     0.163 HD
ATOM     33  O   UNL A   1      40.947  19.896  27.237  1.00  0.00    -0.269 OA
BRANCH  31  34
ATOM     34  C   UNL A   1      40.544  22.207  27.150  1.00  0.00     0.039 A 
ATOM     35  C   UNL A   1      41.430  22.470  28.198  1.00  0.00     0.014 A 
ATOM     36  C   UNL A   1      39.961  23.263  26.445  1.00  0.00     0.014 A 
ATOM     37  C   UNL A   1      41.789  23.790  28.489  1.00  0.00     0.010 A 
ATOM     38  C   UNL A   1      40.379  24.568  26.684  1.00  0.00     0.010 A 
ATOM     39  C   UNL A   1      41.300  24.847  27.707  1.00  0.00    -0.014 A 
BRANCH  39  40
ATOM     40  C   UNL A   1      41.750  26.247  27.920  1.00  0.00     0.031 A 
ATOM     41  C   UNL A   1      43.148  26.661  27.545  1.00  0.00     0.074 A 
ATOM     42  C   UNL A   1      40.935  27.120  28.546  1.00  0.00     0.049 A 
ATOM     43  N   UNL A   1      43.751  27.804  27.744  1.00  0.00    -0.248 NA
ATOM     44  C   UNL A   1      43.988  25.648  26.886  1.00  0.00     0.031 C 
ATOM     45  C   UNL A   1      39.582  26.823  29.021  1.00  0.00     0.029 A 
ATOM     46  N   UNL A   1      41.137  28.427  28.921  1.00  0.00    -0.354 N 
ATOM     47  C   UNL A   1      45.048  27.638  27.272  1.00  0.00     0.074 A 
ATOM     48  C   UNL A   1      45.154  26.272  26.804  1.00  0.00     0.031 C 
ATOM     49  C   UNL A   1      39.077  27.911  29.625  1.00  0.00     0.029 A 
ATOM     50  C   UNL A   1      40.081  28.970  29.617  1.00  0.00     0.049 A 
ATOM     51  H   UNL A   1      41.959  28.925  28.712  1.00  0.00     0.167 HD
ATOM     52  C   UNL A   1      46.051  28.544  27.210  1.00  0.00     0.034 A 
ATOM     53  C   UNL A   1      39.943  30.177  30.201  1.00  0.00     0.034 A 
ATOM     54  C   UNL A   1      45.931  29.910  27.644  1.00  0.00     0.049 A 
ATOM     55  C   UNL A   1      41.069  31.171  30.103  1.00  0.00     0.074 A 
ATOM     56  C   UNL A   1      46.862  30.928  27.542  1.00  0.00     0.029 A 
ATOM     57  N   UNL A   1      44.818  30.446  28.272  1.00  0.00    -0.354 N 
ATOM     58  N   UNL A   1      42.235  31.042  29.518  1.00  0.00    -0.248 NA
ATOM     59  C   UNL A   1      40.849  32.489  30.717  1.00  0.00     0.031 C 
ATOM     60  C   UNL A   1      46.326  32.072  28.142  1.00  0.00     0.029 A 
ATOM     61  C   UNL A   1      45.045  31.777  28.579  1.00  0.00     0.049 A 
ATOM     62  H   UNL A   1      43.989  29.954  28.470  1.00  0.00     0.167 HD
ATOM     63  C   UNL A   1      42.869  32.271  29.657  1.00  0.00     0.074 A 
ATOM     64  C   UNL A   1      41.953  33.137  30.370  1.00  0.00     0.031 C 
ATOM     65  C   UNL A   1      44.104  32.644  29.240  1.00  0.00     0.034 A 
BRANCH  52  66
ATOM     66  C   UNL A   1      47.364  28.100  26.616  1.00  0.00     0.023 A 
ATOM     67  C   UNL A   1      48.434  27.753  27.467  1.00  0.00     0.012 A 
ATOM     68  C   UNL A   1      47.518  27.965  25.223  1.00  0.00     0.148 A 
ATOM     69  C   UNL A   1      49.648  27.316  26.939  1.00  0.00     0.002 A 
ATOM     70  C   UNL A   1      48.715  27.482  24.707  1.00  0.00     0.091 A 
ATOM     71  F   UNL A   1      46.496  28.316  24.429  1.00  0.00    -0.205 F 
ATOM     72  C   UNL A   1      49.784  27.170  25.561  1.00  0.00     0.022 A 
BRANCH  70  73
ATOM     73  S   UNL A   1      48.963  27.179  22.954  1.00  0.00     0.127 S 
ATOM     74  O   UNL A   1      50.414  27.010  22.887  1.00  0.00    -0.237 OA
ATOM     75  O   UNL A   1      48.196  25.951  22.743  1.00  0.00    -0.237 OA
ATOM     76  O   UNL A   1      48.439  28.350  22.264  1.00  0.00    -0.744 OA
ENDBRANCH  70  73
ENDBRANCH  52  66
BRANCH  53  77
ATOM     77  C   UNL A   1      38.671  30.530  30.892  1.00  0.00     0.023 A 
ATOM     78  C   UNL A   1      38.502  30.197  32.250  1.00  0.00     0.012 A 
ATOM     79  C   UNL A   1      37.636  31.207  30.219  1.00  0.00     0.148 A 
ATOM     80  C   UNL A   1      37.315  30.502  32.917  1.00  0.00     0.002 A 
ATOM     81  C   UNL A   1      36.479  31.559  30.903  1.00  0.00     0.091 A 
ATOM     82  F   UNL A   1      37.810  31.507  28.923  1.00  0.00    -0.205 F 
ATOM     83  C   UNL A   1      36.308  31.191  32.247  1.00  0.00     0.022 A 
BRANCH  81  84
ATOM     84  S   UNL A   1      35.183  32.557  30.159  1.00  0.00     0.127 S 
ATOM     85  O   UNL A   1      34.247  32.707  31.270  1.00  0.00    -0.237 OA
ATOM     86  O   UNL A   1      35.912  33.774  29.799  1.00  0.00    -0.237 OA
ATOM     87  O   UNL A   1      34.697  31.788  29.022  1.00  0.00    -0.744 OA
ENDBRANCH  81  84
ENDBRANCH  53  77
BRANCH  65  88
ATOM     88  C   UNL A   1      44.533  34.067  29.492  1.00  0.00     0.023 A 
ATOM     89  C   UNL A   1      45.204  34.402  30.683  1.00  0.00     0.012 A 
ATOM     90  C   UNL A   1      44.350  35.051  28.499  1.00  0.00     0.148 A 
ATOM     91  C   UNL A   1      45.665  35.702  30.894  1.00  0.00     0.002 A 
ATOM     92  C   UNL A   1      44.858  36.329  28.693  1.00  0.00     0.091 A 
ATOM     93  F   UNL A   1      43.693  34.714  27.379  1.00  0.00    -0.205 F 
ATOM     94  C   UNL A   1      45.505  36.660  29.896  1.00  0.00     0.022 A 
BRANCH  92  95
ATOM     95  S   UNL A   1      44.789  37.600  27.425  1.00  0.00     0.127 S 
ATOM     96  O   UNL A   1      43.441  37.413  26.890  1.00  0.00    -0.237 OA
ATOM     97  O   UNL A   1      44.973  38.823  28.205  1.00  0.00    -0.237 OA
ATOM     98  O   UNL A   1      45.872  37.303  26.497  1.00  0.00    -0.744 OA
ENDBRANCH  92  95
ENDBRANCH  65  88
ENDBRANCH  39  40
ENDBRANCH  31  34
ENDBRANCH  29  30
ENDBRANCH  28  29
ENDBRANCH   1  28
TORSDOF 18
ENDMDL
MODEL 2
REMARK VINA RESULT:     -12.3      5.688      9.784
REMARK SMILES O=C(/C=C/C(=O)NNC(=O)CSc1ccc2ccccc2n1)NCCCNC(=O)c1ccc(-c2c3nc(c(-c4cccc(S(=O)(=O)[O-])c4F)c4ccc([nH]4)c(-c4cccc(S(=O)(=O)[O-])c4F)c4nc(c(-c5cccc(S(=O)(=O)[O-])c5F)c5ccc2[nH]5)C=C4)C=C3)cc1
REMARK SMILES IDX 24 1 23 2 1 3 2 4 3 6 4 7 5 8 6 9 7 10 8 12 9 13 10 15 11 16
REMARK SMILES IDX 12 17 13 18 14 19 22 20 15 21 21 22 16 23 20 24 17 25 19 26
REMARK SMILES IDX 18 27 25 28 26 29 27 30 28 31 29 33 30 34 31 35 92 36 32 37
REMARK SMILES IDX 91 38 33 39 34 40 35 41 85 42 36 43 90 44 84 45 86 46 37 47
REMARK SMILES IDX 89 48 83 49 82 50 38 52 70 53 50 54 69 55 51 56 54 57 68 58
REMARK SMILES IDX 87 59 52 60 53 61 67 63 88 64 55 65 39 66 40 67 48 68 41 69
REMARK SMILES IDX 43 70 49 71 42 72 44 73 45 74 46 75 47 76 71 77 72 78 80 79
REMARK SMILES IDX 73 80 75 81 81 82 74 83 76 84 77 85 78 86 79 87 56 88 57 89
REMARK SMILES IDX 65 90 58 91 60 92 66 93 59 94 61 95 62 96 63 97 64 98
REMARK H PARENT 23 5 7 11 8 14 27 32 86 51 54 62
REMARK Flexibility Score: inf
ROOT
ATOM      1  C   UNL A   1      31.907  30.348  26.993  1.00  0.00     0.118 C 
ENDROOT
BRANCH   1   2
ATOM      2  N   UNL A   1      31.812  29.620  25.738  1.00  0.00    -0.352 N 
ATOM      3  O   UNL A   1      33.989  28.873  25.737  1.00  0.00    -0.270 OA
ATOM      4  C   UNL A   1      32.877  28.921  25.230  1.00  0.00     0.244 C 
ATOM      5  H   UNL A   1      30.962  29.630  25.241  1.00  0.00     0.163 HD
BRANCH   4   6
ATOM      6  C   UNL A   1      32.597  28.097  24.032  1.00  0.00     0.077 C 
ATOM      7  C   UNL A   1      33.480  27.246  23.495  1.00  0.00     0.078 C 
BRANCH   7   8
ATOM      8  C   UNL A   1      33.238  26.389  22.309  1.00  0.00     0.262 C 
ATOM      9  O   UNL A   1      33.745  26.728  21.239  1.00  0.00    -0.268 OA
ATOM     10  N   UNL A   1      32.547  25.210  22.388  1.00  0.00    -0.264 N 
ATOM     11  H   UNL A   1      32.484  24.680  21.560  1.00  0.00     0.191 HD
BRANCH  10  12
ATOM     12  N   UNL A   1      31.924  24.679  23.514  1.00  0.00    -0.267 N 
ATOM     13  C   UNL A   1      32.428  23.636  24.255  1.00  0.00     0.248 C 
ATOM     14  H   UNL A   1      31.069  25.075  23.797  1.00  0.00     0.191 HD
ATOM     15  O   UNL A   1      31.702  23.074  25.078  1.00  0.00    -0.272 OA
BRANCH  13  16
ATOM     16  C   UNL A   1      33.900  23.283  24.163  1.00  0.00     0.178 C 
BRANCH  16  17
ATOM     17  S   UNL A   1      34.648  22.720  25.709  1.00  0.00    -0.096 SA
BRANCH  17  18
ATOM     18  C   UNL A   1      34.823  20.982  25.391  1.00  0.00     0.097 A 
ATOM     19  C   UNL A   1      36.046  20.420  25.053  1.00  0.00     0.036 A 
ATOM     20  N   UNL A   1      33.668  20.285  25.387  1.00  0.00    -0.241 NA
ATOM     21  C   UNL A   1      36.077  19.079  24.677  1.00  0.00     0.013 A 
ATOM     22  C   UNL A   1      33.697  18.995  25.014  1.00  0.00     0.072 A 
ATOM     23  C   UNL A   1      34.888  18.342  24.636  1.00  0.00     0.000 A 
ATOM     24  C   UNL A   1      32.512  18.275  24.974  1.00  0.00     0.029 A 
ATOM     25  C   UNL A   1      34.858  16.998  24.219  1.00  0.00     0.010 A 
ATOM     26  C   UNL A   1      32.475  16.940  24.559  1.00  0.00     0.002 A 
ATOM     27  C   UNL A   1      33.650  16.302  24.177  1.00  0.00     0.001 A 
ENDBRANCH  17  18
ENDBRANCH  16  17
ENDBRANCH  13  16
ENDBRANCH  10  12
ENDBRANCH   7   8
ENDBRANCH   4   6
ENDBRANCH   1   2
BRANCH   1  28
ATOM     28  C   UNL A   1      31.722  31.852  26.836  1.00  0.00     0.042 C 
BRANCH  28  29
ATOM     29  C   UNL A   1      32.928  32.688  27.253  1.00  0.00     0.118 C 
BRANCH  29  30
ATOM     30  N   UNL A   1      32.576  34.045  27.656  1.00  0.00    -0.352 N 
ATOM     31  C   UNL A   1      33.091  34.833  28.659  1.00  0.00     0.251 C 
ATOM     32  H   UNL A   1      31.858  34.462  27.127  1.00  0.00     0.163 HD
ATOM     33  O   UNL A   1      32.551  35.901  28.926  1.00  0.00    -0.269 OA
BRANCH  31  34
ATOM     34  C   UNL A   1      34.274  34.387  29.427  1.00  0.00     0.039 A 
ATOM     35  C   UNL A   1      34.081  33.755  30.658  1.00  0.00     0.014 A 
ATOM     36  C   UNL A   1      35.568  34.591  28.940  1.00  0.00     0.014 A 
ATOM     37  C   UNL A   1      35.181  33.258  31.364  1.00  0.00     0.010 A 
ATOM     38  C   UNL A   1      36.653  34.028  29.604  1.00  0.00     0.010 A 
ATOM     39  C   UNL A   1      36.472  33.353  30.822  1.00  0.00    -0.014 A 
BRANCH  39  40
ATOM     40  C   UNL A   1      37.646  32.737  31.494  1.00  0.00     0.031 A 
ATOM     41  C   UNL A   1      38.358  31.571  30.862  1.00  0.00     0.074 A 
ATOM     42  C   UNL A   1      38.008  33.161  32.722  1.00  0.00     0.049 A 
ATOM     43  N   UNL A   1      39.333  30.843  31.339  1.00  0.00    -0.248 NA
ATOM     44  C   UNL A   1      37.892  31.149  29.530  1.00  0.00     0.031 C 
ATOM     45  C   UNL A   1      37.357  34.237  33.472  1.00  0.00     0.029 A 
ATOM     46  N   UNL A   1      38.993  32.716  33.571  1.00  0.00    -0.354 N 
ATOM     47  C   UNL A   1      39.573  29.857  30.389  1.00  0.00     0.074 A 
ATOM     48  C   UNL A   1      38.619  30.060  29.320  1.00  0.00     0.031 C 
ATOM     49  C   UNL A   1      37.954  34.367  34.667  1.00  0.00     0.029 A 
ATOM     50  C   UNL A   1      39.005  33.361  34.787  1.00  0.00     0.049 A 
ATOM     51  H   UNL A   1      39.628  32.003  33.332  1.00  0.00     0.167 HD
ATOM     52  C   UNL A   1      40.516  28.885  30.393  1.00  0.00     0.034 A 
ATOM     53  C   UNL A   1      39.761  33.153  35.883  1.00  0.00     0.034 A 
ATOM     54  C   UNL A   1      41.485  28.707  31.441  1.00  0.00     0.049 A 
ATOM     55  C   UNL A   1      40.813  32.077  35.854  1.00  0.00     0.074 A 
ATOM     56  C   UNL A   1      42.535  27.808  31.496  1.00  0.00     0.029 A 
ATOM     57  N   UNL A   1      41.515  29.432  32.623  1.00  0.00    -0.354 N 
ATOM     58  N   UNL A   1      41.123  31.253  34.883  1.00  0.00    -0.248 NA
ATOM     59  C   UNL A   1      41.642  31.922  37.059  1.00  0.00     0.031 C 
ATOM     60  C   UNL A   1      43.179  27.965  32.727  1.00  0.00     0.029 A 
ATOM     61  C   UNL A   1      42.557  28.989  33.421  1.00  0.00     0.049 A 
ATOM     62  H   UNL A   1      40.890  30.153  32.859  1.00  0.00     0.167 HD
ATOM     63  C   UNL A   1      42.206  30.512  35.343  1.00  0.00     0.074 A 
ATOM     64  C   UNL A   1      42.508  30.995  36.675  1.00  0.00     0.031 C 
ATOM     65  C   UNL A   1      42.882  29.515  34.721  1.00  0.00     0.034 A 
BRANCH  52  66
ATOM     66  C   UNL A   1      40.573  27.957  29.207  1.00  0.00     0.023 A 
ATOM     67  C   UNL A   1      39.681  26.867  29.128  1.00  0.00     0.012 A 
ATOM     68  C   UNL A   1      41.465  28.197  28.143  1.00  0.00     0.148 A 
ATOM     69  C   UNL A   1      39.700  26.012  28.028  1.00  0.00     0.002 A 
ATOM     70  C   UNL A   1      41.445  27.368  27.028  1.00  0.00     0.091 A 
ATOM     71  F   UNL A   1      42.318  29.227  28.244  1.00  0.00    -0.205 F 
ATOM     72  C   UNL A   1      40.574  26.268  26.974  1.00  0.00     0.022 A 
BRANCH  70  73
ATOM     73  S   UNL A   1      42.470  27.661  25.582  1.00  0.00     0.127 S 
ATOM     74  O   UNL A   1      43.805  27.721  26.176  1.00  0.00    -0.237 OA
ATOM     75  O   UNL A   1      42.213  26.467  24.777  1.00  0.00    -0.237 OA
ATOM     76  O   UNL A   1      41.992  28.906  24.995  1.00  0.00    -0.744 OA
ENDBRANCH  70  73
ENDBRANCH  52  66
BRANCH  53  77
ATOM     77  C   UNL A   1      39.584  34.015  37.086  1.00  0.00     0.023 A 
ATOM     78  C   UNL A   1      40.029  35.351  37.054  1.00  0.00     0.012 A 
ATOM     79  C   UNL A   1      38.962  33.527  38.251  1.00  0.00     0.148 A 
ATOM     80  C   UNL A   1      39.889  36.175  38.171  1.00  0.00     0.002 A 
ATOM     81  C   UNL A   1      38.774  34.369  39.340  1.00  0.00     0.091 A 
ATOM     82  F   UNL A   1      38.554  32.249  38.266  1.00  0.00    -0.205 F 
ATOM     83  C   UNL A   1      39.254  35.687  39.310  1.00  0.00     0.022 A 
BRANCH  81  84
ATOM     84  S   UNL A   1      37.854  33.868  40.801  1.00  0.00     0.127 S 
ATOM     85  O   UNL A   1      38.828  33.028  41.493  1.00  0.00    -0.237 OA
ATOM     86  O   UNL A   1      37.586  35.156  41.441  1.00  0.00    -0.237 OA
ATOM     87  O   UNL A   1      36.668  33.184  40.304  1.00  0.00    -0.744 OA
ENDBRANCH  81  84
ENDBRANCH  53  77
BRANCH  65  88
ATOM     88  C   UNL A   1      44.054  28.901  35.443  1.00  0.00     0.023 A 
ATOM     89  C   UNL A   1      45.337  29.465  35.314  1.00  0.00     0.012 A 
ATOM     90  C   UNL A   1      43.858  27.818  36.324  1.00  0.00     0.148 A 
ATOM     91  C   UNL A   1      46.415  28.945  36.031  1.00  0.00     0.002 A 
ATOM     92  C   UNL A   1      44.925  27.339  37.074  1.00  0.00     0.091 A 
ATOM     93  F   UNL A   1      42.631  27.285  36.418  1.00  0.00    -0.205 F 
ATOM     94  C   UNL A   1      46.206  27.892  36.920  1.00  0.00     0.022 A 
BRANCH  92  95
ATOM     95  S   UNL A   1      44.732  26.056  38.317  1.00  0.00     0.127 S 
ATOM     96  O   UNL A   1      46.119  25.649  38.542  1.00  0.00    -0.237 OA
ATOM     97  O   UNL A   1      44.123  26.790  39.426  1.00  0.00    -0.237 OA
ATOM     98  O   UNL A   1      43.877  25.039  37.720  1.00  0.00    -0.744 OA
ENDBRANCH  92  95
ENDBRANCH  65  88
ENDBRANCH  39  40
ENDBRANCH  31  34
ENDBRANCH  29  30
ENDBRANCH  28  29
ENDBRANCH   1  28
TORSDOF 18
ENDMDL
MODEL 3
REMARK VINA RESULT:     -12.3      5.590     11.281
REMARK SMILES O=C(/C=C/C(=O)NNC(=O)CSc1ccc2ccccc2n1)NCCCNC(=O)c1ccc(-c2c3nc(c(-c4cccc(S(=O)(=O)[O-])c4F)c4ccc([nH]4)c(-c4cccc(S(=O)(=O)[O-])c4F)c4nc(c(-c5cccc(S(=O)(=O)[O-])c5F)c5ccc2[nH]5)C=C4)C=C3)cc1
REMARK SMILES IDX 24 1 23 2 1 3 2 4 3 6 4 7 5 8 6 9 7 10 8 12 9 13 10 15 11 16
REMARK SMILES IDX 12 17 13 18 14 19 22 20 15 21 21 22 16 23 20 24 17 25 19 26
REMARK SMILES IDX 18 27 25 28 26 29 27 30 28 31 29 33 30 34 31 35 92 36 32 37
REMARK SMILES IDX 91 38 33 39 34 40 35 41 85 42 36 43 90 44 84 45 86 46 37 47
REMARK SMILES IDX 89 48 83 49 82 50 38 52 70 53 50 54 69 55 51 56 54 57 68 58
REMARK SMILES IDX 87 59 52 60 53 61 67 63 88 64 55 65 39 66 40 67 48 68 41 69
REMARK SMILES IDX 43 70 49 71 42 72 44 73 45 74 46 75 47 76 71 77 72 78 80 79
REMARK SMILES IDX 73 80 75 81 81 82 74 83 76 84 77 85 78 86 79 87 56 88 57 89
REMARK SMILES IDX 65 90 58 91 60 92 66 93 59 94 61 95 62 96 63 97 64 98
REMARK H PARENT 23 5 7 11 8 14 27 32 86 51 54 62
REMARK Flexibility Score: inf
ROOT
ATOM      1  C   UNL A   1      32.008  30.494  27.238  1.00  0.00     0.118 C 
ENDROOT
BRANCH   1   2
ATOM      2  N   UNL A   1      31.597  29.585  26.181  1.00  0.00    -0.352 N 
ATOM      3  O   UNL A   1      33.598  28.457  26.052  1.00  0.00    -0.270 OA
ATOM      4  C   UNL A   1      32.440  28.620  25.694  1.00  0.00     0.244 C 
ATOM      5  H   UNL A   1      30.689  29.664  25.806  1.00  0.00     0.163 HD
BRANCH   4   6
ATOM      6  C   UNL A   1      31.843  27.662  24.735  1.00  0.00     0.077 C 
ATOM      7  C   UNL A   1      31.904  26.333  24.881  1.00  0.00     0.078 C 
BRANCH   7   8
ATOM      8  C   UNL A   1      31.306  25.337  23.957  1.00  0.00     0.262 C 
ATOM      9  O   UNL A   1      31.683  25.337  22.785  1.00  0.00    -0.268 OA
ATOM     10  N   UNL A   1      30.421  24.383  24.385  1.00  0.00    -0.264 N 
ATOM     11  H   UNL A   1      30.120  23.731  23.712  1.00  0.00     0.191 HD
BRANCH  10  12
ATOM     12  N   UNL A   1      29.903  24.238  25.669  1.00  0.00    -0.267 N 
ATOM     13  C   UNL A   1      30.414  23.380  26.614  1.00  0.00     0.248 C 
ATOM     14  H   UNL A   1      29.122  24.784  25.915  1.00  0.00     0.191 HD
ATOM     15  O   UNL A   1      29.754  23.136  27.627  1.00  0.00    -0.272 OA
BRANCH  13  16
ATOM     16  C   UNL A   1      31.831  22.861  26.478  1.00  0.00     0.178 C 
BRANCH  16  17
ATOM     17  S   UNL A   1      32.044  21.528  25.275  1.00  0.00    -0.096 SA
BRANCH  17  18
ATOM     18  C   UNL A   1      33.815  21.433  25.180  1.00  0.00     0.097 A 
ATOM     19  C   UNL A   1      34.469  20.241  24.909  1.00  0.00     0.036 A 
ATOM     20  N   UNL A   1      34.463  22.571  25.505  1.00  0.00    -0.241 NA
ATOM     21  C   UNL A   1      35.860  20.215  24.994  1.00  0.00     0.013 A 
ATOM     22  C   UNL A   1      35.803  22.543  25.597  1.00  0.00     0.072 A 
ATOM     23  C   UNL A   1      36.554  21.374  25.359  1.00  0.00     0.000 A 
ATOM     24  C   UNL A   1      36.481  23.697  25.962  1.00  0.00     0.029 A 
ATOM     25  C   UNL A   1      37.954  21.390  25.504  1.00  0.00     0.010 A 
ATOM     26  C   UNL A   1      37.871  23.718  26.110  1.00  0.00     0.002 A 
ATOM     27  C   UNL A   1      38.608  22.561  25.884  1.00  0.00     0.001 A 
ENDBRANCH  17  18
ENDBRANCH  16  17
ENDBRANCH  13  16
ENDBRANCH  10  12
ENDBRANCH   7   8
ENDBRANCH   4   6
ENDBRANCH   1   2
BRANCH   1  28
ATOM     28  C   UNL A   1      31.787  31.962  26.892  1.00  0.00     0.042 C 
BRANCH  28  29
ATOM     29  C   UNL A   1      33.004  32.856  27.109  1.00  0.00     0.118 C 
BRANCH  29  30
ATOM     30  N   UNL A   1      32.665  34.170  27.644  1.00  0.00    -0.352 N 
ATOM     31  C   UNL A   1      33.137  34.823  28.759  1.00  0.00     0.251 C 
ATOM     32  H   UNL A   1      31.993  34.669  27.124  1.00  0.00     0.163 HD
ATOM     33  O   UNL A   1      32.611  35.872  29.114  1.00  0.00    -0.269 OA
BRANCH  31  34
ATOM     34  C   UNL A   1      34.257  34.253  29.539  1.00  0.00     0.039 A 
ATOM     35  C   UNL A   1      33.970  33.463  30.656  1.00  0.00     0.014 A 
ATOM     36  C   UNL A   1      35.584  34.495  29.177  1.00  0.00     0.014 A 
ATOM     37  C   UNL A   1      35.010  32.853  31.362  1.00  0.00     0.010 A 
ATOM     38  C   UNL A   1      36.613  33.825  29.831  1.00  0.00     0.010 A 
ATOM     39  C   UNL A   1      36.338  32.995  30.930  1.00  0.00    -0.014 A 
BRANCH  39  40
ATOM     40  C   UNL A   1      37.454  32.269  31.592  1.00  0.00     0.031 A 
ATOM     41  C   UNL A   1      37.976  32.735  32.925  1.00  0.00     0.074 A 
ATOM     42  C   UNL A   1      38.065  31.255  30.947  1.00  0.00     0.049 A 
ATOM     43  N   UNL A   1      39.000  32.295  33.609  1.00  0.00    -0.248 NA
ATOM     44  C   UNL A   1      37.274  33.863  33.559  1.00  0.00     0.031 C 
ATOM     45  C   UNL A   1      37.698  30.752  29.622  1.00  0.00     0.029 A 
ATOM     46  N   UNL A   1      39.145  30.485  31.305  1.00  0.00    -0.354 N 
ATOM     47  C   UNL A   1      39.089  33.112  34.730  1.00  0.00     0.074 A 
ATOM     48  C   UNL A   1      38.033  34.095  34.620  1.00  0.00     0.031 C 
ATOM     49  C   UNL A   1      38.538  29.764  29.276  1.00  0.00     0.029 A 
ATOM     50  C   UNL A   1      39.526  29.586  30.335  1.00  0.00     0.049 A 
ATOM     51  H   UNL A   1      39.604  30.570  32.172  1.00  0.00     0.167 HD
ATOM     52  C   UNL A   1      39.954  33.036  35.769  1.00  0.00     0.034 A 
ATOM     53  C   UNL A   1      40.566  28.730  30.292  1.00  0.00     0.034 A 
ATOM     54  C   UNL A   1      40.980  32.036  35.892  1.00  0.00     0.049 A 
ATOM     55  C   UNL A   1      41.502  28.655  31.468  1.00  0.00     0.074 A 
ATOM     56  C   UNL A   1      41.849  31.823  36.948  1.00  0.00     0.029 A 
ATOM     57  N   UNL A   1      41.285  31.091  34.925  1.00  0.00    -0.354 N 
ATOM     58  N   UNL A   1      41.477  29.336  32.587  1.00  0.00    -0.248 NA
ATOM     59  C   UNL A   1      42.593  27.671  31.390  1.00  0.00     0.031 C 
ATOM     60  C   UNL A   1      42.703  30.771  36.603  1.00  0.00     0.029 A 
ATOM     61  C   UNL A   1      42.339  30.302  35.351  1.00  0.00     0.049 A 
ATOM     62  H   UNL A   1      40.820  30.995  34.063  1.00  0.00     0.167 HD
ATOM     63  C   UNL A   1      42.518  28.837  33.361  1.00  0.00     0.074 A 
ATOM     64  C   UNL A   1      43.147  27.786  32.589  1.00  0.00     0.031 C 
ATOM     65  C   UNL A   1      42.922  29.222  34.597  1.00  0.00     0.034 A 
BRANCH  52  66
ATOM     66  C   UNL A   1      39.806  34.043  36.881  1.00  0.00     0.023 A 
ATOM     67  C   UNL A   1      40.188  35.384  36.666  1.00  0.00     0.012 A 
ATOM     68  C   UNL A   1      39.232  33.679  38.115  1.00  0.00     0.148 A 
ATOM     69  C   UNL A   1      40.037  36.336  37.672  1.00  0.00     0.002 A 
ATOM     70  C   UNL A   1      39.039  34.644  39.095  1.00  0.00     0.091 A 
ATOM     71  F   UNL A   1      38.891  32.397  38.307  1.00  0.00    -0.205 F 
ATOM     72  C   UNL A   1      39.452  35.969  38.882  1.00  0.00     0.022 A 
BRANCH  70  73
ATOM     73  S   UNL A   1      38.219  34.293  40.655  1.00  0.00     0.127 S 
ATOM     74  O   UNL A   1      39.207  33.446  41.322  1.00  0.00    -0.237 OA
ATOM     75  O   UNL A   1      38.072  35.629  41.232  1.00  0.00    -0.237 OA
ATOM     76  O   UNL A   1      36.965  33.637  40.312  1.00  0.00    -0.744 OA
ENDBRANCH  70  73
ENDBRANCH  52  66
BRANCH  53  77
ATOM     77  C   UNL A   1      40.749  27.838  29.112  1.00  0.00     0.023 A 
ATOM     78  C   UNL A   1      40.057  26.612  29.054  1.00  0.00     0.012 A 
ATOM     79  C   UNL A   1      41.589  28.202  28.042  1.00  0.00     0.148 A 
ATOM     80  C   UNL A   1      40.222  25.752  27.968  1.00  0.00     0.002 A 
ATOM     81  C   UNL A   1      41.705  27.367  26.937  1.00  0.00     0.091 A 
ATOM     82  F   UNL A   1      42.247  29.368  28.120  1.00  0.00    -0.205 F 
ATOM     83  C   UNL A   1      41.038  26.133  26.907  1.00  0.00     0.022 A 
BRANCH  81  84
ATOM     84  S   UNL A   1      42.631  27.832  25.469  1.00  0.00     0.127 S 
ATOM     85  O   UNL A   1      42.466  26.650  24.626  1.00  0.00    -0.237 OA
ATOM     86  O   UNL A   1      41.901  29.017  25.018  1.00  0.00    -0.237 OA
ATOM     87  O   UNL A   1      43.988  28.098  25.926  1.00  0.00    -0.744 OA
ENDBRANCH  81  84
ENDBRANCH  53  77
BRANCH  65  88
ATOM     88  C   UNL A   1      44.069  28.477  35.228  1.00  0.00     0.023 A 
ATOM     89  C   UNL A   1      45.396  28.810  34.896  1.00  0.00     0.012 A 
ATOM     90  C   UNL A   1      43.825  27.509  36.224  1.00  0.00     0.148 A 
ATOM     91  C   UNL A   1      46.465  28.172  35.526  1.00  0.00     0.002 A 
ATOM     92  C   UNL A   1      44.894  26.915  36.884  1.00  0.00     0.091 A 
ATOM     93  F   UNL A   1      42.554  27.195  36.512  1.00  0.00    -0.205 F 
ATOM     94  C   UNL A   1      46.215  27.236  36.528  1.00  0.00     0.022 A 
BRANCH  92  95
ATOM     95  S   UNL A   1      44.671  25.776  38.255  1.00  0.00     0.127 S 
ATOM     96  O   UNL A   1      43.733  26.511  39.103  1.00  0.00    -0.237 OA
ATOM     97  O   UNL A   1      44.104  24.603  37.591  1.00  0.00    -0.237 OA
ATOM     98  O   UNL A   1      45.994  25.569  38.828  1.00  0.00    -0.744 OA
ENDBRANCH  92  95
ENDBRANCH  65  88
ENDBRANCH  39  40
ENDBRANCH  31  34
ENDBRANCH  29  30
ENDBRANCH  28  29
ENDBRANCH   1  28
TORSDOF 18
ENDMDL
