MODEL 1
REMARK VINA RESULT:     -16.7      0.000      0.000
REMARK SMILES Cc1cc(/C=C2/C(=O)NC(=S)[NH+]=C2NCCCNC(=O)c2ccc(-c3c4nc(c(-c5cccc(S(=O)(=O)[O-])c5F)c5ccc([nH]5)c(-c5cccc(S(=O)(=O)[O-])c5F)c5nc(c(-c6cccc(S(=O)(=O)[O-])c6F)c6ccc3[nH]6)C=C5)C=C4)cc2)c(C)n1-c1cccc(C(=O)[O-])c1
REMARK SMILES IDX 16 1 15 2 14 3 5 4 6 5 7 6 13 7 8 8 9 9 12 10 10 11 11 15
REMARK SMILES IDX 4 16 1 17 2 18 3 19 86 20 84 21 85 22 87 23 88 24 95 25
REMARK SMILES IDX 89 26 91 27 90 28 92 29 93 30 94 31 17 32 18 33 19 34 20 36
REMARK SMILES IDX 21 37 22 38 83 39 23 40 82 41 24 42 25 43 26 44 76 45 27 46
REMARK SMILES IDX 81 47 75 48 77 49 28 50 80 51 74 52 73 53 29 55 61 56 41 57
REMARK SMILES IDX 60 58 42 59 45 60 59 61 78 62 43 63 44 64 58 66 79 67 46 68
REMARK SMILES IDX 30 69 31 70 39 71 32 72 34 73 40 74 33 75 35 76 36 77 37 78
REMARK SMILES IDX 38 79 62 80 63 81 71 82 64 83 66 84 72 85 65 86 67 87 68 88
REMARK SMILES IDX 69 89 70 90 47 91 48 92 56 93 49 94 51 95 57 96 50 97 52 98
REMARK SMILES IDX 53 99 54 100 55 101
REMARK H PARENT 9 12 12 13 14 14 18 35 77 54 45 65
REMARK Flexibility Score: inf
ROOT
ATOM      1  C   UNL A   1      36.983  21.777  24.894  1.00  0.00     0.059 C 
ENDROOT
BRANCH   1   2
ATOM      2  C   UNL A   1      35.915  22.411  25.732  1.00  0.00     0.195 C 
BRANCH   2   3
ATOM      3  N   UNL A   1      34.918  21.373  25.869  1.00  0.00    -0.305 N 
ATOM      4  C   UNL A   1      32.550  22.099  23.483  1.00  0.00     0.032 C 
ATOM      5  C   UNL A   1      33.220  20.985  23.885  1.00  0.00     0.128 C 
ATOM      6  C   UNL A   1      32.661  19.770  23.171  1.00  0.00     0.319 C 
ATOM      7  C   UNL A   1      34.274  20.626  24.927  1.00  0.00     0.234 C 
ATOM      8  O   UNL A   1      31.777  19.800  22.315  1.00  0.00    -0.250 OA
ATOM      9  N   UNL A   1      33.180  18.564  23.525  1.00  0.00    -0.229 N 
ATOM     10  N   UNL A   1      34.646  19.386  25.136  1.00  0.00    -0.236 N 
ATOM     11  C   UNL A   1      34.150  18.337  24.444  1.00  0.00     0.295 C 
ATOM     12  H   UNL A   1      32.812  17.774  23.067  1.00  0.00     0.268 HD
ATOM     13  H   UNL A   1      35.320  19.210  25.832  1.00  0.00     0.268 HD
ATOM     14  H   UNL A   1      34.659  21.173  26.798  1.00  0.00     0.256 HD
ATOM     15  S   UNL A   1      34.668  16.760  24.672  1.00  0.00    -0.005 S 
BRANCH   4  16
ATOM     16  C   UNL A   1      32.499  23.476  23.864  1.00  0.00    -0.003 A 
ATOM     17  C   UNL A   1      34.023  26.713  24.965  1.00  0.00     0.065 C 
ATOM     18  C   UNL A   1      33.225  25.581  24.427  1.00  0.00     0.020 A 
ATOM     19  C   UNL A   1      33.616  24.392  23.806  1.00  0.00     0.031 A 
ATOM     20  N   UNL A   1      31.843  25.463  24.419  1.00  0.00    -0.318 N 
ATOM     21  C   UNL A   1      31.677  24.116  24.767  1.00  0.00     0.027 A 
ATOM     22  C   UNL A   1      31.033  23.612  26.010  1.00  0.00     0.065 C 
BRANCH  20  23
ATOM     23  C   UNL A   1      30.845  26.482  24.363  1.00  0.00     0.046 A 
ATOM     24  C   UNL A   1      29.196  25.868  24.666  1.00  0.00     0.026 A 
ATOM     25  C   UNL A   1      31.099  28.051  23.400  1.00  0.00     0.036 A 
ATOM     26  C   UNL A   1      27.760  26.741  24.053  1.00  0.00     0.003 A 
ATOM     27  C   UNL A   1      29.565  28.980  22.745  1.00  0.00    -0.001 A 
ATOM     28  C   UNL A   1      27.924  28.254  23.125  1.00  0.00     0.010 A 
BRANCH  27  29
ATOM     29  C   UNL A   1      29.264  30.324  22.211  1.00  0.00     0.072 C 
ATOM     30  O   UNL A   1      29.092  30.455  21.007  1.00  0.00    -0.545 OA
ATOM     31  O   UNL A   1      29.159  31.337  23.057  1.00  0.00    -0.545 OA
ENDBRANCH  27  29
ENDBRANCH  20  23
ENDBRANCH   4  16
ENDBRANCH   2   3
ENDBRANCH   1   2
BRANCH   1  32
ATOM     32  C   UNL A   1      37.652  20.466  25.357  1.00  0.00     0.119 C 
BRANCH  32  33
ATOM     33  N   UNL A   1      39.356  20.525  25.712  1.00  0.00    -0.352 N 
ATOM     34  C   UNL A   1      40.670  21.778  26.561  1.00  0.00     0.251 C 
ATOM     35  H   UNL A   1      39.804  19.704  25.405  1.00  0.00     0.163 HD
ATOM     36  O   UNL A   1      41.898  21.617  26.711  1.00  0.00    -0.269 OA
BRANCH  34  37
ATOM     37  C   UNL A   1      40.293  23.457  27.357  1.00  0.00     0.039 A 
ATOM     38  C   UNL A   1      39.119  24.110  27.021  1.00  0.00     0.014 A 
ATOM     39  C   UNL A   1      41.106  24.457  28.101  1.00  0.00     0.014 A 
ATOM     40  C   UNL A   1      38.905  25.578  27.310  1.00  0.00     0.010 A 
ATOM     41  C   UNL A   1      40.888  25.934  28.377  1.00  0.00     0.010 A 
ATOM     42  C   UNL A   1      39.760  26.603  27.974  1.00  0.00    -0.014 A 
BRANCH  42  43
ATOM     43  C   UNL A   1      39.274  28.235  28.328  1.00  0.00     0.031 A 
ATOM     44  C   UNL A   1      40.587  28.828  28.538  1.00  0.00     0.074 A 
ATOM     45  C   UNL A   1      38.310  29.235  28.723  1.00  0.00     0.049 A 
ATOM     46  N   UNL A   1      41.154  28.490  29.645  1.00  0.00    -0.248 NA
ATOM     47  C   UNL A   1      41.475  29.325  27.501  1.00  0.00     0.031 C 
ATOM     48  C   UNL A   1      36.909  29.091  29.194  1.00  0.00     0.029 A 
ATOM     49  N   UNL A   1      38.400  30.715  28.888  1.00  0.00    -0.354 N 
ATOM     50  C   UNL A   1      42.463  28.838  29.562  1.00  0.00     0.074 A 
ATOM     51  C   UNL A   1      42.635  29.269  28.174  1.00  0.00     0.031 C 
ATOM     52  C   UNL A   1      36.271  30.295  29.405  1.00  0.00     0.029 A 
ATOM     53  C   UNL A   1      37.143  31.455  29.160  1.00  0.00     0.049 A 
ATOM     54  H   UNL A   1      39.263  31.185  28.819  1.00  0.00     0.167 HD
ATOM     55  C   UNL A   1      42.941  29.286  30.747  1.00  0.00     0.034 A 
ATOM     56  C   UNL A   1      36.845  32.841  29.307  1.00  0.00     0.034 A 
ATOM     57  C   UNL A   1      42.807  30.714  30.793  1.00  0.00     0.049 A 
ATOM     58  C   UNL A   1      38.044  33.409  29.938  1.00  0.00     0.074 A 
ATOM     59  C   UNL A   1      42.924  31.686  29.815  1.00  0.00     0.029 A 
ATOM     60  N   UNL A   1      42.027  31.238  31.794  1.00  0.00    -0.354 N 
ATOM     61  N   UNL A   1      38.195  33.307  31.225  1.00  0.00    -0.248 NA
ATOM     62  C   UNL A   1      38.948  34.341  29.277  1.00  0.00     0.031 C 
ATOM     63  C   UNL A   1      41.845  32.556  30.035  1.00  0.00     0.029 A 
ATOM     64  C   UNL A   1      41.358  32.345  31.316  1.00  0.00     0.049 A 
ATOM     65  H   UNL A   1      41.958  30.880  32.708  1.00  0.00     0.167 HD
ATOM     66  C   UNL A   1      39.459  33.751  31.447  1.00  0.00     0.074 A 
ATOM     67  C   UNL A   1      39.773  34.588  30.300  1.00  0.00     0.031 C 
ATOM     68  C   UNL A   1      40.243  32.847  32.077  1.00  0.00     0.034 A 
BRANCH  55  69
ATOM     69  C   UNL A   1      42.615  28.296  31.877  1.00  0.00     0.023 A 
ATOM     70  C   UNL A   1      41.620  28.711  32.777  1.00  0.00     0.012 A 
ATOM     71  C   UNL A   1      43.402  27.155  32.232  1.00  0.00     0.148 A 
ATOM     72  C   UNL A   1      41.426  28.043  33.991  1.00  0.00     0.002 A 
ATOM     73  C   UNL A   1      43.285  26.572  33.495  1.00  0.00     0.091 A 
ATOM     74  F   UNL A   1      44.284  26.664  31.345  1.00  0.00    -0.205 F 
ATOM     75  C   UNL A   1      42.273  26.998  34.364  1.00  0.00     0.022 A 
BRANCH  73  76
ATOM     76  S   UNL A   1      44.529  25.437  34.164  1.00  0.00     0.127 S 
ATOM     77  O   UNL A   1      45.785  26.180  34.007  1.00  0.00    -0.237 OA
ATOM     78  O   UNL A   1      44.107  25.261  35.549  1.00  0.00    -0.237 OA
ATOM     79  O   UNL A   1      44.497  24.244  33.328  1.00  0.00    -0.744 OA
ENDBRANCH  73  76
ENDBRANCH  55  69
BRANCH  56  80
ATOM     80  C   UNL A   1      35.749  34.076  29.451  1.00  0.00     0.023 A 
ATOM     81  C   UNL A   1      34.937  34.432  28.294  1.00  0.00     0.012 A 
ATOM     82  C   UNL A   1      35.157  34.508  30.668  1.00  0.00     0.148 A 
ATOM     83  C   UNL A   1      33.635  34.988  28.331  1.00  0.00     0.002 A 
ATOM     84  C   UNL A   1      33.856  35.125  30.699  1.00  0.00     0.091 A 
ATOM     85  F   UNL A   1      35.806  34.255  31.810  1.00  0.00    -0.205 F 
ATOM     86  C   UNL A   1      33.084  35.320  29.543  1.00  0.00     0.022 A 
BRANCH  84  87
ATOM     87  S   UNL A   1      33.011  35.657  32.215  1.00  0.00     0.127 S 
ATOM     88  O   UNL A   1      32.690  34.388  32.876  1.00  0.00    -0.237 OA
ATOM     89  O   UNL A   1      34.053  36.432  32.888  1.00  0.00    -0.237 OA
ATOM     90  O   UNL A   1      31.848  36.405  31.762  1.00  0.00    -0.744 OA
ENDBRANCH  84  87
ENDBRANCH  56  80
BRANCH  68  91
ATOM     91  C   UNL A   1      39.710  32.201  33.344  1.00  0.00     0.023 A 
ATOM     92  C   UNL A   1      38.981  30.990  33.410  1.00  0.00     0.012 A 
ATOM     93  C   UNL A   1      39.968  32.863  34.551  1.00  0.00     0.148 A 
ATOM     94  C   UNL A   1      38.515  30.480  34.628  1.00  0.00     0.002 A 
ATOM     95  C   UNL A   1      39.563  32.325  35.766  1.00  0.00     0.091 A 
ATOM     96  F   UNL A   1      40.619  34.036  34.497  1.00  0.00    -0.205 F 
ATOM     97  C   UNL A   1      38.824  31.138  35.811  1.00  0.00     0.022 A 
BRANCH  95  98
ATOM     98  S   UNL A   1      40.027  33.131  37.296  1.00  0.00     0.127 S 
ATOM     99  O   UNL A   1      41.486  33.075  37.235  1.00  0.00    -0.237 OA
ATOM    100  O   UNL A   1      39.462  34.471  37.161  1.00  0.00    -0.237 OA
ATOM    101  O   UNL A   1      39.412  32.327  38.349  1.00  0.00    -0.744 OA
ENDBRANCH  95  98
ENDBRANCH  68  91
ENDBRANCH  42  43
ENDBRANCH  34  37
ENDBRANCH  32  33
ENDBRANCH   1  32
TORSDOF 15
ENDMDL
MODEL 2
REMARK VINA RESULT:     -15.8      3.127      5.252
REMARK SMILES Cc1cc(/C=C2/C(=O)NC(=S)[NH+]=C2NCCCNC(=O)c2ccc(-c3c4nc(c(-c5cccc(S(=O)(=O)[O-])c5F)c5ccc([nH]5)c(-c5cccc(S(=O)(=O)[O-])c5F)c5nc(c(-c6cccc(S(=O)(=O)[O-])c6F)c6ccc3[nH]6)C=C5)C=C4)cc2)c(C)n1-c1cccc(C(=O)[O-])c1
REMARK SMILES IDX 16 1 15 2 14 3 5 4 6 5 7 6 13 7 8 8 9 9 12 10 10 11 11 15
REMARK SMILES IDX 4 16 1 17 2 18 3 19 86 20 84 21 85 22 87 23 88 24 95 25
REMARK SMILES IDX 89 26 91 27 90 28 92 29 93 30 94 31 17 32 18 33 19 34 20 36
REMARK SMILES IDX 21 37 22 38 83 39 23 40 82 41 24 42 25 43 26 44 76 45 27 46
REMARK SMILES IDX 81 47 75 48 77 49 28 50 80 51 74 52 73 53 29 55 61 56 41 57
REMARK SMILES IDX 60 58 42 59 45 60 59 61 78 62 43 63 44 64 58 66 79 67 46 68
REMARK SMILES IDX 30 69 31 70 39 71 32 72 34 73 40 74 33 75 35 76 36 77 37 78
REMARK SMILES IDX 38 79 62 80 63 81 71 82 64 83 66 84 72 85 65 86 67 87 68 88
REMARK SMILES IDX 69 89 70 90 47 91 48 92 56 93 49 94 51 95 57 96 50 97 52 98
REMARK SMILES IDX 53 99 54 100 55 101
REMARK H PARENT 9 12 12 13 14 14 18 35 77 54 45 65
REMARK Flexibility Score: inf
ROOT
ATOM      1  C   UNL A   1      35.366  21.203  26.455  1.00  0.00     0.059 C 
ENDROOT
BRANCH   1   2
ATOM      2  C   UNL A   1      34.106  21.951  26.764  1.00  0.00     0.195 C 
BRANCH   2   3
ATOM      3  N   UNL A   1      33.055  21.008  26.453  1.00  0.00    -0.305 N 
ATOM      4  C   UNL A   1      32.158  21.719  23.210  1.00  0.00     0.032 C 
ATOM      5  C   UNL A   1      32.443  20.593  23.919  1.00  0.00     0.128 C 
ATOM      6  C   UNL A   1      32.153  19.371  23.069  1.00  0.00     0.319 C 
ATOM      7  C   UNL A   1      32.848  20.238  25.346  1.00  0.00     0.234 C 
ATOM      8  O   UNL A   1      31.777  19.400  21.898  1.00  0.00    -0.250 OA
ATOM      9  N   UNL A   1      32.317  18.161  23.668  1.00  0.00    -0.229 N 
ATOM     10  N   UNL A   1      32.946  18.994  25.749  1.00  0.00    -0.236 N 
ATOM     11  C   UNL A   1      32.719  17.935  24.942  1.00  0.00     0.295 C 
ATOM     12  H   UNL A   1      32.123  17.368  23.118  1.00  0.00     0.268 HD
ATOM     13  H   UNL A   1      33.197  18.824  26.685  1.00  0.00     0.268 HD
ATOM     14  H   UNL A   1      32.375  20.904  27.158  1.00  0.00     0.256 HD
ATOM     15  S   UNL A   1      32.902  16.346  25.442  1.00  0.00    -0.005 S 
BRANCH   4  16
ATOM     16  C   UNL A   1      32.082  23.122  23.475  1.00  0.00    -0.003 A 
ATOM     17  C   UNL A   1      31.079  26.639  22.677  1.00  0.00     0.065 C 
ATOM     18  C   UNL A   1      31.472  25.324  23.248  1.00  0.00     0.020 A 
ATOM     19  C   UNL A   1      31.112  24.023  22.893  1.00  0.00     0.031 A 
ATOM     20  N   UNL A   1      32.323  25.100  24.321  1.00  0.00    -0.318 N 
ATOM     21  C   UNL A   1      33.067  24.006  23.861  1.00  0.00     0.027 A 
ATOM     22  C   UNL A   1      34.528  24.005  23.580  1.00  0.00     0.065 C 
BRANCH  20  23
ATOM     23  C   UNL A   1      32.584  25.921  25.458  1.00  0.00     0.046 A 
ATOM     24  C   UNL A   1      31.121  26.272  26.422  1.00  0.00     0.026 A 
ATOM     25  C   UNL A   1      34.049  27.061  25.531  1.00  0.00     0.036 A 
ATOM     26  C   UNL A   1      31.032  27.719  27.468  1.00  0.00     0.003 A 
ATOM     27  C   UNL A   1      33.952  28.607  26.647  1.00  0.00    -0.001 A 
ATOM     28  C   UNL A   1      32.400  28.857  27.592  1.00  0.00     0.010 A 
BRANCH  27  29
ATOM     29  C   UNL A   1      34.897  29.589  27.216  1.00  0.00     0.072 C 
ATOM     30  O   UNL A   1      34.550  30.758  27.304  1.00  0.00    -0.545 OA
ATOM     31  O   UNL A   1      36.077  29.165  27.641  1.00  0.00    -0.545 OA
ENDBRANCH  27  29
ENDBRANCH  20  23
ENDBRANCH   4  16
ENDBRANCH   2   3
ENDBRANCH   1   2
BRANCH   1  32
ATOM     32  C   UNL A   1      36.135  21.491  25.149  1.00  0.00     0.119 C 
BRANCH  32  33
ATOM     33  N   UNL A   1      37.815  21.034  25.098  1.00  0.00    -0.352 N 
ATOM     34  C   UNL A   1      39.566  21.670  25.837  1.00  0.00     0.251 C 
ATOM     35  H   UNL A   1      37.941  20.230  24.544  1.00  0.00     0.163 HD
ATOM     36  O   UNL A   1      40.699  21.177  25.662  1.00  0.00    -0.269 OA
BRANCH  34  37
ATOM     37  C   UNL A   1      39.845  23.139  27.004  1.00  0.00     0.039 A 
ATOM     38  C   UNL A   1      38.914  24.164  27.026  1.00  0.00     0.014 A 
ATOM     39  C   UNL A   1      41.016  23.648  27.767  1.00  0.00     0.014 A 
ATOM     40  C   UNL A   1      39.220  25.514  27.633  1.00  0.00     0.010 A 
ATOM     41  C   UNL A   1      41.320  25.010  28.364  1.00  0.00     0.010 A 
ATOM     42  C   UNL A   1      40.431  26.054  28.316  1.00  0.00    -0.014 A 
BRANCH  42  43
ATOM     43  C   UNL A   1      40.541  27.617  29.068  1.00  0.00     0.031 A 
ATOM     44  C   UNL A   1      41.331  28.306  28.058  1.00  0.00     0.074 A 
ATOM     45  C   UNL A   1      40.464  28.511  30.199  1.00  0.00     0.049 A 
ATOM     46  N   UNL A   1      42.571  27.958  28.022  1.00  0.00    -0.248 NA
ATOM     47  C   UNL A   1      40.817  28.930  26.850  1.00  0.00     0.031 C 
ATOM     48  C   UNL A   1      40.244  28.226  31.641  1.00  0.00     0.029 A 
ATOM     49  N   UNL A   1      40.667  29.983  30.341  1.00  0.00    -0.354 N 
ATOM     50  C   UNL A   1      43.097  28.417  26.858  1.00  0.00     0.074 A 
ATOM     51  C   UNL A   1      41.943  28.935  26.120  1.00  0.00     0.031 C 
ATOM     52  C   UNL A   1      40.153  29.359  32.420  1.00  0.00     0.029 A 
ATOM     53  C   UNL A   1      40.344  30.600  31.651  1.00  0.00     0.049 A 
ATOM     54  H   UNL A   1      41.002  30.526  29.591  1.00  0.00     0.167 HD
ATOM     55  C   UNL A   1      44.374  28.840  27.014  1.00  0.00     0.034 A 
ATOM     56  C   UNL A   1      40.352  31.947  32.118  1.00  0.00     0.034 A 
ATOM     57  C   UNL A   1      44.368  30.247  27.295  1.00  0.00     0.049 A 
ATOM     58  C   UNL A   1      41.465  32.577  31.396  1.00  0.00     0.074 A 
ATOM     59  C   UNL A   1      43.559  31.276  26.845  1.00  0.00     0.029 A 
ATOM     60  N   UNL A   1      44.909  30.650  28.490  1.00  0.00    -0.354 N 
ATOM     61  N   UNL A   1      42.679  32.420  31.834  1.00  0.00    -0.248 NA
ATOM     62  C   UNL A   1      41.298  33.616  30.388  1.00  0.00     0.031 C 
ATOM     63  C   UNL A   1      43.273  32.040  27.986  1.00  0.00     0.029 A 
ATOM     64  C   UNL A   1      44.190  31.721  28.976  1.00  0.00     0.049 A 
ATOM     65  H   UNL A   1      45.688  30.239  28.930  1.00  0.00     0.167 HD
ATOM     66  C   UNL A   1      43.456  32.955  30.858  1.00  0.00     0.074 A 
ATOM     67  C   UNL A   1      42.586  33.876  30.143  1.00  0.00     0.031 C 
ATOM     68  C   UNL A   1      44.366  32.087  30.359  1.00  0.00     0.034 A 
BRANCH  55  69
ATOM     69  C   UNL A   1      45.222  27.767  27.717  1.00  0.00     0.023 A 
ATOM     70  C   UNL A   1      45.682  28.103  29.000  1.00  0.00     0.012 A 
ATOM     71  C   UNL A   1      45.787  26.614  27.086  1.00  0.00     0.148 A 
ATOM     72  C   UNL A   1      46.679  27.347  29.627  1.00  0.00     0.002 A 
ATOM     73  C   UNL A   1      46.865  25.939  27.665  1.00  0.00     0.091 A 
ATOM     74  F   UNL A   1      45.290  26.199  25.909  1.00  0.00    -0.205 F 
ATOM     75  C   UNL A   1      47.290  26.289  28.952  1.00  0.00     0.022 A 
BRANCH  73  76
ATOM     76  S   UNL A   1      47.898  24.776  26.737  1.00  0.00     0.127 S 
ATOM     77  O   UNL A   1      47.018  23.617  26.546  1.00  0.00    -0.237 OA
ATOM     78  O   UNL A   1      48.201  25.506  25.511  1.00  0.00    -0.237 OA
ATOM     79  O   UNL A   1      49.036  24.458  27.590  1.00  0.00    -0.744 OA
ENDBRANCH  73  76
ENDBRANCH  55  69
BRANCH  56  80
ATOM     80  C   UNL A   1      39.994  33.076  33.277  1.00  0.00     0.023 A 
ATOM     81  C   UNL A   1      38.879  33.987  33.048  1.00  0.00     0.012 A 
ATOM     82  C   UNL A   1      40.313  32.964  34.656  1.00  0.00     0.148 A 
ATOM     83  C   UNL A   1      38.071  34.581  34.048  1.00  0.00     0.002 A 
ATOM     84  C   UNL A   1      39.524  33.614  35.671  1.00  0.00     0.091 A 
ATOM     85  F   UNL A   1      41.328  32.166  35.007  1.00  0.00    -0.205 F 
ATOM     86  C   UNL A   1      38.385  34.378  35.368  1.00  0.00     0.022 A 
BRANCH  84  87
ATOM     87  S   UNL A   1      39.835  33.478  37.454  1.00  0.00     0.127 S 
ATOM     88  O   UNL A   1      41.185  34.030  37.595  1.00  0.00    -0.237 OA
ATOM     89  O   UNL A   1      38.782  34.328  38.012  1.00  0.00    -0.237 OA
ATOM     90  O   UNL A   1      39.735  32.057  37.752  1.00  0.00    -0.744 OA
ENDBRANCH  84  87
ENDBRANCH  56  80
BRANCH  68  91
ATOM     91  C   UNL A   1      45.244  31.332  31.340  1.00  0.00     0.023 A 
ATOM     92  C   UNL A   1      46.495  31.768  31.836  1.00  0.00     0.012 A 
ATOM     93  C   UNL A   1      44.768  30.094  31.793  1.00  0.00     0.148 A 
ATOM     94  C   UNL A   1      47.242  30.990  32.728  1.00  0.00     0.002 A 
ATOM     95  C   UNL A   1      45.479  29.351  32.728  1.00  0.00     0.091 A 
ATOM     96  F   UNL A   1      43.605  29.647  31.294  1.00  0.00    -0.205 F 
ATOM     97  C   UNL A   1      46.724  29.788  33.192  1.00  0.00     0.022 A 
BRANCH  95  98
ATOM     98  S   UNL A   1      44.776  27.840  33.384  1.00  0.00     0.127 S 
ATOM     99  O   UNL A   1      43.526  28.319  33.970  1.00  0.00    -0.237 OA
ATOM    100  O   UNL A   1      44.613  26.999  32.202  1.00  0.00    -0.237 OA
ATOM    101  O   UNL A   1      45.766  27.345  34.338  1.00  0.00    -0.744 OA
ENDBRANCH  95  98
ENDBRANCH  68  91
ENDBRANCH  42  43
ENDBRANCH  34  37
ENDBRANCH  32  33
ENDBRANCH   1  32
TORSDOF 15
ENDMDL
MODEL 3
REMARK VINA RESULT:     -15.2      5.336     10.028
REMARK SMILES Cc1cc(/C=C2/C(=O)NC(=S)[NH+]=C2NCCCNC(=O)c2ccc(-c3c4nc(c(-c5cccc(S(=O)(=O)[O-])c5F)c5ccc([nH]5)c(-c5cccc(S(=O)(=O)[O-])c5F)c5nc(c(-c6cccc(S(=O)(=O)[O-])c6F)c6ccc3[nH]6)C=C5)C=C4)cc2)c(C)n1-c1cccc(C(=O)[O-])c1
REMARK SMILES IDX 16 1 15 2 14 3 5 4 6 5 7 6 13 7 8 8 9 9 12 10 10 11 11 15
REMARK SMILES IDX 4 16 1 17 2 18 3 19 86 20 84 21 85 22 87 23 88 24 95 25
REMARK SMILES IDX 89 26 91 27 90 28 92 29 93 30 94 31 17 32 18 33 19 34 20 36
REMARK SMILES IDX 21 37 22 38 83 39 23 40 82 41 24 42 25 43 26 44 76 45 27 46
REMARK SMILES IDX 81 47 75 48 77 49 28 50 80 51 74 52 73 53 29 55 61 56 41 57
REMARK SMILES IDX 60 58 42 59 45 60 59 61 78 62 43 63 44 64 58 66 79 67 46 68
REMARK SMILES IDX 30 69 31 70 39 71 32 72 34 73 40 74 33 75 35 76 36 77 37 78
REMARK SMILES IDX 38 79 62 80 63 81 71 82 64 83 66 84 72 85 65 86 67 87 68 88
REMARK SMILES IDX 69 89 70 90 47 91 48 92 56 93 49 94 51 95 57 96 50 97 52 98
REMARK SMILES IDX 53 99 54 100 55 101
REMARK H PARENT 9 12 12 13 14 14 18 35 77 54 45 65
REMARK Flexibility Score: inf
ROOT
ATOM      1  C   UNL A   1      45.956  24.055  28.030  1.00  0.00     0.059 C 
ENDROOT
BRANCH   1   2
ATOM      2  C   UNL A   1      44.860  24.295  29.023  1.00  0.00     0.195 C 
BRANCH   2   3
ATOM      3  N   UNL A   1      44.638  25.722  28.960  1.00  0.00    -0.305 N 
ATOM      4  C   UNL A   1      46.376  27.009  31.634  1.00  0.00     0.032 C 
ATOM      5  C   UNL A   1      46.254  27.311  30.313  1.00  0.00     0.128 C 
ATOM      6  C   UNL A   1      46.971  28.615  30.022  1.00  0.00     0.319 C 
ATOM      7  C   UNL A   1      45.505  26.766  29.102  1.00  0.00     0.234 C 
ATOM      8  O   UNL A   1      47.614  29.265  30.846  1.00  0.00    -0.250 OA
ATOM      9  N   UNL A   1      46.874  29.093  28.752  1.00  0.00    -0.229 N 
ATOM     10  N   UNL A   1      45.522  27.379  27.943  1.00  0.00    -0.236 N 
ATOM     11  C   UNL A   1      46.211  28.519  27.719  1.00  0.00     0.295 C 
ATOM     12  H   UNL A   1      47.334  29.942  28.565  1.00  0.00     0.268 HD
ATOM     13  H   UNL A   1      45.008  26.989  27.199  1.00  0.00     0.268 HD
ATOM     14  H   UNL A   1      43.705  25.985  28.786  1.00  0.00     0.256 HD
ATOM     15  S   UNL A   1      46.280  29.270  26.222  1.00  0.00    -0.005 S 
BRANCH   4  16
ATOM     16  C   UNL A   1      45.836  26.035  32.531  1.00  0.00    -0.003 A 
ATOM     17  C   UNL A   1      43.036  24.242  34.249  1.00  0.00     0.065 C 
ATOM     18  C   UNL A   1      44.285  24.730  33.609  1.00  0.00     0.020 A 
ATOM     19  C   UNL A   1      44.491  25.508  32.469  1.00  0.00     0.031 A 
ATOM     20  N   UNL A   1      45.586  24.493  34.030  1.00  0.00    -0.318 N 
ATOM     21  C   UNL A   1      46.172  25.751  33.837  1.00  0.00     0.027 A 
ATOM     22  C   UNL A   1      46.710  26.632  34.909  1.00  0.00     0.065 C 
BRANCH  20  23
ATOM     23  C   UNL A   1      46.122  23.376  34.736  1.00  0.00     0.046 A 
ATOM     24  C   UNL A   1      47.883  23.179  34.508  1.00  0.00     0.026 A 
ATOM     25  C   UNL A   1      45.071  21.919  35.213  1.00  0.00     0.036 A 
ATOM     26  C   UNL A   1      48.668  21.587  34.728  1.00  0.00     0.003 A 
ATOM     27  C   UNL A   1      45.911  20.221  35.446  1.00  0.00    -0.001 A 
ATOM     28  C   UNL A   1      47.725  20.145  35.188  1.00  0.00     0.010 A 
BRANCH  27  29
ATOM     29  C   UNL A   1      45.566  18.921  36.056  1.00  0.00     0.072 C 
ATOM     30  O   UNL A   1      45.491  18.842  37.274  1.00  0.00    -0.545 OA
ATOM     31  O   UNL A   1      45.319  17.890  35.262  1.00  0.00    -0.545 OA
ENDBRANCH  27  29
ENDBRANCH  20  23
ENDBRANCH   4  16
ENDBRANCH   2   3
ENDBRANCH   1   2
BRANCH   1  32
ATOM     32  C   UNL A   1      45.639  23.385  26.677  1.00  0.00     0.119 C 
BRANCH  32  33
ATOM     33  N   UNL A   1      44.278  22.300  26.626  1.00  0.00    -0.352 N 
ATOM     34  C   UNL A   1      42.290  22.373  26.877  1.00  0.00     0.251 C 
ATOM     35  H   UNL A   1      44.570  21.384  26.412  1.00  0.00     0.163 HD
ATOM     36  O   UNL A   1      41.471  21.434  26.798  1.00  0.00    -0.269 OA
BRANCH  34  37
ATOM     37  C   UNL A   1      41.243  23.910  27.242  1.00  0.00     0.039 A 
ATOM     38  C   UNL A   1      41.489  25.074  26.532  1.00  0.00     0.014 A 
ATOM     39  C   UNL A   1      40.336  24.307  28.354  1.00  0.00     0.014 A 
ATOM     40  C   UNL A   1      40.973  26.418  26.989  1.00  0.00     0.010 A 
ATOM     41  C   UNL A   1      39.832  25.663  28.813  1.00  0.00     0.010 A 
ATOM     42  C   UNL A   1      40.140  26.827  28.157  1.00  0.00    -0.014 A 
BRANCH  42  43
ATOM     43  C   UNL A   1      39.538  28.433  28.443  1.00  0.00     0.031 A 
ATOM     44  C   UNL A   1      40.800  29.111  28.707  1.00  0.00     0.074 A 
ATOM     45  C   UNL A   1      38.496  29.381  28.759  1.00  0.00     0.049 A 
ATOM     46  N   UNL A   1      41.324  28.833  29.852  1.00  0.00    -0.248 NA
ATOM     47  C   UNL A   1      41.712  29.637  27.707  1.00  0.00     0.031 C 
ATOM     48  C   UNL A   1      37.082  29.163  29.158  1.00  0.00     0.029 A 
ATOM     49  N   UNL A   1      38.488  30.868  28.891  1.00  0.00    -0.354 N 
ATOM     50  C   UNL A   1      42.612  29.258  29.830  1.00  0.00     0.074 A 
ATOM     51  C   UNL A   1      42.835  29.668  28.442  1.00  0.00     0.031 C 
ATOM     52  C   UNL A   1      36.363  30.329  29.304  1.00  0.00     0.029 A 
ATOM     53  C   UNL A   1      37.176  31.535  29.076  1.00  0.00     0.049 A 
ATOM     54  H   UNL A   1      39.323  31.388  28.856  1.00  0.00     0.167 HD
ATOM     55  C   UNL A   1      42.997  29.762  31.027  1.00  0.00     0.034 A 
ATOM     56  C   UNL A   1      36.787  32.904  29.171  1.00  0.00     0.034 A 
ATOM     57  C   UNL A   1      42.775  31.179  31.029  1.00  0.00     0.049 A 
ATOM     58  C   UNL A   1      37.914  33.557  29.850  1.00  0.00     0.074 A 
ATOM     59  C   UNL A   1      42.887  32.134  30.033  1.00  0.00     0.029 A 
ATOM     60  N   UNL A   1      41.911  31.677  31.973  1.00  0.00    -0.354 N 
ATOM     61  N   UNL A   1      37.999  33.494  31.146  1.00  0.00    -0.248 NA
ATOM     62  C   UNL A   1      38.795  34.528  29.215  1.00  0.00     0.031 C 
ATOM     63  C   UNL A   1      41.748  32.941  30.173  1.00  0.00     0.029 A 
ATOM     64  C   UNL A   1      41.205  32.730  31.431  1.00  0.00     0.049 A 
ATOM     65  H   UNL A   1      41.813  31.337  32.891  1.00  0.00     0.167 HD
ATOM     66  C   UNL A   1      39.220  34.019  31.424  1.00  0.00     0.074 A 
ATOM     67  C   UNL A   1      39.547  34.848  30.274  1.00  0.00     0.031 C 
ATOM     68  C   UNL A   1      40.021  33.180  32.118  1.00  0.00     0.034 A 
BRANCH  55  69
ATOM     69  C   UNL A   1      42.669  28.779  32.163  1.00  0.00     0.023 A 
ATOM     70  C   UNL A   1      41.416  28.152  32.077  1.00  0.00     0.012 A 
ATOM     71  C   UNL A   1      43.389  28.665  33.394  1.00  0.00     0.148 A 
ATOM     72  C   UNL A   1      40.882  27.460  33.170  1.00  0.00     0.002 A 
ATOM     73  C   UNL A   1      42.798  28.079  34.515  1.00  0.00     0.091 A 
ATOM     74  F   UNL A   1      44.638  29.156  33.472  1.00  0.00    -0.205 F 
ATOM     75  C   UNL A   1      41.554  27.449  34.394  1.00  0.00     0.022 A 
BRANCH  73  76
ATOM     76  S   UNL A   1      43.459  28.294  36.189  1.00  0.00     0.127 S 
ATOM     77  O   UNL A   1      42.418  29.074  36.867  1.00  0.00    -0.237 OA
ATOM     78  O   UNL A   1      43.590  26.924  36.672  1.00  0.00    -0.237 OA
ATOM     79  O   UNL A   1      44.700  29.047  36.053  1.00  0.00    -0.744 OA
ENDBRANCH  73  76
ENDBRANCH  55  69
BRANCH  56  80
ATOM     80  C   UNL A   1      35.613  34.071  29.224  1.00  0.00     0.023 A 
ATOM     81  C   UNL A   1      34.695  34.196  28.098  1.00  0.00     0.012 A 
ATOM     82  C   UNL A   1      35.078  34.643  30.409  1.00  0.00     0.148 A 
ATOM     83  C   UNL A   1      33.361  34.665  28.160  1.00  0.00     0.002 A 
ATOM     84  C   UNL A   1      33.739  35.171  30.458  1.00  0.00     0.091 A 
ATOM     85  F   UNL A   1      35.825  34.607  31.519  1.00  0.00    -0.205 F 
ATOM     86  C   UNL A   1      32.874  35.139  29.353  1.00  0.00     0.022 A 
BRANCH  84  87
ATOM     87  S   UNL A   1      32.967  35.869  31.945  1.00  0.00     0.127 S 
ATOM     88  O   UNL A   1      34.114  36.374  32.705  1.00  0.00    -0.237 OA
ATOM     89  O   UNL A   1      32.115  36.917  31.382  1.00  0.00    -0.237 OA
ATOM     90  O   UNL A   1      32.277  34.754  32.576  1.00  0.00    -0.744 OA
ENDBRANCH  84  87
ENDBRANCH  56  80
BRANCH  68  91
ATOM     91  C   UNL A   1      39.459  32.531  33.370  1.00  0.00     0.023 A 
ATOM     92  C   UNL A   1      38.720  31.326  33.416  1.00  0.00     0.012 A 
ATOM     93  C   UNL A   1      39.699  33.185  34.586  1.00  0.00     0.148 A 
ATOM     94  C   UNL A   1      38.226  30.812  34.622  1.00  0.00     0.002 A 
ATOM     95  C   UNL A   1      39.266  32.644  35.791  1.00  0.00     0.091 A 
ATOM     96  F   UNL A   1      40.359  34.354  34.551  1.00  0.00    -0.205 F 
ATOM     97  C   UNL A   1      38.517  31.462  35.815  1.00  0.00     0.022 A 
BRANCH  95  98
ATOM     98  S   UNL A   1      39.706  33.438  37.333  1.00  0.00     0.127 S 
ATOM     99  O   UNL A   1      39.146  32.514  38.318  1.00  0.00    -0.237 OA
ATOM    100  O   UNL A   1      41.165  33.476  37.294  1.00  0.00    -0.237 OA
ATOM    101  O   UNL A   1      39.072  34.753  37.277  1.00  0.00    -0.744 OA
ENDBRANCH  95  98
ENDBRANCH  68  91
ENDBRANCH  42  43
ENDBRANCH  34  37
ENDBRANCH  32  33
ENDBRANCH   1  32
TORSDOF 15
ENDMDL
