MODEL 1
REMARK VINA RESULT:     -10.0      0.000      0.000
REMARK SMILES CC[C@H](C)[C@H](NC(=O)N1CCc2cc(OC)c(OC)cc2[C@@H]1c1ccc(F)cc1)C(=O)NCCCNC(=O)c1ccc(-c2c3nc(c(-c4cccc(S(=O)(=O)[O-])c4F)c4ccc([nH]4)c(-c4cccc(S(=O)(=O)[O-])c4F)c4nc(c(-c5cccc(S(=O)(=O)[O-])c5F)c5ccc2[nH]5)C=C4)C=C3)cc1
REMARK SMILES IDX 34 1 33 2 32 3 30 4 31 5 5 7 3 8 4 9 2 10 1 11 6 12 7 13
REMARK SMILES IDX 8 15 9 16 10 17 22 18 11 19 21 20 12 21 20 22 13 23 17 24
REMARK SMILES IDX 14 25 23 26 24 27 29 28 25 29 28 30 26 31 27 32 18 33 19 34
REMARK SMILES IDX 15 35 16 36 35 37 36 38 37 39 38 41 39 42 40 43 101 44 41 45
REMARK SMILES IDX 100 46 42 47 43 48 44 49 94 50 45 51 99 52 93 53 95 54 46 55
REMARK SMILES IDX 98 56 92 57 91 58 47 60 79 61 59 62 78 63 60 64 63 65 77 66
REMARK SMILES IDX 96 67 61 68 62 69 76 71 97 72 64 73 48 74 49 75 57 76 50 77
REMARK SMILES IDX 52 78 58 79 51 80 53 81 54 82 55 83 56 84 80 85 81 86 89 87
REMARK SMILES IDX 82 88 84 89 90 90 83 91 85 92 86 93 87 94 88 95 65 96 66 97
REMARK SMILES IDX 74 98 67 99 69 100 75 101 68 102 70 103 71 104 72 105 73 106
REMARK H PARENT 32 6 6 14 36 40 95 59 63 70
REMARK Flexibility Score: inf
ROOT
ATOM      1  C   UNL A   1      47.360  26.942  38.995  1.00  0.00     0.042 C 
ENDROOT
BRANCH   1   2
ATOM      2  C   UNL A   1      45.885  26.562  38.930  1.00  0.00     0.117 C 
BRANCH   2   3
ATOM      3  N   UNL A   1      45.595  25.193  39.307  1.00  0.00    -0.354 N 
ATOM      4  C   UNL A   1      45.625  24.054  38.559  1.00  0.00     0.242 C 
ATOM      5  O   UNL A   1      45.333  22.997  39.128  1.00  0.00    -0.273 OA
ATOM      6  H   UNL A   1      45.336  25.066  40.249  1.00  0.00     0.163 HD
BRANCH   4   7
ATOM      7  C   UNL A   1      46.046  24.062  37.075  1.00  0.00     0.176 C 
BRANCH   7   8
ATOM      8  C   UNL A   1      45.134  23.065  36.238  1.00  0.00     0.018 C 
ATOM      9  C   UNL A   1      43.750  23.604  35.823  1.00  0.00     0.010 C 
BRANCH   8  10
ATOM     10  C   UNL A   1      45.795  22.392  34.994  1.00  0.00     0.002 C 
ATOM     11  C   UNL A   1      45.538  20.898  34.827  1.00  0.00     0.004 C 
ENDBRANCH   8  10
ENDBRANCH   7   8
BRANCH   7  12
ATOM     12  N   UNL A   1      47.515  23.995  36.784  1.00  0.00    -0.326 N 
ATOM     13  C   UNL A   1      48.554  23.483  37.523  1.00  0.00     0.318 C 
ATOM     14  H   UNL A   1      47.779  24.383  35.918  1.00  0.00     0.166 HD
ATOM     15  O   UNL A   1      49.564  24.181  37.613  1.00  0.00    -0.249 OA
BRANCH  13  16
ATOM     16  N   UNL A   1      48.449  22.268  38.145  1.00  0.00    -0.313 N 
ATOM     17  C   UNL A   1      48.429  22.131  39.578  1.00  0.00     0.127 C 
ATOM     18  C   UNL A   1      48.023  21.026  37.409  1.00  0.00     0.148 C 
ATOM     19  C   UNL A   1      49.249  20.924  40.000  1.00  0.00     0.057 C 
ATOM     20  C   UNL A   1      47.630  19.894  38.416  1.00  0.00    -0.014 A 
ATOM     21  C   UNL A   1      48.367  19.777  39.613  1.00  0.00    -0.037 A 
ATOM     22  C   UNL A   1      46.543  19.021  38.240  1.00  0.00     0.057 A 
ATOM     23  C   UNL A   1      48.123  18.758  40.527  1.00  0.00     0.054 A 
ATOM     24  C   UNL A   1      46.231  18.035  39.211  1.00  0.00     0.161 A 
ATOM     25  C   UNL A   1      47.056  17.883  40.344  1.00  0.00     0.161 A 
BRANCH  18  26
ATOM     26  C   UNL A   1      49.140  20.523  36.462  1.00  0.00    -0.021 A 
ATOM     27  C   UNL A   1      49.024  20.691  35.070  1.00  0.00     0.009 A 
ATOM     28  C   UNL A   1      50.290  19.864  36.941  1.00  0.00     0.009 A 
ATOM     29  C   UNL A   1      50.007  20.197  34.203  1.00  0.00     0.039 A 
ATOM     30  C   UNL A   1      51.284  19.395  36.081  1.00  0.00     0.039 A 
ATOM     31  C   UNL A   1      51.127  19.558  34.716  1.00  0.00     0.123 A 
ATOM     32  F   UNL A   1      52.065  19.085  33.885  1.00  0.00    -0.207 F 
ENDBRANCH  18  26
BRANCH  24  33
ATOM     33  O   UNL A   1      45.160  17.189  39.099  1.00  0.00    -0.493 OA
ATOM     34  C   UNL A   1      44.514  17.086  37.838  1.00  0.00     0.278 C 
ENDBRANCH  24  33
BRANCH  25  35
ATOM     35  O   UNL A   1      46.965  17.005  41.390  1.00  0.00    -0.493 OA
ATOM     36  C   UNL A   1      47.112  17.476  42.718  1.00  0.00     0.278 C 
ENDBRANCH  25  35
ENDBRANCH  13  16
ENDBRANCH   7  12
ENDBRANCH   4   7
ENDBRANCH   2   3
ENDBRANCH   1   2
BRANCH   1  37
ATOM     37  C   UNL A   1      47.814  27.891  37.895  1.00  0.00     0.118 C 
BRANCH  37  38
ATOM     38  N   UNL A   1      48.647  27.236  36.903  1.00  0.00    -0.352 N 
ATOM     39  C   UNL A   1      48.362  26.891  35.613  1.00  0.00     0.251 C 
ATOM     40  H   UNL A   1      49.555  27.005  37.207  1.00  0.00     0.163 HD
ATOM     41  O   UNL A   1      49.135  26.147  35.004  1.00  0.00    -0.269 OA
BRANCH  39  42
ATOM     42  C   UNL A   1      47.135  27.385  34.960  1.00  0.00     0.039 A 
ATOM     43  C   UNL A   1      47.193  28.588  34.255  1.00  0.00     0.014 A 
ATOM     44  C   UNL A   1      45.928  26.685  35.058  1.00  0.00     0.014 A 
ATOM     45  C   UNL A   1      46.050  29.069  33.618  1.00  0.00     0.010 A 
ATOM     46  C   UNL A   1      44.815  27.118  34.344  1.00  0.00     0.010 A 
ATOM     47  C   UNL A   1      44.858  28.326  33.636  1.00  0.00    -0.014 A 
BRANCH  47  48
ATOM     48  C   UNL A   1      43.652  28.814  32.924  1.00  0.00     0.031 A 
ATOM     49  C   UNL A   1      43.372  28.378  31.511  1.00  0.00     0.074 A 
ATOM     50  C   UNL A   1      42.832  29.692  33.535  1.00  0.00     0.049 A 
ATOM     51  N   UNL A   1      42.365  28.696  30.740  1.00  0.00    -0.248 NA
ATOM     52  C   UNL A   1      44.358  27.491  30.871  1.00  0.00     0.031 C 
ATOM     53  C   UNL A   1      43.043  30.249  34.873  1.00  0.00     0.029 A 
ATOM     54  N   UNL A   1      41.665  30.277  33.111  1.00  0.00    -0.354 N 
ATOM     55  C   UNL A   1      42.612  28.079  29.520  1.00  0.00     0.074 A 
ATOM     56  C   UNL A   1      43.882  27.398  29.638  1.00  0.00     0.031 C 
ATOM     57  C   UNL A   1      42.029  31.077  35.169  1.00  0.00     0.029 A 
ATOM     58  C   UNL A   1      41.115  31.137  34.032  1.00  0.00     0.049 A 
ATOM     59  H   UNL A   1      41.262  30.099  32.231  1.00  0.00     0.167 HD
ATOM     60  C   UNL A   1      41.836  28.055  28.412  1.00  0.00     0.034 A 
ATOM     61  C   UNL A   1      40.000  31.892  33.971  1.00  0.00     0.034 A 
ATOM     62  C   UNL A   1      40.552  28.694  28.320  1.00  0.00     0.049 A 
ATOM     63  C   UNL A   1      39.133  31.817  32.745  1.00  0.00     0.074 A 
ATOM     64  C   UNL A   1      39.644  28.643  27.277  1.00  0.00     0.029 A 
ATOM     65  N   UNL A   1      39.997  29.507  29.296  1.00  0.00    -0.354 N 
ATOM     66  N   UNL A   1      39.304  31.101  31.661  1.00  0.00    -0.248 NA
ATOM     67  C   UNL A   1      37.904  32.623  32.744  1.00  0.00     0.031 C 
ATOM     68  C   UNL A   1      38.558  29.457  27.606  1.00  0.00     0.029 A 
ATOM     69  C   UNL A   1      38.769  29.982  28.872  1.00  0.00     0.049 A 
ATOM     70  H   UNL A   1      40.416  29.716  30.162  1.00  0.00     0.167 HD
ATOM     71  C   UNL A   1      38.195  31.346  30.860  1.00  0.00     0.074 A 
ATOM     72  C   UNL A   1      37.348  32.267  31.593  1.00  0.00     0.031 C 
ATOM     73  C   UNL A   1      37.912  30.862  29.627  1.00  0.00     0.034 A 
BRANCH  60  74
ATOM     74  C   UNL A   1      42.323  27.273  27.220  1.00  0.00     0.023 A 
ATOM     75  C   UNL A   1      43.039  27.930  26.199  1.00  0.00     0.012 A 
ATOM     76  C   UNL A   1      42.153  25.876  27.156  1.00  0.00     0.148 A 
ATOM     77  C   UNL A   1      43.553  27.215  25.118  1.00  0.00     0.002 A 
ATOM     78  C   UNL A   1      42.713  25.163  26.101  1.00  0.00     0.091 A 
ATOM     79  F   UNL A   1      41.450  25.272  28.124  1.00  0.00    -0.205 F 
ATOM     80  C   UNL A   1      43.402  25.832  25.077  1.00  0.00     0.022 A 
BRANCH  78  81
ATOM     81  S   UNL A   1      42.652  23.371  26.004  1.00  0.00     0.127 S 
ATOM     82  O   UNL A   1      43.110  23.134  24.635  1.00  0.00    -0.237 OA
ATOM     83  O   UNL A   1      43.604  22.975  27.042  1.00  0.00    -0.237 OA
ATOM     84  O   UNL A   1      41.270  22.998  26.271  1.00  0.00    -0.744 OA
ENDBRANCH  78  81
ENDBRANCH  60  74
BRANCH  61  85
ATOM     85  C   UNL A   1      39.618  32.721  35.148  1.00  0.00     0.023 A 
ATOM     86  C   UNL A   1      39.950  34.089  35.170  1.00  0.00     0.012 A 
ATOM     87  C   UNL A   1      38.849  32.182  36.199  1.00  0.00     0.148 A 
ATOM     88  C   UNL A   1      39.533  34.905  36.222  1.00  0.00     0.002 A 
ATOM     89  C   UNL A   1      38.388  33.012  37.214  1.00  0.00     0.091 A 
ATOM     90  F   UNL A   1      38.551  30.877  36.160  1.00  0.00    -0.205 F 
ATOM     91  C   UNL A   1      38.741  34.371  37.236  1.00  0.00     0.022 A 
BRANCH  89  92
ATOM     92  S   UNL A   1      37.241  32.449  38.476  1.00  0.00     0.127 S 
ATOM     93  O   UNL A   1      37.364  30.997  38.365  1.00  0.00    -0.237 OA
ATOM     94  O   UNL A   1      37.824  33.028  39.688  1.00  0.00    -0.237 OA
ATOM     95  O   UNL A   1      35.944  32.999  38.108  1.00  0.00    -0.744 OA
ENDBRANCH  89  92
ENDBRANCH  61  85
BRANCH  73  96
ATOM     96  C   UNL A   1      36.626  31.288  28.970  1.00  0.00     0.023 A 
ATOM     97  C   UNL A   1      36.390  32.651  28.712  1.00  0.00     0.012 A 
ATOM     98  C   UNL A   1      35.718  30.324  28.486  1.00  0.00     0.148 A 
ATOM     99  C   UNL A   1      35.263  33.052  27.994  1.00  0.00     0.002 A 
ATOM    100  C   UNL A   1      34.627  30.725  27.726  1.00  0.00     0.091 A 
ATOM    101  F   UNL A   1      35.955  29.031  28.756  1.00  0.00    -0.205 F 
ATOM    102  C   UNL A   1      34.392  32.089  27.488  1.00  0.00     0.022 A 
BRANCH 100 103
ATOM    103  S   UNL A   1      33.513  29.555  26.939  1.00  0.00     0.127 S 
ATOM    104  O   UNL A   1      32.985  28.826  28.091  1.00  0.00    -0.237 OA
ATOM    105  O   UNL A   1      32.550  30.440  26.284  1.00  0.00    -0.237 OA
ATOM    106  O   UNL A   1      34.332  28.766  26.028  1.00  0.00    -0.744 OA
ENDBRANCH 100 103
ENDBRANCH  73  96
ENDBRANCH  47  48
ENDBRANCH  39  42
ENDBRANCH  37  38
ENDBRANCH   1  37
TORSDOF 20
ENDMDL
MODEL 2
REMARK VINA RESULT:      -9.6      7.748     15.160
REMARK SMILES CC[C@H](C)[C@H](NC(=O)N1CCc2cc(OC)c(OC)cc2[C@@H]1c1ccc(F)cc1)C(=O)NCCCNC(=O)c1ccc(-c2c3nc(c(-c4cccc(S(=O)(=O)[O-])c4F)c4ccc([nH]4)c(-c4cccc(S(=O)(=O)[O-])c4F)c4nc(c(-c5cccc(S(=O)(=O)[O-])c5F)c5ccc2[nH]5)C=C4)C=C3)cc1
REMARK SMILES IDX 34 1 33 2 32 3 30 4 31 5 5 7 3 8 4 9 2 10 1 11 6 12 7 13
REMARK SMILES IDX 8 15 9 16 10 17 22 18 11 19 21 20 12 21 20 22 13 23 17 24
REMARK SMILES IDX 14 25 23 26 24 27 29 28 25 29 28 30 26 31 27 32 18 33 19 34
REMARK SMILES IDX 15 35 16 36 35 37 36 38 37 39 38 41 39 42 40 43 101 44 41 45
REMARK SMILES IDX 100 46 42 47 43 48 44 49 94 50 45 51 99 52 93 53 95 54 46 55
REMARK SMILES IDX 98 56 92 57 91 58 47 60 79 61 59 62 78 63 60 64 63 65 77 66
REMARK SMILES IDX 96 67 61 68 62 69 76 71 97 72 64 73 48 74 49 75 57 76 50 77
REMARK SMILES IDX 52 78 58 79 51 80 53 81 54 82 55 83 56 84 80 85 81 86 89 87
REMARK SMILES IDX 82 88 84 89 90 90 83 91 85 92 86 93 87 94 88 95 65 96 66 97
REMARK SMILES IDX 74 98 67 99 69 100 75 101 68 102 70 103 71 104 72 105 73 106
REMARK H PARENT 32 6 6 14 36 40 95 59 63 70
REMARK Flexibility Score: inf
ROOT
ATOM      1  C   UNL A   1      39.374  34.860  29.879  1.00  0.00     0.042 C 
ENDROOT
BRANCH   1   2
ATOM      2  C   UNL A   1      38.361  33.859  29.336  1.00  0.00     0.117 C 
BRANCH   2   3
ATOM      3  N   UNL A   1      37.175  34.453  28.753  1.00  0.00    -0.354 N 
ATOM      4  C   UNL A   1      35.863  34.113  28.901  1.00  0.00     0.242 C 
ATOM      5  O   UNL A   1      35.032  34.792  28.288  1.00  0.00    -0.273 OA
ATOM      6  H   UNL A   1      37.342  35.220  28.158  1.00  0.00     0.163 HD
BRANCH   4   7
ATOM      7  C   UNL A   1      35.415  32.963  29.825  1.00  0.00     0.176 C 
BRANCH   7   8
ATOM      8  C   UNL A   1      35.039  31.680  28.965  1.00  0.00     0.018 C 
ATOM      9  C   UNL A   1      33.791  31.812  28.067  1.00  0.00     0.010 C 
BRANCH   8  10
ATOM     10  C   UNL A   1      36.188  31.044  28.122  1.00  0.00     0.002 C 
ATOM     11  C   UNL A   1      36.083  29.543  27.874  1.00  0.00     0.004 C 
ENDBRANCH   8  10
ENDBRANCH   7   8
BRANCH   7  12
ATOM     12  N   UNL A   1      34.460  33.307  30.927  1.00  0.00    -0.326 N 
ATOM     13  C   UNL A   1      34.536  33.085  32.281  1.00  0.00     0.318 C 
ATOM     14  H   UNL A   1      33.642  33.769  30.632  1.00  0.00     0.166 HD
ATOM     15  O   UNL A   1      33.525  32.640  32.825  1.00  0.00    -0.249 OA
BRANCH  13  16
ATOM     16  N   UNL A   1      35.691  33.328  32.975  1.00  0.00    -0.313 N 
ATOM     17  C   UNL A   1      36.111  34.657  33.337  1.00  0.00     0.127 C 
ATOM     18  C   UNL A   1      36.439  32.236  33.692  1.00  0.00     0.148 C 
ATOM     19  C   UNL A   1      37.613  34.798  33.156  1.00  0.00     0.057 C 
ATOM     20  C   UNL A   1      37.480  32.844  34.691  1.00  0.00    -0.014 A 
ATOM     21  C   UNL A   1      38.157  34.024  34.317  1.00  0.00    -0.037 A 
ATOM     22  C   UNL A   1      37.742  32.328  35.972  1.00  0.00     0.057 A 
ATOM     23  C   UNL A   1      39.143  34.588  35.119  1.00  0.00     0.054 A 
ATOM     24  C   UNL A   1      38.682  32.951  36.833  1.00  0.00     0.161 A 
ATOM     25  C   UNL A   1      39.413  34.068  36.381  1.00  0.00     0.161 A 
BRANCH  18  26
ATOM     26  C   UNL A   1      37.156  31.296  32.693  1.00  0.00    -0.021 A 
ATOM     27  C   UNL A   1      38.462  31.583  32.255  1.00  0.00     0.009 A 
ATOM     28  C   UNL A   1      36.535  30.145  32.167  1.00  0.00     0.009 A 
ATOM     29  C   UNL A   1      39.100  30.764  31.315  1.00  0.00     0.039 A 
ATOM     30  C   UNL A   1      37.179  29.313  31.251  1.00  0.00     0.039 A 
ATOM     31  C   UNL A   1      38.454  29.637  30.826  1.00  0.00     0.123 A 
ATOM     32  F   UNL A   1      39.065  28.856  29.925  1.00  0.00    -0.207 F 
ENDBRANCH  18  26
BRANCH  24  33
ATOM     33  O   UNL A   1      38.940  32.506  38.102  1.00  0.00    -0.493 OA
ATOM     34  C   UNL A   1      37.854  32.397  39.011  1.00  0.00     0.278 C 
ENDBRANCH  24  33
BRANCH  25  35
ATOM     35  O   UNL A   1      40.370  34.812  37.018  1.00  0.00    -0.493 OA
ATOM     36  C   UNL A   1      40.140  36.188  37.266  1.00  0.00     0.278 C 
ENDBRANCH  25  35
ENDBRANCH  13  16
ENDBRANCH   7  12
ENDBRANCH   4   7
ENDBRANCH   2   3
ENDBRANCH   1   2
BRANCH   1  37
ATOM     37  C   UNL A   1      40.679  34.922  29.096  1.00  0.00     0.118 C 
BRANCH  37  38
ATOM     38  N   UNL A   1      40.774  36.110  28.267  1.00  0.00    -0.352 N 
ATOM     39  C   UNL A   1      41.814  36.562  27.506  1.00  0.00     0.251 C 
ATOM     40  H   UNL A   1      39.968  36.675  28.252  1.00  0.00     0.163 HD
ATOM     41  O   UNL A   1      41.769  37.707  27.047  1.00  0.00    -0.269 OA
BRANCH  39  42
ATOM     42  C   UNL A   1      42.985  35.703  27.251  1.00  0.00     0.039 A 
ATOM     43  C   UNL A   1      43.934  35.553  28.263  1.00  0.00     0.014 A 
ATOM     44  C   UNL A   1      43.164  35.067  26.019  1.00  0.00     0.014 A 
ATOM     45  C   UNL A   1      45.044  34.735  28.052  1.00  0.00     0.010 A 
ATOM     46  C   UNL A   1      44.221  34.179  25.844  1.00  0.00     0.010 A 
ATOM     47  C   UNL A   1      45.183  34.022  26.849  1.00  0.00    -0.014 A 
BRANCH  47  48
ATOM     48  C   UNL A   1      46.341  33.118  26.637  1.00  0.00     0.031 A 
ATOM     49  C   UNL A   1      46.183  31.629  26.786  1.00  0.00     0.074 A 
ATOM     50  C   UNL A   1      47.549  33.645  26.356  1.00  0.00     0.049 A 
ATOM     51  N   UNL A   1      47.079  30.691  26.630  1.00  0.00    -0.248 NA
ATOM     52  C   UNL A   1      44.857  31.128  27.185  1.00  0.00     0.031 C 
ATOM     53  C   UNL A   1      47.842  35.077  26.266  1.00  0.00     0.029 A 
ATOM     54  N   UNL A   1      48.756  33.042  26.107  1.00  0.00    -0.354 N 
ATOM     55  C   UNL A   1      46.439  29.498  26.942  1.00  0.00     0.074 A 
ATOM     56  C   UNL A   1      45.088  29.832  27.334  1.00  0.00     0.031 C 
ATOM     57  C   UNL A   1      49.138  35.241  25.959  1.00  0.00     0.029 A 
ATOM     58  C   UNL A   1      49.776  33.931  25.865  1.00  0.00     0.049 A 
ATOM     59  H   UNL A   1      48.880  32.065  26.103  1.00  0.00     0.167 HD
ATOM     60  C   UNL A   1      46.923  28.236  26.877  1.00  0.00     0.034 A 
ATOM     61  C   UNL A   1      51.080  33.720  25.598  1.00  0.00     0.034 A 
ATOM     62  C   UNL A   1      48.252  27.909  26.440  1.00  0.00     0.049 A 
ATOM     63  C   UNL A   1      51.585  32.307  25.491  1.00  0.00     0.074 A 
ATOM     64  C   UNL A   1      48.804  26.656  26.242  1.00  0.00     0.029 A 
ATOM     65  N   UNL A   1      49.241  28.835  26.143  1.00  0.00    -0.354 N 
ATOM     66  N   UNL A   1      50.922  31.186  25.635  1.00  0.00    -0.248 NA
ATOM     67  C   UNL A   1      53.004  32.128  25.153  1.00  0.00     0.031 C 
ATOM     68  C   UNL A   1      50.138  26.823  25.865  1.00  0.00     0.029 A 
ATOM     69  C   UNL A   1      50.406  28.181  25.785  1.00  0.00     0.049 A 
ATOM     70  H   UNL A   1      49.130  29.812  26.182  1.00  0.00     0.167 HD
ATOM     71  C   UNL A   1      51.832  30.167  25.379  1.00  0.00     0.074 A 
ATOM     72  C   UNL A   1      53.092  30.807  25.054  1.00  0.00     0.031 C 
ATOM     73  C   UNL A   1      51.643  28.826  25.421  1.00  0.00     0.034 A 
BRANCH  60  74
ATOM     74  C   UNL A   1      45.999  27.102  27.240  1.00  0.00     0.023 A 
ATOM     75  C   UNL A   1      45.857  26.721  28.589  1.00  0.00     0.012 A 
ATOM     76  C   UNL A   1      45.206  26.476  26.258  1.00  0.00     0.148 A 
ATOM     77  C   UNL A   1      44.961  25.717  28.954  1.00  0.00     0.002 A 
ATOM     78  C   UNL A   1      44.279  25.512  26.635  1.00  0.00     0.091 A 
ATOM     79  F   UNL A   1      45.372  26.836  24.977  1.00  0.00    -0.205 F 
ATOM     80  C   UNL A   1      44.164  25.123  27.979  1.00  0.00     0.022 A 
BRANCH  78  81
ATOM     81  S   UNL A   1      43.142  24.753  25.470  1.00  0.00     0.127 S 
ATOM     82  O   UNL A   1      42.317  23.932  26.356  1.00  0.00    -0.237 OA
ATOM     83  O   UNL A   1      42.459  25.917  24.906  1.00  0.00    -0.237 OA
ATOM     84  O   UNL A   1      43.966  24.013  24.525  1.00  0.00    -0.744 OA
ENDBRANCH  78  81
ENDBRANCH  60  74
BRANCH  61  85
ATOM     85  C   UNL A   1      51.968  34.888  25.342  1.00  0.00     0.023 A 
ATOM     86  C   UNL A   1      52.047  35.427  24.044  1.00  0.00     0.012 A 
ATOM     87  C   UNL A   1      52.660  35.522  26.394  1.00  0.00     0.148 A 
ATOM     88  C   UNL A   1      52.808  36.570  23.793  1.00  0.00     0.002 A 
ATOM     89  C   UNL A   1      53.367  36.692  26.149  1.00  0.00     0.091 A 
ATOM     90  F   UNL A   1      52.574  34.988  27.619  1.00  0.00    -0.205 F 
ATOM     91  C   UNL A   1      53.456  37.211  24.847  1.00  0.00     0.022 A 
BRANCH  89  92
ATOM     92  S   UNL A   1      54.106  37.668  27.464  1.00  0.00     0.127 S 
ATOM     93  O   UNL A   1      55.140  36.763  27.962  1.00  0.00    -0.237 OA
ATOM     94  O   UNL A   1      54.605  38.831  26.728  1.00  0.00    -0.237 OA
ATOM     95  O   UNL A   1      53.026  37.960  28.396  1.00  0.00    -0.744 OA
ENDBRANCH  89  92
ENDBRANCH  61  85
BRANCH  73  96
ATOM     96  C   UNL A   1      52.807  27.930  25.092  1.00  0.00     0.023 A 
ATOM     97  C   UNL A   1      53.119  27.654  23.747  1.00  0.00     0.012 A 
ATOM     98  C   UNL A   1      53.670  27.479  26.111  1.00  0.00     0.148 A 
ATOM     99  C   UNL A   1      54.267  26.931  23.421  1.00  0.00     0.002 A 
ATOM    100  C   UNL A   1      54.838  26.805  25.776  1.00  0.00     0.091 A 
ATOM    101  F   UNL A   1      53.346  27.741  27.386  1.00  0.00    -0.205 F 
ATOM    102  C   UNL A   1      55.133  26.520  24.433  1.00  0.00     0.022 A 
BRANCH 100 103
ATOM    103  S   UNL A   1      56.069  26.336  26.999  1.00  0.00     0.127 S 
ATOM    104  O   UNL A   1      56.845  27.569  27.128  1.00  0.00    -0.237 OA
ATOM    105  O   UNL A   1      55.241  26.012  28.160  1.00  0.00    -0.237 OA
ATOM    106  O   UNL A   1      56.792  25.205  26.433  1.00  0.00    -0.744 OA
ENDBRANCH 100 103
ENDBRANCH  73  96
ENDBRANCH  47  48
ENDBRANCH  39  42
ENDBRANCH  37  38
ENDBRANCH   1  37
TORSDOF 20
ENDMDL
MODEL 3
REMARK VINA RESULT:      -9.5      8.281     13.712
REMARK SMILES CC[C@H](C)[C@H](NC(=O)N1CCc2cc(OC)c(OC)cc2[C@@H]1c1ccc(F)cc1)C(=O)NCCCNC(=O)c1ccc(-c2c3nc(c(-c4cccc(S(=O)(=O)[O-])c4F)c4ccc([nH]4)c(-c4cccc(S(=O)(=O)[O-])c4F)c4nc(c(-c5cccc(S(=O)(=O)[O-])c5F)c5ccc2[nH]5)C=C4)C=C3)cc1
REMARK SMILES IDX 34 1 33 2 32 3 30 4 31 5 5 7 3 8 4 9 2 10 1 11 6 12 7 13
REMARK SMILES IDX 8 15 9 16 10 17 22 18 11 19 21 20 12 21 20 22 13 23 17 24
REMARK SMILES IDX 14 25 23 26 24 27 29 28 25 29 28 30 26 31 27 32 18 33 19 34
REMARK SMILES IDX 15 35 16 36 35 37 36 38 37 39 38 41 39 42 40 43 101 44 41 45
REMARK SMILES IDX 100 46 42 47 43 48 44 49 94 50 45 51 99 52 93 53 95 54 46 55
REMARK SMILES IDX 98 56 92 57 91 58 47 60 79 61 59 62 78 63 60 64 63 65 77 66
REMARK SMILES IDX 96 67 61 68 62 69 76 71 97 72 64 73 48 74 49 75 57 76 50 77
REMARK SMILES IDX 52 78 58 79 51 80 53 81 54 82 55 83 56 84 80 85 81 86 89 87
REMARK SMILES IDX 82 88 84 89 90 90 83 91 85 92 86 93 87 94 88 95 65 96 66 97
REMARK SMILES IDX 74 98 67 99 69 100 75 101 68 102 70 103 71 104 72 105 73 106
REMARK H PARENT 32 6 6 14 36 40 95 59 63 70
REMARK Flexibility Score: inf
ROOT
ATOM      1  C   UNL A   1      38.491  31.303  30.363  1.00  0.00     0.042 C 
ENDROOT
BRANCH   1   2
ATOM      2  C   UNL A   1      38.922  30.244  29.356  1.00  0.00     0.117 C 
BRANCH   2   3
ATOM      3  N   UNL A   1      38.527  28.891  29.694  1.00  0.00    -0.354 N 
ATOM      4  C   UNL A   1      39.291  27.814  30.032  1.00  0.00     0.242 C 
ATOM      5  O   UNL A   1      38.700  26.758  30.281  1.00  0.00    -0.273 OA
ATOM      6  H   UNL A   1      37.556  28.724  29.677  1.00  0.00     0.163 HD
BRANCH   4   7
ATOM      7  C   UNL A   1      40.827  27.905  30.146  1.00  0.00     0.176 C 
BRANCH   7   8
ATOM      8  C   UNL A   1      41.235  28.674  31.476  1.00  0.00     0.018 C 
ATOM      9  C   UNL A   1      40.336  28.422  32.704  1.00  0.00     0.010 C 
BRANCH   8  10
ATOM     10  C   UNL A   1      42.726  28.551  31.923  1.00  0.00     0.002 C 
ATOM     11  C   UNL A   1      43.540  29.841  31.895  1.00  0.00     0.004 C 
ENDBRANCH   8  10
ENDBRANCH   7   8
BRANCH   7  12
ATOM     12  N   UNL A   1      41.579  28.301  28.912  1.00  0.00    -0.326 N 
ATOM     13  C   UNL A   1      42.581  27.657  28.228  1.00  0.00     0.318 C 
ATOM     14  H   UNL A   1      41.311  29.167  28.528  1.00  0.00     0.166 HD
ATOM     15  O   UNL A   1      43.549  28.340  27.893  1.00  0.00    -0.249 OA
BRANCH  13  16
ATOM     16  N   UNL A   1      42.507  26.316  27.959  1.00  0.00    -0.313 N 
ATOM     17  C   UNL A   1      41.376  25.722  27.295  1.00  0.00     0.127 C 
ATOM     18  C   UNL A   1      43.711  25.416  28.033  1.00  0.00     0.148 C 
ATOM     19  C   UNL A   1      41.036  24.387  27.935  1.00  0.00     0.057 C 
ATOM     20  C   UNL A   1      43.425  24.050  27.324  1.00  0.00    -0.014 A 
ATOM     21  C   UNL A   1      42.132  23.496  27.436  1.00  0.00    -0.037 A 
ATOM     22  C   UNL A   1      44.353  23.364  26.523  1.00  0.00     0.057 A 
ATOM     23  C   UNL A   1      41.817  22.256  26.892  1.00  0.00     0.054 A 
ATOM     24  C   UNL A   1      44.011  22.141  25.890  1.00  0.00     0.161 A 
ATOM     25  C   UNL A   1      42.743  21.569  26.112  1.00  0.00     0.161 A 
BRANCH  18  26
ATOM     26  C   UNL A   1      44.139  25.168  29.499  1.00  0.00    -0.021 A 
ATOM     27  C   UNL A   1      43.867  23.937  30.123  1.00  0.00     0.009 A 
ATOM     28  C   UNL A   1      44.785  26.155  30.271  1.00  0.00     0.009 A 
ATOM     29  C   UNL A   1      44.208  23.720  31.464  1.00  0.00     0.039 A 
ATOM     30  C   UNL A   1      45.149  25.933  31.599  1.00  0.00     0.039 A 
ATOM     31  C   UNL A   1      44.848  24.718  32.187  1.00  0.00     0.123 A 
ATOM     32  F   UNL A   1      45.171  24.510  33.470  1.00  0.00    -0.207 F 
ENDBRANCH  18  26
BRANCH  24  33
ATOM     33  O   UNL A   1      44.871  21.459  25.071  1.00  0.00    -0.493 OA
ATOM     34  C   UNL A   1      45.328  22.102  23.890  1.00  0.00     0.278 C 
ENDBRANCH  24  33
BRANCH  25  35
ATOM     35  O   UNL A   1      42.203  20.407  25.630  1.00  0.00    -0.493 OA
ATOM     36  C   UNL A   1      42.113  19.271  26.472  1.00  0.00     0.278 C 
ENDBRANCH  25  35
ENDBRANCH  13  16
ENDBRANCH   7  12
ENDBRANCH   4   7
ENDBRANCH   2   3
ENDBRANCH   1   2
BRANCH   1  37
ATOM     37  C   UNL A   1      37.287  32.129  29.932  1.00  0.00     0.118 C 
BRANCH  37  38
ATOM     38  N   UNL A   1      36.979  33.195  30.869  1.00  0.00    -0.352 N 
ATOM     39  C   UNL A   1      37.781  34.184  31.361  1.00  0.00     0.251 C 
ATOM     40  H   UNL A   1      36.051  33.205  31.199  1.00  0.00     0.163 HD
ATOM     41  O   UNL A   1      37.385  34.861  32.313  1.00  0.00    -0.269 OA
BRANCH  39  42
ATOM     42  C   UNL A   1      39.113  34.428  30.777  1.00  0.00     0.039 A 
ATOM     43  C   UNL A   1      40.239  34.214  31.573  1.00  0.00     0.014 A 
ATOM     44  C   UNL A   1      39.257  34.887  29.464  1.00  0.00     0.014 A 
ATOM     45  C   UNL A   1      41.510  34.425  31.040  1.00  0.00     0.010 A 
ATOM     46  C   UNL A   1      40.526  35.006  28.906  1.00  0.00     0.010 A 
ATOM     47  C   UNL A   1      41.665  34.798  29.695  1.00  0.00    -0.014 A 
BRANCH  47  48
ATOM     48  C   UNL A   1      43.017  34.983  29.112  1.00  0.00     0.031 A 
ATOM     49  C   UNL A   1      43.530  36.361  28.796  1.00  0.00     0.074 A 
ATOM     50  C   UNL A   1      43.766  33.900  28.823  1.00  0.00     0.049 A 
ATOM     51  N   UNL A   1      44.685  36.711  28.295  1.00  0.00    -0.248 NA
ATOM     52  C   UNL A   1      42.623  37.493  29.052  1.00  0.00     0.031 C 
ATOM     53  C   UNL A   1      43.345  32.510  29.010  1.00  0.00     0.029 A 
ATOM     54  N   UNL A   1      45.032  33.797  28.301  1.00  0.00    -0.354 N 
ATOM     55  C   UNL A   1      44.632  38.091  28.144  1.00  0.00     0.074 A 
ATOM     56  C   UNL A   1      43.317  38.514  28.571  1.00  0.00     0.031 C 
ATOM     57  C   UNL A   1      44.340  31.695  28.631  1.00  0.00     0.029 A 
ATOM     58  C   UNL A   1      45.457  32.499  28.142  1.00  0.00     0.049 A 
ATOM     59  H   UNL A   1      45.581  34.578  28.062  1.00  0.00     0.167 HD
ATOM     60  C   UNL A   1      45.601  38.934  27.719  1.00  0.00     0.034 A 
ATOM     61  C   UNL A   1      46.614  32.008  27.657  1.00  0.00     0.034 A 
ATOM     62  C   UNL A   1      46.922  38.510  27.342  1.00  0.00     0.049 A 
ATOM     63  C   UNL A   1      47.692  32.965  27.228  1.00  0.00     0.074 A 
ATOM     64  C   UNL A   1      48.006  39.296  26.995  1.00  0.00     0.029 A 
ATOM     65  N   UNL A   1      47.338  37.190  27.252  1.00  0.00    -0.354 N 
ATOM     66  N   UNL A   1      47.679  34.276  27.243  1.00  0.00    -0.248 NA
ATOM     67  C   UNL A   1      48.953  32.382  26.749  1.00  0.00     0.031 C 
ATOM     68  C   UNL A   1      49.065  38.451  26.656  1.00  0.00     0.029 A 
ATOM     69  C   UNL A   1      48.655  37.139  26.833  1.00  0.00     0.049 A 
ATOM     70  H   UNL A   1      46.777  36.407  27.455  1.00  0.00     0.167 HD
ATOM     71  C   UNL A   1      48.935  34.676  26.804  1.00  0.00     0.074 A 
ATOM     72  C   UNL A   1      49.691  33.467  26.545  1.00  0.00     0.031 C 
ATOM     73  C   UNL A   1      49.413  35.931  26.621  1.00  0.00     0.034 A 
BRANCH  60  74
ATOM     74  C   UNL A   1      45.295  40.408  27.683  1.00  0.00     0.023 A 
ATOM     75  C   UNL A   1      45.292  41.151  28.881  1.00  0.00     0.012 A 
ATOM     76  C   UNL A   1      45.100  41.075  26.457  1.00  0.00     0.148 A 
ATOM     77  C   UNL A   1      45.072  42.528  28.864  1.00  0.00     0.002 A 
ATOM     78  C   UNL A   1      44.932  42.454  26.443  1.00  0.00     0.091 A 
ATOM     79  F   UNL A   1      45.083  40.348  25.330  1.00  0.00    -0.205 F 
ATOM     80  C   UNL A   1      44.906  43.179  27.645  1.00  0.00     0.022 A 
BRANCH  78  81
ATOM     81  S   UNL A   1      44.802  43.399  24.922  1.00  0.00     0.127 S 
ATOM     82  O   UNL A   1      45.300  44.708  25.344  1.00  0.00    -0.237 OA
ATOM     83  O   UNL A   1      45.699  42.666  24.028  1.00  0.00    -0.237 OA
ATOM     84  O   UNL A   1      43.398  43.361  24.541  1.00  0.00    -0.744 OA
ENDBRANCH  78  81
ENDBRANCH  60  74
BRANCH  61  85
ATOM     85  C   UNL A   1      46.823  30.533  27.629  1.00  0.00     0.023 A 
ATOM     86  C   UNL A   1      47.168  29.859  28.815  1.00  0.00     0.012 A 
ATOM     87  C   UNL A   1      46.591  29.788  26.456  1.00  0.00     0.148 A 
ATOM     88  C   UNL A   1      47.290  28.469  28.834  1.00  0.00     0.002 A 
ATOM     89  C   UNL A   1      46.657  28.400  26.494  1.00  0.00     0.091 A 
ATOM     90  F   UNL A   1      46.270  30.451  25.337  1.00  0.00    -0.205 F 
ATOM     91  C   UNL A   1      47.020  27.739  27.679  1.00  0.00     0.022 A 
BRANCH  89  92
ATOM     92  S   UNL A   1      46.181  27.370  25.102  1.00  0.00     0.127 S 
ATOM     93  O   UNL A   1      46.533  26.036  25.584  1.00  0.00    -0.237 OA
ATOM     94  O   UNL A   1      44.745  27.636  25.012  1.00  0.00    -0.237 OA
ATOM     95  O   UNL A   1      46.958  27.853  23.968  1.00  0.00    -0.744 OA
ENDBRANCH  89  92
ENDBRANCH  61  85
BRANCH  73  96
ATOM     96  C   UNL A   1      50.828  36.092  26.134  1.00  0.00     0.023 A 
ATOM     97  C   UNL A   1      51.077  36.286  24.762  1.00  0.00     0.012 A 
ATOM     98  C   UNL A   1      51.893  36.192  27.052  1.00  0.00     0.148 A 
ATOM     99  C   UNL A   1      52.368  36.562  24.309  1.00  0.00     0.002 A 
ATOM    100  C   UNL A   1      53.165  36.520  26.600  1.00  0.00     0.091 A 
ATOM    101  F   UNL A   1      51.635  35.990  28.353  1.00  0.00    -0.205 F 
ATOM    102  C   UNL A   1      53.406  36.695  25.228  1.00  0.00     0.022 A 
BRANCH 100 103
ATOM    103  S   UNL A   1      54.540  36.822  27.716  1.00  0.00     0.127 S 
ATOM    104  O   UNL A   1      55.617  37.142  26.781  1.00  0.00    -0.237 OA
ATOM    105  O   UNL A   1      54.056  37.957  28.501  1.00  0.00    -0.237 OA
ATOM    106  O   UNL A   1      54.723  35.592  28.476  1.00  0.00    -0.744 OA
ENDBRANCH 100 103
ENDBRANCH  73  96
ENDBRANCH  47  48
ENDBRANCH  39  42
ENDBRANCH  37  38
ENDBRANCH   1  37
TORSDOF 20
ENDMDL
