MODEL 1
REMARK VINA RESULT:     -12.3      0.000      0.000
REMARK SMILES C[C@H](C(=O)N[C@H](C)C(=O)NCCCNC(=O)c1ccc(-c2c3nc(c(-c4cccc(S(=O)(=O)[O-])c4F)c4ccc([nH]4)c(-c4cccc(S(=O)(=O)[O-])c4F)c4nc(c(-c5cccc(S(=O)(=O)[O-])c5F)c5ccc2[nH]5)C=C4)C=C3)cc1)n1cnc2ccccc21
REMARK SMILES IDX 12 1 11 2 10 3 8 4 9 5 6 7 7 8 5 9 3 10 4 11 2 13 1 14 80 15
REMARK SMILES IDX 81 16 88 17 82 18 83 19 87 20 84 21 86 22 85 23 13 24 14 25
REMARK SMILES IDX 15 26 16 28 17 29 18 30 79 31 19 32 78 33 20 34 21 35 22 36
REMARK SMILES IDX 72 37 23 38 77 39 71 40 73 41 24 42 76 43 70 44 69 45 25 47
REMARK SMILES IDX 57 48 37 49 56 50 38 51 41 52 55 53 74 54 39 55 40 56 54 58
REMARK SMILES IDX 75 59 42 60 26 61 27 62 35 63 28 64 30 65 36 66 29 67 31 68
REMARK SMILES IDX 32 69 33 70 34 71 58 72 59 73 67 74 60 75 62 76 68 77 61 78
REMARK SMILES IDX 63 79 64 80 65 81 66 82 43 83 44 84 52 85 45 86 47 87 53 88
REMARK SMILES IDX 46 89 48 90 49 91 50 92 51 93
REMARK H PARENT 10 6 5 12 14 27 73 46 41 57
REMARK Flexibility Score: inf
ROOT
ATOM      1  C   UNL A   1      32.663  28.559  24.339  1.00  0.00     0.042 C 
ENDROOT
BRANCH   1   2
ATOM      2  C   UNL A   1      33.952  27.904  23.866  1.00  0.00     0.117 C 
BRANCH   2   3
ATOM      3  N   UNL A   1      33.704  26.801  22.969  1.00  0.00    -0.354 N 
ATOM      4  C   UNL A   1      33.948  25.472  23.144  1.00  0.00     0.242 C 
ATOM      5  O   UNL A   1      33.674  24.719  22.204  1.00  0.00    -0.273 OA
ATOM      6  H   UNL A   1      33.298  27.044  22.105  1.00  0.00     0.163 HD
BRANCH   4   7
ATOM      7  C   UNL A   1      34.628  24.914  24.426  1.00  0.00     0.168 C 
ATOM      8  C   UNL A   1      34.052  25.507  25.692  1.00  0.00     0.041 C 
BRANCH   7   9
ATOM      9  N   UNL A   1      34.885  23.466  24.365  1.00  0.00    -0.343 N 
ATOM     10  C   UNL A   1      34.200  22.303  24.465  1.00  0.00     0.243 C 
ATOM     11  O   UNL A   1      34.889  21.389  24.947  1.00  0.00    -0.273 OA
ATOM     12  H   UNL A   1      35.840  23.292  24.198  1.00  0.00     0.164 HD
BRANCH  10  13
ATOM     13  C   UNL A   1      32.732  22.046  24.061  1.00  0.00     0.174 C 
ATOM     14  C   UNL A   1      32.241  20.604  23.997  1.00  0.00     0.042 C 
BRANCH  13  15
ATOM     15  N   UNL A   1      31.809  22.687  25.034  1.00  0.00    -0.318 N 
ATOM     16  C   UNL A   1      31.943  22.579  26.395  1.00  0.00     0.201 A 
ATOM     17  C   UNL A   1      31.027  23.801  24.777  1.00  0.00     0.069 A 
ATOM     18  N   UNL A   1      31.355  23.572  27.022  1.00  0.00    -0.237 NA
ATOM     19  C   UNL A   1      30.826  24.365  26.033  1.00  0.00     0.088 A 
ATOM     20  C   UNL A   1      30.561  24.401  23.597  1.00  0.00     0.028 A 
ATOM     21  C   UNL A   1      30.183  25.610  26.128  1.00  0.00     0.030 A 
ATOM     22  C   UNL A   1      29.913  25.634  23.714  1.00  0.00     0.002 A 
ATOM     23  C   UNL A   1      29.742  26.239  24.958  1.00  0.00     0.002 A 
ENDBRANCH  13  15
ENDBRANCH  10  13
ENDBRANCH   7   9
ENDBRANCH   4   7
ENDBRANCH   2   3
ENDBRANCH   1   2
BRANCH   1  24
ATOM     24  C   UNL A   1      32.657  28.859  25.824  1.00  0.00     0.118 C 
BRANCH  24  25
ATOM     25  N   UNL A   1      32.201  30.220  26.108  1.00  0.00    -0.352 N 
ATOM     26  C   UNL A   1      32.754  31.197  26.901  1.00  0.00     0.251 C 
ATOM     27  H   UNL A   1      31.362  30.476  25.660  1.00  0.00     0.163 HD
ATOM     28  O   UNL A   1      32.117  32.222  27.131  1.00  0.00    -0.269 OA
BRANCH  26  29
ATOM     29  C   UNL A   1      34.096  31.004  27.493  1.00  0.00     0.039 A 
ATOM     30  C   UNL A   1      34.940  32.105  27.670  1.00  0.00     0.014 A 
ATOM     31  C   UNL A   1      34.513  29.737  27.894  1.00  0.00     0.014 A 
ATOM     32  C   UNL A   1      36.163  31.942  28.328  1.00  0.00     0.010 A 
ATOM     33  C   UNL A   1      35.657  29.601  28.662  1.00  0.00     0.010 A 
ATOM     34  C   UNL A   1      36.510  30.694  28.870  1.00  0.00    -0.014 A 
BRANCH  34  35
ATOM     35  C   UNL A   1      37.766  30.461  29.625  1.00  0.00     0.031 A 
ATOM     36  C   UNL A   1      38.804  29.536  29.042  1.00  0.00     0.074 A 
ATOM     37  C   UNL A   1      37.908  30.944  30.875  1.00  0.00     0.049 A 
ATOM     38  N   UNL A   1      39.856  29.010  29.610  1.00  0.00    -0.248 NA
ATOM     39  C   UNL A   1      38.598  29.099  27.649  1.00  0.00     0.031 C 
ATOM     40  C   UNL A   1      36.940  31.793  31.575  1.00  0.00     0.029 A 
ATOM     41  N   UNL A   1      38.906  30.751  31.798  1.00  0.00    -0.354 N 
ATOM     42  C   UNL A   1      40.392  28.134  28.674  1.00  0.00     0.074 A 
ATOM     43  C   UNL A   1      39.530  28.168  27.515  1.00  0.00     0.031 C 
ATOM     44  C   UNL A   1      37.390  32.044  32.815  1.00  0.00     0.029 A 
ATOM     45  C   UNL A   1      38.652  31.339  33.016  1.00  0.00     0.049 A 
ATOM     46  H   UNL A   1      39.726  30.240  31.606  1.00  0.00     0.167 HD
ATOM     47  C   UNL A   1      41.520  27.392  28.757  1.00  0.00     0.034 A 
ATOM     48  C   UNL A   1      39.347  31.294  34.170  1.00  0.00     0.034 A 
ATOM     49  C   UNL A   1      42.412  27.426  29.881  1.00  0.00     0.049 A 
ATOM     50  C   UNL A   1      40.632  30.511  34.216  1.00  0.00     0.074 A 
ATOM     51  C   UNL A   1      43.634  26.795  30.028  1.00  0.00     0.029 A 
ATOM     52  N   UNL A   1      42.181  28.135  31.049  1.00  0.00    -0.354 N 
ATOM     53  N   UNL A   1      41.193  29.793  33.272  1.00  0.00    -0.248 NA
ATOM     54  C   UNL A   1      41.398  30.556  35.469  1.00  0.00     0.031 C 
ATOM     55  C   UNL A   1      44.133  27.107  31.295  1.00  0.00     0.029 A 
ATOM     56  C   UNL A   1      43.237  27.959  31.922  1.00  0.00     0.049 A 
ATOM     57  H   UNL A   1      41.384  28.684  31.229  1.00  0.00     0.167 HD
ATOM     58  C   UNL A   1      42.398  29.345  33.800  1.00  0.00     0.074 A 
ATOM     59  C   UNL A   1      42.489  29.876  35.145  1.00  0.00     0.031 C 
ATOM     60  C   UNL A   1      43.342  28.559  33.227  1.00  0.00     0.034 A 
BRANCH  47  61
ATOM     61  C   UNL A   1      41.882  26.525  27.579  1.00  0.00     0.023 A 
ATOM     62  C   UNL A   1      42.560  27.087  26.479  1.00  0.00     0.012 A 
ATOM     63  C   UNL A   1      41.599  25.145  27.584  1.00  0.00     0.148 A 
ATOM     64  C   UNL A   1      42.916  26.300  25.385  1.00  0.00     0.002 A 
ATOM     65  C   UNL A   1      42.002  24.357  26.514  1.00  0.00     0.091 A 
ATOM     66  F   UNL A   1      40.933  24.632  28.630  1.00  0.00    -0.205 F 
ATOM     67  C   UNL A   1      42.648  24.933  25.408  1.00  0.00     0.022 A 
BRANCH  65  68
ATOM     68  S   UNL A   1      41.780  22.575  26.484  1.00  0.00     0.127 S 
ATOM     69  O   UNL A   1      40.322  22.460  26.478  1.00  0.00    -0.237 OA
ATOM     70  O   UNL A   1      42.425  22.207  25.223  1.00  0.00    -0.237 OA
ATOM     71  O   UNL A   1      42.442  22.066  27.677  1.00  0.00    -0.744 OA
ENDBRANCH  65  68
ENDBRANCH  47  61
BRANCH  48  72
ATOM     72  C   UNL A   1      38.875  32.060  35.358  1.00  0.00     0.023 A 
ATOM     73  C   UNL A   1      39.017  33.462  35.376  1.00  0.00     0.012 A 
ATOM     74  C   UNL A   1      38.269  31.419  36.457  1.00  0.00     0.148 A 
ATOM     75  C   UNL A   1      38.601  34.207  36.479  1.00  0.00     0.002 A 
ATOM     76  C   UNL A   1      37.807  32.173  37.529  1.00  0.00     0.091 A 
ATOM     77  F   UNL A   1      38.150  30.085  36.426  1.00  0.00    -0.205 F 
ATOM     78  C   UNL A   1      37.988  33.564  37.552  1.00  0.00     0.022 A 
BRANCH  76  79
ATOM     79  S   UNL A   1      36.891  31.445  38.893  1.00  0.00     0.127 S 
ATOM     80  O   UNL A   1      37.832  31.597  40.001  1.00  0.00    -0.237 OA
ATOM     81  O   UNL A   1      35.713  32.311  38.963  1.00  0.00    -0.237 OA
ATOM     82  O   UNL A   1      36.605  30.076  38.488  1.00  0.00    -0.744 OA
ENDBRANCH  76  79
ENDBRANCH  48  72
BRANCH  60  83
ATOM     83  C   UNL A   1      44.596  28.274  34.007  1.00  0.00     0.023 A 
ATOM     84  C   UNL A   1      45.717  29.115  33.876  1.00  0.00     0.012 A 
ATOM     85  C   UNL A   1      44.610  27.240  34.964  1.00  0.00     0.148 A 
ATOM     86  C   UNL A   1      46.843  28.918  34.674  1.00  0.00     0.002 A 
ATOM     87  C   UNL A   1      45.713  27.083  35.792  1.00  0.00     0.091 A 
ATOM     88  F   UNL A   1      43.535  26.443  35.059  1.00  0.00    -0.205 F 
ATOM     89  C   UNL A   1      46.835  27.915  35.641  1.00  0.00     0.022 A 
BRANCH  87  90
ATOM     90  S   UNL A   1      45.749  25.890  37.134  1.00  0.00     0.127 S 
ATOM     91  O   UNL A   1      45.667  24.624  36.409  1.00  0.00    -0.237 OA
ATOM     92  O   UNL A   1      47.051  26.157  37.748  1.00  0.00    -0.237 OA
ATOM     93  O   UNL A   1      44.605  26.198  37.980  1.00  0.00    -0.744 OA
ENDBRANCH  87  90
ENDBRANCH  60  83
ENDBRANCH  34  35
ENDBRANCH  26  29
ENDBRANCH  24  25
ENDBRANCH   1  24
TORSDOF 16
ENDMDL
MODEL 2
REMARK VINA RESULT:     -12.3      4.231     10.360
REMARK SMILES C[C@H](C(=O)N[C@H](C)C(=O)NCCCNC(=O)c1ccc(-c2c3nc(c(-c4cccc(S(=O)(=O)[O-])c4F)c4ccc([nH]4)c(-c4cccc(S(=O)(=O)[O-])c4F)c4nc(c(-c5cccc(S(=O)(=O)[O-])c5F)c5ccc2[nH]5)C=C4)C=C3)cc1)n1cnc2ccccc21
REMARK SMILES IDX 12 1 11 2 10 3 8 4 9 5 6 7 7 8 5 9 3 10 4 11 2 13 1 14 80 15
REMARK SMILES IDX 81 16 88 17 82 18 83 19 87 20 84 21 86 22 85 23 13 24 14 25
REMARK SMILES IDX 15 26 16 28 17 29 18 30 79 31 19 32 78 33 20 34 21 35 22 36
REMARK SMILES IDX 72 37 23 38 77 39 71 40 73 41 24 42 76 43 70 44 69 45 25 47
REMARK SMILES IDX 57 48 37 49 56 50 38 51 41 52 55 53 74 54 39 55 40 56 54 58
REMARK SMILES IDX 75 59 42 60 26 61 27 62 35 63 28 64 30 65 36 66 29 67 31 68
REMARK SMILES IDX 32 69 33 70 34 71 58 72 59 73 67 74 60 75 62 76 68 77 61 78
REMARK SMILES IDX 63 79 64 80 65 81 66 82 43 83 44 84 52 85 45 86 47 87 53 88
REMARK SMILES IDX 46 89 48 90 49 91 50 92 51 93
REMARK H PARENT 10 6 5 12 14 27 73 46 41 57
REMARK Flexibility Score: inf
ROOT
ATOM      1  C   UNL A   1      33.597  34.424  28.509  1.00  0.00     0.042 C 
ENDROOT
BRANCH   1   2
ATOM      2  C   UNL A   1      33.783  35.326  29.720  1.00  0.00     0.117 C 
BRANCH   2   3
ATOM      3  N   UNL A   1      32.898  34.970  30.803  1.00  0.00    -0.354 N 
ATOM      4  C   UNL A   1      33.008  35.242  32.135  1.00  0.00     0.242 C 
ATOM      5  O   UNL A   1      32.127  34.796  32.876  1.00  0.00    -0.273 OA
ATOM      6  H   UNL A   1      32.099  34.458  30.544  1.00  0.00     0.163 HD
BRANCH   4   7
ATOM      7  C   UNL A   1      34.229  35.999  32.730  1.00  0.00     0.168 C 
ATOM      8  C   UNL A   1      34.028  37.499  32.749  1.00  0.00     0.041 C 
BRANCH   7   9
ATOM      9  N   UNL A   1      34.802  35.338  33.912  1.00  0.00    -0.343 N 
ATOM     10  C   UNL A   1      35.397  34.167  34.240  1.00  0.00     0.243 C 
ATOM     11  O   UNL A   1      35.154  33.824  35.407  1.00  0.00    -0.273 OA
ATOM     12  H   UNL A   1      34.735  35.923  34.702  1.00  0.00     0.164 HD
BRANCH  10  13
ATOM     13  C   UNL A   1      36.286  33.287  33.334  1.00  0.00     0.174 C 
ATOM     14  C   UNL A   1      35.689  32.751  32.036  1.00  0.00     0.042 C 
BRANCH  13  15
ATOM     15  N   UNL A   1      37.477  34.051  32.880  1.00  0.00    -0.318 N 
ATOM     16  C   UNL A   1      38.509  34.414  33.708  1.00  0.00     0.201 A 
ATOM     17  C   UNL A   1      37.950  34.093  31.579  1.00  0.00     0.069 A 
ATOM     18  N   UNL A   1      39.619  34.627  33.038  1.00  0.00    -0.237 NA
ATOM     19  C   UNL A   1      39.303  34.384  31.724  1.00  0.00     0.088 A 
ATOM     20  C   UNL A   1      37.365  33.829  30.331  1.00  0.00     0.028 A 
ATOM     21  C   UNL A   1      40.133  34.359  30.591  1.00  0.00     0.030 A 
ATOM     22  C   UNL A   1      38.205  33.821  29.214  1.00  0.00     0.002 A 
ATOM     23  C   UNL A   1      39.571  34.064  29.342  1.00  0.00     0.002 A 
ENDBRANCH  13  15
ENDBRANCH  10  13
ENDBRANCH   7   9
ENDBRANCH   4   7
ENDBRANCH   2   3
ENDBRANCH   1   2
BRANCH   1  24
ATOM     24  C   UNL A   1      34.494  33.203  28.533  1.00  0.00     0.118 C 
BRANCH  24  25
ATOM     25  N   UNL A   1      33.933  32.094  27.760  1.00  0.00    -0.352 N 
ATOM     26  C   UNL A   1      34.452  30.851  27.482  1.00  0.00     0.251 C 
ATOM     27  H   UNL A   1      33.043  32.266  27.377  1.00  0.00     0.163 HD
ATOM     28  O   UNL A   1      33.881  30.125  26.671  1.00  0.00    -0.269 OA
BRANCH  26  29
ATOM     29  C   UNL A   1      35.699  30.402  28.136  1.00  0.00     0.039 A 
ATOM     30  C   UNL A   1      35.639  29.742  29.367  1.00  0.00     0.014 A 
ATOM     31  C   UNL A   1      36.932  30.611  27.520  1.00  0.00     0.014 A 
ATOM     32  C   UNL A   1      36.806  29.221  29.933  1.00  0.00     0.010 A 
ATOM     33  C   UNL A   1      38.062  29.980  28.011  1.00  0.00     0.010 A 
ATOM     34  C   UNL A   1      38.021  29.297  29.235  1.00  0.00    -0.014 A 
BRANCH  34  35
ATOM     35  C   UNL A   1      39.288  28.720  29.750  1.00  0.00     0.031 A 
ATOM     36  C   UNL A   1      40.008  29.428  30.869  1.00  0.00     0.074 A 
ATOM     37  C   UNL A   1      39.860  27.671  29.127  1.00  0.00     0.049 A 
ATOM     38  N   UNL A   1      41.220  29.245  31.320  1.00  0.00    -0.248 NA
ATOM     39  C   UNL A   1      39.285  30.529  31.532  1.00  0.00     0.031 C 
ATOM     40  C   UNL A   1      39.295  26.946  27.986  1.00  0.00     0.029 A 
ATOM     41  N   UNL A   1      41.073  27.062  29.338  1.00  0.00    -0.354 N 
ATOM     42  C   UNL A   1      41.427  30.245  32.263  1.00  0.00     0.074 A 
ATOM     43  C   UNL A   1      40.232  31.056  32.293  1.00  0.00     0.031 C 
ATOM     44  C   UNL A   1      40.158  25.993  27.598  1.00  0.00     0.029 A 
ATOM     45  C   UNL A   1      41.357  26.069  28.427  1.00  0.00     0.049 A 
ATOM     46  H   UNL A   1      41.681  27.311  30.071  1.00  0.00     0.167 HD
ATOM     47  C   UNL A   1      42.502  30.451  33.057  1.00  0.00     0.034 A 
ATOM     48  C   UNL A   1      42.466  25.322  28.267  1.00  0.00     0.034 A 
ATOM     49  C   UNL A   1      43.652  29.592  33.075  1.00  0.00     0.049 A 
ATOM     50  C   UNL A   1      43.625  25.529  29.205  1.00  0.00     0.074 A 
ATOM     51  C   UNL A   1      44.753  29.646  33.911  1.00  0.00     0.029 A 
ATOM     52  N   UNL A   1      43.847  28.518  32.221  1.00  0.00    -0.354 N 
ATOM     53  N   UNL A   1      43.749  26.396  30.182  1.00  0.00    -0.248 NA
ATOM     54  C   UNL A   1      44.783  24.638  29.046  1.00  0.00     0.031 C 
ATOM     55  C   UNL A   1      45.623  28.615  33.548  1.00  0.00     0.029 A 
ATOM     56  C   UNL A   1      45.049  27.900  32.510  1.00  0.00     0.049 A 
ATOM     57  H   UNL A   1      43.221  28.236  31.515  1.00  0.00     0.167 HD
ATOM     58  C   UNL A   1      44.972  26.121  30.783  1.00  0.00     0.074 A 
ATOM     59  C   UNL A   1      45.550  25.004  30.064  1.00  0.00     0.031 C 
ATOM     60  C   UNL A   1      45.568  26.742  31.830  1.00  0.00     0.034 A 
BRANCH  47  61
ATOM     61  C   UNL A   1      42.462  31.616  34.010  1.00  0.00     0.023 A 
ATOM     62  C   UNL A   1      42.926  32.880  33.592  1.00  0.00     0.012 A 
ATOM     63  C   UNL A   1      41.918  31.474  35.302  1.00  0.00     0.148 A 
ATOM     64  C   UNL A   1      42.886  33.974  34.454  1.00  0.00     0.002 A 
ATOM     65  C   UNL A   1      41.834  32.581  36.137  1.00  0.00     0.091 A 
ATOM     66  F   UNL A   1      41.502  30.260  35.691  1.00  0.00    -0.205 F 
ATOM     67  C   UNL A   1      42.329  33.827  35.721  1.00  0.00     0.022 A 
BRANCH  65  68
ATOM     68  S   UNL A   1      41.058  32.517  37.756  1.00  0.00     0.127 S 
ATOM     69  O   UNL A   1      39.731  31.999  37.427  1.00  0.00    -0.237 OA
ATOM     70  O   UNL A   1      41.920  31.576  38.472  1.00  0.00    -0.237 OA
ATOM     71  O   UNL A   1      41.087  33.879  38.271  1.00  0.00    -0.744 OA
ENDBRANCH  65  68
ENDBRANCH  47  61
BRANCH  48  72
ATOM     72  C   UNL A   1      42.514  24.267  27.214  1.00  0.00     0.023 A 
ATOM     73  C   UNL A   1      43.175  24.534  26.000  1.00  0.00     0.012 A 
ATOM     74  C   UNL A   1      41.932  22.999  27.414  1.00  0.00     0.148 A 
ATOM     75  C   UNL A   1      43.224  23.575  24.988  1.00  0.00     0.002 A 
ATOM     76  C   UNL A   1      42.033  22.029  26.423  1.00  0.00     0.091 A 
ATOM     77  F   UNL A   1      41.301  22.765  28.572  1.00  0.00    -0.205 F 
ATOM     78  C   UNL A   1      42.661  22.320  25.203  1.00  0.00     0.022 A 
BRANCH  76  79
ATOM     79  S   UNL A   1      41.451  20.346  26.663  1.00  0.00     0.127 S 
ATOM     80  O   UNL A   1      42.142  19.962  27.892  1.00  0.00    -0.237 OA
ATOM     81  O   UNL A   1      40.008  20.541  26.803  1.00  0.00    -0.237 OA
ATOM     82  O   UNL A   1      41.843  19.620  25.463  1.00  0.00    -0.744 OA
ENDBRANCH  76  79
ENDBRANCH  48  72
BRANCH  60  83
ATOM     83  C   UNL A   1      46.879  26.195  32.325  1.00  0.00     0.023 A 
ATOM     84  C   UNL A   1      48.091  26.765  31.893  1.00  0.00     0.012 A 
ATOM     85  C   UNL A   1      46.895  25.194  33.317  1.00  0.00     0.148 A 
ATOM     86  C   UNL A   1      49.304  26.333  32.429  1.00  0.00     0.002 A 
ATOM     87  C   UNL A   1      48.101  24.807  33.884  1.00  0.00     0.091 A 
ATOM     88  F   UNL A   1      45.727  24.657  33.699  1.00  0.00    -0.205 F 
ATOM     89  C   UNL A   1      49.307  25.367  33.434  1.00  0.00     0.022 A 
BRANCH  87  90
ATOM     90  S   UNL A   1      48.194  23.650  35.255  1.00  0.00     0.127 S 
ATOM     91  O   UNL A   1      49.623  23.667  35.563  1.00  0.00    -0.237 OA
ATOM     92  O   UNL A   1      47.346  24.294  36.258  1.00  0.00    -0.237 OA
ATOM     93  O   UNL A   1      47.682  22.383  34.750  1.00  0.00    -0.744 OA
ENDBRANCH  87  90
ENDBRANCH  60  83
ENDBRANCH  34  35
ENDBRANCH  26  29
ENDBRANCH  24  25
ENDBRANCH   1  24
TORSDOF 16
ENDMDL
MODEL 3
REMARK VINA RESULT:     -12.2      2.355      3.631
REMARK SMILES C[C@H](C(=O)N[C@H](C)C(=O)NCCCNC(=O)c1ccc(-c2c3nc(c(-c4cccc(S(=O)(=O)[O-])c4F)c4ccc([nH]4)c(-c4cccc(S(=O)(=O)[O-])c4F)c4nc(c(-c5cccc(S(=O)(=O)[O-])c5F)c5ccc2[nH]5)C=C4)C=C3)cc1)n1cnc2ccccc21
REMARK SMILES IDX 12 1 11 2 10 3 8 4 9 5 6 7 7 8 5 9 3 10 4 11 2 13 1 14 80 15
REMARK SMILES IDX 81 16 88 17 82 18 83 19 87 20 84 21 86 22 85 23 13 24 14 25
REMARK SMILES IDX 15 26 16 28 17 29 18 30 79 31 19 32 78 33 20 34 21 35 22 36
REMARK SMILES IDX 72 37 23 38 77 39 71 40 73 41 24 42 76 43 70 44 69 45 25 47
REMARK SMILES IDX 57 48 37 49 56 50 38 51 41 52 55 53 74 54 39 55 40 56 54 58
REMARK SMILES IDX 75 59 42 60 26 61 27 62 35 63 28 64 30 65 36 66 29 67 31 68
REMARK SMILES IDX 32 69 33 70 34 71 58 72 59 73 67 74 60 75 62 76 68 77 61 78
REMARK SMILES IDX 63 79 64 80 65 81 66 82 43 83 44 84 52 85 45 86 47 87 53 88
REMARK SMILES IDX 46 89 48 90 49 91 50 92 51 93
REMARK H PARENT 10 6 5 12 14 27 73 46 41 57
REMARK Flexibility Score: inf
ROOT
ATOM      1  C   UNL A   1      31.301  32.116  26.815  1.00  0.00     0.042 C 
ENDROOT
BRANCH   1   2
ATOM      2  C   UNL A   1      31.409  31.053  25.732  1.00  0.00     0.117 C 
BRANCH   2   3
ATOM      3  N   UNL A   1      32.379  30.037  26.064  1.00  0.00    -0.354 N 
ATOM      4  C   UNL A   1      33.129  29.254  25.237  1.00  0.00     0.242 C 
ATOM      5  O   UNL A   1      33.873  28.424  25.769  1.00  0.00    -0.273 OA
ATOM      6  H   UNL A   1      32.520  29.887  27.027  1.00  0.00     0.163 HD
BRANCH   4   7
ATOM      7  C   UNL A   1      33.002  29.320  23.689  1.00  0.00     0.168 C 
ATOM      8  C   UNL A   1      34.078  28.523  22.985  1.00  0.00     0.041 C 
BRANCH   7   9
ATOM      9  N   UNL A   1      31.612  29.222  23.216  1.00  0.00    -0.343 N 
ATOM     10  C   UNL A   1      30.654  28.280  23.047  1.00  0.00     0.243 C 
ATOM     11  O   UNL A   1      29.906  28.533  22.091  1.00  0.00    -0.273 OA
ATOM     12  H   UNL A   1      31.278  30.107  22.940  1.00  0.00     0.164 HD
BRANCH  10  13
ATOM     13  C   UNL A   1      30.442  27.005  23.892  1.00  0.00     0.174 C 
ATOM     14  C   UNL A   1      29.068  26.344  23.871  1.00  0.00     0.042 C 
BRANCH  13  15
ATOM     15  N   UNL A   1      31.355  25.925  23.435  1.00  0.00    -0.318 N 
ATOM     16  C   UNL A   1      31.675  25.704  22.119  1.00  0.00     0.201 A 
ATOM     17  C   UNL A   1      32.337  25.328  24.210  1.00  0.00     0.069 A 
ATOM     18  N   UNL A   1      32.816  25.064  21.996  1.00  0.00    -0.237 NA
ATOM     19  C   UNL A   1      33.263  24.868  23.279  1.00  0.00     0.088 A 
ATOM     20  C   UNL A   1      32.542  25.225  25.594  1.00  0.00     0.028 A 
ATOM     21  C   UNL A   1      34.478  24.328  23.734  1.00  0.00     0.030 A 
ATOM     22  C   UNL A   1      33.752  24.674  26.026  1.00  0.00     0.002 A 
ATOM     23  C   UNL A   1      34.714  24.249  25.112  1.00  0.00     0.002 A 
ENDBRANCH  13  15
ENDBRANCH  10  13
ENDBRANCH   7   9
ENDBRANCH   4   7
ENDBRANCH   2   3
ENDBRANCH   1   2
BRANCH   1  24
ATOM     24  C   UNL A   1      32.634  32.742  27.170  1.00  0.00     0.118 C 
BRANCH  24  25
ATOM     25  N   UNL A   1      32.475  34.061  27.783  1.00  0.00    -0.352 N 
ATOM     26  C   UNL A   1      33.185  34.663  28.795  1.00  0.00     0.251 C 
ATOM     27  H   UNL A   1      31.743  34.604  27.412  1.00  0.00     0.163 HD
ATOM     28  O   UNL A   1      32.779  35.721  29.272  1.00  0.00    -0.269 OA
BRANCH  26  29
ATOM     29  C   UNL A   1      34.413  34.031  29.322  1.00  0.00     0.039 A 
ATOM     30  C   UNL A   1      35.662  34.430  28.836  1.00  0.00     0.014 A 
ATOM     31  C   UNL A   1      34.333  33.058  30.316  1.00  0.00     0.014 A 
ATOM     32  C   UNL A   1      36.827  33.912  29.409  1.00  0.00     0.010 A 
ATOM     33  C   UNL A   1      35.482  32.650  30.972  1.00  0.00     0.010 A 
ATOM     34  C   UNL A   1      36.745  33.051  30.514  1.00  0.00    -0.014 A 
BRANCH  34  35
ATOM     35  C   UNL A   1      37.940  32.506  31.206  1.00  0.00     0.031 A 
ATOM     36  C   UNL A   1      38.676  31.347  30.583  1.00  0.00     0.074 A 
ATOM     37  C   UNL A   1      38.266  32.936  32.440  1.00  0.00     0.049 A 
ATOM     38  N   UNL A   1      39.588  30.571  31.102  1.00  0.00    -0.248 NA
ATOM     39  C   UNL A   1      38.290  30.978  29.208  1.00  0.00     0.031 C 
ATOM     40  C   UNL A   1      37.585  34.003  33.179  1.00  0.00     0.029 A 
ATOM     41  N   UNL A   1      39.231  32.494  33.313  1.00  0.00    -0.354 N 
ATOM     42  C   UNL A   1      39.833  29.588  30.150  1.00  0.00     0.074 A 
ATOM     43  C   UNL A   1      38.947  29.841  29.038  1.00  0.00     0.031 C 
ATOM     44  C   UNL A   1      38.150  34.130  34.391  1.00  0.00     0.029 A 
ATOM     45  C   UNL A   1      39.200  33.127  34.535  1.00  0.00     0.049 A 
ATOM     46  H   UNL A   1      39.882  31.792  33.085  1.00  0.00     0.167 HD
ATOM     47  C   UNL A   1      40.738  28.583  30.184  1.00  0.00     0.034 A 
ATOM     48  C   UNL A   1      39.922  32.906  35.651  1.00  0.00     0.034 A 
ATOM     49  C   UNL A   1      41.669  28.388  31.259  1.00  0.00     0.049 A 
ATOM     50  C   UNL A   1      40.966  31.822  35.641  1.00  0.00     0.074 A 
ATOM     51  C   UNL A   1      42.696  27.467  31.351  1.00  0.00     0.029 A 
ATOM     52  N   UNL A   1      41.689  29.132  32.429  1.00  0.00    -0.354 N 
ATOM     53  N   UNL A   1      41.275  30.986  34.678  1.00  0.00    -0.248 NA
ATOM     54  C   UNL A   1      41.785  31.670  36.852  1.00  0.00     0.031 C 
ATOM     55  C   UNL A   1      43.325  27.642  32.586  1.00  0.00     0.029 A 
ATOM     56  C   UNL A   1      42.711  28.693  33.248  1.00  0.00     0.049 A 
ATOM     57  H   UNL A   1      41.067  29.865  32.643  1.00  0.00     0.167 HD
ATOM     58  C   UNL A   1      42.354  30.246  35.148  1.00  0.00     0.074 A 
ATOM     59  C   UNL A   1      42.649  30.735  36.480  1.00  0.00     0.031 C 
ATOM     60  C   UNL A   1      43.034  29.245  34.538  1.00  0.00     0.034 A 
BRANCH  47  61
ATOM     61  C   UNL A   1      40.804  27.653  29.001  1.00  0.00     0.023 A 
ATOM     62  C   UNL A   1      39.897  26.580  28.902  1.00  0.00     0.012 A 
ATOM     63  C   UNL A   1      41.729  27.872  27.961  1.00  0.00     0.148 A 
ATOM     64  C   UNL A   1      39.932  25.715  27.810  1.00  0.00     0.002 A 
ATOM     65  C   UNL A   1      41.725  27.038  26.850  1.00  0.00     0.091 A 
ATOM     66  F   UNL A   1      42.600  28.885  28.082  1.00  0.00    -0.205 F 
ATOM     67  C   UNL A   1      40.838  25.952  26.779  1.00  0.00     0.022 A 
BRANCH  65  68
ATOM     68  S   UNL A   1      42.792  27.306  25.432  1.00  0.00     0.127 S 
ATOM     69  O   UNL A   1      44.085  27.539  26.075  1.00  0.00    -0.237 OA
ATOM     70  O   UNL A   1      42.685  26.031  24.721  1.00  0.00    -0.237 OA
ATOM     71  O   UNL A   1      42.236  28.448  24.718  1.00  0.00    -0.744 OA
ENDBRANCH  65  68
ENDBRANCH  47  61
BRANCH  48  72
ATOM     72  C   UNL A   1      39.725  33.767  36.853  1.00  0.00     0.023 A 
ATOM     73  C   UNL A   1      40.202  35.092  36.837  1.00  0.00     0.012 A 
ATOM     74  C   UNL A   1      39.052  33.294  37.997  1.00  0.00     0.148 A 
ATOM     75  C   UNL A   1      40.049  35.918  37.951  1.00  0.00     0.002 A 
ATOM     76  C   UNL A   1      38.854  34.140  39.082  1.00  0.00     0.091 A 
ATOM     77  F   UNL A   1      38.611  32.029  37.996  1.00  0.00    -0.205 F 
ATOM     78  C   UNL A   1      39.367  35.446  39.069  1.00  0.00     0.022 A 
BRANCH  76  79
ATOM     79  S   UNL A   1      37.876  33.659  40.511  1.00  0.00     0.127 S 
ATOM     80  O   UNL A   1      36.672  33.120  39.882  1.00  0.00    -0.237 OA
ATOM     81  O   UNL A   1      38.738  32.663  41.146  1.00  0.00    -0.237 OA
ATOM     82  O   UNL A   1      37.693  34.877  41.289  1.00  0.00    -0.744 OA
ENDBRANCH  76  79
ENDBRANCH  48  72
BRANCH  60  83
ATOM     83  C   UNL A   1      44.215  28.650  35.255  1.00  0.00     0.023 A 
ATOM     84  C   UNL A   1      45.504  29.176  35.051  1.00  0.00     0.012 A 
ATOM     85  C   UNL A   1      44.017  27.649  36.227  1.00  0.00     0.148 A 
ATOM     86  C   UNL A   1      46.585  28.699  35.792  1.00  0.00     0.002 A 
ATOM     87  C   UNL A   1      45.087  27.217  36.997  1.00  0.00     0.091 A 
ATOM     88  F   UNL A   1      42.780  27.155  36.390  1.00  0.00    -0.205 F 
ATOM     89  C   UNL A   1      46.374  27.733  36.774  1.00  0.00     0.022 A 
BRANCH  87  90
ATOM     90  S   UNL A   1      44.891  26.057  38.355  1.00  0.00     0.127 S 
ATOM     91  O   UNL A   1      46.276  25.853  38.775  1.00  0.00    -0.237 OA
ATOM     92  O   UNL A   1      44.074  26.822  39.297  1.00  0.00    -0.237 OA
ATOM     93  O   UNL A   1      44.232  24.886  37.794  1.00  0.00    -0.744 OA
ENDBRANCH  87  90
ENDBRANCH  60  83
ENDBRANCH  34  35
ENDBRANCH  26  29
ENDBRANCH  24  25
ENDBRANCH   1  24
TORSDOF 16
ENDMDL
