MODEL 1
REMARK VINA RESULT:     -10.8      0.000      0.000
REMARK SMILES CN(C(=O)CC(=O)NCCCNC(=O)c1ccc(-c2c3nc(c(-c4cccc(S(=O)(=O)[O-])c4F)c4ccc([nH]4)c(-c4cccc(S(=O)(=O)[O-])c4F)c4nc(c(-c5cccc(S(=O)(=O)[O-])c5F)c5ccc2[nH]5)C=C4)C=C3)cc1)C1CCC(C)(C)CC1
REMARK SMILES IDX 10 1 9 2 8 3 6 4 7 5 5 7 3 8 4 9 2 10 1 11 78 12 79 13 85 14
REMARK SMILES IDX 80 15 84 16 81 17 82 18 83 19 11 20 12 21 13 22 14 24 15 25
REMARK SMILES IDX 16 26 77 27 17 28 76 29 18 30 19 31 20 32 70 33 21 34 75 35
REMARK SMILES IDX 69 36 71 37 22 38 74 39 68 40 67 41 23 43 55 44 35 45 54 46
REMARK SMILES IDX 36 47 39 48 53 49 72 50 37 51 38 52 52 54 73 55 40 56 24 57
REMARK SMILES IDX 25 58 33 59 26 60 28 61 34 62 27 63 29 64 30 65 31 66 32 67
REMARK SMILES IDX 56 68 57 69 65 70 58 71 60 72 66 73 59 74 61 75 62 76 63 77
REMARK SMILES IDX 64 78 41 79 42 80 50 81 43 82 45 83 51 84 44 85 46 86 47 87
REMARK SMILES IDX 48 88 49 89
REMARK H PARENT 8 6 12 23 71 42 39 53
REMARK Flexibility Score: inf
ROOT
ATOM      1  C   UNL A   1      32.679  27.897  25.208  1.00  0.00     0.042 C 
ENDROOT
BRANCH   1   2
ATOM      2  C   UNL A   1      31.743  27.328  24.150  1.00  0.00     0.117 C 
BRANCH   2   3
ATOM      3  N   UNL A   1      32.476  27.020  22.931  1.00  0.00    -0.356 N 
ATOM      4  C   UNL A   1      32.671  25.820  22.318  1.00  0.00     0.229 C 
ATOM      5  O   UNL A   1      33.473  25.778  21.380  1.00  0.00    -0.275 OA
ATOM      6  H   UNL A   1      32.893  27.793  22.485  1.00  0.00     0.163 HD
BRANCH   4   7
ATOM      7  C   UNL A   1      31.861  24.610  22.699  1.00  0.00     0.200 C 
BRANCH   7   8
ATOM      8  C   UNL A   1      32.605  23.425  23.274  1.00  0.00     0.231 C 
ATOM      9  O   UNL A   1      33.117  22.651  22.461  1.00  0.00    -0.274 OA
BRANCH   8  10
ATOM     10  N   UNL A   1      32.735  23.279  24.657  1.00  0.00    -0.342 N 
ATOM     11  C   UNL A   1      31.738  22.532  25.428  1.00  0.00     0.147 C 
BRANCH  10  12
ATOM     12  C   UNL A   1      33.717  24.078  25.473  1.00  0.00     0.084 C 
ATOM     13  C   UNL A   1      34.343  23.261  26.630  1.00  0.00     0.025 C 
ATOM     14  C   UNL A   1      34.893  24.765  24.748  1.00  0.00     0.025 C 
ATOM     15  C   UNL A   1      35.332  22.212  26.119  1.00  0.00     0.008 C 
ATOM     16  C   UNL A   1      35.919  23.773  24.201  1.00  0.00     0.008 C 
ATOM     17  C   UNL A   1      36.481  22.805  25.270  1.00  0.00    -0.035 C 
ATOM     18  C   UNL A   1      37.242  21.646  24.597  1.00  0.00     0.011 C 
ATOM     19  C   UNL A   1      37.492  23.553  26.158  1.00  0.00     0.011 C 
ENDBRANCH  10  12
ENDBRANCH   8  10
ENDBRANCH   7   8
ENDBRANCH   4   7
ENDBRANCH   2   3
ENDBRANCH   1   2
BRANCH   1  20
ATOM     20  C   UNL A   1      33.295  29.253  24.873  1.00  0.00     0.118 C 
BRANCH  20  21
ATOM     21  N   UNL A   1      32.686  30.362  25.581  1.00  0.00    -0.352 N 
ATOM     22  C   UNL A   1      33.066  31.039  26.716  1.00  0.00     0.251 C 
ATOM     23  H   UNL A   1      31.851  30.691  25.175  1.00  0.00     0.163 HD
ATOM     24  O   UNL A   1      32.297  31.895  27.154  1.00  0.00    -0.269 OA
BRANCH  22  25
ATOM     25  C   UNL A   1      34.336  30.764  27.448  1.00  0.00     0.039 A 
ATOM     26  C   UNL A   1      34.503  29.488  28.002  1.00  0.00     0.014 A 
ATOM     27  C   UNL A   1      35.324  31.724  27.680  1.00  0.00     0.014 A 
ATOM     28  C   UNL A   1      35.656  29.169  28.733  1.00  0.00     0.010 A 
ATOM     29  C   UNL A   1      36.516  31.379  28.333  1.00  0.00     0.010 A 
ATOM     30  C   UNL A   1      36.693  30.102  28.883  1.00  0.00    -0.014 A 
BRANCH  30  31
ATOM     31  C   UNL A   1      37.944  29.748  29.621  1.00  0.00     0.031 A 
ATOM     32  C   UNL A   1      38.220  30.307  30.998  1.00  0.00     0.074 A 
ATOM     33  C   UNL A   1      38.862  28.944  29.043  1.00  0.00     0.049 A 
ATOM     34  N   UNL A   1      39.256  30.112  31.775  1.00  0.00    -0.248 NA
ATOM     35  C   UNL A   1      37.212  31.214  31.568  1.00  0.00     0.031 C 
ATOM     36  C   UNL A   1      38.763  28.377  27.698  1.00  0.00     0.029 A 
ATOM     37  N   UNL A   1      40.068  28.476  29.510  1.00  0.00    -0.354 N 
ATOM     38  C   UNL A   1      39.041  30.891  32.908  1.00  0.00     0.074 A 
ATOM     39  C   UNL A   1      37.790  31.590  32.701  1.00  0.00     0.031 C 
ATOM     40  C   UNL A   1      39.851  27.629  27.452  1.00  0.00     0.029 A 
ATOM     41  C   UNL A   1      40.745  27.689  28.605  1.00  0.00     0.049 A 
ATOM     42  H   UNL A   1      40.416  28.684  30.407  1.00  0.00     0.167 HD
ATOM     43  C   UNL A   1      39.792  30.998  34.031  1.00  0.00     0.034 A 
ATOM     44  C   UNL A   1      41.951  27.090  28.684  1.00  0.00     0.034 A 
ATOM     45  C   UNL A   1      41.018  30.279  34.263  1.00  0.00     0.049 A 
ATOM     46  C   UNL A   1      42.759  27.216  29.949  1.00  0.00     0.074 A 
ATOM     47  C   UNL A   1      41.809  30.273  35.399  1.00  0.00     0.029 A 
ATOM     48  N   UNL A   1      41.637  29.447  33.344  1.00  0.00    -0.354 N 
ATOM     49  N   UNL A   1      42.465  27.844  31.060  1.00  0.00    -0.248 NA
ATOM     50  C   UNL A   1      44.054  26.519  29.982  1.00  0.00     0.031 C 
ATOM     51  C   UNL A   1      42.921  29.461  35.156  1.00  0.00     0.029 A 
ATOM     52  C   UNL A   1      42.803  28.930  33.883  1.00  0.00     0.049 A 
ATOM     53  H   UNL A   1      41.297  29.251  32.441  1.00  0.00     0.167 HD
ATOM     54  C   UNL A   1      43.512  27.582  31.936  1.00  0.00     0.074 A 
ATOM     55  C   UNL A   1      44.439  26.721  31.234  1.00  0.00     0.031 C 
ATOM     56  C   UNL A   1      43.695  28.026  33.204  1.00  0.00     0.034 A 
BRANCH  43  57
ATOM     57  C   UNL A   1      39.286  31.893  35.136  1.00  0.00     0.023 A 
ATOM     58  C   UNL A   1      38.375  31.381  36.083  1.00  0.00     0.012 A 
ATOM     59  C   UNL A   1      39.770  33.207  35.286  1.00  0.00     0.148 A 
ATOM     60  C   UNL A   1      37.927  32.173  37.140  1.00  0.00     0.002 A 
ATOM     61  C   UNL A   1      39.354  33.975  36.368  1.00  0.00     0.091 A 
ATOM     62  F   UNL A   1      40.625  33.682  34.369  1.00  0.00    -0.205 F 
ATOM     63  C   UNL A   1      38.424  33.464  37.288  1.00  0.00     0.022 A 
BRANCH  61  64
ATOM     64  S   UNL A   1      39.999  35.620  36.698  1.00  0.00     0.127 S 
ATOM     65  O   UNL A   1      41.442  35.375  36.701  1.00  0.00    -0.237 OA
ATOM     66  O   UNL A   1      39.514  36.377  35.543  1.00  0.00    -0.237 OA
ATOM     67  O   UNL A   1      39.434  36.028  37.975  1.00  0.00    -0.744 OA
ENDBRANCH  61  64
ENDBRANCH  43  57
BRANCH  44  68
ATOM     68  C   UNL A   1      42.458  26.270  27.546  1.00  0.00     0.023 A 
ATOM     69  C   UNL A   1      43.302  26.860  26.584  1.00  0.00     0.012 A 
ATOM     70  C   UNL A   1      42.102  24.915  27.405  1.00  0.00     0.148 A 
ATOM     71  C   UNL A   1      43.747  26.130  25.482  1.00  0.00     0.002 A 
ATOM     72  C   UNL A   1      42.597  24.175  26.338  1.00  0.00     0.091 A 
ATOM     73  F   UNL A   1      41.287  24.373  28.321  1.00  0.00    -0.205 F 
ATOM     74  C   UNL A   1      43.402  24.786  25.363  1.00  0.00     0.022 A 
BRANCH  72  75
ATOM     75  S   UNL A   1      42.308  22.410  26.175  1.00  0.00     0.127 S 
ATOM     76  O   UNL A   1      40.853  22.355  26.055  1.00  0.00    -0.237 OA
ATOM     77  O   UNL A   1      43.040  22.098  24.945  1.00  0.00    -0.237 OA
ATOM     78  O   UNL A   1      42.868  21.808  27.375  1.00  0.00    -0.744 OA
ENDBRANCH  72  75
ENDBRANCH  44  68
BRANCH  56  79
ATOM     79  C   UNL A   1      44.918  27.552  33.948  1.00  0.00     0.023 A 
ATOM     80  C   UNL A   1      46.104  28.313  33.921  1.00  0.00     0.012 A 
ATOM     81  C   UNL A   1      44.871  26.377  34.727  1.00  0.00     0.148 A 
ATOM     82  C   UNL A   1      47.233  27.894  34.625  1.00  0.00     0.002 A 
ATOM     83  C   UNL A   1      45.982  25.994  35.467  1.00  0.00     0.091 A 
ATOM     84  F   UNL A   1      43.741  25.655  34.726  1.00  0.00    -0.205 F 
ATOM     85  C   UNL A   1      47.169  26.743  35.407  1.00  0.00     0.022 A 
BRANCH  83  86
ATOM     86  S   UNL A   1      45.963  24.582  36.578  1.00  0.00     0.127 S 
ATOM     87  O   UNL A   1      47.255  24.713  37.250  1.00  0.00    -0.237 OA
ATOM     88  O   UNL A   1      44.803  24.868  37.423  1.00  0.00    -0.237 OA
ATOM     89  O   UNL A   1      45.818  23.405  35.730  1.00  0.00    -0.744 OA
ENDBRANCH  83  86
ENDBRANCH  56  79
ENDBRANCH  30  31
ENDBRANCH  22  25
ENDBRANCH  20  21
ENDBRANCH   1  20
TORSDOF 16
ENDMDL
MODEL 2
REMARK VINA RESULT:     -10.6      2.385      8.145
REMARK SMILES CN(C(=O)CC(=O)NCCCNC(=O)c1ccc(-c2c3nc(c(-c4cccc(S(=O)(=O)[O-])c4F)c4ccc([nH]4)c(-c4cccc(S(=O)(=O)[O-])c4F)c4nc(c(-c5cccc(S(=O)(=O)[O-])c5F)c5ccc2[nH]5)C=C4)C=C3)cc1)C1CCC(C)(C)CC1
REMARK SMILES IDX 10 1 9 2 8 3 6 4 7 5 5 7 3 8 4 9 2 10 1 11 78 12 79 13 85 14
REMARK SMILES IDX 80 15 84 16 81 17 82 18 83 19 11 20 12 21 13 22 14 24 15 25
REMARK SMILES IDX 16 26 77 27 17 28 76 29 18 30 19 31 20 32 70 33 21 34 75 35
REMARK SMILES IDX 69 36 71 37 22 38 74 39 68 40 67 41 23 43 55 44 35 45 54 46
REMARK SMILES IDX 36 47 39 48 53 49 72 50 37 51 38 52 52 54 73 55 40 56 24 57
REMARK SMILES IDX 25 58 33 59 26 60 28 61 34 62 27 63 29 64 30 65 31 66 32 67
REMARK SMILES IDX 56 68 57 69 65 70 58 71 60 72 66 73 59 74 61 75 62 76 63 77
REMARK SMILES IDX 64 78 41 79 42 80 50 81 43 82 45 83 51 84 44 85 46 86 47 87
REMARK SMILES IDX 48 88 49 89
REMARK H PARENT 8 6 12 23 71 42 39 53
REMARK Flexibility Score: inf
ROOT
ATOM      1  C   UNL A   1      32.781  28.862  23.132  1.00  0.00     0.042 C 
ENDROOT
BRANCH   1   2
ATOM      2  C   UNL A   1      31.277  28.732  22.930  1.00  0.00     0.117 C 
BRANCH   2   3
ATOM      3  N   UNL A   1      30.917  27.349  22.652  1.00  0.00    -0.356 N 
ATOM      4  C   UNL A   1      30.542  26.362  23.512  1.00  0.00     0.229 C 
ATOM      5  O   UNL A   1      30.446  25.216  23.063  1.00  0.00    -0.275 OA
ATOM      6  H   UNL A   1      30.950  27.089  21.703  1.00  0.00     0.163 HD
BRANCH   4   7
ATOM      7  C   UNL A   1      30.156  26.673  24.933  1.00  0.00     0.200 C 
BRANCH   7   8
ATOM      8  C   UNL A   1      31.148  26.321  26.019  1.00  0.00     0.231 C 
ATOM      9  O   UNL A   1      31.456  27.227  26.797  1.00  0.00    -0.274 OA
BRANCH   8  10
ATOM     10  N   UNL A   1      31.623  25.013  26.141  1.00  0.00    -0.342 N 
ATOM     11  C   UNL A   1      30.718  23.918  26.499  1.00  0.00     0.147 C 
BRANCH  10  12
ATOM     12  C   UNL A   1      33.091  24.678  26.183  1.00  0.00     0.084 C 
ATOM     13  C   UNL A   1      33.373  23.177  25.929  1.00  0.00     0.025 C 
ATOM     14  C   UNL A   1      34.053  25.458  25.264  1.00  0.00     0.025 C 
ATOM     15  C   UNL A   1      33.136  22.791  24.467  1.00  0.00     0.008 C 
ATOM     16  C   UNL A   1      33.863  25.128  23.784  1.00  0.00     0.008 C 
ATOM     17  C   UNL A   1      33.973  23.618  23.463  1.00  0.00    -0.035 C 
ATOM     18  C   UNL A   1      33.454  23.332  22.041  1.00  0.00     0.011 C 
ATOM     19  C   UNL A   1      35.452  23.191  23.498  1.00  0.00     0.011 C 
ENDBRANCH  10  12
ENDBRANCH   8  10
ENDBRANCH   7   8
ENDBRANCH   4   7
ENDBRANCH   2   3
ENDBRANCH   1   2
BRANCH   1  20
ATOM     20  C   UNL A   1      33.230  29.064  24.577  1.00  0.00     0.118 C 
BRANCH  20  21
ATOM     21  N   UNL A   1      32.476  30.078  25.287  1.00  0.00    -0.352 N 
ATOM     22  C   UNL A   1      32.730  30.751  26.459  1.00  0.00     0.251 C 
ATOM     23  H   UNL A   1      31.630  30.332  24.850  1.00  0.00     0.163 HD
ATOM     24  O   UNL A   1      31.855  31.507  26.884  1.00  0.00    -0.269 OA
BRANCH  22  25
ATOM     25  C   UNL A   1      33.987  30.585  27.245  1.00  0.00     0.039 A 
ATOM     26  C   UNL A   1      34.307  29.297  27.691  1.00  0.00     0.014 A 
ATOM     27  C   UNL A   1      34.811  31.646  27.625  1.00  0.00     0.014 A 
ATOM     28  C   UNL A   1      35.455  29.071  28.464  1.00  0.00     0.010 A 
ATOM     29  C   UNL A   1      36.006  31.407  28.321  1.00  0.00     0.010 A 
ATOM     30  C   UNL A   1      36.337  30.119  28.765  1.00  0.00    -0.014 A 
BRANCH  30  31
ATOM     31  C   UNL A   1      37.586  29.872  29.548  1.00  0.00     0.031 A 
ATOM     32  C   UNL A   1      38.676  28.974  29.011  1.00  0.00     0.074 A 
ATOM     33  C   UNL A   1      37.737  30.429  30.769  1.00  0.00     0.049 A 
ATOM     34  N   UNL A   1      39.819  28.644  29.560  1.00  0.00    -0.248 NA
ATOM     35  C   UNL A   1      38.448  28.354  27.697  1.00  0.00     0.031 C 
ATOM     36  C   UNL A   1      36.747  31.270  31.444  1.00  0.00     0.029 A 
ATOM     37  N   UNL A   1      38.776  30.360  31.666  1.00  0.00    -0.354 N 
ATOM     38  C   UNL A   1      40.430  27.759  28.678  1.00  0.00     0.074 A 
ATOM     39  C   UNL A   1      39.515  27.575  27.572  1.00  0.00     0.031 C 
ATOM     40  C   UNL A   1      37.229  31.648  32.638  1.00  0.00     0.029 A 
ATOM     41  C   UNL A   1      38.547  31.051  32.835  1.00  0.00     0.049 A 
ATOM     42  H   UNL A   1      39.607  29.862  31.491  1.00  0.00     0.167 HD
ATOM     43  C   UNL A   1      41.649  27.172  28.757  1.00  0.00     0.034 A 
ATOM     44  C   UNL A   1      39.301  31.185  33.945  1.00  0.00     0.034 A 
ATOM     45  C   UNL A   1      42.582  27.376  29.835  1.00  0.00     0.049 A 
ATOM     46  C   UNL A   1      40.657  30.531  34.002  1.00  0.00     0.074 A 
ATOM     47  C   UNL A   1      43.867  26.878  29.965  1.00  0.00     0.029 A 
ATOM     48  N   UNL A   1      42.333  28.131  30.970  1.00  0.00    -0.354 N 
ATOM     49  N   UNL A   1      41.270  29.815  33.092  1.00  0.00    -0.248 NA
ATOM     50  C   UNL A   1      41.442  30.736  35.229  1.00  0.00     0.031 C 
ATOM     51  C   UNL A   1      44.384  27.306  31.192  1.00  0.00     0.029 A 
ATOM     52  C   UNL A   1      43.435  28.104  31.808  1.00  0.00     0.049 A 
ATOM     53  H   UNL A   1      41.496  28.616  31.153  1.00  0.00     0.167 HD
ATOM     54  C   UNL A   1      42.524  29.522  33.616  1.00  0.00     0.074 A 
ATOM     55  C   UNL A   1      42.592  30.155  34.916  1.00  0.00     0.031 C 
ATOM     56  C   UNL A   1      43.523  28.784  33.075  1.00  0.00     0.034 A 
BRANCH  43  57
ATOM     57  C   UNL A   1      42.080  26.283  27.617  1.00  0.00     0.023 A 
ATOM     58  C   UNL A   1      42.884  26.812  26.588  1.00  0.00     0.012 A 
ATOM     59  C   UNL A   1      41.761  24.910  27.606  1.00  0.00     0.148 A 
ATOM     60  C   UNL A   1      43.334  26.002  25.546  1.00  0.00     0.002 A 
ATOM     61  C   UNL A   1      42.252  24.098  26.589  1.00  0.00     0.091 A 
ATOM     62  F   UNL A   1      40.986  24.425  28.585  1.00  0.00    -0.205 F 
ATOM     63  C   UNL A   1      43.027  24.644  25.553  1.00  0.00     0.022 A 
BRANCH  61  64
ATOM     64  S   UNL A   1      41.986  22.321  26.550  1.00  0.00     0.127 S 
ATOM     65  O   UNL A   1      42.542  21.912  27.840  1.00  0.00    -0.237 OA
ATOM     66  O   UNL A   1      40.528  22.231  26.462  1.00  0.00    -0.237 OA
ATOM     67  O   UNL A   1      42.699  21.830  25.381  1.00  0.00    -0.744 OA
ENDBRANCH  61  64
ENDBRANCH  43  57
BRANCH  44  68
ATOM     68  C   UNL A   1      38.816  32.012  35.088  1.00  0.00     0.023 A 
ATOM     69  C   UNL A   1      38.894  33.417  35.012  1.00  0.00     0.012 A 
ATOM     70  C   UNL A   1      38.290  31.417  36.250  1.00  0.00     0.148 A 
ATOM     71  C   UNL A   1      38.498  34.212  36.087  1.00  0.00     0.002 A 
ATOM     72  C   UNL A   1      37.841  32.216  37.295  1.00  0.00     0.091 A 
ATOM     73  F   UNL A   1      38.238  30.079  36.312  1.00  0.00    -0.205 F 
ATOM     74  C   UNL A   1      37.963  33.613  37.225  1.00  0.00     0.022 A 
BRANCH  72  75
ATOM     75  S   UNL A   1      37.024  31.536  38.742  1.00  0.00     0.127 S 
ATOM     76  O   UNL A   1      36.859  30.135  38.362  1.00  0.00    -0.237 OA
ATOM     77  O   UNL A   1      38.019  31.777  39.790  1.00  0.00    -0.237 OA
ATOM     78  O   UNL A   1      35.795  32.300  38.896  1.00  0.00    -0.744 OA
ENDBRANCH  72  75
ENDBRANCH  44  68
BRANCH  56  79
ATOM     79  C   UNL A   1      44.808  28.655  33.856  1.00  0.00     0.023 A 
ATOM     80  C   UNL A   1      44.992  27.579  34.746  1.00  0.00     0.012 A 
ATOM     81  C   UNL A   1      45.859  29.573  33.657  1.00  0.00     0.148 A 
ATOM     82  C   UNL A   1      46.185  27.439  35.454  1.00  0.00     0.002 A 
ATOM     83  C   UNL A   1      47.065  29.398  34.326  1.00  0.00     0.091 A 
ATOM     84  F   UNL A   1      45.660  30.602  32.820  1.00  0.00    -0.205 F 
ATOM     85  C   UNL A   1      47.225  28.340  35.236  1.00  0.00     0.022 A 
BRANCH  83  86
ATOM     86  S   UNL A   1      48.492  30.451  34.037  1.00  0.00     0.127 S 
ATOM     87  O   UNL A   1      49.476  29.877  34.953  1.00  0.00    -0.237 OA
ATOM     88  O   UNL A   1      48.768  30.216  32.620  1.00  0.00    -0.237 OA
ATOM     89  O   UNL A   1      48.062  31.807  34.353  1.00  0.00    -0.744 OA
ENDBRANCH  83  86
ENDBRANCH  56  79
ENDBRANCH  30  31
ENDBRANCH  22  25
ENDBRANCH  20  21
ENDBRANCH   1  20
TORSDOF 16
ENDMDL
MODEL 3
REMARK VINA RESULT:     -10.6      1.695      7.914
REMARK SMILES CN(C(=O)CC(=O)NCCCNC(=O)c1ccc(-c2c3nc(c(-c4cccc(S(=O)(=O)[O-])c4F)c4ccc([nH]4)c(-c4cccc(S(=O)(=O)[O-])c4F)c4nc(c(-c5cccc(S(=O)(=O)[O-])c5F)c5ccc2[nH]5)C=C4)C=C3)cc1)C1CCC(C)(C)CC1
REMARK SMILES IDX 10 1 9 2 8 3 6 4 7 5 5 7 3 8 4 9 2 10 1 11 78 12 79 13 85 14
REMARK SMILES IDX 80 15 84 16 81 17 82 18 83 19 11 20 12 21 13 22 14 24 15 25
REMARK SMILES IDX 16 26 77 27 17 28 76 29 18 30 19 31 20 32 70 33 21 34 75 35
REMARK SMILES IDX 69 36 71 37 22 38 74 39 68 40 67 41 23 43 55 44 35 45 54 46
REMARK SMILES IDX 36 47 39 48 53 49 72 50 37 51 38 52 52 54 73 55 40 56 24 57
REMARK SMILES IDX 25 58 33 59 26 60 28 61 34 62 27 63 29 64 30 65 31 66 32 67
REMARK SMILES IDX 56 68 57 69 65 70 58 71 60 72 66 73 59 74 61 75 62 76 63 77
REMARK SMILES IDX 64 78 41 79 42 80 50 81 43 82 45 83 51 84 44 85 46 86 47 87
REMARK SMILES IDX 48 88 49 89
REMARK H PARENT 8 6 12 23 71 42 39 53
REMARK Flexibility Score: inf
ROOT
ATOM      1  C   UNL A   1      32.664  28.848  23.661  1.00  0.00     0.042 C 
ENDROOT
BRANCH   1   2
ATOM      2  C   UNL A   1      31.594  27.944  23.064  1.00  0.00     0.117 C 
BRANCH   2   3
ATOM      3  N   UNL A   1      32.110  27.245  21.895  1.00  0.00    -0.356 N 
ATOM      4  C   UNL A   1      32.793  26.069  21.821  1.00  0.00     0.229 C 
ATOM      5  O   UNL A   1      33.278  25.755  20.730  1.00  0.00    -0.275 OA
ATOM      6  H   UNL A   1      31.942  27.689  21.032  1.00  0.00     0.163 HD
BRANCH   4   7
ATOM      7  C   UNL A   1      32.863  25.135  22.998  1.00  0.00     0.200 C 
BRANCH   7   8
ATOM      8  C   UNL A   1      31.731  24.146  23.175  1.00  0.00     0.231 C 
ATOM      9  O   UNL A   1      30.587  24.602  23.102  1.00  0.00    -0.274 OA
BRANCH   8  10
ATOM     10  N   UNL A   1      32.005  22.788  23.349  1.00  0.00    -0.342 N 
ATOM     11  C   UNL A   1      32.153  21.900  22.193  1.00  0.00     0.147 C 
BRANCH  10  12
ATOM     12  C   UNL A   1      31.899  22.099  24.684  1.00  0.00     0.084 C 
ATOM     13  C   UNL A   1      32.978  21.005  24.883  1.00  0.00     0.025 C 
ATOM     14  C   UNL A   1      31.918  22.959  25.963  1.00  0.00     0.025 C 
ATOM     15  C   UNL A   1      34.369  21.607  25.093  1.00  0.00     0.008 C 
ATOM     16  C   UNL A   1      33.280  23.602  26.230  1.00  0.00     0.008 C 
ATOM     17  C   UNL A   1      34.447  22.588  26.287  1.00  0.00    -0.035 C 
ATOM     18  C   UNL A   1      35.800  23.323  26.229  1.00  0.00     0.011 C 
ATOM     19  C   UNL A   1      34.403  21.829  27.626  1.00  0.00     0.011 C 
ENDBRANCH  10  12
ENDBRANCH   8  10
ENDBRANCH   7   8
ENDBRANCH   4   7
ENDBRANCH   2   3
ENDBRANCH   1   2
BRANCH   1  20
ATOM     20  C   UNL A   1      32.627  28.986  25.181  1.00  0.00     0.118 C 
BRANCH  20  21
ATOM     21  N   UNL A   1      32.110  30.260  25.639  1.00  0.00    -0.352 N 
ATOM     22  C   UNL A   1      32.554  31.130  26.608  1.00  0.00     0.251 C 
ATOM     23  H   UNL A   1      31.296  30.558  25.172  1.00  0.00     0.163 HD
ATOM     24  O   UNL A   1      31.855  32.114  26.855  1.00  0.00    -0.269 OA
BRANCH  22  25
ATOM     25  C   UNL A   1      33.810  30.922  27.385  1.00  0.00     0.039 A 
ATOM     26  C   UNL A   1      34.204  29.601  27.639  1.00  0.00     0.014 A 
ATOM     27  C   UNL A   1      34.564  31.959  27.936  1.00  0.00     0.014 A 
ATOM     28  C   UNL A   1      35.355  29.329  28.391  1.00  0.00     0.010 A 
ATOM     29  C   UNL A   1      35.764  31.689  28.612  1.00  0.00     0.010 A 
ATOM     30  C   UNL A   1      36.168  30.370  28.863  1.00  0.00    -0.014 A 
BRANCH  30  31
ATOM     31  C   UNL A   1      37.422  30.082  29.625  1.00  0.00     0.031 A 
ATOM     32  C   UNL A   1      38.493  29.185  29.049  1.00  0.00     0.074 A 
ATOM     33  C   UNL A   1      37.594  30.599  30.860  1.00  0.00     0.049 A 
ATOM     34  N   UNL A   1      39.636  28.822  29.575  1.00  0.00    -0.248 NA
ATOM     35  C   UNL A   1      38.242  28.609  27.720  1.00  0.00     0.031 C 
ATOM     36  C   UNL A   1      36.623  31.433  31.572  1.00  0.00     0.029 A 
ATOM     37  N   UNL A   1      38.642  30.488  31.744  1.00  0.00    -0.354 N 
ATOM     38  C   UNL A   1      40.225  27.956  28.660  1.00  0.00     0.074 A 
ATOM     39  C   UNL A   1      39.296  27.819  27.559  1.00  0.00     0.031 C 
ATOM     40  C   UNL A   1      37.123  31.768  32.771  1.00  0.00     0.029 A 
ATOM     41  C   UNL A   1      38.434  31.147  32.936  1.00  0.00     0.049 A 
ATOM     42  H   UNL A   1      39.463  29.985  31.544  1.00  0.00     0.167 HD
ATOM     43  C   UNL A   1      41.437  27.350  28.709  1.00  0.00     0.034 A 
ATOM     44  C   UNL A   1      39.202  31.236  34.041  1.00  0.00     0.034 A 
ATOM     45  C   UNL A   1      42.384  27.508  29.782  1.00  0.00     0.049 A 
ATOM     46  C   UNL A   1      40.549  30.561  34.063  1.00  0.00     0.074 A 
ATOM     47  C   UNL A   1      43.663  26.988  29.882  1.00  0.00     0.029 A 
ATOM     48  N   UNL A   1      42.158  28.231  30.941  1.00  0.00    -0.354 N 
ATOM     49  N   UNL A   1      41.142  29.865  33.125  1.00  0.00    -0.248 NA
ATOM     50  C   UNL A   1      41.350  30.717  35.287  1.00  0.00     0.031 C 
ATOM     51  C   UNL A   1      44.199  27.371  31.116  1.00  0.00     0.029 A 
ATOM     52  C   UNL A   1      43.268  28.163  31.767  1.00  0.00     0.049 A 
ATOM     53  H   UNL A   1      41.330  28.722  31.148  1.00  0.00     0.167 HD
ATOM     54  C   UNL A   1      42.397  29.538  33.627  1.00  0.00     0.074 A 
ATOM     55  C   UNL A   1      42.488  30.131  34.944  1.00  0.00     0.031 C 
ATOM     56  C   UNL A   1      43.380  28.803  33.052  1.00  0.00     0.034 A 
BRANCH  43  57
ATOM     57  C   UNL A   1      41.843  26.490  27.538  1.00  0.00     0.023 A 
ATOM     58  C   UNL A   1      42.526  27.072  26.450  1.00  0.00     0.012 A 
ATOM     59  C   UNL A   1      41.624  25.097  27.548  1.00  0.00     0.148 A 
ATOM     60  C   UNL A   1      42.952  26.292  25.376  1.00  0.00     0.002 A 
ATOM     61  C   UNL A   1      42.094  24.319  26.495  1.00  0.00     0.091 A 
ATOM     62  F   UNL A   1      40.963  24.562  28.583  1.00  0.00    -0.205 F 
ATOM     63  C   UNL A   1      42.746  24.916  25.404  1.00  0.00     0.022 A 
BRANCH  61  64
ATOM     64  S   UNL A   1      41.954  22.527  26.474  1.00  0.00     0.127 S 
ATOM     65  O   UNL A   1      40.503  22.346  26.430  1.00  0.00    -0.237 OA
ATOM     66  O   UNL A   1      42.647  22.181  25.232  1.00  0.00    -0.237 OA
ATOM     67  O   UNL A   1      42.603  22.056  27.687  1.00  0.00    -0.744 OA
ENDBRANCH  61  64
ENDBRANCH  43  57
BRANCH  44  68
ATOM     68  C   UNL A   1      38.741  32.035  35.213  1.00  0.00     0.023 A 
ATOM     69  C   UNL A   1      38.851  33.439  35.184  1.00  0.00     0.012 A 
ATOM     70  C   UNL A   1      38.207  31.413  36.358  1.00  0.00     0.148 A 
ATOM     71  C   UNL A   1      38.477  34.206  36.288  1.00  0.00     0.002 A 
ATOM     72  C   UNL A   1      37.781  32.186  37.432  1.00  0.00     0.091 A 
ATOM     73  F   UNL A   1      38.125  30.075  36.374  1.00  0.00    -0.205 F 
ATOM     74  C   UNL A   1      37.934  33.581  37.408  1.00  0.00     0.022 A 
BRANCH  72  75
ATOM     75  S   UNL A   1      36.955  31.476  38.859  1.00  0.00     0.127 S 
ATOM     76  O   UNL A   1      37.954  31.668  39.909  1.00  0.00    -0.237 OA
ATOM     77  O   UNL A   1      35.768  32.326  38.974  1.00  0.00    -0.237 OA
ATOM     78  O   UNL A   1      36.671  30.094  38.502  1.00  0.00    -0.744 OA
ENDBRANCH  72  75
ENDBRANCH  44  68
BRANCH  56  79
ATOM     79  C   UNL A   1      44.670  28.633  33.814  1.00  0.00     0.023 A 
ATOM     80  C   UNL A   1      45.723  29.552  33.640  1.00  0.00     0.012 A 
ATOM     81  C   UNL A   1      44.813  27.591  34.754  1.00  0.00     0.148 A 
ATOM     82  C   UNL A   1      46.911  29.417  34.359  1.00  0.00     0.002 A 
ATOM     83  C   UNL A   1      45.978  27.493  35.505  1.00  0.00     0.091 A 
ATOM     84  F   UNL A   1      43.808  26.714  34.894  1.00  0.00    -0.205 F 
ATOM     85  C   UNL A   1      47.034  28.396  35.298  1.00  0.00     0.022 A 
BRANCH  83  86
ATOM     86  S   UNL A   1      46.189  26.272  36.806  1.00  0.00     0.127 S 
ATOM     87  O   UNL A   1      45.030  26.538  37.656  1.00  0.00    -0.237 OA
ATOM     88  O   UNL A   1      46.125  25.014  36.062  1.00  0.00    -0.237 OA
ATOM     89  O   UNL A   1      47.485  26.551  37.413  1.00  0.00    -0.744 OA
ENDBRANCH  83  86
ENDBRANCH  56  79
ENDBRANCH  30  31
ENDBRANCH  22  25
ENDBRANCH  20  21
ENDBRANCH   1  20
TORSDOF 16
ENDMDL
