MODEL 1
REMARK VINA RESULT:     -11.6      0.000      0.000
REMARK SMILES O=C(NCCCNC(=O)[C@@H]1CSCN1C(=O)CN1C(=O)CNC1=O)c1ccc(-c2c3nc(c(-c4cccc(S(=O)(=O)[O-])c4F)c4ccc([nH]4)c(-c4cccc(S(=O)(=O)[O-])c4F)c4nc(c(-c5cccc(S(=O)(=O)[O-])c5F)c5ccc2[nH]5)C=C4)C=C3)cc1
REMARK SMILES IDX 5 1 4 2 3 3 1 4 2 5 25 7 26 8 87 9 27 10 86 11 28 12 29 13
REMARK SMILES IDX 30 14 80 15 31 16 85 17 79 18 81 19 32 20 84 21 78 22 77 23
REMARK SMILES IDX 33 25 65 26 45 27 64 28 46 29 49 30 63 31 82 32 47 33 48 34
REMARK SMILES IDX 62 36 83 37 50 38 34 39 35 40 43 41 36 42 38 43 44 44 37 45
REMARK SMILES IDX 39 46 40 47 41 48 42 49 66 50 67 51 75 52 68 53 70 54 76 55
REMARK SMILES IDX 69 56 71 57 72 58 73 59 74 60 51 61 52 62 60 63 53 64 55 65
REMARK SMILES IDX 61 66 54 67 56 68 57 69 58 70 59 71 6 72 7 73 8 74 9 76
REMARK SMILES IDX 10 77 11 78 14 79 12 80 13 81 15 82 16 83 17 84 18 85 19 86
REMARK SMILES IDX 23 87 20 88 21 89 22 90 24 91
REMARK H PARENT 3 6 81 24 49 35 7 75 22 92
REMARK Flexibility Score: inf
ROOT
ATOM      1  C   UNL A   1      34.523  21.728  26.805  1.00  0.00     0.042 C 
ENDROOT
BRANCH   1   2
ATOM      2  C   UNL A   1      35.728  22.177  25.980  1.00  0.00     0.118 C 
BRANCH   2   3
ATOM      3  N   UNL A   1      36.681  21.104  25.758  1.00  0.00    -0.352 N 
ATOM      4  O   UNL A   1      38.675  20.173  25.306  1.00  0.00    -0.269 OA
ATOM      5  C   UNL A   1      38.054  21.150  25.715  1.00  0.00     0.251 C 
ATOM      6  H   UNL A   1      36.286  20.213  25.615  1.00  0.00     0.163 HD
BRANCH   5   7
ATOM      7  C   UNL A   1      38.775  22.372  26.140  1.00  0.00     0.039 A 
ATOM      8  C   UNL A   1      38.296  23.642  25.807  1.00  0.00     0.014 A 
ATOM      9  C   UNL A   1      39.932  22.245  26.914  1.00  0.00     0.014 A 
ATOM     10  C   UNL A   1      39.040  24.772  26.131  1.00  0.00     0.010 A 
ATOM     11  C   UNL A   1      40.635  23.388  27.310  1.00  0.00     0.010 A 
ATOM     12  C   UNL A   1      40.211  24.660  26.900  1.00  0.00    -0.014 A 
BRANCH  12  13
ATOM     13  C   UNL A   1      40.926  25.890  27.329  1.00  0.00     0.031 A 
ATOM     14  C   UNL A   1      42.353  26.148  26.930  1.00  0.00     0.074 A 
ATOM     15  C   UNL A   1      40.270  26.783  28.098  1.00  0.00     0.049 A 
ATOM     16  N   UNL A   1      43.108  27.181  27.203  1.00  0.00    -0.248 NA
ATOM     17  C   UNL A   1      43.025  25.112  26.127  1.00  0.00     0.031 C 
ATOM     18  C   UNL A   1      38.899  26.620  28.590  1.00  0.00     0.029 A 
ATOM     19  N   UNL A   1      40.661  27.996  28.605  1.00  0.00    -0.354 N 
ATOM     20  C   UNL A   1      44.349  26.909  26.639  1.00  0.00     0.074 A 
ATOM     21  C   UNL A   1      44.251  25.607  26.016  1.00  0.00     0.031 C 
ATOM     22  C   UNL A   1      38.556  27.700  29.305  1.00  0.00     0.029 A 
ATOM     23  C   UNL A   1      39.695  28.609  29.366  1.00  0.00     0.049 A 
ATOM     24  H   UNL A   1      41.548  28.388  28.439  1.00  0.00     0.167 HD
ATOM     25  C   UNL A   1      45.463  27.681  26.630  1.00  0.00     0.034 A 
ATOM     26  C   UNL A   1      39.722  29.767  30.053  1.00  0.00     0.034 A 
ATOM     27  C   UNL A   1      45.546  28.990  27.226  1.00  0.00     0.049 A 
ATOM     28  C   UNL A   1      40.965  30.609  30.008  1.00  0.00     0.074 A 
ATOM     29  C   UNL A   1      46.610  29.876  27.212  1.00  0.00     0.029 A 
ATOM     30  N   UNL A   1      44.532  29.598  27.951  1.00  0.00    -0.354 N 
ATOM     31  N   UNL A   1      42.082  30.394  29.357  1.00  0.00    -0.248 NA
ATOM     32  C   UNL A   1      40.942  31.866  30.769  1.00  0.00     0.031 C 
ATOM     33  C   UNL A   1      46.246  31.009  27.947  1.00  0.00     0.029 A 
ATOM     34  C   UNL A   1      44.947  30.841  28.399  1.00  0.00     0.049 A 
ATOM     35  H   UNL A   1      43.647  29.203  28.123  1.00  0.00     0.167 HD
ATOM     36  C   UNL A   1      42.885  31.499  29.607  1.00  0.00     0.074 A 
ATOM     37  C   UNL A   1      42.115  32.394  30.448  1.00  0.00     0.031 C 
ATOM     38  C   UNL A   1      44.153  31.743  29.194  1.00  0.00     0.034 A 
BRANCH  25  39
ATOM     39  C   UNL A   1      46.682  27.154  25.915  1.00  0.00     0.023 A 
ATOM     40  C   UNL A   1      47.466  26.155  26.526  1.00  0.00     0.012 A 
ATOM     41  C   UNL A   1      47.006  27.587  24.614  1.00  0.00     0.148 A 
ATOM     42  C   UNL A   1      48.569  25.614  25.865  1.00  0.00     0.002 A 
ATOM     43  C   UNL A   1      48.083  27.014  23.946  1.00  0.00     0.091 A 
ATOM     44  F   UNL A   1      46.259  28.551  24.056  1.00  0.00    -0.205 F 
ATOM     45  C   UNL A   1      48.871  26.035  24.573  1.00  0.00     0.022 A 
BRANCH  43  46
ATOM     46  S   UNL A   1      48.507  27.436  22.251  1.00  0.00     0.127 S 
ATOM     47  O   UNL A   1      49.712  28.242  22.441  1.00  0.00    -0.237 OA
ATOM     48  O   UNL A   1      48.744  26.120  21.655  1.00  0.00    -0.237 OA
ATOM     49  O   UNL A   1      47.355  28.146  21.714  1.00  0.00    -0.744 OA
ENDBRANCH  43  46
ENDBRANCH  25  39
BRANCH  26  50
ATOM     50  C   UNL A   1      38.512  30.214  30.798  1.00  0.00     0.023 A 
ATOM     51  C   UNL A   1      38.367  29.867  32.155  1.00  0.00     0.012 A 
ATOM     52  C   UNL A   1      37.533  31.019  30.186  1.00  0.00     0.148 A 
ATOM     53  C   UNL A   1      37.257  30.295  32.883  1.00  0.00     0.002 A 
ATOM     54  C   UNL A   1      36.460  31.491  30.932  1.00  0.00     0.091 A 
ATOM     55  F   UNL A   1      37.681  31.325  28.889  1.00  0.00    -0.205 F 
ATOM     56  C   UNL A   1      36.311  31.116  32.275  1.00  0.00     0.022 A 
BRANCH  54  57
ATOM     57  S   UNL A   1      35.276  32.668  30.268  1.00  0.00     0.127 S 
ATOM     58  O   UNL A   1      36.143  33.779  29.886  1.00  0.00    -0.237 OA
ATOM     59  O   UNL A   1      34.702  31.920  29.148  1.00  0.00    -0.237 OA
ATOM     60  O   UNL A   1      34.340  32.934  31.352  1.00  0.00    -0.744 OA
ENDBRANCH  54  57
ENDBRANCH  26  50
BRANCH  38  61
ATOM     61  C   UNL A   1      44.783  33.042  29.621  1.00  0.00     0.023 A 
ATOM     62  C   UNL A   1      45.568  33.088  30.791  1.00  0.00     0.012 A 
ATOM     63  C   UNL A   1      44.650  34.201  28.831  1.00  0.00     0.148 A 
ATOM     64  C   UNL A   1      46.182  34.275  31.185  1.00  0.00     0.002 A 
ATOM     65  C   UNL A   1      45.304  35.368  29.205  1.00  0.00     0.091 A 
ATOM     66  F   UNL A   1      43.882  34.142  27.733  1.00  0.00    -0.205 F 
ATOM     67  C   UNL A   1      46.060  35.411  30.388  1.00  0.00     0.022 A 
BRANCH  65  68
ATOM     68  S   UNL A   1      45.278  36.851  28.191  1.00  0.00     0.127 S 
ATOM     69  O   UNL A   1      43.884  37.274  28.318  1.00  0.00    -0.237 OA
ATOM     70  O   UNL A   1      46.242  37.714  28.877  1.00  0.00    -0.237 OA
ATOM     71  O   UNL A   1      45.687  36.431  26.858  1.00  0.00    -0.744 OA
ENDBRANCH  65  68
ENDBRANCH  38  61
ENDBRANCH  12  13
ENDBRANCH   5   7
ENDBRANCH   2   3
ENDBRANCH   1   2
BRANCH   1  72
ATOM     72  C   UNL A   1      33.553  22.856  27.164  1.00  0.00     0.117 C 
BRANCH  72  73
ATOM     73  N   UNL A   1      32.188  22.483  26.842  1.00  0.00    -0.354 N 
ATOM     74  C   UNL A   1      31.128  23.243  26.448  1.00  0.00     0.243 C 
ATOM     75  H   UNL A   1      31.995  21.521  26.924  1.00  0.00     0.163 HD
ATOM     76  O   UNL A   1      30.006  22.776  26.660  1.00  0.00    -0.273 OA
BRANCH  74  77
ATOM     77  C   UNL A   1      31.335  24.608  25.749  1.00  0.00     0.185 C 
ATOM     78  C   UNL A   1      30.145  25.542  25.959  1.00  0.00     0.106 C 
ATOM     79  N   UNL A   1      31.513  24.353  24.305  1.00  0.00    -0.319 N 
ATOM     80  S   UNL A   1      29.574  26.069  24.329  1.00  0.00    -0.138 SA
ATOM     81  C   UNL A   1      30.375  24.695  23.492  1.00  0.00     0.190 C 
BRANCH  79  82
ATOM     82  C   UNL A   1      32.690  23.790  23.854  1.00  0.00     0.244 C 
ATOM     83  O   UNL A   1      32.783  22.562  23.736  1.00  0.00    -0.273 OA
BRANCH  82  84
ATOM     84  C   UNL A   1      33.940  24.662  23.656  1.00  0.00     0.230 C 
BRANCH  84  85
ATOM     85  N   UNL A   1      33.679  26.081  23.518  1.00  0.00    -0.253 N 
ATOM     86  C   UNL A   1      33.516  26.719  22.318  1.00  0.00     0.250 C 
ATOM     87  C   UNL A   1      33.780  26.995  24.520  1.00  0.00     0.325 C 
ATOM     88  O   UNL A   1      33.566  26.211  21.209  1.00  0.00    -0.272 OA
ATOM     89  C   UNL A   1      33.285  28.198  22.588  1.00  0.00     0.218 C 
ATOM     90  N   UNL A   1      33.535  28.244  24.002  1.00  0.00    -0.329 N 
ATOM     91  O   UNL A   1      34.058  26.784  25.688  1.00  0.00    -0.248 OA
ATOM     92  H   UNL A   1      33.530  29.071  24.535  1.00  0.00     0.165 HD
ENDBRANCH  84  85
ENDBRANCH  82  84
ENDBRANCH  79  82
ENDBRANCH  74  77
ENDBRANCH  72  73
ENDBRANCH   1  72
TORSDOF 16
ENDMDL
MODEL 2
REMARK VINA RESULT:     -11.5      1.294      2.508
REMARK SMILES O=C(NCCCNC(=O)[C@@H]1CSCN1C(=O)CN1C(=O)CNC1=O)c1ccc(-c2c3nc(c(-c4cccc(S(=O)(=O)[O-])c4F)c4ccc([nH]4)c(-c4cccc(S(=O)(=O)[O-])c4F)c4nc(c(-c5cccc(S(=O)(=O)[O-])c5F)c5ccc2[nH]5)C=C4)C=C3)cc1
REMARK SMILES IDX 5 1 4 2 3 3 1 4 2 5 25 7 26 8 87 9 27 10 86 11 28 12 29 13
REMARK SMILES IDX 30 14 80 15 31 16 85 17 79 18 81 19 32 20 84 21 78 22 77 23
REMARK SMILES IDX 33 25 65 26 45 27 64 28 46 29 49 30 63 31 82 32 47 33 48 34
REMARK SMILES IDX 62 36 83 37 50 38 34 39 35 40 43 41 36 42 38 43 44 44 37 45
REMARK SMILES IDX 39 46 40 47 41 48 42 49 66 50 67 51 75 52 68 53 70 54 76 55
REMARK SMILES IDX 69 56 71 57 72 58 73 59 74 60 51 61 52 62 60 63 53 64 55 65
REMARK SMILES IDX 61 66 54 67 56 68 57 69 58 70 59 71 6 72 7 73 8 74 9 76
REMARK SMILES IDX 10 77 11 78 14 79 12 80 13 81 15 82 16 83 17 84 18 85 19 86
REMARK SMILES IDX 23 87 20 88 21 89 22 90 24 91
REMARK H PARENT 3 6 81 24 49 35 7 75 22 92
REMARK Flexibility Score: inf
ROOT
ATOM      1  C   UNL A   1      36.932  22.040  24.125  1.00  0.00     0.042 C 
ENDROOT
BRANCH   1   2
ATOM      2  C   UNL A   1      37.264  22.078  25.616  1.00  0.00     0.118 C 
BRANCH   2   3
ATOM      3  N   UNL A   1      38.203  21.039  26.004  1.00  0.00    -0.352 N 
ATOM      4  O   UNL A   1      40.198  20.150  26.527  1.00  0.00    -0.269 OA
ATOM      5  C   UNL A   1      39.498  21.155  26.450  1.00  0.00     0.251 C 
ATOM      6  H   UNL A   1      37.863  20.118  25.936  1.00  0.00     0.163 HD
BRANCH   5   7
ATOM      7  C   UNL A   1      40.048  22.481  26.814  1.00  0.00     0.039 A 
ATOM      8  C   UNL A   1      39.628  23.640  26.156  1.00  0.00     0.014 A 
ATOM      9  C   UNL A   1      40.976  22.570  27.856  1.00  0.00     0.014 A 
ATOM     10  C   UNL A   1      40.229  24.860  26.446  1.00  0.00     0.010 A 
ATOM     11  C   UNL A   1      41.518  23.811  28.203  1.00  0.00     0.010 A 
ATOM     12  C   UNL A   1      41.170  24.964  27.483  1.00  0.00    -0.014 A 
BRANCH  12  13
ATOM     13  C   UNL A   1      41.714  26.298  27.849  1.00  0.00     0.031 A 
ATOM     14  C   UNL A   1      43.121  26.696  27.497  1.00  0.00     0.074 A 
ATOM     15  C   UNL A   1      40.918  27.158  28.518  1.00  0.00     0.049 A 
ATOM     16  N   UNL A   1      43.734  27.829  27.724  1.00  0.00    -0.248 NA
ATOM     17  C   UNL A   1      43.950  25.694  26.807  1.00  0.00     0.031 C 
ATOM     18  C   UNL A   1      39.550  26.867  28.958  1.00  0.00     0.029 A 
ATOM     19  N   UNL A   1      41.137  28.441  28.947  1.00  0.00    -0.354 N 
ATOM     20  C   UNL A   1      45.028  27.669  27.240  1.00  0.00     0.074 A 
ATOM     21  C   UNL A   1      45.115  26.323  26.714  1.00  0.00     0.031 C 
ATOM     22  C   UNL A   1      39.046  27.946  29.572  1.00  0.00     0.029 A 
ATOM     23  C   UNL A   1      40.067  28.987  29.615  1.00  0.00     0.049 A 
ATOM     24  H   UNL A   1      41.980  28.925  28.793  1.00  0.00     0.167 HD
ATOM     25  C   UNL A   1      46.043  28.566  27.221  1.00  0.00     0.034 A 
ATOM     26  C   UNL A   1      39.922  30.186  30.211  1.00  0.00     0.034 A 
ATOM     27  C   UNL A   1      45.941  29.914  27.719  1.00  0.00     0.049 A 
ATOM     28  C   UNL A   1      41.060  31.165  30.159  1.00  0.00     0.074 A 
ATOM     29  C   UNL A   1      46.894  30.918  27.685  1.00  0.00     0.029 A 
ATOM     30  N   UNL A   1      44.826  30.446  28.348  1.00  0.00    -0.354 N 
ATOM     31  N   UNL A   1      42.227  31.040  29.578  1.00  0.00    -0.248 NA
ATOM     32  C   UNL A   1      40.849  32.460  30.819  1.00  0.00     0.031 C 
ATOM     33  C   UNL A   1      46.362  32.049  28.314  1.00  0.00     0.029 A 
ATOM     34  C   UNL A   1      45.069  31.758  28.719  1.00  0.00     0.049 A 
ATOM     35  H   UNL A   1      43.985  29.961  28.510  1.00  0.00     0.167 HD
ATOM     36  C   UNL A   1      42.882  32.248  29.778  1.00  0.00     0.074 A 
ATOM     37  C   UNL A   1      41.969  33.101  30.512  1.00  0.00     0.031 C 
ATOM     38  C   UNL A   1      44.134  32.612  29.406  1.00  0.00     0.034 A 
BRANCH  25  39
ATOM     39  C   UNL A   1      47.352  28.140  26.605  1.00  0.00     0.023 A 
ATOM     40  C   UNL A   1      48.430  27.787  27.441  1.00  0.00     0.012 A 
ATOM     41  C   UNL A   1      47.490  28.012  25.209  1.00  0.00     0.148 A 
ATOM     42  C   UNL A   1      49.635  27.340  26.898  1.00  0.00     0.002 A 
ATOM     43  C   UNL A   1      48.681  27.528  24.677  1.00  0.00     0.091 A 
ATOM     44  F   UNL A   1      46.460  28.369  24.429  1.00  0.00    -0.205 F 
ATOM     45  C   UNL A   1      49.756  27.201  25.519  1.00  0.00     0.022 A 
BRANCH  43  46
ATOM     46  S   UNL A   1      48.909  27.242  22.917  1.00  0.00     0.127 S 
ATOM     47  O   UNL A   1      50.367  27.210  22.811  1.00  0.00    -0.237 OA
ATOM     48  O   UNL A   1      48.257  25.946  22.727  1.00  0.00    -0.237 OA
ATOM     49  O   UNL A   1      48.256  28.355  22.242  1.00  0.00    -0.744 OA
ENDBRANCH  43  46
ENDBRANCH  25  39
BRANCH  26  50
ATOM     50  C   UNL A   1      38.630  30.536  30.865  1.00  0.00     0.023 A 
ATOM     51  C   UNL A   1      38.456  30.277  32.238  1.00  0.00     0.012 A 
ATOM     52  C   UNL A   1      37.596  31.166  30.147  1.00  0.00     0.148 A 
ATOM     53  C   UNL A   1      37.266  30.620  32.879  1.00  0.00     0.002 A 
ATOM     54  C   UNL A   1      36.436  31.557  30.805  1.00  0.00     0.091 A 
ATOM     55  F   UNL A   1      37.775  31.388  28.838  1.00  0.00    -0.205 F 
ATOM     56  C   UNL A   1      36.262  31.270  32.167  1.00  0.00     0.022 A 
BRANCH  54  57
ATOM     57  S   UNL A   1      35.158  32.526  29.997  1.00  0.00     0.127 S 
ATOM     58  O   UNL A   1      34.210  32.739  31.088  1.00  0.00    -0.237 OA
ATOM     59  O   UNL A   1      35.898  33.719  29.582  1.00  0.00    -0.237 OA
ATOM     60  O   UNL A   1      34.684  31.703  28.893  1.00  0.00    -0.744 OA
ENDBRANCH  54  57
ENDBRANCH  26  50
BRANCH  38  61
ATOM     61  C   UNL A   1      44.585  34.004  29.760  1.00  0.00     0.023 A 
ATOM     62  C   UNL A   1      45.260  34.233  30.976  1.00  0.00     0.012 A 
ATOM     63  C   UNL A   1      44.396  35.074  28.862  1.00  0.00     0.148 A 
ATOM     64  C   UNL A   1      45.709  35.509  31.307  1.00  0.00     0.002 A 
ATOM     65  C   UNL A   1      44.888  36.333  29.178  1.00  0.00     0.091 A 
ATOM     66  F   UNL A   1      43.732  34.840  27.720  1.00  0.00    -0.205 F 
ATOM     67  C   UNL A   1      45.535  36.556  30.404  1.00  0.00     0.022 A 
BRANCH  65  68
ATOM     68  S   UNL A   1      44.790  37.717  28.036  1.00  0.00     0.127 S 
ATOM     69  O   UNL A   1      45.664  37.271  26.952  1.00  0.00    -0.237 OA
ATOM     70  O   UNL A   1      43.365  37.742  27.700  1.00  0.00    -0.237 OA
ATOM     71  O   UNL A   1      45.255  38.881  28.777  1.00  0.00    -0.744 OA
ENDBRANCH  65  68
ENDBRANCH  38  61
ENDBRANCH  12  13
ENDBRANCH   5   7
ENDBRANCH   2   3
ENDBRANCH   1   2
BRANCH   1  72
ATOM     72  C   UNL A   1      36.249  23.306  23.602  1.00  0.00     0.117 C 
BRANCH  72  73
ATOM     73  N   UNL A   1      35.438  23.917  24.639  1.00  0.00    -0.354 N 
ATOM     74  C   UNL A   1      34.424  24.824  24.553  1.00  0.00     0.243 C 
ATOM     75  H   UNL A   1      35.656  23.631  25.554  1.00  0.00     0.163 HD
ATOM     76  O   UNL A   1      34.202  25.498  25.563  1.00  0.00    -0.273 OA
BRANCH  74  77
ATOM     77  C   UNL A   1      33.586  24.973  23.261  1.00  0.00     0.185 C 
ATOM     78  C   UNL A   1      33.385  26.437  22.877  1.00  0.00     0.106 C 
ATOM     79  N   UNL A   1      32.272  24.341  23.501  1.00  0.00    -0.319 N 
ATOM     80  S   UNL A   1      31.609  26.717  22.715  1.00  0.00    -0.138 SA
ATOM     81  C   UNL A   1      31.188  25.269  23.692  1.00  0.00     0.190 C 
BRANCH  79  82
ATOM     82  C   UNL A   1      32.181  22.965  23.564  1.00  0.00     0.244 C 
ATOM     83  O   UNL A   1      32.465  22.280  22.574  1.00  0.00    -0.273 OA
BRANCH  82  84
ATOM     84  C   UNL A   1      31.571  22.285  24.801  1.00  0.00     0.230 C 
BRANCH  84  85
ATOM     85  N   UNL A   1      32.439  22.238  25.961  1.00  0.00    -0.253 N 
ATOM     86  C   UNL A   1      33.453  21.334  26.126  1.00  0.00     0.250 C 
ATOM     87  C   UNL A   1      32.231  22.919  27.119  1.00  0.00     0.325 C 
ATOM     88  O   UNL A   1      33.777  20.451  25.348  1.00  0.00    -0.272 OA
ATOM     89  C   UNL A   1      34.111  21.592  27.472  1.00  0.00     0.218 C 
ATOM     90  N   UNL A   1      33.211  22.570  28.017  1.00  0.00    -0.329 N 
ATOM     91  O   UNL A   1      31.328  23.701  27.366  1.00  0.00    -0.248 OA
ATOM     92  H   UNL A   1      33.288  22.945  28.923  1.00  0.00     0.165 HD
ENDBRANCH  84  85
ENDBRANCH  82  84
ENDBRANCH  79  82
ENDBRANCH  74  77
ENDBRANCH  72  73
ENDBRANCH   1  72
TORSDOF 16
ENDMDL
MODEL 3
REMARK VINA RESULT:     -11.5      5.215      9.929
REMARK SMILES O=C(NCCCNC(=O)[C@@H]1CSCN1C(=O)CN1C(=O)CNC1=O)c1ccc(-c2c3nc(c(-c4cccc(S(=O)(=O)[O-])c4F)c4ccc([nH]4)c(-c4cccc(S(=O)(=O)[O-])c4F)c4nc(c(-c5cccc(S(=O)(=O)[O-])c5F)c5ccc2[nH]5)C=C4)C=C3)cc1
REMARK SMILES IDX 5 1 4 2 3 3 1 4 2 5 25 7 26 8 87 9 27 10 86 11 28 12 29 13
REMARK SMILES IDX 30 14 80 15 31 16 85 17 79 18 81 19 32 20 84 21 78 22 77 23
REMARK SMILES IDX 33 25 65 26 45 27 64 28 46 29 49 30 63 31 82 32 47 33 48 34
REMARK SMILES IDX 62 36 83 37 50 38 34 39 35 40 43 41 36 42 38 43 44 44 37 45
REMARK SMILES IDX 39 46 40 47 41 48 42 49 66 50 67 51 75 52 68 53 70 54 76 55
REMARK SMILES IDX 69 56 71 57 72 58 73 59 74 60 51 61 52 62 60 63 53 64 55 65
REMARK SMILES IDX 61 66 54 67 56 68 57 69 58 70 59 71 6 72 7 73 8 74 9 76
REMARK SMILES IDX 10 77 11 78 14 79 12 80 13 81 15 82 16 83 17 84 18 85 19 86
REMARK SMILES IDX 23 87 20 88 21 89 22 90 24 91
REMARK H PARENT 3 6 81 24 49 35 7 75 22 92
REMARK Flexibility Score: inf
ROOT
ATOM      1  C   UNL A   1      31.846  28.956  27.181  1.00  0.00     0.042 C 
ENDROOT
BRANCH   1   2
ATOM      2  C   UNL A   1      32.812  29.746  26.299  1.00  0.00     0.118 C 
BRANCH   2   3
ATOM      3  N   UNL A   1      32.683  31.182  26.482  1.00  0.00    -0.352 N 
ATOM      4  O   UNL A   1      33.009  33.177  27.462  1.00  0.00    -0.269 OA
ATOM      5  C   UNL A   1      33.406  32.028  27.288  1.00  0.00     0.251 C 
ATOM      6  H   UNL A   1      31.974  31.611  25.951  1.00  0.00     0.163 HD
BRANCH   5   7
ATOM      7  C   UNL A   1      34.640  31.553  27.956  1.00  0.00     0.039 A 
ATOM      8  C   UNL A   1      34.721  30.261  28.482  1.00  0.00     0.014 A 
ATOM      9  C   UNL A   1      35.746  32.404  28.027  1.00  0.00     0.014 A 
ATOM     10  C   UNL A   1      35.852  29.869  29.191  1.00  0.00     0.010 A 
ATOM     11  C   UNL A   1      36.914  31.978  28.668  1.00  0.00     0.010 A 
ATOM     12  C   UNL A   1      36.968  30.717  29.280  1.00  0.00    -0.014 A 
BRANCH  12  13
ATOM     13  C   UNL A   1      38.205  30.232  29.945  1.00  0.00     0.031 A 
ATOM     14  C   UNL A   1      38.580  30.682  31.330  1.00  0.00     0.074 A 
ATOM     15  C   UNL A   1      39.003  29.374  29.277  1.00  0.00     0.049 A 
ATOM     16  N   UNL A   1      39.611  30.334  32.056  1.00  0.00    -0.248 NA
ATOM     17  C   UNL A   1      37.689  31.654  31.986  1.00  0.00     0.031 C 
ATOM     18  C   UNL A   1      38.770  28.903  27.909  1.00  0.00     0.029 A 
ATOM     19  N   UNL A   1      40.167  28.750  29.648  1.00  0.00    -0.354 N 
ATOM     20  C   UNL A   1      39.516  31.064  33.235  1.00  0.00     0.074 A 
ATOM     21  C   UNL A   1      38.329  31.886  33.125  1.00  0.00     0.031 C 
ATOM     22  C   UNL A   1      39.743  28.047  27.566  1.00  0.00     0.029 A 
ATOM     23  C   UNL A   1      40.696  27.947  28.666  1.00  0.00     0.049 A 
ATOM     24  H   UNL A   1      40.583  28.866  30.532  1.00  0.00     0.167 HD
ATOM     25  C   UNL A   1      40.334  31.041  34.316  1.00  0.00     0.034 A 
ATOM     26  C   UNL A   1      41.829  27.220  28.641  1.00  0.00     0.034 A 
ATOM     27  C   UNL A   1      41.497  30.199  34.432  1.00  0.00     0.049 A 
ATOM     28  C   UNL A   1      42.706  27.200  29.861  1.00  0.00     0.074 A 
ATOM     29  C   UNL A   1      42.351  30.056  35.512  1.00  0.00     0.029 A 
ATOM     30  N   UNL A   1      41.977  29.365  33.433  1.00  0.00    -0.354 N 
ATOM     31  N   UNL A   1      42.525  27.795  31.014  1.00  0.00    -0.248 NA
ATOM     32  C   UNL A   1      43.927  26.388  29.785  1.00  0.00     0.031 C 
ATOM     33  C   UNL A   1      43.359  29.153  35.158  1.00  0.00     0.029 A 
ATOM     34  C   UNL A   1      43.120  28.714  33.865  1.00  0.00     0.049 A 
ATOM     35  H   UNL A   1      41.565  29.253  32.546  1.00  0.00     0.167 HD
ATOM     36  C   UNL A   1      43.594  27.409  31.812  1.00  0.00     0.074 A 
ATOM     37  C   UNL A   1      44.404  26.508  31.017  1.00  0.00     0.031 C 
ATOM     38  C   UNL A   1      43.890  27.782  33.081  1.00  0.00     0.034 A 
BRANCH  25  39
ATOM     39  C   UNL A   1      39.982  31.922  35.487  1.00  0.00     0.023 A 
ATOM     40  C   UNL A   1      40.536  33.215  35.573  1.00  0.00     0.012 A 
ATOM     41  C   UNL A   1      39.048  31.506  36.456  1.00  0.00     0.148 A 
ATOM     42  C   UNL A   1      40.188  34.070  36.619  1.00  0.00     0.002 A 
ATOM     43  C   UNL A   1      38.675  32.378  37.473  1.00  0.00     0.091 A 
ATOM     44  F   UNL A   1      38.545  30.266  36.368  1.00  0.00    -0.205 F 
ATOM     45  C   UNL A   1      39.252  33.656  37.562  1.00  0.00     0.022 A 
BRANCH  43  46
ATOM     46  S   UNL A   1      37.421  31.965  38.692  1.00  0.00     0.127 S 
ATOM     47  O   UNL A   1      38.122  32.249  39.943  1.00  0.00    -0.237 OA
ATOM     48  O   UNL A   1      36.352  32.910  38.367  1.00  0.00    -0.237 OA
ATOM     49  O   UNL A   1      37.085  30.567  38.464  1.00  0.00    -0.744 OA
ENDBRANCH  43  46
ENDBRANCH  25  39
BRANCH  26  50
ATOM     50  C   UNL A   1      42.167  26.416  27.433  1.00  0.00     0.023 A 
ATOM     51  C   UNL A   1      42.852  27.025  26.365  1.00  0.00     0.012 A 
ATOM     52  C   UNL A   1      41.857  25.044  27.359  1.00  0.00     0.148 A 
ATOM     53  C   UNL A   1      43.203  26.287  25.234  1.00  0.00     0.002 A 
ATOM     54  C   UNL A   1      42.261  24.303  26.256  1.00  0.00     0.091 A 
ATOM     55  F   UNL A   1      41.189  24.488  28.380  1.00  0.00    -0.205 F 
ATOM     56  C   UNL A   1      42.919  24.925  25.185  1.00  0.00     0.022 A 
BRANCH  54  57
ATOM     57  S   UNL A   1      42.063  22.519  26.178  1.00  0.00     0.127 S 
ATOM     58  O   UNL A   1      42.833  22.186  24.982  1.00  0.00    -0.237 OA
ATOM     59  O   UNL A   1      42.668  22.091  27.440  1.00  0.00    -0.237 OA
ATOM     60  O   UNL A   1      40.627  22.289  26.095  1.00  0.00    -0.744 OA
ENDBRANCH  54  57
ENDBRANCH  26  50
BRANCH  38  61
ATOM     61  C   UNL A   1      45.128  27.195  33.705  1.00  0.00     0.023 A 
ATOM     62  C   UNL A   1      46.330  27.931  33.699  1.00  0.00     0.012 A 
ATOM     63  C   UNL A   1      45.086  25.944  34.351  1.00  0.00     0.148 A 
ATOM     64  C   UNL A   1      47.479  27.416  34.297  1.00  0.00     0.002 A 
ATOM     65  C   UNL A   1      46.222  25.458  34.985  1.00  0.00     0.091 A 
ATOM     66  F   UNL A   1      43.939  25.250  34.326  1.00  0.00    -0.205 F 
ATOM     67  C   UNL A   1      47.422  26.187  34.950  1.00  0.00     0.022 A 
BRANCH  65  68
ATOM     68  S   UNL A   1      46.216  23.929  35.928  1.00  0.00     0.127 S 
ATOM     69  O   UNL A   1      45.181  24.198  36.925  1.00  0.00    -0.237 OA
ATOM     70  O   UNL A   1      45.844  22.940  34.915  1.00  0.00    -0.237 OA
ATOM     71  O   UNL A   1      47.566  23.776  36.452  1.00  0.00    -0.744 OA
ENDBRANCH  65  68
ENDBRANCH  38  61
ENDBRANCH  12  13
ENDBRANCH   5   7
ENDBRANCH   2   3
ENDBRANCH   1   2
BRANCH   1  72
ATOM     72  C   UNL A   1      31.669  27.494  26.763  1.00  0.00     0.117 C 
BRANCH  72  73
ATOM     73  N   UNL A   1      32.796  27.047  25.965  1.00  0.00    -0.354 N 
ATOM     74  C   UNL A   1      33.174  25.794  25.586  1.00  0.00     0.243 C 
ATOM     75  H   UNL A   1      33.384  27.768  25.645  1.00  0.00     0.163 HD
ATOM     76  O   UNL A   1      34.364  25.642  25.299  1.00  0.00    -0.273 OA
BRANCH  74  77
ATOM     77  C   UNL A   1      32.150  24.637  25.500  1.00  0.00     0.185 C 
ATOM     78  C   UNL A   1      32.768  23.298  25.896  1.00  0.00     0.106 C 
ATOM     79  N   UNL A   1      31.668  24.565  24.105  1.00  0.00    -0.319 N 
ATOM     80  S   UNL A   1      32.485  22.147  24.534  1.00  0.00    -0.138 SA
ATOM     81  C   UNL A   1      32.197  23.463  23.346  1.00  0.00     0.190 C 
BRANCH  79  82
ATOM     82  C   UNL A   1      30.812  25.539  23.631  1.00  0.00     0.244 C 
ATOM     83  O   UNL A   1      29.740  25.756  24.209  1.00  0.00    -0.273 OA
BRANCH  82  84
ATOM     84  C   UNL A   1      31.104  26.243  22.295  1.00  0.00     0.230 C 
BRANCH  84  85
ATOM     85  N   UNL A   1      32.091  27.302  22.367  1.00  0.00    -0.253 N 
ATOM     86  C   UNL A   1      33.428  27.124  22.133  1.00  0.00     0.250 C 
ATOM     87  C   UNL A   1      31.870  28.542  22.882  1.00  0.00     0.325 C 
ATOM     88  O   UNL A   1      33.983  26.078  21.838  1.00  0.00    -0.272 OA
ATOM     89  C   UNL A   1      34.131  28.458  22.328  1.00  0.00     0.218 C 
ATOM     90  N   UNL A   1      33.050  29.246  22.854  1.00  0.00    -0.329 N 
ATOM     91  O   UNL A   1      30.824  28.984  23.324  1.00  0.00    -0.248 OA
ATOM     92  H   UNL A   1      33.144  30.177  23.156  1.00  0.00     0.165 HD
ENDBRANCH  84  85
ENDBRANCH  82  84
ENDBRANCH  79  82
ENDBRANCH  74  77
ENDBRANCH  72  73
ENDBRANCH   1  72
TORSDOF 16
ENDMDL
