MODEL 1
REMARK VINA RESULT:     -11.7      0.000      0.000
REMARK SMILES C[C@@](NC(=O)c1ccc(C[NH3+])o1)(C(=O)NCCCNC(=O)c1ccc(-c2c3nc(c(-c4cccc(S(=O)(=O)[O-])c4F)c4ccc([nH]4)c(-c4cccc(S(=O)(=O)[O-])c4F)c4nc(c(-c5cccc(S(=O)(=O)[O-])c5F)c5ccc2[nH]5)C=C4)C=C3)cc1)C1CC1
REMARK SMILES IDX 16 1 15 2 13 3 14 4 2 6 1 7 3 8 4 9 5 11 6 12 7 13 12 14
REMARK SMILES IDX 8 15 9 16 10 17 11 18 85 22 86 23 87 24 17 25 18 26 19 27
REMARK SMILES IDX 20 28 21 30 22 31 23 32 84 33 24 34 83 35 25 36 26 37 27 38
REMARK SMILES IDX 77 39 28 40 82 41 76 42 78 43 29 44 81 45 75 46 74 47 30 49
REMARK SMILES IDX 62 50 42 51 61 52 43 53 46 54 60 55 79 56 44 57 45 58 59 60
REMARK SMILES IDX 80 61 47 62 31 63 32 64 40 65 33 66 35 67 41 68 34 69 36 70
REMARK SMILES IDX 37 71 38 72 39 73 63 74 64 75 72 76 65 77 67 78 73 79 66 80
REMARK SMILES IDX 68 81 69 82 70 83 71 84 48 85 49 86 57 87 50 88 52 89 58 90
REMARK SMILES IDX 51 91 53 92 54 93 55 94 56 95
REMARK H PARENT 15 5 3 10 11 19 11 20 11 21 19 29 78 48 46 59
REMARK Flexibility Score: inf
ROOT
ATOM      1  C   UNL A   1      31.517  27.220  26.649  1.00  0.00     0.117 C 
ENDROOT
BRANCH   1   2
ATOM      2  N   UNL A   1      32.705  26.651  26.031  1.00  0.00    -0.354 N 
ATOM      3  C   UNL A   1      32.841  25.772  24.989  1.00  0.00     0.245 C 
ATOM      4  O   UNL A   1      34.000  25.454  24.705  1.00  0.00    -0.272 OA
ATOM      5  H   UNL A   1      33.556  26.946  26.430  1.00  0.00     0.163 HD
BRANCH   3   6
ATOM      6  C   UNL A   1      31.590  25.095  24.336  1.00  0.00     0.119 C 
ATOM      7  C   UNL A   1      32.162  23.920  23.490  1.00  0.00     0.046 C 
BRANCH   6   8
ATOM      8  N   UNL A   1      30.645  24.533  25.323  1.00  0.00    -0.335 N 
ATOM      9  C   UNL A   1      30.856  23.706  26.404  1.00  0.00     0.287 C 
ATOM     10  H   UNL A   1      29.706  24.795  25.186  1.00  0.00     0.165 HD
ATOM     11  O   UNL A   1      29.957  23.662  27.249  1.00  0.00    -0.266 OA
BRANCH   9  12
ATOM     12  C   UNL A   1      32.026  22.866  26.459  1.00  0.00     0.191 A 
ATOM     13  C   UNL A   1      33.231  22.952  27.128  1.00  0.00     0.057 A 
ATOM     14  O   UNL A   1      31.997  21.697  25.744  1.00  0.00    -0.450 OA
ATOM     15  C   UNL A   1      33.996  21.818  26.747  1.00  0.00     0.052 A 
ATOM     16  C   UNL A   1      33.201  21.076  25.900  1.00  0.00     0.159 A 
BRANCH  16  17
ATOM     17  C   UNL A   1      33.404  19.813  25.143  1.00  0.00     0.335 C 
BRANCH  17  18
ATOM     18  N   UNL A   1      34.822  19.502  25.000  1.00  0.00    -0.351 N 
ATOM     19  H   UNL A   1      34.948  18.841  24.234  1.00  0.00     0.344 HD
ATOM     20  H   UNL A   1      35.167  19.090  25.867  1.00  0.00     0.344 HD
ATOM     21  H   UNL A   1      35.339  20.358  24.800  1.00  0.00     0.344 HD
ENDBRANCH  17  18
ENDBRANCH  16  17
ENDBRANCH   9  12
ENDBRANCH   6   8
BRANCH   6  22
ATOM     22  C   UNL A   1      30.745  25.925  23.363  1.00  0.00     0.024 C 
ATOM     23  C   UNL A   1      29.624  26.871  23.722  1.00  0.00     0.007 C 
ATOM     24  C   UNL A   1      30.931  27.421  23.226  1.00  0.00     0.007 C 
ENDBRANCH   6  22
ENDBRANCH   3   6
ENDBRANCH   1   2
BRANCH   1  25
ATOM     25  C   UNL A   1      31.779  28.589  27.258  1.00  0.00     0.042 C 
BRANCH  25  26
ATOM     26  C   UNL A   1      32.599  29.515  26.371  1.00  0.00     0.118 C 
BRANCH  26  27
ATOM     27  N   UNL A   1      32.376  30.932  26.632  1.00  0.00    -0.352 N 
ATOM     28  C   UNL A   1      33.215  31.823  27.258  1.00  0.00     0.251 C 
ATOM     29  H   UNL A   1      31.516  31.296  26.321  1.00  0.00     0.163 HD
ATOM     30  O   UNL A   1      32.869  32.987  27.435  1.00  0.00    -0.269 OA
BRANCH  28  31
ATOM     31  C   UNL A   1      34.523  31.352  27.759  1.00  0.00     0.039 A 
ATOM     32  C   UNL A   1      35.525  32.295  27.998  1.00  0.00     0.014 A 
ATOM     33  C   UNL A   1      34.736  30.001  28.047  1.00  0.00     0.014 A 
ATOM     34  C   UNL A   1      36.718  31.891  28.596  1.00  0.00     0.010 A 
ATOM     35  C   UNL A   1      35.895  29.614  28.713  1.00  0.00     0.010 A 
ATOM     36  C   UNL A   1      36.898  30.554  28.992  1.00  0.00    -0.014 A 
BRANCH  36  37
ATOM     37  C   UNL A   1      38.119  30.140  29.726  1.00  0.00     0.031 A 
ATOM     38  C   UNL A   1      38.373  30.631  31.123  1.00  0.00     0.074 A 
ATOM     39  C   UNL A   1      39.035  29.374  29.101  1.00  0.00     0.049 A 
ATOM     40  N   UNL A   1      39.362  30.340  31.929  1.00  0.00    -0.248 NA
ATOM     41  C   UNL A   1      37.411  31.596  31.682  1.00  0.00     0.031 C 
ATOM     42  C   UNL A   1      38.958  28.933  27.706  1.00  0.00     0.029 A 
ATOM     43  N   UNL A   1      40.215  28.840  29.552  1.00  0.00    -0.354 N 
ATOM     44  C   UNL A   1      39.159  31.103  33.071  1.00  0.00     0.074 A 
ATOM     45  C   UNL A   1      37.976  31.903  32.841  1.00  0.00     0.031 C 
ATOM     46  C   UNL A   1      40.033  28.180  27.423  1.00  0.00     0.029 A 
ATOM     47  C   UNL A   1      40.876  28.087  28.610  1.00  0.00     0.049 A 
ATOM     48  H   UNL A   1      40.557  28.984  30.464  1.00  0.00     0.167 HD
ATOM     49  C   UNL A   1      39.868  31.108  34.225  1.00  0.00     0.034 A 
ATOM     50  C   UNL A   1      42.018  27.379  28.704  1.00  0.00     0.034 A 
ATOM     51  C   UNL A   1      41.007  30.266  34.469  1.00  0.00     0.049 A 
ATOM     52  C   UNL A   1      42.722  27.310  30.031  1.00  0.00     0.074 A 
ATOM     53  C   UNL A   1      41.742  30.125  35.634  1.00  0.00     0.029 A 
ATOM     54  N   UNL A   1      41.576  29.417  33.533  1.00  0.00    -0.354 N 
ATOM     55  N   UNL A   1      42.406  27.892  31.162  1.00  0.00    -0.248 NA
ATOM     56  C   UNL A   1      43.909  26.447  30.110  1.00  0.00     0.031 C 
ATOM     57  C   UNL A   1      42.754  29.186  35.401  1.00  0.00     0.029 A 
ATOM     58  C   UNL A   1      42.647  28.742  34.092  1.00  0.00     0.049 A 
ATOM     59  H   UNL A   1      41.263  29.310  32.606  1.00  0.00     0.167 HD
ATOM     60  C   UNL A   1      43.334  27.442  32.095  1.00  0.00     0.074 A 
ATOM     61  C   UNL A   1      44.207  26.517  31.400  1.00  0.00     0.031 C 
ATOM     62  C   UNL A   1      43.466  27.780  33.401  1.00  0.00     0.034 A 
BRANCH  49  63
ATOM     63  C   UNL A   1      39.375  31.993  35.338  1.00  0.00     0.023 A 
ATOM     64  C   UNL A   1      38.437  31.480  36.258  1.00  0.00     0.012 A 
ATOM     65  C   UNL A   1      39.859  33.305  35.505  1.00  0.00     0.148 A 
ATOM     66  C   UNL A   1      37.964  32.268  37.306  1.00  0.00     0.002 A 
ATOM     67  C   UNL A   1      39.411  34.071  36.575  1.00  0.00     0.091 A 
ATOM     68  F   UNL A   1      40.730  33.786  34.605  1.00  0.00    -0.205 F 
ATOM     69  C   UNL A   1      38.457  33.557  37.470  1.00  0.00     0.022 A 
BRANCH  67  70
ATOM     70  S   UNL A   1      40.040  35.720  36.910  1.00  0.00     0.127 S 
ATOM     71  O   UNL A   1      41.475  35.468  37.035  1.00  0.00    -0.237 OA
ATOM     72  O   UNL A   1      39.653  36.453  35.704  1.00  0.00    -0.237 OA
ATOM     73  O   UNL A   1      39.370  36.161  38.125  1.00  0.00    -0.744 OA
ENDBRANCH  67  70
ENDBRANCH  49  63
BRANCH  50  74
ATOM     74  C   UNL A   1      42.488  26.578  27.538  1.00  0.00     0.023 A 
ATOM     75  C   UNL A   1      43.359  27.173  26.605  1.00  0.00     0.012 A 
ATOM     76  C   UNL A   1      42.122  25.229  27.372  1.00  0.00     0.148 A 
ATOM     77  C   UNL A   1      43.834  26.449  25.510  1.00  0.00     0.002 A 
ATOM     78  C   UNL A   1      42.640  24.497  26.308  1.00  0.00     0.091 A 
ATOM     79  F   UNL A   1      41.282  24.682  28.261  1.00  0.00    -0.205 F 
ATOM     80  C   UNL A   1      43.484  25.109  25.368  1.00  0.00     0.022 A 
BRANCH  78  81
ATOM     81  S   UNL A   1      42.346  22.734  26.134  1.00  0.00     0.127 S 
ATOM     82  O   UNL A   1      43.029  22.438  24.877  1.00  0.00    -0.237 OA
ATOM     83  O   UNL A   1      42.993  22.191  27.330  1.00  0.00    -0.237 OA
ATOM     84  O   UNL A   1      40.895  22.587  26.125  1.00  0.00    -0.744 OA
ENDBRANCH  78  81
ENDBRANCH  50  74
BRANCH  62  85
ATOM     85  C   UNL A   1      44.585  27.134  34.173  1.00  0.00     0.023 A 
ATOM     86  C   UNL A   1      45.856  27.740  34.189  1.00  0.00     0.012 A 
ATOM     87  C   UNL A   1      44.366  25.965  34.927  1.00  0.00     0.148 A 
ATOM     88  C   UNL A   1      46.902  27.176  34.918  1.00  0.00     0.002 A 
ATOM     89  C   UNL A   1      45.402  25.431  35.685  1.00  0.00     0.091 A 
ATOM     90  F   UNL A   1      43.157  25.386  34.882  1.00  0.00    -0.205 F 
ATOM     91  C   UNL A   1      46.672  26.029  35.675  1.00  0.00     0.022 A 
BRANCH  89  92
ATOM     92  S   UNL A   1      45.148  24.007  36.750  1.00  0.00     0.127 S 
ATOM     93  O   UNL A   1      44.547  23.045  35.829  1.00  0.00    -0.237 OA
ATOM     94  O   UNL A   1      46.510  23.675  37.173  1.00  0.00    -0.237 OA
ATOM     95  O   UNL A   1      44.290  24.480  37.827  1.00  0.00    -0.744 OA
ENDBRANCH  89  92
ENDBRANCH  62  85
ENDBRANCH  36  37
ENDBRANCH  28  31
ENDBRANCH  26  27
ENDBRANCH  25  26
ENDBRANCH   1  25
TORSDOF 18
ENDMDL
MODEL 2
REMARK VINA RESULT:     -11.4      4.854      9.919
REMARK SMILES C[C@@](NC(=O)c1ccc(C[NH3+])o1)(C(=O)NCCCNC(=O)c1ccc(-c2c3nc(c(-c4cccc(S(=O)(=O)[O-])c4F)c4ccc([nH]4)c(-c4cccc(S(=O)(=O)[O-])c4F)c4nc(c(-c5cccc(S(=O)(=O)[O-])c5F)c5ccc2[nH]5)C=C4)C=C3)cc1)C1CC1
REMARK SMILES IDX 16 1 15 2 13 3 14 4 2 6 1 7 3 8 4 9 5 11 6 12 7 13 12 14
REMARK SMILES IDX 8 15 9 16 10 17 11 18 85 22 86 23 87 24 17 25 18 26 19 27
REMARK SMILES IDX 20 28 21 30 22 31 23 32 84 33 24 34 83 35 25 36 26 37 27 38
REMARK SMILES IDX 77 39 28 40 82 41 76 42 78 43 29 44 81 45 75 46 74 47 30 49
REMARK SMILES IDX 62 50 42 51 61 52 43 53 46 54 60 55 79 56 44 57 45 58 59 60
REMARK SMILES IDX 80 61 47 62 31 63 32 64 40 65 33 66 35 67 41 68 34 69 36 70
REMARK SMILES IDX 37 71 38 72 39 73 63 74 64 75 72 76 65 77 67 78 73 79 66 80
REMARK SMILES IDX 68 81 69 82 70 83 71 84 48 85 49 86 57 87 50 88 52 89 58 90
REMARK SMILES IDX 51 91 53 92 54 93 55 94 56 95
REMARK H PARENT 15 5 3 10 11 19 11 20 11 21 19 29 78 48 46 59
REMARK Flexibility Score: inf
ROOT
ATOM      1  C   UNL A   1      35.271  23.723  23.815  1.00  0.00     0.117 C 
ENDROOT
BRANCH   1   2
ATOM      2  N   UNL A   1      34.551  24.283  24.948  1.00  0.00    -0.354 N 
ATOM      3  C   UNL A   1      33.212  24.499  25.143  1.00  0.00     0.245 C 
ATOM      4  O   UNL A   1      32.906  25.019  26.220  1.00  0.00    -0.272 OA
ATOM      5  H   UNL A   1      35.123  24.555  25.703  1.00  0.00     0.163 HD
BRANCH   3   6
ATOM      6  C   UNL A   1      32.180  24.256  23.993  1.00  0.00     0.119 C 
ATOM      7  C   UNL A   1      30.917  25.068  24.405  1.00  0.00     0.046 C 
BRANCH   6   8
ATOM      8  N   UNL A   1      32.637  24.756  22.679  1.00  0.00    -0.335 N 
ATOM      9  C   UNL A   1      33.014  26.018  22.276  1.00  0.00     0.287 C 
ATOM     10  H   UNL A   1      32.681  24.072  21.973  1.00  0.00     0.165 HD
ATOM     11  O   UNL A   1      33.666  26.092  21.231  1.00  0.00    -0.266 OA
BRANCH   9  12
ATOM     12  C   UNL A   1      32.561  27.179  23.001  1.00  0.00     0.191 A 
ATOM     13  C   UNL A   1      33.034  27.858  24.106  1.00  0.00     0.057 A 
ATOM     14  O   UNL A   1      31.443  27.818  22.532  1.00  0.00    -0.450 OA
ATOM     15  C   UNL A   1      32.123  28.916  24.361  1.00  0.00     0.052 A 
ATOM     16  C   UNL A   1      31.165  28.855  23.372  1.00  0.00     0.159 A 
BRANCH  16  17
ATOM     17  C   UNL A   1      29.939  29.643  23.078  1.00  0.00     0.335 C 
BRANCH  17  18
ATOM     18  N   UNL A   1      30.096  30.436  21.864  1.00  0.00    -0.351 N 
ATOM     19  H   UNL A   1      31.054  30.350  21.525  1.00  0.00     0.344 HD
ATOM     20  H   UNL A   1      29.893  31.414  22.070  1.00  0.00     0.344 HD
ATOM     21  H   UNL A   1      29.450  30.096  21.151  1.00  0.00     0.344 HD
ENDBRANCH  17  18
ENDBRANCH  16  17
ENDBRANCH   9  12
ENDBRANCH   6   8
BRANCH   6  22
ATOM     22  C   UNL A   1      31.686  22.826  23.754  1.00  0.00     0.024 C 
ATOM     23  C   UNL A   1      32.322  21.788  22.860  1.00  0.00     0.007 C 
ATOM     24  C   UNL A   1      32.397  21.630  24.352  1.00  0.00     0.007 C 
ENDBRANCH   6  22
ENDBRANCH   3   6
ENDBRANCH   1   2
BRANCH   1  25
ATOM     25  C   UNL A   1      36.674  23.268  24.185  1.00  0.00     0.042 C 
BRANCH  25  26
ATOM     26  C   UNL A   1      36.930  23.206  25.684  1.00  0.00     0.118 C 
BRANCH  26  27
ATOM     27  N   UNL A   1      38.040  22.340  26.059  1.00  0.00    -0.352 N 
ATOM     28  C   UNL A   1      39.215  22.686  26.684  1.00  0.00     0.251 C 
ATOM     29  H   UNL A   1      37.936  21.387  25.834  1.00  0.00     0.163 HD
ATOM     30  O   UNL A   1      40.077  21.841  26.904  1.00  0.00    -0.269 OA
BRANCH  28  31
ATOM     31  C   UNL A   1      39.449  24.099  27.048  1.00  0.00     0.039 A 
ATOM     32  C   UNL A   1      39.187  24.503  28.359  1.00  0.00     0.014 A 
ATOM     33  C   UNL A   1      39.979  24.999  26.120  1.00  0.00     0.014 A 
ATOM     34  C   UNL A   1      39.527  25.795  28.759  1.00  0.00     0.010 A 
ATOM     35  C   UNL A   1      40.386  26.262  26.541  1.00  0.00     0.010 A 
ATOM     36  C   UNL A   1      40.163  26.672  27.864  1.00  0.00    -0.014 A 
BRANCH  36  37
ATOM     37  C   UNL A   1      40.624  28.009  28.314  1.00  0.00     0.031 A 
ATOM     38  C   UNL A   1      42.084  28.363  28.282  1.00  0.00     0.074 A 
ATOM     39  C   UNL A   1      39.727  28.880  28.816  1.00  0.00     0.049 A 
ATOM     40  N   UNL A   1      42.662  29.494  28.596  1.00  0.00    -0.248 NA
ATOM     41  C   UNL A   1      43.023  27.304  27.876  1.00  0.00     0.031 C 
ATOM     42  C   UNL A   1      38.300  28.608  29.009  1.00  0.00     0.029 A 
ATOM     43  N   UNL A   1      39.883  30.165  29.269  1.00  0.00    -0.354 N 
ATOM     44  C   UNL A   1      44.026  29.276  28.454  1.00  0.00     0.074 A 
ATOM     45  C   UNL A   1      44.195  27.893  28.066  1.00  0.00     0.031 C 
ATOM     46  C   UNL A   1      37.709  29.700  29.520  1.00  0.00     0.029 A 
ATOM     47  C   UNL A   1      38.711  30.746  29.696  1.00  0.00     0.049 A 
ATOM     48  H   UNL A   1      40.752  30.628  29.287  1.00  0.00     0.167 HD
ATOM     49  C   UNL A   1      45.044  30.159  28.592  1.00  0.00     0.034 A 
ATOM     50  C   UNL A   1      38.470  31.990  30.151  1.00  0.00     0.034 A 
ATOM     51  C   UNL A   1      44.864  31.546  28.919  1.00  0.00     0.049 A 
ATOM     52  C   UNL A   1      39.600  32.983  30.184  1.00  0.00     0.074 A 
ATOM     53  C   UNL A   1      45.818  32.546  28.994  1.00  0.00     0.029 A 
ATOM     54  N   UNL A   1      43.645  32.134  29.221  1.00  0.00    -0.354 N 
ATOM     55  N   UNL A   1      40.858  32.809  29.861  1.00  0.00    -0.248 NA
ATOM     56  C   UNL A   1      39.267  34.355  30.594  1.00  0.00     0.031 C 
ATOM     57  C   UNL A   1      45.173  33.740  29.338  1.00  0.00     0.029 A 
ATOM     58  C   UNL A   1      43.818  33.483  29.476  1.00  0.00     0.049 A 
ATOM     59  H   UNL A   1      42.783  31.659  29.251  1.00  0.00     0.167 HD
ATOM     60  C   UNL A   1      41.462  34.054  29.997  1.00  0.00     0.074 A 
ATOM     61  C   UNL A   1      40.423  34.978  30.406  1.00  0.00     0.031 C 
ATOM     62  C   UNL A   1      42.762  34.398  29.822  1.00  0.00     0.034 A 
BRANCH  49  63
ATOM     63  C   UNL A   1      46.435  29.662  28.305  1.00  0.00     0.023 A 
ATOM     64  C   UNL A   1      46.933  29.739  26.987  1.00  0.00     0.012 A 
ATOM     65  C   UNL A   1      47.264  29.160  29.327  1.00  0.00     0.148 A 
ATOM     66  C   UNL A   1      48.219  29.295  26.685  1.00  0.00     0.002 A 
ATOM     67  C   UNL A   1      48.560  28.756  29.024  1.00  0.00     0.091 A 
ATOM     68  F   UNL A   1      46.765  29.068  30.568  1.00  0.00    -0.205 F 
ATOM     69  C   UNL A   1      49.034  28.814  27.703  1.00  0.00     0.022 A 
BRANCH  67  70
ATOM     70  S   UNL A   1      49.709  28.185  30.281  1.00  0.00     0.127 S 
ATOM     71  O   UNL A   1      50.903  27.907  29.485  1.00  0.00    -0.237 OA
ATOM     72  O   UNL A   1      49.819  29.353  31.157  1.00  0.00    -0.237 OA
ATOM     73  O   UNL A   1      49.079  27.026  30.898  1.00  0.00    -0.744 OA
ENDBRANCH  67  70
ENDBRANCH  49  63
BRANCH  50  74
ATOM     74  C   UNL A   1      37.075  32.398  30.485  1.00  0.00     0.023 A 
ATOM     75  C   UNL A   1      36.617  32.250  31.809  1.00  0.00     0.012 A 
ATOM     76  C   UNL A   1      36.221  32.968  29.523  1.00  0.00     0.148 A 
ATOM     77  C   UNL A   1      35.324  32.636  32.163  1.00  0.00     0.002 A 
ATOM     78  C   UNL A   1      34.951  33.398  29.894  1.00  0.00     0.091 A 
ATOM     79  F   UNL A   1      36.667  33.088  28.264  1.00  0.00    -0.205 F 
ATOM     80  C   UNL A   1      34.495  33.220  31.209  1.00  0.00     0.022 A 
BRANCH  78  81
ATOM     81  S   UNL A   1      33.877  34.282  28.757  1.00  0.00     0.127 S 
ATOM     82  O   UNL A   1      33.499  33.229  27.819  1.00  0.00    -0.237 OA
ATOM     83  O   UNL A   1      32.800  34.739  29.638  1.00  0.00    -0.237 OA
ATOM     84  O   UNL A   1      34.697  35.360  28.215  1.00  0.00    -0.744 OA
ENDBRANCH  78  81
ENDBRANCH  50  74
BRANCH  62  85
ATOM     85  C   UNL A   1      43.134  35.837  30.054  1.00  0.00     0.023 A 
ATOM     86  C   UNL A   1      43.699  36.217  31.288  1.00  0.00     0.012 A 
ATOM     87  C   UNL A   1      42.981  36.799  29.038  1.00  0.00     0.148 A 
ATOM     88  C   UNL A   1      44.077  37.539  31.518  1.00  0.00     0.002 A 
ATOM     89  C   UNL A   1      43.398  38.108  29.260  1.00  0.00     0.091 A 
ATOM     90  F   UNL A   1      42.419  36.428  27.878  1.00  0.00    -0.205 F 
ATOM     91  C   UNL A   1      43.937  38.481  30.501  1.00  0.00     0.022 A 
BRANCH  89  92
ATOM     92  S   UNL A   1      43.328  39.347  27.962  1.00  0.00     0.127 S 
ATOM     93  O   UNL A   1      41.936  39.252  27.528  1.00  0.00    -0.237 OA
ATOM     94  O   UNL A   1      43.659  40.582  28.678  1.00  0.00    -0.237 OA
ATOM     95  O   UNL A   1      44.330  38.940  26.986  1.00  0.00    -0.744 OA
ENDBRANCH  89  92
ENDBRANCH  62  85
ENDBRANCH  36  37
ENDBRANCH  28  31
ENDBRANCH  26  27
ENDBRANCH  25  26
ENDBRANCH   1  25
TORSDOF 18
ENDMDL
MODEL 3
REMARK VINA RESULT:     -11.4      4.964     10.178
REMARK SMILES C[C@@](NC(=O)c1ccc(C[NH3+])o1)(C(=O)NCCCNC(=O)c1ccc(-c2c3nc(c(-c4cccc(S(=O)(=O)[O-])c4F)c4ccc([nH]4)c(-c4cccc(S(=O)(=O)[O-])c4F)c4nc(c(-c5cccc(S(=O)(=O)[O-])c5F)c5ccc2[nH]5)C=C4)C=C3)cc1)C1CC1
REMARK SMILES IDX 16 1 15 2 13 3 14 4 2 6 1 7 3 8 4 9 5 11 6 12 7 13 12 14
REMARK SMILES IDX 8 15 9 16 10 17 11 18 85 22 86 23 87 24 17 25 18 26 19 27
REMARK SMILES IDX 20 28 21 30 22 31 23 32 84 33 24 34 83 35 25 36 26 37 27 38
REMARK SMILES IDX 77 39 28 40 82 41 76 42 78 43 29 44 81 45 75 46 74 47 30 49
REMARK SMILES IDX 62 50 42 51 61 52 43 53 46 54 60 55 79 56 44 57 45 58 59 60
REMARK SMILES IDX 80 61 47 62 31 63 32 64 40 65 33 66 35 67 41 68 34 69 36 70
REMARK SMILES IDX 37 71 38 72 39 73 63 74 64 75 72 76 65 77 67 78 73 79 66 80
REMARK SMILES IDX 68 81 69 82 70 83 71 84 48 85 49 86 57 87 50 88 52 89 58 90
REMARK SMILES IDX 51 91 53 92 54 93 55 94 56 95
REMARK H PARENT 15 5 3 10 11 19 11 20 11 21 19 29 78 48 46 59
REMARK Flexibility Score: inf
ROOT
ATOM      1  C   UNL A   1      35.660  23.707  23.803  1.00  0.00     0.117 C 
ENDROOT
BRANCH   1   2
ATOM      2  N   UNL A   1      34.954  24.032  25.034  1.00  0.00    -0.354 N 
ATOM      3  C   UNL A   1      33.617  24.010  25.334  1.00  0.00     0.245 C 
ATOM      4  O   UNL A   1      33.320  24.367  26.478  1.00  0.00    -0.272 OA
ATOM      5  H   UNL A   1      35.534  24.316  25.776  1.00  0.00     0.163 HD
BRANCH   3   6
ATOM      6  C   UNL A   1      32.547  23.719  24.230  1.00  0.00     0.119 C 
ATOM      7  C   UNL A   1      31.207  24.254  24.814  1.00  0.00     0.046 C 
BRANCH   6   8
ATOM      8  N   UNL A   1      32.808  24.428  22.959  1.00  0.00    -0.335 N 
ATOM      9  C   UNL A   1      33.133  25.743  22.710  1.00  0.00     0.287 C 
ATOM     10  H   UNL A   1      32.740  23.865  22.155  1.00  0.00     0.165 HD
ATOM     11  O   UNL A   1      33.621  25.991  21.604  1.00  0.00    -0.266 OA
BRANCH   9  12
ATOM     12  C   UNL A   1      32.804  26.767  23.670  1.00  0.00     0.191 A 
ATOM     13  C   UNL A   1      31.690  27.556  23.880  1.00  0.00     0.057 A 
ATOM     14  O   UNL A   1      33.738  27.052  24.632  1.00  0.00    -0.450 OA
ATOM     15  C   UNL A   1      31.988  28.406  24.976  1.00  0.00     0.052 A 
ATOM     16  C   UNL A   1      33.251  28.063  25.407  1.00  0.00     0.159 A 
BRANCH  16  17
ATOM     17  C   UNL A   1      34.147  28.574  26.479  1.00  0.00     0.335 C 
BRANCH  17  18
ATOM     18  N   UNL A   1      33.410  28.823  27.712  1.00  0.00    -0.351 N 
ATOM     19  H   UNL A   1      33.965  29.422  28.323  1.00  0.00     0.344 HD
ATOM     20  H   UNL A   1      33.225  27.937  28.181  1.00  0.00     0.344 HD
ATOM     21  H   UNL A   1      32.527  29.284  27.493  1.00  0.00     0.344 HD
ENDBRANCH  17  18
ENDBRANCH  16  17
ENDBRANCH   9  12
ENDBRANCH   6   8
BRANCH   6  22
ATOM     22  C   UNL A   1      32.275  22.259  23.853  1.00  0.00     0.024 C 
ATOM     23  C   UNL A   1      33.245  21.106  23.946  1.00  0.00     0.007 C 
ATOM     24  C   UNL A   1      32.093  21.187  24.907  1.00  0.00     0.007 C 
ENDBRANCH   6  22
ENDBRANCH   3   6
ENDBRANCH   1   2
BRANCH   1  25
ATOM     25  C   UNL A   1      36.936  22.919  24.057  1.00  0.00     0.042 C 
BRANCH  25  26
ATOM     26  C   UNL A   1      37.005  22.279  25.436  1.00  0.00     0.118 C 
BRANCH  26  27
ATOM     27  N   UNL A   1      38.054  21.276  25.569  1.00  0.00    -0.352 N 
ATOM     28  C   UNL A   1      39.303  21.421  26.127  1.00  0.00     0.251 C 
ATOM     29  H   UNL A   1      37.842  20.383  25.214  1.00  0.00     0.163 HD
ATOM     30  O   UNL A   1      40.095  20.484  26.135  1.00  0.00    -0.269 OA
BRANCH  28  31
ATOM     31  C   UNL A   1      39.699  22.733  26.677  1.00  0.00     0.039 A 
ATOM     32  C   UNL A   1      40.573  22.765  27.765  1.00  0.00     0.014 A 
ATOM     33  C   UNL A   1      39.259  23.921  26.085  1.00  0.00     0.014 A 
ATOM     34  C   UNL A   1      41.065  23.991  28.214  1.00  0.00     0.010 A 
ATOM     35  C   UNL A   1      39.809  25.134  26.485  1.00  0.00     0.010 A 
ATOM     36  C   UNL A   1      40.716  25.181  27.554  1.00  0.00    -0.014 A 
BRANCH  36  37
ATOM     37  C   UNL A   1      41.320  26.475  27.959  1.00  0.00     0.031 A 
ATOM     38  C   UNL A   1      42.745  26.795  27.607  1.00  0.00     0.074 A 
ATOM     39  C   UNL A   1      40.598  27.334  28.705  1.00  0.00     0.049 A 
ATOM     40  N   UNL A   1      43.424  27.889  27.841  1.00  0.00    -0.248 NA
ATOM     41  C   UNL A   1      43.524  25.742  26.933  1.00  0.00     0.031 C 
ATOM     42  C   UNL A   1      39.246  27.085  29.210  1.00  0.00     0.029 A 
ATOM     43  N   UNL A   1      40.904  28.584  29.180  1.00  0.00    -0.354 N 
ATOM     44  C   UNL A   1      44.708  27.648  27.371  1.00  0.00     0.074 A 
ATOM     45  C   UNL A   1      44.730  26.288  26.877  1.00  0.00     0.031 C 
ATOM     46  C   UNL A   1      38.832  28.156  29.906  1.00  0.00     0.029 A 
ATOM     47  C   UNL A   1      39.886  29.164  29.901  1.00  0.00     0.049 A 
ATOM     48  H   UNL A   1      41.771  29.023  29.021  1.00  0.00     0.167 HD
ATOM     49  C   UNL A   1      45.764  28.494  27.318  1.00  0.00     0.034 A 
ATOM     50  C   UNL A   1      39.805  30.383  30.469  1.00  0.00     0.034 A 
ATOM     51  C   UNL A   1      45.718  29.862  27.756  1.00  0.00     0.049 A 
ATOM     52  C   UNL A   1      40.950  31.343  30.294  1.00  0.00     0.074 A 
ATOM     53  C   UNL A   1      46.701  30.832  27.662  1.00  0.00     0.029 A 
ATOM     54  N   UNL A   1      44.626  30.459  28.366  1.00  0.00    -0.354 N 
ATOM     55  N   UNL A   1      42.091  31.160  29.676  1.00  0.00    -0.248 NA
ATOM     56  C   UNL A   1      40.774  32.694  30.846  1.00  0.00     0.031 C 
ATOM     57  C   UNL A   1      46.200  32.017  28.214  1.00  0.00     0.029 A 
ATOM     58  C   UNL A   1      44.905  31.784  28.649  1.00  0.00     0.049 A 
ATOM     59  H   UNL A   1      43.777  30.005  28.570  1.00  0.00     0.167 HD
ATOM     60  C   UNL A   1      42.758  32.379  29.738  1.00  0.00     0.074 A 
ATOM     61  C   UNL A   1      41.878  33.300  30.429  1.00  0.00     0.031 C 
ATOM     62  C   UNL A   1      43.994  32.701  29.284  1.00  0.00     0.034 A 
BRANCH  49  63
ATOM     63  C   UNL A   1      47.031  27.983  26.686  1.00  0.00     0.023 A 
ATOM     64  C   UNL A   1      48.070  27.512  27.516  1.00  0.00     0.012 A 
ATOM     65  C   UNL A   1      47.185  27.927  25.287  1.00  0.00     0.148 A 
ATOM     66  C   UNL A   1      49.254  27.024  26.966  1.00  0.00     0.002 A 
ATOM     67  C   UNL A   1      48.355  27.403  24.746  1.00  0.00     0.091 A 
ATOM     68  F   UNL A   1      46.200  28.404  24.514  1.00  0.00    -0.205 F 
ATOM     69  C   UNL A   1      49.392  26.960  25.584  1.00  0.00     0.022 A 
BRANCH  67  70
ATOM     70  S   UNL A   1      48.598  27.215  22.976  1.00  0.00     0.127 S 
ATOM     71  O   UNL A   1      47.657  28.199  22.443  1.00  0.00    -0.237 OA
ATOM     72  O   UNL A   1      50.008  27.571  22.815  1.00  0.00    -0.237 OA
ATOM     73  O   UNL A   1      48.289  25.823  22.679  1.00  0.00    -0.744 OA
ENDBRANCH  67  70
ENDBRANCH  49  63
BRANCH  50  74
ATOM     74  C   UNL A   1      38.543  30.802  31.142  1.00  0.00     0.023 A 
ATOM     75  C   UNL A   1      38.416  30.622  32.533  1.00  0.00     0.012 A 
ATOM     76  C   UNL A   1      37.494  31.414  30.431  1.00  0.00     0.148 A 
ATOM     77  C   UNL A   1      37.256  31.017  33.201  1.00  0.00     0.002 A 
ATOM     78  C   UNL A   1      36.362  31.853  31.110  1.00  0.00     0.091 A 
ATOM     79  F   UNL A   1      37.625  31.565  29.105  1.00  0.00    -0.205 F 
ATOM     80  C   UNL A   1      36.234  31.643  32.491  1.00  0.00     0.022 A 
BRANCH  78  81
ATOM     81  S   UNL A   1      35.065  32.789  30.291  1.00  0.00     0.127 S 
ATOM     82  O   UNL A   1      34.132  33.034  31.388  1.00  0.00    -0.237 OA
ATOM     83  O   UNL A   1      35.786  33.972  29.818  1.00  0.00    -0.237 OA
ATOM     84  O   UNL A   1      34.583  31.921  29.222  1.00  0.00    -0.744 OA
ENDBRANCH  78  81
ENDBRANCH  50  74
BRANCH  62  85
ATOM     85  C   UNL A   1      44.465  34.113  29.503  1.00  0.00     0.023 A 
ATOM     86  C   UNL A   1      45.062  34.462  30.730  1.00  0.00     0.012 A 
ATOM     87  C   UNL A   1      44.371  35.077  28.481  1.00  0.00     0.148 A 
ATOM     88  C   UNL A   1      45.531  35.757  30.949  1.00  0.00     0.002 A 
ATOM     89  C   UNL A   1      44.879  36.355  28.690  1.00  0.00     0.091 A 
ATOM     90  F   UNL A   1      43.778  34.737  27.327  1.00  0.00    -0.205 F 
ATOM     91  C   UNL A   1      45.450  36.699  29.925  1.00  0.00     0.022 A 
BRANCH  89  92
ATOM     92  S   UNL A   1      44.885  37.587  27.384  1.00  0.00     0.127 S 
ATOM     93  O   UNL A   1      45.785  36.983  26.404  1.00  0.00    -0.237 OA
ATOM     94  O   UNL A   1      43.479  37.629  26.975  1.00  0.00    -0.237 OA
ATOM     95  O   UNL A   1      45.357  38.813  28.013  1.00  0.00    -0.744 OA
ENDBRANCH  89  92
ENDBRANCH  62  85
ENDBRANCH  36  37
ENDBRANCH  28  31
ENDBRANCH  26  27
ENDBRANCH  25  26
ENDBRANCH   1  25
TORSDOF 18
ENDMDL
