MODEL 1
REMARK VINA RESULT:     -12.0      0.000      0.000
REMARK SMILES O=C(NCCCNC(=O)[C@@]1([NH2+]C2CC2)CC[C@H](SC2CCCC2)C1)c1ccc(-c2c3nc(c(-c4cccc(S(=O)(=O)[O-])c4F)c4ccc([nH]4)c(-c4cccc(S(=O)(=O)[O-])c4F)c4nc(c(-c5cccc(S(=O)(=O)[O-])c5F)c5ccc2[nH]5)C=C4)C=C3)cc1
REMARK SMILES IDX 4 1 3 2 1 3 2 4 25 6 26 7 87 8 27 9 86 10 28 11 29 12 30 13
REMARK SMILES IDX 80 14 31 15 85 16 79 17 81 18 32 19 84 20 78 21 77 22 33 24
REMARK SMILES IDX 65 25 45 26 64 27 46 28 49 29 63 30 82 31 47 32 48 33 62 35
REMARK SMILES IDX 83 36 50 37 34 38 35 39 43 40 36 41 38 42 44 43 37 44 39 45
REMARK SMILES IDX 40 46 41 47 42 48 66 49 67 50 75 51 68 52 70 53 76 54 69 55
REMARK SMILES IDX 71 56 72 57 73 58 74 59 51 60 52 61 60 62 53 63 55 64 61 65
REMARK SMILES IDX 54 66 56 67 57 68 58 69 59 70 5 71 6 72 7 73 8 74 9 76 10 77
REMARK SMILES IDX 15 78 24 79 16 80 17 81 11 82 12 85 13 86 14 87 18 88 19 89
REMARK SMILES IDX 20 90 23 91 21 92 22 93
REMARK H PARENT 3 5 81 23 49 34 7 75 11 83 11 84
REMARK Flexibility Score: inf
ROOT
ATOM      1  C   UNL A   1      32.829  29.019  25.538  1.00  0.00     0.118 C 
ENDROOT
BRANCH   1   2
ATOM      2  N   UNL A   1      32.471  30.297  26.139  1.00  0.00    -0.352 N 
ATOM      3  O   UNL A   1      32.530  32.147  27.398  1.00  0.00    -0.269 OA
ATOM      4  C   UNL A   1      33.120  31.143  27.013  1.00  0.00     0.251 C 
ATOM      5  H   UNL A   1      31.584  30.624  25.864  1.00  0.00     0.163 HD
BRANCH   4   6
ATOM      6  C   UNL A   1      34.470  30.834  27.550  1.00  0.00     0.039 A 
ATOM      7  C   UNL A   1      34.867  29.540  27.853  1.00  0.00     0.014 A 
ATOM      8  C   UNL A   1      35.381  31.880  27.751  1.00  0.00     0.014 A 
ATOM      9  C   UNL A   1      36.023  29.316  28.588  1.00  0.00     0.010 A 
ATOM     10  C   UNL A   1      36.625  31.630  28.349  1.00  0.00     0.010 A 
ATOM     11  C   UNL A   1      36.931  30.356  28.842  1.00  0.00    -0.014 A 
BRANCH  11  12
ATOM     12  C   UNL A   1      38.178  30.047  29.603  1.00  0.00     0.031 A 
ATOM     13  C   UNL A   1      38.355  30.489  31.034  1.00  0.00     0.074 A 
ATOM     14  C   UNL A   1      39.133  29.294  29.016  1.00  0.00     0.049 A 
ATOM     15  N   UNL A   1      39.337  30.222  31.859  1.00  0.00    -0.248 NA
ATOM     16  C   UNL A   1      37.316  31.354  31.616  1.00  0.00     0.031 C 
ATOM     17  C   UNL A   1      39.110  28.845  27.620  1.00  0.00     0.029 A 
ATOM     18  N   UNL A   1      40.282  28.737  29.519  1.00  0.00    -0.354 N 
ATOM     19  C   UNL A   1      39.070  30.933  33.023  1.00  0.00     0.074 A 
ATOM     20  C   UNL A   1      37.831  31.647  32.802  1.00  0.00     0.031 C 
ATOM     21  C   UNL A   1      40.138  28.013  27.406  1.00  0.00     0.029 A 
ATOM     22  C   UNL A   1      40.939  27.927  28.620  1.00  0.00     0.049 A 
ATOM     23  H   UNL A   1      40.606  28.902  30.434  1.00  0.00     0.167 HD
ATOM     24  C   UNL A   1      39.778  30.978  34.176  1.00  0.00     0.034 A 
ATOM     25  C   UNL A   1      42.060  27.192  28.752  1.00  0.00     0.034 A 
ATOM     26  C   UNL A   1      40.967  30.206  34.426  1.00  0.00     0.049 A 
ATOM     27  C   UNL A   1      42.778  27.194  30.071  1.00  0.00     0.074 A 
ATOM     28  C   UNL A   1      41.716  30.132  35.587  1.00  0.00     0.029 A 
ATOM     29  N   UNL A   1      41.574  29.367  33.505  1.00  0.00    -0.354 N 
ATOM     30  N   UNL A   1      42.445  27.790  31.189  1.00  0.00    -0.248 NA
ATOM     31  C   UNL A   1      44.016  26.408  30.152  1.00  0.00     0.031 C 
ATOM     32  C   UNL A   1      42.782  29.253  35.366  1.00  0.00     0.029 A 
ATOM     33  C   UNL A   1      42.689  28.770  34.071  1.00  0.00     0.049 A 
ATOM     34  H   UNL A   1      41.260  29.217  32.585  1.00  0.00     0.167 HD
ATOM     35  C   UNL A   1      43.422  27.441  32.111  1.00  0.00     0.074 A 
ATOM     36  C   UNL A   1      44.340  26.550  31.430  1.00  0.00     0.031 C 
ATOM     37  C   UNL A   1      43.561  27.843  33.397  1.00  0.00     0.034 A 
BRANCH  24  38
ATOM     38  C   UNL A   1      39.270  31.866  35.283  1.00  0.00     0.023 A 
ATOM     39  C   UNL A   1      38.351  31.357  36.223  1.00  0.00     0.012 A 
ATOM     40  C   UNL A   1      39.754  33.181  35.435  1.00  0.00     0.148 A 
ATOM     41  C   UNL A   1      37.901  32.149  37.278  1.00  0.00     0.002 A 
ATOM     42  C   UNL A   1      39.331  33.952  36.513  1.00  0.00     0.091 A 
ATOM     43  F   UNL A   1      40.609  33.658  34.519  1.00  0.00    -0.205 F 
ATOM     44  C   UNL A   1      38.399  33.441  37.429  1.00  0.00     0.022 A 
BRANCH  42  45
ATOM     45  S   UNL A   1      39.977  35.599  36.831  1.00  0.00     0.127 S 
ATOM     46  O   UNL A   1      39.329  35.931  38.098  1.00  0.00    -0.237 OA
ATOM     47  O   UNL A   1      41.417  35.355  36.928  1.00  0.00    -0.237 OA
ATOM     48  O   UNL A   1      39.581  36.409  35.688  1.00  0.00    -0.744 OA
ENDBRANCH  42  45
ENDBRANCH  24  38
BRANCH  25  49
ATOM     49  C   UNL A   1      42.532  26.349  27.616  1.00  0.00     0.023 A 
ATOM     50  C   UNL A   1      43.496  26.862  26.727  1.00  0.00     0.012 A 
ATOM     51  C   UNL A   1      42.080  25.026  27.447  1.00  0.00     0.148 A 
ATOM     52  C   UNL A   1      43.988  26.079  25.681  1.00  0.00     0.002 A 
ATOM     53  C   UNL A   1      42.622  24.231  26.445  1.00  0.00     0.091 A 
ATOM     54  F   UNL A   1      41.143  24.562  28.287  1.00  0.00    -0.205 F 
ATOM     55  C   UNL A   1      43.564  24.759  25.550  1.00  0.00     0.022 A 
BRANCH  53  56
ATOM     56  S   UNL A   1      42.246  22.477  26.321  1.00  0.00     0.127 S 
ATOM     57  O   UNL A   1      40.793  22.492  26.181  1.00  0.00    -0.237 OA
ATOM     58  O   UNL A   1      42.979  22.089  25.115  1.00  0.00    -0.237 OA
ATOM     59  O   UNL A   1      42.767  21.888  27.547  1.00  0.00    -0.744 OA
ENDBRANCH  53  56
ENDBRANCH  25  49
BRANCH  37  60
ATOM     60  C   UNL A   1      44.739  27.306  34.163  1.00  0.00     0.023 A 
ATOM     61  C   UNL A   1      45.967  27.996  34.123  1.00  0.00     0.012 A 
ATOM     62  C   UNL A   1      44.617  26.155  34.964  1.00  0.00     0.148 A 
ATOM     63  C   UNL A   1      47.066  27.528  34.842  1.00  0.00     0.002 A 
ATOM     64  C   UNL A   1      45.704  25.719  35.712  1.00  0.00     0.091 A 
ATOM     65  F   UNL A   1      43.448  25.498  34.971  1.00  0.00    -0.205 F 
ATOM     66  C   UNL A   1      46.932  26.397  35.645  1.00  0.00     0.022 A 
BRANCH  64  67
ATOM     67  S   UNL A   1      45.584  24.323  36.836  1.00  0.00     0.127 S 
ATOM     68  O   UNL A   1      45.135  23.257  35.943  1.00  0.00    -0.237 OA
ATOM     69  O   UNL A   1      46.960  24.181  37.313  1.00  0.00    -0.237 OA
ATOM     70  O   UNL A   1      44.634  24.728  37.865  1.00  0.00    -0.744 OA
ENDBRANCH  64  67
ENDBRANCH  37  60
ENDBRANCH  11  12
ENDBRANCH   4   6
ENDBRANCH   1   2
BRANCH   1  71
ATOM     71  C   UNL A   1      31.773  27.928  25.680  1.00  0.00     0.042 C 
BRANCH  71  72
ATOM     72  C   UNL A   1      32.339  26.580  26.105  1.00  0.00     0.118 C 
BRANCH  72  73
ATOM     73  N   UNL A   1      31.324  25.597  26.441  1.00  0.00    -0.351 N 
ATOM     74  C   UNL A   1      31.456  24.261  26.667  1.00  0.00     0.281 C 
ATOM     75  H   UNL A   1      30.407  25.947  26.517  1.00  0.00     0.163 HD
ATOM     76  O   UNL A   1      30.512  23.728  27.268  1.00  0.00    -0.268 OA
BRANCH  74  77
ATOM     77  C   UNL A   1      32.605  23.404  26.086  1.00  0.00     0.176 C 
ATOM     78  C   UNL A   1      33.805  23.321  27.048  1.00  0.00     0.080 C 
ATOM     79  C   UNL A   1      32.160  21.917  26.157  1.00  0.00     0.093 C 
ATOM     80  C   UNL A   1      34.552  22.069  26.609  1.00  0.00     0.022 C 
ATOM     81  C   UNL A   1      33.465  21.084  26.158  1.00  0.00     0.054 C 
BRANCH  77  82
ATOM     82  N   UNL A   1      32.977  23.693  24.691  1.00  0.00    -0.331 N 
ATOM     83  H   UNL A   1      33.785  23.103  24.494  1.00  0.00     0.347 HD
ATOM     84  H   UNL A   1      33.062  24.710  24.723  1.00  0.00     0.347 HD
BRANCH  82  85
ATOM     85  C   UNL A   1      32.087  23.530  23.555  1.00  0.00     0.183 C 
ATOM     86  C   UNL A   1      30.614  23.793  23.561  1.00  0.00     0.071 C 
ATOM     87  C   UNL A   1      31.540  24.713  22.815  1.00  0.00     0.071 C 
ENDBRANCH  82  85
ENDBRANCH  77  82
BRANCH  81  88
ATOM     88  S   UNL A   1      33.716  20.394  24.474  1.00  0.00    -0.155 SA
BRANCH  88  89
ATOM     89  C   UNL A   1      33.823  18.590  24.703  1.00  0.00     0.047 C 
ATOM     90  C   UNL A   1      32.695  17.998  25.539  1.00  0.00     0.014 C 
ATOM     91  C   UNL A   1      33.878  17.684  23.480  1.00  0.00     0.014 C 
ATOM     92  C   UNL A   1      32.938  16.499  25.420  1.00  0.00     0.001 C 
ATOM     93  C   UNL A   1      33.545  16.292  24.031  1.00  0.00     0.001 C 
ENDBRANCH  88  89
ENDBRANCH  81  88
ENDBRANCH  74  77
ENDBRANCH  72  73
ENDBRANCH  71  72
ENDBRANCH   1  71
TORSDOF 17
ENDMDL
MODEL 2
REMARK VINA RESULT:     -12.0      4.904     10.348
REMARK SMILES O=C(NCCCNC(=O)[C@@]1([NH2+]C2CC2)CC[C@H](SC2CCCC2)C1)c1ccc(-c2c3nc(c(-c4cccc(S(=O)(=O)[O-])c4F)c4ccc([nH]4)c(-c4cccc(S(=O)(=O)[O-])c4F)c4nc(c(-c5cccc(S(=O)(=O)[O-])c5F)c5ccc2[nH]5)C=C4)C=C3)cc1
REMARK SMILES IDX 4 1 3 2 1 3 2 4 25 6 26 7 87 8 27 9 86 10 28 11 29 12 30 13
REMARK SMILES IDX 80 14 31 15 85 16 79 17 81 18 32 19 84 20 78 21 77 22 33 24
REMARK SMILES IDX 65 25 45 26 64 27 46 28 49 29 63 30 82 31 47 32 48 33 62 35
REMARK SMILES IDX 83 36 50 37 34 38 35 39 43 40 36 41 38 42 44 43 37 44 39 45
REMARK SMILES IDX 40 46 41 47 42 48 66 49 67 50 75 51 68 52 70 53 76 54 69 55
REMARK SMILES IDX 71 56 72 57 73 58 74 59 51 60 52 61 60 62 53 63 55 64 61 65
REMARK SMILES IDX 54 66 56 67 57 68 58 69 59 70 5 71 6 72 7 73 8 74 9 76 10 77
REMARK SMILES IDX 15 78 24 79 16 80 17 81 11 82 12 85 13 86 14 87 18 88 19 89
REMARK SMILES IDX 20 90 23 91 21 92 22 93
REMARK H PARENT 3 5 81 23 49 34 7 75 11 83 11 84
REMARK Flexibility Score: inf
ROOT
ATOM      1  C   UNL A   1      36.067  21.748  25.715  1.00  0.00     0.118 C 
ENDROOT
BRANCH   1   2
ATOM      2  N   UNL A   1      37.202  20.861  25.498  1.00  0.00    -0.352 N 
ATOM      3  O   UNL A   1      39.292  20.065  25.400  1.00  0.00    -0.269 OA
ATOM      4  C   UNL A   1      38.551  20.976  25.755  1.00  0.00     0.251 C 
ATOM      5  H   UNL A   1      36.954  20.003  25.084  1.00  0.00     0.163 HD
BRANCH   4   6
ATOM      6  C   UNL A   1      39.132  22.193  26.378  1.00  0.00     0.039 A 
ATOM      7  C   UNL A   1      38.639  23.463  26.118  1.00  0.00     0.014 A 
ATOM      8  C   UNL A   1      40.208  22.059  27.265  1.00  0.00     0.014 A 
ATOM      9  C   UNL A   1      39.359  24.586  26.505  1.00  0.00     0.010 A 
ATOM     10  C   UNL A   1      40.839  23.197  27.790  1.00  0.00     0.010 A 
ATOM     11  C   UNL A   1      40.468  24.476  27.357  1.00  0.00    -0.014 A 
BRANCH  11  12
ATOM     12  C   UNL A   1      41.178  25.721  27.772  1.00  0.00     0.031 A 
ATOM     13  C   UNL A   1      42.564  26.041  27.267  1.00  0.00     0.074 A 
ATOM     14  C   UNL A   1      40.535  26.611  28.557  1.00  0.00     0.049 A 
ATOM     15  N   UNL A   1      43.277  27.124  27.460  1.00  0.00    -0.248 NA
ATOM     16  C   UNL A   1      43.250  25.020  26.460  1.00  0.00     0.031 C 
ATOM     17  C   UNL A   1      39.213  26.402  29.157  1.00  0.00     0.029 A 
ATOM     18  N   UNL A   1      40.875  27.880  28.955  1.00  0.00    -0.354 N 
ATOM     19  C   UNL A   1      44.509  26.887  26.862  1.00  0.00     0.074 A 
ATOM     20  C   UNL A   1      44.451  25.557  26.296  1.00  0.00     0.031 C 
ATOM     21  C   UNL A   1      38.818  27.529  29.763  1.00  0.00     0.029 A 
ATOM     22  C   UNL A   1      39.884  28.518  29.667  1.00  0.00     0.049 A 
ATOM     23  H   UNL A   1      41.744  28.294  28.750  1.00  0.00     0.167 HD
ATOM     24  C   UNL A   1      45.585  27.705  26.775  1.00  0.00     0.034 A 
ATOM     25  C   UNL A   1      39.832  29.759  30.187  1.00  0.00     0.034 A 
ATOM     26  C   UNL A   1      45.616  29.056  27.268  1.00  0.00     0.049 A 
ATOM     27  C   UNL A   1      41.007  30.674  30.000  1.00  0.00     0.074 A 
ATOM     28  C   UNL A   1      46.636  29.986  27.165  1.00  0.00     0.029 A 
ATOM     29  N   UNL A   1      44.578  29.677  27.945  1.00  0.00    -0.354 N 
ATOM     30  N   UNL A   1      42.118  30.463  29.337  1.00  0.00    -0.248 NA
ATOM     31  C   UNL A   1      40.917  32.003  30.619  1.00  0.00     0.031 C 
ATOM     32  C   UNL A   1      46.217  31.167  27.789  1.00  0.00     0.029 A 
ATOM     33  C   UNL A   1      44.932  30.977  28.267  1.00  0.00     0.049 A 
ATOM     34  H   UNL A   1      43.716  29.256  28.164  1.00  0.00     0.167 HD
ATOM     35  C   UNL A   1      42.852  31.636  29.444  1.00  0.00     0.074 A 
ATOM     36  C   UNL A   1      42.044  32.567  30.206  1.00  0.00     0.031 C 
ATOM     37  C   UNL A   1      44.094  31.909  28.977  1.00  0.00     0.034 A 
BRANCH  24  38
ATOM     38  C   UNL A   1      46.818  27.178  26.087  1.00  0.00     0.023 A 
ATOM     39  C   UNL A   1      46.962  27.332  24.693  1.00  0.00     0.012 A 
ATOM     40  C   UNL A   1      47.866  26.594  26.826  1.00  0.00     0.148 A 
ATOM     41  C   UNL A   1      48.114  26.890  24.044  1.00  0.00     0.002 A 
ATOM     42  C   UNL A   1      49.028  26.190  26.178  1.00  0.00     0.091 A 
ATOM     43  F   UNL A   1      47.703  26.432  28.148  1.00  0.00    -0.205 F 
ATOM     44  C   UNL A   1      49.150  26.329  24.787  1.00  0.00     0.022 A 
BRANCH  42  45
ATOM     45  S   UNL A   1      50.445  25.529  27.064  1.00  0.00     0.127 S 
ATOM     46  O   UNL A   1      49.882  24.321  27.664  1.00  0.00    -0.237 OA
ATOM     47  O   UNL A   1      51.402  25.284  25.983  1.00  0.00    -0.237 OA
ATOM     48  O   UNL A   1      50.850  26.569  27.999  1.00  0.00    -0.744 OA
ENDBRANCH  42  45
ENDBRANCH  24  38
BRANCH  25  49
ATOM     49  C   UNL A   1      38.595  30.221  30.879  1.00  0.00     0.023 A 
ATOM     50  C   UNL A   1      38.477  30.055  32.273  1.00  0.00     0.012 A 
ATOM     51  C   UNL A   1      37.564  30.878  30.180  1.00  0.00     0.148 A 
ATOM     52  C   UNL A   1      37.350  30.517  32.953  1.00  0.00     0.002 A 
ATOM     53  C   UNL A   1      36.476  31.395  30.871  1.00  0.00     0.091 A 
ATOM     54  F   UNL A   1      37.679  31.006  28.849  1.00  0.00    -0.205 F 
ATOM     55  C   UNL A   1      36.357  31.202  32.256  1.00  0.00     0.022 A 
BRANCH  53  56
ATOM     56  S   UNL A   1      35.246  32.428  30.065  1.00  0.00     0.127 S 
ATOM     57  O   UNL A   1      34.299  32.669  31.150  1.00  0.00    -0.237 OA
ATOM     58  O   UNL A   1      36.037  33.593  29.665  1.00  0.00    -0.237 OA
ATOM     59  O   UNL A   1      34.753  31.634  28.948  1.00  0.00    -0.744 OA
ENDBRANCH  53  56
ENDBRANCH  25  49
BRANCH  37  60
ATOM     60  C   UNL A   1      44.651  33.278  29.258  1.00  0.00     0.023 A 
ATOM     61  C   UNL A   1      45.302  33.526  30.483  1.00  0.00     0.012 A 
ATOM     62  C   UNL A   1      44.580  34.299  28.292  1.00  0.00     0.148 A 
ATOM     63  C   UNL A   1      45.844  34.781  30.755  1.00  0.00     0.002 A 
ATOM     64  C   UNL A   1      45.161  35.534  28.553  1.00  0.00     0.091 A 
ATOM     65  F   UNL A   1      43.936  34.052  27.142  1.00  0.00    -0.205 F 
ATOM     66  C   UNL A   1      45.784  35.781  29.787  1.00  0.00     0.022 A 
BRANCH  64  67
ATOM     67  S   UNL A   1      45.201  36.843  27.323  1.00  0.00     0.127 S 
ATOM     68  O   UNL A   1      45.930  36.205  26.230  1.00  0.00    -0.237 OA
ATOM     69  O   UNL A   1      43.779  37.071  27.057  1.00  0.00    -0.237 OA
ATOM     70  O   UNL A   1      45.875  37.965  27.965  1.00  0.00    -0.744 OA
ENDBRANCH  64  67
ENDBRANCH  37  60
ENDBRANCH  11  12
ENDBRANCH   4   6
ENDBRANCH   1   2
BRANCH   1  71
ATOM     71  C   UNL A   1      35.135  21.899  24.516  1.00  0.00     0.042 C 
BRANCH  71  72
ATOM     72  C   UNL A   1      34.565  23.302  24.357  1.00  0.00     0.118 C 
BRANCH  72  73
ATOM     73  N   UNL A   1      33.401  23.559  25.188  1.00  0.00    -0.351 N 
ATOM     74  C   UNL A   1      32.329  24.362  24.948  1.00  0.00     0.281 C 
ATOM     75  H   UNL A   1      33.385  23.083  26.049  1.00  0.00     0.163 HD
ATOM     76  O   UNL A   1      31.329  24.137  25.645  1.00  0.00    -0.268 OA
BRANCH  74  77
ATOM     77  C   UNL A   1      32.370  25.586  24.002  1.00  0.00     0.176 C 
ATOM     78  C   UNL A   1      32.298  25.171  22.520  1.00  0.00     0.080 C 
ATOM     79  C   UNL A   1      30.994  26.299  24.101  1.00  0.00     0.093 C 
ATOM     80  C   UNL A   1      31.806  26.422  21.804  1.00  0.00     0.022 C 
ATOM     81  C   UNL A   1      30.833  27.094  22.782  1.00  0.00     0.054 C 
BRANCH  77  82
ATOM     82  N   UNL A   1      33.413  26.583  24.292  1.00  0.00    -0.331 N 
ATOM     83  H   UNL A   1      33.125  27.432  23.804  1.00  0.00     0.347 HD
ATOM     84  H   UNL A   1      34.251  26.072  24.012  1.00  0.00     0.347 HD
BRANCH  82  85
ATOM     85  C   UNL A   1      33.790  27.011  25.629  1.00  0.00     0.183 C 
ATOM     86  C   UNL A   1      33.915  28.432  26.082  1.00  0.00     0.071 C 
ATOM     87  C   UNL A   1      32.781  27.578  26.580  1.00  0.00     0.071 C 
ENDBRANCH  82  85
ENDBRANCH  77  82
BRANCH  81  88
ATOM     88  S   UNL A   1      31.196  28.862  23.121  1.00  0.00    -0.155 SA
BRANCH  88  89
ATOM     89  C   UNL A   1      29.618  29.736  22.868  1.00  0.00     0.047 C 
ATOM     90  C   UNL A   1      28.387  28.844  22.965  1.00  0.00     0.014 C 
ATOM     91  C   UNL A   1      29.272  30.923  23.756  1.00  0.00     0.014 C 
ATOM     92  C   UNL A   1      27.240  29.842  22.889  1.00  0.00     0.001 C 
ATOM     93  C   UNL A   1      27.765  31.119  23.547  1.00  0.00     0.001 C 
ENDBRANCH  88  89
ENDBRANCH  81  88
ENDBRANCH  74  77
ENDBRANCH  72  73
ENDBRANCH  71  72
ENDBRANCH   1  71
TORSDOF 17
ENDMDL
MODEL 3
REMARK VINA RESULT:     -11.9      5.307     10.445
REMARK SMILES O=C(NCCCNC(=O)[C@@]1([NH2+]C2CC2)CC[C@H](SC2CCCC2)C1)c1ccc(-c2c3nc(c(-c4cccc(S(=O)(=O)[O-])c4F)c4ccc([nH]4)c(-c4cccc(S(=O)(=O)[O-])c4F)c4nc(c(-c5cccc(S(=O)(=O)[O-])c5F)c5ccc2[nH]5)C=C4)C=C3)cc1
REMARK SMILES IDX 4 1 3 2 1 3 2 4 25 6 26 7 87 8 27 9 86 10 28 11 29 12 30 13
REMARK SMILES IDX 80 14 31 15 85 16 79 17 81 18 32 19 84 20 78 21 77 22 33 24
REMARK SMILES IDX 65 25 45 26 64 27 46 28 49 29 63 30 82 31 47 32 48 33 62 35
REMARK SMILES IDX 83 36 50 37 34 38 35 39 43 40 36 41 38 42 44 43 37 44 39 45
REMARK SMILES IDX 40 46 41 47 42 48 66 49 67 50 75 51 68 52 70 53 76 54 69 55
REMARK SMILES IDX 71 56 72 57 73 58 74 59 51 60 52 61 60 62 53 63 55 64 61 65
REMARK SMILES IDX 54 66 56 67 57 68 58 69 59 70 5 71 6 72 7 73 8 74 9 76 10 77
REMARK SMILES IDX 15 78 24 79 16 80 17 81 11 82 12 85 13 86 14 87 18 88 19 89
REMARK SMILES IDX 20 90 23 91 21 92 22 93
REMARK H PARENT 3 5 81 23 49 34 7 75 11 83 11 84
REMARK Flexibility Score: inf
ROOT
ATOM      1  C   UNL A   1      36.561  22.262  24.741  1.00  0.00     0.118 C 
ENDROOT
BRANCH   1   2
ATOM      2  N   UNL A   1      37.515  21.206  25.052  1.00  0.00    -0.352 N 
ATOM      3  O   UNL A   1      39.331  20.133  25.801  1.00  0.00    -0.269 OA
ATOM      4  C   UNL A   1      38.702  21.184  25.753  1.00  0.00     0.251 C 
ATOM      5  H   UNL A   1      37.259  20.328  24.689  1.00  0.00     0.163 HD
BRANCH   4   6
ATOM      6  C   UNL A   1      39.266  22.406  26.382  1.00  0.00     0.039 A 
ATOM      7  C   UNL A   1      38.771  23.673  26.111  1.00  0.00     0.014 A 
ATOM      8  C   UNL A   1      40.328  22.280  27.288  1.00  0.00     0.014 A 
ATOM      9  C   UNL A   1      39.479  24.801  26.507  1.00  0.00     0.010 A 
ATOM     10  C   UNL A   1      40.944  23.422  27.820  1.00  0.00     0.010 A 
ATOM     11  C   UNL A   1      40.574  24.698  27.378  1.00  0.00    -0.014 A 
BRANCH  11  12
ATOM     12  C   UNL A   1      41.271  25.948  27.801  1.00  0.00     0.031 A 
ATOM     13  C   UNL A   1      42.651  26.289  27.295  1.00  0.00     0.074 A 
ATOM     14  C   UNL A   1      40.620  26.823  28.596  1.00  0.00     0.049 A 
ATOM     15  N   UNL A   1      43.352  27.378  27.495  1.00  0.00    -0.248 NA
ATOM     16  C   UNL A   1      43.347  25.283  26.476  1.00  0.00     0.031 C 
ATOM     17  C   UNL A   1      39.302  26.594  29.198  1.00  0.00     0.029 A 
ATOM     18  N   UNL A   1      40.946  28.093  29.004  1.00  0.00    -0.354 N 
ATOM     19  C   UNL A   1      44.584  27.161  26.890  1.00  0.00     0.074 A 
ATOM     20  C   UNL A   1      44.540  25.836  26.312  1.00  0.00     0.031 C 
ATOM     21  C   UNL A   1      38.896  27.711  29.816  1.00  0.00     0.029 A 
ATOM     22  C   UNL A   1      39.950  28.713  29.725  1.00  0.00     0.049 A 
ATOM     23  H   UNL A   1      41.810  28.519  28.800  1.00  0.00     0.167 HD
ATOM     24  C   UNL A   1      45.651  27.992  26.807  1.00  0.00     0.034 A 
ATOM     25  C   UNL A   1      39.885  29.949  30.256  1.00  0.00     0.034 A 
ATOM     26  C   UNL A   1      45.667  29.340  27.311  1.00  0.00     0.049 A 
ATOM     27  C   UNL A   1      41.049  30.879  30.074  1.00  0.00     0.074 A 
ATOM     28  C   UNL A   1      46.675  30.283  27.214  1.00  0.00     0.029 A 
ATOM     29  N   UNL A   1      44.624  29.942  27.997  1.00  0.00    -0.354 N 
ATOM     30  N   UNL A   1      42.160  30.687  29.405  1.00  0.00    -0.248 NA
ATOM     31  C   UNL A   1      40.945  32.202  30.705  1.00  0.00     0.031 C 
ATOM     32  C   UNL A   1      46.245  31.453  27.849  1.00  0.00     0.029 A 
ATOM     33  C   UNL A   1      44.963  31.244  28.330  1.00  0.00     0.049 A 
ATOM     34  H   UNL A   1      43.768  29.509  28.216  1.00  0.00     0.167 HD
ATOM     35  C   UNL A   1      42.881  31.868  29.520  1.00  0.00     0.074 A 
ATOM     36  C   UNL A   1      42.064  32.783  30.292  1.00  0.00     0.031 C 
ATOM     37  C   UNL A   1      44.118  32.159  29.051  1.00  0.00     0.034 A 
BRANCH  24  38
ATOM     38  C   UNL A   1      46.887  27.486  26.110  1.00  0.00     0.023 A 
ATOM     39  C   UNL A   1      47.792  26.656  26.803  1.00  0.00     0.012 A 
ATOM     40  C   UNL A   1      47.120  27.774  24.750  1.00  0.00     0.148 A 
ATOM     41  C   UNL A   1      48.919  26.144  26.163  1.00  0.00     0.002 A 
ATOM     42  C   UNL A   1      48.226  27.228  24.108  1.00  0.00     0.091 A 
ATOM     43  F   UNL A   1      46.263  28.585  24.112  1.00  0.00    -0.205 F 
ATOM     44  C   UNL A   1      49.130  26.420  24.814  1.00  0.00     0.022 A 
BRANCH  42  45
ATOM     45  S   UNL A   1      48.535  27.466  22.353  1.00  0.00     0.127 S 
ATOM     46  O   UNL A   1      49.777  28.236  22.373  1.00  0.00    -0.237 OA
ATOM     47  O   UNL A   1      48.679  26.090  21.872  1.00  0.00    -0.237 OA
ATOM     48  O   UNL A   1      47.368  28.165  21.835  1.00  0.00    -0.744 OA
ENDBRANCH  42  45
ENDBRANCH  24  38
BRANCH  25  49
ATOM     49  C   UNL A   1      38.645  30.390  30.957  1.00  0.00     0.023 A 
ATOM     50  C   UNL A   1      38.539  30.220  32.351  1.00  0.00     0.012 A 
ATOM     51  C   UNL A   1      37.599  31.031  30.264  1.00  0.00     0.148 A 
ATOM     52  C   UNL A   1      37.409  30.664  33.038  1.00  0.00     0.002 A 
ATOM     53  C   UNL A   1      36.508  31.529  30.963  1.00  0.00     0.091 A 
ATOM     54  F   UNL A   1      37.704  31.162  28.934  1.00  0.00    -0.205 F 
ATOM     55  C   UNL A   1      36.401  31.333  32.348  1.00  0.00     0.022 A 
BRANCH  53  56
ATOM     56  S   UNL A   1      35.256  32.543  30.166  1.00  0.00     0.127 S 
ATOM     57  O   UNL A   1      34.319  32.778  31.260  1.00  0.00    -0.237 OA
ATOM     58  O   UNL A   1      36.028  33.716  29.751  1.00  0.00    -0.237 OA
ATOM     59  O   UNL A   1      34.761  31.738  29.058  1.00  0.00    -0.744 OA
ENDBRANCH  53  56
ENDBRANCH  25  49
BRANCH  37  60
ATOM     60  C   UNL A   1      44.659  33.532  29.342  1.00  0.00     0.023 A 
ATOM     61  C   UNL A   1      45.387  33.756  30.527  1.00  0.00     0.012 A 
ATOM     62  C   UNL A   1      44.497  34.583  28.420  1.00  0.00     0.148 A 
ATOM     63  C   UNL A   1      45.916  35.015  30.807  1.00  0.00     0.002 A 
ATOM     64  C   UNL A   1      45.064  35.824  28.685  1.00  0.00     0.091 A 
ATOM     65  F   UNL A   1      43.780  34.358  27.308  1.00  0.00    -0.205 F 
ATOM     66  C   UNL A   1      45.765  36.045  29.882  1.00  0.00     0.022 A 
BRANCH  64  67
ATOM     67  S   UNL A   1      44.987  37.175  27.502  1.00  0.00     0.127 S 
ATOM     68  O   UNL A   1      45.462  38.301  28.302  1.00  0.00    -0.237 OA
ATOM     69  O   UNL A   1      45.913  36.734  26.458  1.00  0.00    -0.237 OA
ATOM     70  O   UNL A   1      43.594  37.243  27.076  1.00  0.00    -0.744 OA
ENDBRANCH  64  67
ENDBRANCH  37  60
ENDBRANCH  11  12
ENDBRANCH   4   6
ENDBRANCH   1   2
BRANCH   1  71
ATOM     71  C   UNL A   1      35.383  22.363  25.705  1.00  0.00     0.042 C 
BRANCH  71  72
ATOM     72  C   UNL A   1      34.150  23.018  25.097  1.00  0.00     0.118 C 
BRANCH  72  73
ATOM     73  N   UNL A   1      33.275  23.640  26.076  1.00  0.00    -0.351 N 
ATOM     74  C   UNL A   1      32.374  24.648  25.912  1.00  0.00     0.281 C 
ATOM     75  H   UNL A   1      33.343  23.282  26.990  1.00  0.00     0.163 HD
ATOM     76  O   UNL A   1      31.524  24.751  26.807  1.00  0.00    -0.268 OA
BRANCH  74  77
ATOM     77  C   UNL A   1      32.472  25.711  24.793  1.00  0.00     0.176 C 
ATOM     78  C   UNL A   1      32.554  25.070  23.395  1.00  0.00     0.080 C 
ATOM     79  C   UNL A   1      31.074  26.373  24.653  1.00  0.00     0.093 C 
ATOM     80  C   UNL A   1      32.099  26.173  22.448  1.00  0.00     0.022 C 
ATOM     81  C   UNL A   1      31.019  26.947  23.216  1.00  0.00     0.054 C 
BRANCH  77  82
ATOM     82  N   UNL A   1      33.455  26.785  25.014  1.00  0.00    -0.331 N 
ATOM     83  H   UNL A   1      33.131  27.574  24.456  1.00  0.00     0.347 HD
ATOM     84  H   UNL A   1      34.324  26.299  24.787  1.00  0.00     0.347 HD
BRANCH  82  85
ATOM     85  C   UNL A   1      33.786  27.338  26.317  1.00  0.00     0.183 C 
ATOM     86  C   UNL A   1      34.155  28.762  26.586  1.00  0.00     0.071 C 
ATOM     87  C   UNL A   1      32.830  28.225  27.053  1.00  0.00     0.071 C 
ENDBRANCH  82  85
ENDBRANCH  77  82
BRANCH  81  88
ATOM     88  S   UNL A   1      31.299  28.760  23.302  1.00  0.00    -0.155 SA
BRANCH  88  89
ATOM     89  C   UNL A   1      29.686  29.517  22.926  1.00  0.00     0.047 C 
ATOM     90  C   UNL A   1      28.497  28.584  23.122  1.00  0.00     0.014 C 
ATOM     91  C   UNL A   1      29.269  30.787  23.655  1.00  0.00     0.014 C 
ATOM     92  C   UNL A   1      27.305  29.508  22.910  1.00  0.00     0.001 C 
ATOM     93  C   UNL A   1      27.759  30.881  23.408  1.00  0.00     0.001 C 
ENDBRANCH  88  89
ENDBRANCH  81  88
ENDBRANCH  74  77
ENDBRANCH  72  73
ENDBRANCH  71  72
ENDBRANCH   1  71
TORSDOF 17
ENDMDL
