MODEL 1
REMARK VINA RESULT:     -10.8      0.000      0.000
REMARK SMILES COCC(=O)N[C@H]1C=C[C@@H](C(=O)NCCCNC(=O)c2ccc(-c3c4nc(c(-c5cccc(S(=O)(=O)[O-])c5F)c5ccc([nH]5)c(-c5cccc(S(=O)(=O)[O-])c5F)c5nc(c(-c6cccc(S(=O)(=O)[O-])c6F)c6ccc3[nH]6)C=C5)C=C4)cc2)C1
REMARK SMILES IDX 15 1 14 2 13 3 11 4 12 5 10 7 7 8 8 9 83 10 9 11 6 12 4 13
REMARK SMILES IDX 5 14 3 16 2 17 1 18 16 19 17 20 18 21 19 23 20 24 21 25
REMARK SMILES IDX 82 26 22 27 81 28 23 29 24 30 25 31 75 32 26 33 80 34 74 35
REMARK SMILES IDX 76 36 27 37 79 38 73 39 72 40 28 42 60 43 40 44 59 45 41 46
REMARK SMILES IDX 44 47 58 48 77 49 42 50 43 51 57 53 78 54 45 55 29 56 30 57
REMARK SMILES IDX 38 58 31 59 33 60 39 61 32 62 34 63 35 64 36 65 37 66 61 67
REMARK SMILES IDX 62 68 70 69 63 70 65 71 71 72 64 73 66 74 67 75 68 76 69 77
REMARK SMILES IDX 46 78 47 79 55 80 48 81 50 82 56 83 49 84 51 85 52 86 53 87
REMARK SMILES IDX 54 88
REMARK H PARENT 13 6 6 15 17 22 76 41 44 52
REMARK Flexibility Score: inf
ROOT
ATOM      1  C   UNL A   1      34.714  21.584  24.698  1.00  0.00     0.042 C 
ENDROOT
BRANCH   1   2
ATOM      2  C   UNL A   1      33.494  20.865  25.272  1.00  0.00     0.117 C 
BRANCH   2   3
ATOM      3  N   UNL A   1      33.221  21.302  26.634  1.00  0.00    -0.356 N 
ATOM      4  C   UNL A   1      32.677  22.436  27.150  1.00  0.00     0.227 C 
ATOM      5  O   UNL A   1      32.791  22.577  28.376  1.00  0.00    -0.274 OA
ATOM      6  H   UNL A   1      33.483  20.645  27.319  1.00  0.00     0.163 HD
BRANCH   4   7
ATOM      7  C   UNL A   1      31.923  23.516  26.354  1.00  0.00     0.103 C 
ATOM      8  C   UNL A   1      31.997  24.951  24.377  1.00  0.00     0.106 C 
ATOM      9  C   UNL A   1      30.948  23.898  24.250  1.00  0.00    -0.006 C 
ATOM     10  C   UNL A   1      32.809  24.536  25.613  1.00  0.00     0.047 C 
ATOM     11  C   UNL A   1      30.908  23.107  25.330  1.00  0.00    -0.016 C 
BRANCH   8  12
ATOM     12  N   UNL A   1      32.652  25.194  23.109  1.00  0.00    -0.348 N 
ATOM     13  C   UNL A   1      32.828  26.308  22.343  1.00  0.00     0.246 C 
ATOM     14  O   UNL A   1      33.653  26.258  21.429  1.00  0.00    -0.272 OA
ATOM     15  H   UNL A   1      33.054  24.385  22.718  1.00  0.00     0.164 HD
BRANCH  13  16
ATOM     16  C   UNL A   1      32.058  27.582  22.633  1.00  0.00     0.259 C 
BRANCH  16  17
ATOM     17  O   UNL A   1      30.773  27.582  22.044  1.00  0.00    -0.375 OA
ATOM     18  C   UNL A   1      29.716  27.782  22.973  1.00  0.00     0.195 C 
ENDBRANCH  16  17
ENDBRANCH  13  16
ENDBRANCH   8  12
ENDBRANCH   4   7
ENDBRANCH   2   3
ENDBRANCH   1   2
BRANCH   1  19
ATOM     19  C   UNL A   1      35.830  21.890  25.684  1.00  0.00     0.118 C 
BRANCH  19  20
ATOM     20  N   UNL A   1      36.900  20.905  25.623  1.00  0.00    -0.352 N 
ATOM     21  C   UNL A   1      38.266  21.004  25.743  1.00  0.00     0.251 C 
ATOM     22  H   UNL A   1      36.582  19.986  25.467  1.00  0.00     0.163 HD
ATOM     23  O   UNL A   1      38.934  20.026  25.402  1.00  0.00    -0.269 OA
BRANCH  21  24
ATOM     24  C   UNL A   1      38.974  22.218  26.247  1.00  0.00     0.039 A 
ATOM     25  C   UNL A   1      38.574  23.469  25.752  1.00  0.00     0.014 A 
ATOM     26  C   UNL A   1      40.077  22.169  27.098  1.00  0.00     0.014 A 
ATOM     27  C   UNL A   1      39.249  24.641  26.126  1.00  0.00     0.010 A 
ATOM     28  C   UNL A   1      40.681  23.345  27.557  1.00  0.00     0.010 A 
ATOM     29  C   UNL A   1      40.299  24.597  27.055  1.00  0.00    -0.014 A 
BRANCH  29  30
ATOM     30  C   UNL A   1      41.024  25.829  27.483  1.00  0.00     0.031 A 
ATOM     31  C   UNL A   1      40.309  26.913  28.256  1.00  0.00     0.074 A 
ATOM     32  C   UNL A   1      42.308  26.021  27.113  1.00  0.00     0.049 A 
ATOM     33  N   UNL A   1      40.751  28.084  28.644  1.00  0.00    -0.248 NA
ATOM     34  C   UNL A   1      38.903  26.664  28.615  1.00  0.00     0.031 C 
ATOM     35  C   UNL A   1      43.102  25.094  26.306  1.00  0.00     0.029 A 
ATOM     36  N   UNL A   1      43.160  27.075  27.341  1.00  0.00    -0.354 N 
ATOM     37  C   UNL A   1      39.670  28.725  29.241  1.00  0.00     0.074 A 
ATOM     38  C   UNL A   1      38.543  27.826  29.138  1.00  0.00     0.031 C 
ATOM     39  C   UNL A   1      44.321  25.617  26.105  1.00  0.00     0.029 A 
ATOM     40  C   UNL A   1      44.388  26.934  26.734  1.00  0.00     0.049 A 
ATOM     41  H   UNL A   1      42.916  27.857  27.887  1.00  0.00     0.167 HD
ATOM     42  C   UNL A   1      39.621  29.939  29.843  1.00  0.00     0.034 A 
ATOM     43  C   UNL A   1      45.443  27.771  26.671  1.00  0.00     0.034 A 
ATOM     44  C   UNL A   1      40.754  30.813  29.992  1.00  0.00     0.049 A 
ATOM     45  C   UNL A   1      45.379  29.093  27.384  1.00  0.00     0.074 A 
ATOM     46  C   UNL A   1      40.830  32.012  30.679  1.00  0.00     0.029 A 
ATOM     47  N   UNL A   1      42.005  30.591  29.439  1.00  0.00    -0.354 N 
ATOM     48  N   UNL A   1      44.395  29.610  28.078  1.00  0.00    -0.248 NA
ATOM     49  C   UNL A   1      46.584  29.935  27.335  1.00  0.00     0.031 C 
ATOM     50  C   UNL A   1      42.115  32.535  30.507  1.00  0.00     0.029 A 
ATOM     51  C   UNL A   1      42.853  31.640  29.750  1.00  0.00     0.049 A 
ATOM     52  H   UNL A   1      42.254  29.804  28.902  1.00  0.00     0.167 HD
ATOM     53  C   UNL A   1      44.872  30.818  28.576  1.00  0.00     0.074 A 
ATOM     54  C   UNL A   1      46.240  30.947  28.121  1.00  0.00     0.031 C 
ATOM     55  C   UNL A   1      44.228  31.741  29.333  1.00  0.00     0.034 A 
BRANCH  42  56
ATOM     56  C   UNL A   1      38.301  30.387  30.421  1.00  0.00     0.023 A 
ATOM     57  C   UNL A   1      37.973  30.065  31.755  1.00  0.00     0.012 A 
ATOM     58  C   UNL A   1      37.414  31.181  29.667  1.00  0.00     0.148 A 
ATOM     59  C   UNL A   1      36.765  30.485  32.312  1.00  0.00     0.002 A 
ATOM     60  C   UNL A   1      36.235  31.639  30.246  1.00  0.00     0.091 A 
ATOM     61  F   UNL A   1      37.733  31.466  28.397  1.00  0.00    -0.205 F 
ATOM     62  C   UNL A   1      35.903  31.280  31.562  1.00  0.00     0.022 A 
BRANCH  60  63
ATOM     63  S   UNL A   1      35.099  32.739  29.393  1.00  0.00     0.127 S 
ATOM     64  O   UNL A   1      34.595  31.872  28.328  1.00  0.00    -0.237 OA
ATOM     65  O   UNL A   1      34.125  33.046  30.441  1.00  0.00    -0.237 OA
ATOM     66  O   UNL A   1      35.895  33.875  28.951  1.00  0.00    -0.744 OA
ENDBRANCH  60  63
ENDBRANCH  42  56
BRANCH  43  67
ATOM     67  C   UNL A   1      46.672  27.359  25.933  1.00  0.00     0.023 A 
ATOM     68  C   UNL A   1      46.792  27.650  24.561  1.00  0.00     0.012 A 
ATOM     69  C   UNL A   1      47.732  26.708  26.593  1.00  0.00     0.148 A 
ATOM     70  C   UNL A   1      47.933  27.274  23.851  1.00  0.00     0.002 A 
ATOM     71  C   UNL A   1      48.889  26.388  25.894  1.00  0.00     0.091 A 
ATOM     72  F   UNL A   1      47.593  26.430  27.897  1.00  0.00    -0.205 F 
ATOM     73  C   UNL A   1      48.986  26.654  24.520  1.00  0.00     0.022 A 
BRANCH  71  74
ATOM     74  S   UNL A   1      50.345  25.707  26.698  1.00  0.00     0.127 S 
ATOM     75  O   UNL A   1      51.272  25.580  25.578  1.00  0.00    -0.237 OA
ATOM     76  O   UNL A   1      50.676  26.757  27.659  1.00  0.00    -0.237 OA
ATOM     77  O   UNL A   1      49.909  24.453  27.303  1.00  0.00    -0.744 OA
ENDBRANCH  71  74
ENDBRANCH  43  67
BRANCH  55  78
ATOM     78  C   UNL A   1      45.001  32.962  29.761  1.00  0.00     0.023 A 
ATOM     79  C   UNL A   1      45.763  32.938  30.945  1.00  0.00     0.012 A 
ATOM     80  C   UNL A   1      45.032  34.110  28.942  1.00  0.00     0.148 A 
ATOM     81  C   UNL A   1      46.517  34.048  31.325  1.00  0.00     0.002 A 
ATOM     82  C   UNL A   1      45.827  35.191  29.299  1.00  0.00     0.091 A 
ATOM     83  F   UNL A   1      44.287  34.120  27.827  1.00  0.00    -0.205 F 
ATOM     84  C   UNL A   1      46.560  35.168  30.497  1.00  0.00     0.022 A 
BRANCH  82  85
ATOM     85  S   UNL A   1      46.023  36.634  28.248  1.00  0.00     0.127 S 
ATOM     86  O   UNL A   1      44.833  37.415  28.588  1.00  0.00    -0.237 OA
ATOM     87  O   UNL A   1      47.282  37.201  28.731  1.00  0.00    -0.237 OA
ATOM     88  O   UNL A   1      46.068  36.134  26.880  1.00  0.00    -0.744 OA
ENDBRANCH  82  85
ENDBRANCH  55  78
ENDBRANCH  29  30
ENDBRANCH  21  24
ENDBRANCH  19  20
ENDBRANCH   1  19
TORSDOF 16
ENDMDL
MODEL 2
REMARK VINA RESULT:     -10.6      5.204      9.896
REMARK SMILES COCC(=O)N[C@H]1C=C[C@@H](C(=O)NCCCNC(=O)c2ccc(-c3c4nc(c(-c5cccc(S(=O)(=O)[O-])c5F)c5ccc([nH]5)c(-c5cccc(S(=O)(=O)[O-])c5F)c5nc(c(-c6cccc(S(=O)(=O)[O-])c6F)c6ccc3[nH]6)C=C5)C=C4)cc2)C1
REMARK SMILES IDX 15 1 14 2 13 3 11 4 12 5 10 7 7 8 8 9 83 10 9 11 6 12 4 13
REMARK SMILES IDX 5 14 3 16 2 17 1 18 16 19 17 20 18 21 19 23 20 24 21 25
REMARK SMILES IDX 82 26 22 27 81 28 23 29 24 30 25 31 75 32 26 33 80 34 74 35
REMARK SMILES IDX 76 36 27 37 79 38 73 39 72 40 28 42 60 43 40 44 59 45 41 46
REMARK SMILES IDX 44 47 58 48 77 49 42 50 43 51 57 53 78 54 45 55 29 56 30 57
REMARK SMILES IDX 38 58 31 59 33 60 39 61 32 62 34 63 35 64 36 65 37 66 61 67
REMARK SMILES IDX 62 68 70 69 63 70 65 71 71 72 64 73 66 74 67 75 68 76 69 77
REMARK SMILES IDX 46 78 47 79 55 80 48 81 50 82 56 83 49 84 51 85 52 86 53 87
REMARK SMILES IDX 54 88
REMARK H PARENT 13 6 6 15 17 22 76 41 44 52
REMARK Flexibility Score: inf
ROOT
ATOM      1  C   UNL A   1      32.409  28.686  23.421  1.00  0.00     0.042 C 
ENDROOT
BRANCH   1   2
ATOM      2  C   UNL A   1      31.511  27.459  23.574  1.00  0.00     0.117 C 
BRANCH   2   3
ATOM      3  N   UNL A   1      31.184  27.221  24.973  1.00  0.00    -0.356 N 
ATOM      4  C   UNL A   1      31.306  26.134  25.778  1.00  0.00     0.227 C 
ATOM      5  O   UNL A   1      30.723  26.205  26.870  1.00  0.00    -0.274 OA
ATOM      6  H   UNL A   1      30.796  28.005  25.425  1.00  0.00     0.163 HD
BRANCH   4   7
ATOM      7  C   UNL A   1      32.117  24.864  25.462  1.00  0.00     0.103 C 
ATOM      8  C   UNL A   1      34.347  23.865  25.491  1.00  0.00     0.106 C 
ATOM      9  C   UNL A   1      33.450  23.233  26.502  1.00  0.00    -0.006 C 
ATOM     10  C   UNL A   1      33.571  25.100  25.010  1.00  0.00     0.047 C 
ATOM     11  C   UNL A   1      32.229  23.782  26.492  1.00  0.00    -0.016 C 
BRANCH   8  12
ATOM     12  N   UNL A   1      35.698  23.989  25.994  1.00  0.00    -0.348 N 
ATOM     13  C   UNL A   1      36.916  23.610  25.514  1.00  0.00     0.246 C 
ATOM     14  O   UNL A   1      37.922  24.080  26.048  1.00  0.00    -0.272 OA
ATOM     15  H   UNL A   1      35.748  24.445  26.866  1.00  0.00     0.164 HD
BRANCH  13  16
ATOM     16  C   UNL A   1      37.027  22.664  24.333  1.00  0.00     0.259 C 
BRANCH  16  17
ATOM     17  O   UNL A   1      37.329  21.341  24.728  1.00  0.00    -0.375 OA
ATOM     18  C   UNL A   1      36.181  20.548  25.001  1.00  0.00     0.195 C 
ENDBRANCH  16  17
ENDBRANCH  13  16
ENDBRANCH   8  12
ENDBRANCH   4   7
ENDBRANCH   2   3
ENDBRANCH   1   2
BRANCH   1  19
ATOM     19  C   UNL A   1      33.188  29.098  24.659  1.00  0.00     0.118 C 
BRANCH  19  20
ATOM     20  N   UNL A   1      32.590  30.247  25.325  1.00  0.00    -0.352 N 
ATOM     21  C   UNL A   1      32.850  30.869  26.523  1.00  0.00     0.251 C 
ATOM     22  H   UNL A   1      31.853  30.659  24.816  1.00  0.00     0.163 HD
ATOM     23  O   UNL A   1      32.012  31.674  26.933  1.00  0.00    -0.269 OA
BRANCH  21  24
ATOM     24  C   UNL A   1      34.071  30.620  27.344  1.00  0.00     0.039 A 
ATOM     25  C   UNL A   1      34.912  31.709  27.627  1.00  0.00     0.014 A 
ATOM     26  C   UNL A   1      34.478  29.351  27.754  1.00  0.00     0.014 A 
ATOM     27  C   UNL A   1      36.114  31.528  28.326  1.00  0.00     0.010 A 
ATOM     28  C   UNL A   1      35.621  29.186  28.546  1.00  0.00     0.010 A 
ATOM     29  C   UNL A   1      36.474  30.265  28.818  1.00  0.00    -0.014 A 
BRANCH  29  30
ATOM     30  C   UNL A   1      37.739  30.046  29.579  1.00  0.00     0.031 A 
ATOM     31  C   UNL A   1      38.816  29.135  29.035  1.00  0.00     0.074 A 
ATOM     32  C   UNL A   1      37.899  30.600  30.799  1.00  0.00     0.049 A 
ATOM     33  N   UNL A   1      39.944  28.764  29.588  1.00  0.00    -0.248 NA
ATOM     34  C   UNL A   1      38.583  28.539  27.709  1.00  0.00     0.031 C 
ATOM     35  C   UNL A   1      36.914  31.442  31.479  1.00  0.00     0.029 A 
ATOM     36  N   UNL A   1      38.935  30.511  31.697  1.00  0.00    -0.354 N 
ATOM     37  C   UNL A   1      40.524  27.856  28.707  1.00  0.00     0.074 A 
ATOM     38  C   UNL A   1      39.610  27.710  27.596  1.00  0.00     0.031 C 
ATOM     39  C   UNL A   1      37.391  31.791  32.685  1.00  0.00     0.029 A 
ATOM     40  C   UNL A   1      38.697  31.169  32.882  1.00  0.00     0.049 A 
ATOM     41  H   UNL A   1      39.770  30.022  31.511  1.00  0.00     0.167 HD
ATOM     42  C   UNL A   1      41.717  27.219  28.796  1.00  0.00     0.034 A 
ATOM     43  C   UNL A   1      39.432  31.250  34.010  1.00  0.00     0.034 A 
ATOM     44  C   UNL A   1      42.651  27.403  29.875  1.00  0.00     0.049 A 
ATOM     45  C   UNL A   1      40.772  30.570  34.069  1.00  0.00     0.074 A 
ATOM     46  C   UNL A   1      43.929  26.887  30.002  1.00  0.00     0.029 A 
ATOM     47  N   UNL A   1      42.407  28.150  31.017  1.00  0.00    -0.354 N 
ATOM     48  N   UNL A   1      41.370  29.845  33.155  1.00  0.00    -0.248 NA
ATOM     49  C   UNL A   1      41.557  30.749  35.300  1.00  0.00     0.031 C 
ATOM     50  C   UNL A   1      44.443  27.288  31.239  1.00  0.00     0.029 A 
ATOM     51  C   UNL A   1      43.502  28.091  31.863  1.00  0.00     0.049 A 
ATOM     52  H   UNL A   1      41.579  28.648  31.200  1.00  0.00     0.167 HD
ATOM     53  C   UNL A   1      42.610  29.510  33.686  1.00  0.00     0.074 A 
ATOM     54  C   UNL A   1      42.688  30.129  34.992  1.00  0.00     0.031 C 
ATOM     55  C   UNL A   1      43.592  28.748  33.142  1.00  0.00     0.034 A 
BRANCH  42  56
ATOM     56  C   UNL A   1      42.104  26.284  27.677  1.00  0.00     0.023 A 
ATOM     57  C   UNL A   1      42.877  26.762  26.598  1.00  0.00     0.012 A 
ATOM     58  C   UNL A   1      41.758  24.918  27.724  1.00  0.00     0.148 A 
ATOM     59  C   UNL A   1      43.259  25.908  25.563  1.00  0.00     0.002 A 
ATOM     60  C   UNL A   1      42.186  24.063  26.715  1.00  0.00     0.091 A 
ATOM     61  F   UNL A   1      41.012  24.483  28.749  1.00  0.00    -0.205 F 
ATOM     62  C   UNL A   1      42.923  24.559  25.627  1.00  0.00     0.022 A 
BRANCH  60  63
ATOM     63  S   UNL A   1      41.879  22.293  26.748  1.00  0.00     0.127 S 
ATOM     64  O   UNL A   1      42.433  21.875  25.460  1.00  0.00    -0.237 OA
ATOM     65  O   UNL A   1      42.656  21.869  27.912  1.00  0.00    -0.237 OA
ATOM     66  O   UNL A   1      40.439  22.137  26.889  1.00  0.00    -0.744 OA
ENDBRANCH  60  63
ENDBRANCH  42  56
BRANCH  43  67
ATOM     67  C   UNL A   1      38.927  32.045  35.167  1.00  0.00     0.023 A 
ATOM     68  C   UNL A   1      38.957  33.452  35.113  1.00  0.00     0.012 A 
ATOM     69  C   UNL A   1      38.390  31.412  36.304  1.00  0.00     0.148 A 
ATOM     70  C   UNL A   1      38.491  34.214  36.185  1.00  0.00     0.002 A 
ATOM     71  C   UNL A   1      37.874  32.177  37.343  1.00  0.00     0.091 A 
ATOM     72  F   UNL A   1      38.381  30.072  36.341  1.00  0.00    -0.205 F 
ATOM     73  C   UNL A   1      37.939  33.578  37.294  1.00  0.00     0.022 A 
BRANCH  71  74
ATOM     74  S   UNL A   1      37.028  31.448  38.751  1.00  0.00     0.127 S 
ATOM     75  O   UNL A   1      38.023  31.599  39.808  1.00  0.00    -0.237 OA
ATOM     76  O   UNL A   1      35.856  32.313  38.876  1.00  0.00    -0.237 OA
ATOM     77  O   UNL A   1      36.725  30.076  38.359  1.00  0.00    -0.744 OA
ENDBRANCH  71  74
ENDBRANCH  43  67
BRANCH  55  78
ATOM     78  C   UNL A   1      44.862  28.566  33.933  1.00  0.00     0.023 A 
ATOM     79  C   UNL A   1      45.922  29.482  33.788  1.00  0.00     0.012 A 
ATOM     80  C   UNL A   1      44.970  27.529  34.881  1.00  0.00     0.148 A 
ATOM     81  C   UNL A   1      47.083  29.348  34.550  1.00  0.00     0.002 A 
ATOM     82  C   UNL A   1      46.106  27.433  35.674  1.00  0.00     0.091 A 
ATOM     83  F   UNL A   1      43.957  26.657  34.993  1.00  0.00    -0.205 F 
ATOM     84  C   UNL A   1      47.170  28.333  35.500  1.00  0.00     0.022 A 
BRANCH  82  85
ATOM     85  S   UNL A   1      46.266  26.222  36.991  1.00  0.00     0.127 S 
ATOM     86  O   UNL A   1      45.124  26.554  37.843  1.00  0.00    -0.237 OA
ATOM     87  O   UNL A   1      46.137  24.957  36.265  1.00  0.00    -0.237 OA
ATOM     88  O   UNL A   1      47.575  26.446  37.589  1.00  0.00    -0.744 OA
ENDBRANCH  82  85
ENDBRANCH  55  78
ENDBRANCH  29  30
ENDBRANCH  21  24
ENDBRANCH  19  20
ENDBRANCH   1  19
TORSDOF 16
ENDMDL
MODEL 3
REMARK VINA RESULT:     -10.6      4.623      7.769
REMARK SMILES COCC(=O)N[C@H]1C=C[C@@H](C(=O)NCCCNC(=O)c2ccc(-c3c4nc(c(-c5cccc(S(=O)(=O)[O-])c5F)c5ccc([nH]5)c(-c5cccc(S(=O)(=O)[O-])c5F)c5nc(c(-c6cccc(S(=O)(=O)[O-])c6F)c6ccc3[nH]6)C=C5)C=C4)cc2)C1
REMARK SMILES IDX 15 1 14 2 13 3 11 4 12 5 10 7 7 8 8 9 83 10 9 11 6 12 4 13
REMARK SMILES IDX 5 14 3 16 2 17 1 18 16 19 17 20 18 21 19 23 20 24 21 25
REMARK SMILES IDX 82 26 22 27 81 28 23 29 24 30 25 31 75 32 26 33 80 34 74 35
REMARK SMILES IDX 76 36 27 37 79 38 73 39 72 40 28 42 60 43 40 44 59 45 41 46
REMARK SMILES IDX 44 47 58 48 77 49 42 50 43 51 57 53 78 54 45 55 29 56 30 57
REMARK SMILES IDX 38 58 31 59 33 60 39 61 32 62 34 63 35 64 36 65 37 66 61 67
REMARK SMILES IDX 62 68 70 69 63 70 65 71 71 72 64 73 66 74 67 75 68 76 69 77
REMARK SMILES IDX 46 78 47 79 55 80 48 81 50 82 56 83 49 84 51 85 52 86 53 87
REMARK SMILES IDX 54 88
REMARK H PARENT 13 6 6 15 17 22 76 41 44 52
REMARK Flexibility Score: inf
ROOT
ATOM      1  C   UNL A   1      32.045  28.199  26.730  1.00  0.00     0.042 C 
ENDROOT
BRANCH   1   2
ATOM      2  C   UNL A   1      31.644  27.017  25.848  1.00  0.00     0.117 C 
BRANCH   2   3
ATOM      3  N   UNL A   1      31.350  25.839  26.653  1.00  0.00    -0.356 N 
ATOM      4  C   UNL A   1      31.655  24.523  26.511  1.00  0.00     0.227 C 
ATOM      5  O   UNL A   1      31.058  23.747  27.272  1.00  0.00    -0.274 OA
ATOM      6  H   UNL A   1      30.825  26.037  27.462  1.00  0.00     0.163 HD
BRANCH   4   7
ATOM      7  C   UNL A   1      32.682  23.937  25.525  1.00  0.00     0.103 C 
ATOM      8  C   UNL A   1      33.268  23.701  23.165  1.00  0.00     0.106 C 
ATOM      9  C   UNL A   1      34.226  24.593  23.881  1.00  0.00    -0.006 C 
ATOM     10  C   UNL A   1      32.117  23.498  24.161  1.00  0.00     0.047 C 
ATOM     11  C   UNL A   1      33.904  24.728  25.173  1.00  0.00    -0.016 C 
BRANCH   8  12
ATOM     12  N   UNL A   1      33.010  24.179  21.823  1.00  0.00    -0.348 N 
ATOM     13  C   UNL A   1      32.911  25.422  21.273  1.00  0.00     0.246 C 
ATOM     14  O   UNL A   1      32.936  25.517  20.045  1.00  0.00    -0.272 OA
ATOM     15  H   UNL A   1      32.879  23.453  21.170  1.00  0.00     0.164 HD
BRANCH  13  16
ATOM     16  C   UNL A   1      32.810  26.656  22.151  1.00  0.00     0.259 C 
BRANCH  16  17
ATOM     17  O   UNL A   1      33.768  27.638  21.813  1.00  0.00    -0.375 OA
ATOM     18  C   UNL A   1      34.071  28.534  22.874  1.00  0.00     0.195 C 
ENDBRANCH  16  17
ENDBRANCH  13  16
ENDBRANCH   8  12
ENDBRANCH   4   7
ENDBRANCH   2   3
ENDBRANCH   1   2
BRANCH   1  19
ATOM     19  C   UNL A   1      33.488  28.660  26.608  1.00  0.00     0.118 C 
BRANCH  19  20
ATOM     20  N   UNL A   1      33.625  30.094  26.823  1.00  0.00    -0.352 N 
ATOM     21  C   UNL A   1      34.497  30.844  27.576  1.00  0.00     0.251 C 
ATOM     22  H   UNL A   1      32.962  30.632  26.331  1.00  0.00     0.163 HD
ATOM     23  O   UNL A   1      34.212  32.030  27.753  1.00  0.00    -0.269 OA
BRANCH  21  24
ATOM     24  C   UNL A   1      35.747  30.305  28.188  1.00  0.00     0.039 A 
ATOM     25  C   UNL A   1      36.906  30.263  27.397  1.00  0.00     0.014 A 
ATOM     26  C   UNL A   1      35.801  29.745  29.464  1.00  0.00     0.014 A 
ATOM     27  C   UNL A   1      38.092  29.696  27.886  1.00  0.00     0.010 A 
ATOM     28  C   UNL A   1      37.010  29.279  29.992  1.00  0.00     0.010 A 
ATOM     29  C   UNL A   1      38.167  29.218  29.202  1.00  0.00    -0.014 A 
BRANCH  29  30
ATOM     30  C   UNL A   1      39.421  28.625  29.755  1.00  0.00     0.031 A 
ATOM     31  C   UNL A   1      40.089  29.232  30.968  1.00  0.00     0.074 A 
ATOM     32  C   UNL A   1      40.013  27.588  29.127  1.00  0.00     0.049 A 
ATOM     33  N   UNL A   1      41.220  28.903  31.542  1.00  0.00    -0.248 NA
ATOM     34  C   UNL A   1      39.414  30.376  31.603  1.00  0.00     0.031 C 
ATOM     35  C   UNL A   1      39.520  26.948  27.906  1.00  0.00     0.029 A 
ATOM     36  N   UNL A   1      41.174  26.910  29.410  1.00  0.00    -0.354 N 
ATOM     37  C   UNL A   1      41.415  29.828  32.564  1.00  0.00     0.074 A 
ATOM     38  C   UNL A   1      40.301  30.747  32.513  1.00  0.00     0.031 C 
ATOM     39  C   UNL A   1      40.371  25.974  27.545  1.00  0.00     0.029 A 
ATOM     40  C   UNL A   1      41.490  25.943  28.483  1.00  0.00     0.049 A 
ATOM     41  H   UNL A   1      41.729  27.099  30.201  1.00  0.00     0.167 HD
ATOM     42  C   UNL A   1      42.414  29.894  33.478  1.00  0.00     0.034 A 
ATOM     43  C   UNL A   1      42.563  25.133  28.382  1.00  0.00     0.034 A 
ATOM     44  C   UNL A   1      43.496  28.949  33.562  1.00  0.00     0.049 A 
ATOM     45  C   UNL A   1      43.637  25.197  29.433  1.00  0.00     0.074 A 
ATOM     46  C   UNL A   1      44.494  28.870  34.517  1.00  0.00     0.029 A 
ATOM     47  N   UNL A   1      43.729  27.928  32.655  1.00  0.00    -0.354 N 
ATOM     48  N   UNL A   1      43.718  25.976  30.484  1.00  0.00    -0.248 NA
ATOM     49  C   UNL A   1      44.750  24.244  29.307  1.00  0.00     0.031 C 
ATOM     50  C   UNL A   1      45.355  27.826  34.165  1.00  0.00     0.029 A 
ATOM     51  C   UNL A   1      44.867  27.227  33.015  1.00  0.00     0.049 A 
ATOM     52  H   UNL A   1      43.170  27.731  31.870  1.00  0.00     0.167 HD
ATOM     53  C   UNL A   1      44.869  25.588  31.160  1.00  0.00     0.074 A 
ATOM     54  C   UNL A   1      45.442  24.488  30.412  1.00  0.00     0.031 C 
ATOM     55  C   UNL A   1      45.408  26.104  32.293  1.00  0.00     0.034 A 
BRANCH  42  56
ATOM     56  C   UNL A   1      42.370  31.011  34.491  1.00  0.00     0.023 A 
ATOM     57  C   UNL A   1      41.759  30.799  35.745  1.00  0.00     0.012 A 
ATOM     58  C   UNL A   1      42.988  32.250  34.228  1.00  0.00     0.148 A 
ATOM     59  C   UNL A   1      41.725  31.814  36.701  1.00  0.00     0.002 A 
ATOM     60  C   UNL A   1      42.993  33.240  35.205  1.00  0.00     0.091 A 
ATOM     61  F   UNL A   1      43.551  32.442  33.027  1.00  0.00    -0.205 F 
ATOM     62  C   UNL A   1      42.350  33.028  36.435  1.00  0.00     0.022 A 
BRANCH  60  63
ATOM     63  S   UNL A   1      43.845  34.808  34.994  1.00  0.00     0.127 S 
ATOM     64  O   UNL A   1      43.536  35.482  36.255  1.00  0.00    -0.237 OA
ATOM     65  O   UNL A   1      45.238  34.384  34.855  1.00  0.00    -0.237 OA
ATOM     66  O   UNL A   1      43.274  35.418  33.803  1.00  0.00    -0.744 OA
ENDBRANCH  60  63
ENDBRANCH  42  56
BRANCH  43  67
ATOM     67  C   UNL A   1      42.653  24.159  27.257  1.00  0.00     0.023 A 
ATOM     68  C   UNL A   1      43.373  24.499  26.095  1.00  0.00     0.012 A 
ATOM     69  C   UNL A   1      42.054  22.888  27.346  1.00  0.00     0.148 A 
ATOM     70  C   UNL A   1      43.469  23.602  25.030  1.00  0.00     0.002 A 
ATOM     71  C   UNL A   1      42.202  21.978  26.307  1.00  0.00     0.091 A 
ATOM     72  F   UNL A   1      41.363  22.588  28.456  1.00  0.00    -0.205 F 
ATOM     73  C   UNL A   1      42.894  22.338  25.141  1.00  0.00     0.022 A 
BRANCH  71  74
ATOM     74  S   UNL A   1      41.609  20.286  26.413  1.00  0.00     0.127 S 
ATOM     75  O   UNL A   1      42.072  19.889  27.739  1.00  0.00    -0.237 OA
ATOM     76  O   UNL A   1      40.163  20.467  26.292  1.00  0.00    -0.237 OA
ATOM     77  O   UNL A   1      42.223  19.583  25.292  1.00  0.00    -0.744 OA
ENDBRANCH  71  74
ENDBRANCH  43  67
BRANCH  55  78
ATOM     78  C   UNL A   1      46.663  25.465  32.829  1.00  0.00     0.023 A 
ATOM     79  C   UNL A   1      47.926  25.926  32.408  1.00  0.00     0.012 A 
ATOM     80  C   UNL A   1      46.587  24.459  33.813  1.00  0.00     0.148 A 
ATOM     81  C   UNL A   1      49.093  25.372  32.934  1.00  0.00     0.002 A 
ATOM     82  C   UNL A   1      47.753  23.949  34.371  1.00  0.00     0.091 A 
ATOM     83  F   UNL A   1      45.376  24.021  34.188  1.00  0.00    -0.205 F 
ATOM     84  C   UNL A   1      49.007  24.395  33.923  1.00  0.00     0.022 A 
BRANCH  82  85
ATOM     85  S   UNL A   1      47.739  22.761  35.718  1.00  0.00     0.127 S 
ATOM     86  O   UNL A   1      46.765  23.357  36.632  1.00  0.00    -0.237 OA
ATOM     87  O   UNL A   1      47.283  21.542  35.051  1.00  0.00    -0.237 OA
ATOM     88  O   UNL A   1      49.107  22.703  36.218  1.00  0.00    -0.744 OA
ENDBRANCH  82  85
ENDBRANCH  55  78
ENDBRANCH  29  30
ENDBRANCH  21  24
ENDBRANCH  19  20
ENDBRANCH   1  19
TORSDOF 16
ENDMDL
