MODEL 1
REMARK VINA RESULT:     -13.5      0.000      0.000
REMARK SMILES O=C(CCC(=O)Nc1cccc2c1C(=O)c1ccccc1C2=O)NCCCNC(=O)c1ccc(-c2c3nc(c(-c4cccc(S(=O)(=O)[O-])c4F)c4ccc([nH]4)c(-c4cccc(S(=O)(=O)[O-])c4F)c4nc(c(-c5cccc(S(=O)(=O)[O-])c5F)c5ccc2[nH]5)C=C4)C=C3)cc1
REMARK SMILES IDX 26 1 25 2 24 3 1 4 2 5 3 7 4 8 5 9 6 10 7 11 8 13 9 14 13 15
REMARK SMILES IDX 10 16 12 17 14 18 11 19 22 20 15 21 16 22 21 23 23 24 17 25
REMARK SMILES IDX 20 26 18 27 19 28 27 29 28 30 29 31 30 33 31 34 32 35 93 36
REMARK SMILES IDX 33 37 92 38 34 39 35 40 36 41 86 42 37 43 91 44 85 45 87 46
REMARK SMILES IDX 38 47 90 48 84 49 83 50 39 52 71 53 51 54 70 55 52 56 55 57
REMARK SMILES IDX 69 58 88 59 53 60 54 61 68 63 89 64 56 65 40 66 41 67 49 68
REMARK SMILES IDX 42 69 44 70 50 71 43 72 45 73 46 74 47 75 48 76 72 77 73 78
REMARK SMILES IDX 81 79 74 80 76 81 82 82 75 83 77 84 78 85 79 86 80 87 57 88
REMARK SMILES IDX 58 89 66 90 59 91 61 92 67 93 60 94 62 95 63 96 64 97 65 98
REMARK H PARENT 24 6 7 12 28 32 87 51 55 62
REMARK Flexibility Score: inf
ROOT
ATOM      1  C   UNL A   1      31.708  28.950  25.966  1.00  0.00     0.042 C 
ENDROOT
BRANCH   1   2
ATOM      2  C   UNL A   1      31.127  28.806  24.577  1.00  0.00     0.117 C 
BRANCH   2   3
ATOM      3  N   UNL A   1      30.394  27.598  24.270  1.00  0.00    -0.356 N 
ATOM      4  O   UNL A   1      30.686  27.186  22.017  1.00  0.00    -0.275 OA
ATOM      5  C   UNL A   1      30.801  26.846  23.187  1.00  0.00     0.220 C 
ATOM      6  H   UNL A   1      29.625  27.319  24.818  1.00  0.00     0.163 HD
BRANCH   5   7
ATOM      7  C   UNL A   1      31.625  25.637  23.550  1.00  0.00     0.110 C 
BRANCH   7   8
ATOM      8  C   UNL A   1      30.686  24.584  24.166  1.00  0.00     0.110 C 
BRANCH   8   9
ATOM      9  C   UNL A   1      31.026  24.387  25.616  1.00  0.00     0.224 C 
ATOM     10  O   UNL A   1      30.184  24.691  26.475  1.00  0.00    -0.275 OA
ATOM     11  N   UNL A   1      32.175  23.858  26.100  1.00  0.00    -0.325 N 
ATOM     12  H   UNL A   1      32.127  23.816  27.082  1.00  0.00     0.169 HD
BRANCH  11  13
ATOM     13  C   UNL A   1      33.422  23.342  25.665  1.00  0.00     0.053 A 
ATOM     14  C   UNL A   1      34.410  24.354  25.683  1.00  0.00     0.027 A 
ATOM     15  C   UNL A   1      33.840  22.053  25.263  1.00  0.00     0.057 A 
ATOM     16  C   UNL A   1      35.758  24.092  25.444  1.00  0.00     0.003 A 
ATOM     17  C   UNL A   1      35.218  21.767  25.167  1.00  0.00     0.036 A 
ATOM     18  C   UNL A   1      33.076  21.147  24.369  1.00  0.00     0.196 C 
ATOM     19  C   UNL A   1      36.170  22.787  25.244  1.00  0.00     0.013 A 
ATOM     20  C   UNL A   1      35.688  20.379  24.926  1.00  0.00     0.194 C 
ATOM     21  O   UNL A   1      32.430  21.613  23.443  1.00  0.00    -0.288 OA
ATOM     22  C   UNL A   1      33.396  19.714  24.321  1.00  0.00     0.034 A 
ATOM     23  C   UNL A   1      34.696  19.331  24.622  1.00  0.00     0.034 A 
ATOM     24  O   UNL A   1      36.879  20.104  25.008  1.00  0.00    -0.289 OA
ATOM     25  C   UNL A   1      32.482  18.770  23.844  1.00  0.00     0.013 A 
ATOM     26  C   UNL A   1      35.069  17.986  24.533  1.00  0.00     0.013 A 
ATOM     27  C   UNL A   1      32.845  17.424  23.771  1.00  0.00     0.001 A 
ATOM     28  C   UNL A   1      34.134  17.030  24.128  1.00  0.00     0.001 A 
ENDBRANCH  11  13
ENDBRANCH   8   9
ENDBRANCH   7   8
ENDBRANCH   5   7
ENDBRANCH   2   3
ENDBRANCH   1   2
BRANCH   1  29
ATOM     29  C   UNL A   1      32.861  29.918  25.965  1.00  0.00     0.118 C 
BRANCH  29  30
ATOM     30  N   UNL A   1      32.547  31.210  26.580  1.00  0.00    -0.352 N 
ATOM     31  C   UNL A   1      33.353  31.964  27.415  1.00  0.00     0.251 C 
ATOM     32  H   UNL A   1      31.660  31.585  26.376  1.00  0.00     0.163 HD
ATOM     33  O   UNL A   1      32.956  33.008  27.906  1.00  0.00    -0.269 OA
BRANCH  31  34
ATOM     34  C   UNL A   1      34.675  31.406  27.751  1.00  0.00     0.039 A 
ATOM     35  C   UNL A   1      35.733  32.279  28.003  1.00  0.00     0.014 A 
ATOM     36  C   UNL A   1      34.793  30.044  28.015  1.00  0.00     0.014 A 
ATOM     37  C   UNL A   1      36.882  31.791  28.626  1.00  0.00     0.010 A 
ATOM     38  C   UNL A   1      35.858  29.599  28.773  1.00  0.00     0.010 A 
ATOM     39  C   UNL A   1      36.925  30.461  29.073  1.00  0.00    -0.014 A 
BRANCH  39  40
ATOM     40  C   UNL A   1      38.071  29.907  29.835  1.00  0.00     0.031 A 
ATOM     41  C   UNL A   1      38.291  30.372  31.251  1.00  0.00     0.074 A 
ATOM     42  C   UNL A   1      38.979  29.119  29.223  1.00  0.00     0.049 A 
ATOM     43  N   UNL A   1      39.327  30.196  32.026  1.00  0.00    -0.248 NA
ATOM     44  C   UNL A   1      37.232  31.208  31.849  1.00  0.00     0.031 C 
ATOM     45  C   UNL A   1      38.930  28.685  27.824  1.00  0.00     0.029 A 
ATOM     46  N   UNL A   1      40.144  28.571  29.696  1.00  0.00    -0.354 N 
ATOM     47  C   UNL A   1      39.082  30.966  33.157  1.00  0.00     0.074 A 
ATOM     48  C   UNL A   1      37.825  31.647  32.948  1.00  0.00     0.031 C 
ATOM     49  C   UNL A   1      40.005  27.923  27.560  1.00  0.00     0.029 A 
ATOM     50  C   UNL A   1      40.839  27.846  28.754  1.00  0.00     0.049 A 
ATOM     51  H   UNL A   1      40.455  28.686  30.623  1.00  0.00     0.167 HD
ATOM     52  C   UNL A   1      39.812  31.063  34.291  1.00  0.00     0.034 A 
ATOM     53  C   UNL A   1      42.015  27.197  28.848  1.00  0.00     0.034 A 
ATOM     54  C   UNL A   1      40.992  30.284  34.536  1.00  0.00     0.049 A 
ATOM     55  C   UNL A   1      42.743  27.212  30.166  1.00  0.00     0.074 A 
ATOM     56  C   UNL A   1      41.740  30.196  35.694  1.00  0.00     0.029 A 
ATOM     57  N   UNL A   1      41.578  29.435  33.609  1.00  0.00    -0.354 N 
ATOM     58  N   UNL A   1      42.419  27.826  31.278  1.00  0.00    -0.248 NA
ATOM     59  C   UNL A   1      43.977  26.418  30.257  1.00  0.00     0.031 C 
ATOM     60  C   UNL A   1      42.778  29.287  35.470  1.00  0.00     0.029 A 
ATOM     61  C   UNL A   1      42.670  28.806  34.173  1.00  0.00     0.049 A 
ATOM     62  H   UNL A   1      41.262  29.301  32.686  1.00  0.00     0.167 HD
ATOM     63  C   UNL A   1      43.384  27.463  32.211  1.00  0.00     0.074 A 
ATOM     64  C   UNL A   1      44.297  26.562  31.536  1.00  0.00     0.031 C 
ATOM     65  C   UNL A   1      43.514  27.851  33.503  1.00  0.00     0.034 A 
BRANCH  52  66
ATOM     66  C   UNL A   1      39.303  31.972  35.377  1.00  0.00     0.023 A 
ATOM     67  C   UNL A   1      38.315  31.503  36.268  1.00  0.00     0.012 A 
ATOM     68  C   UNL A   1      39.819  33.271  35.540  1.00  0.00     0.148 A 
ATOM     69  C   UNL A   1      37.814  32.329  37.273  1.00  0.00     0.002 A 
ATOM     70  C   UNL A   1      39.351  34.071  36.577  1.00  0.00     0.091 A 
ATOM     71  F   UNL A   1      40.741  33.710  34.671  1.00  0.00    -0.205 F 
ATOM     72  C   UNL A   1      38.339  33.607  37.434  1.00  0.00     0.022 A 
BRANCH  70  73
ATOM     73  S   UNL A   1      40.022  35.702  36.919  1.00  0.00     0.127 S 
ATOM     74  O   UNL A   1      39.634  36.439  35.717  1.00  0.00    -0.237 OA
ATOM     75  O   UNL A   1      39.294  36.087  38.130  1.00  0.00    -0.237 OA
ATOM     76  O   UNL A   1      41.453  35.514  37.108  1.00  0.00    -0.744 OA
ENDBRANCH  70  73
ENDBRANCH  52  66
BRANCH  53  77
ATOM     77  C   UNL A   1      42.523  26.398  27.696  1.00  0.00     0.023 A 
ATOM     78  C   UNL A   1      43.419  27.003  26.791  1.00  0.00     0.012 A 
ATOM     79  C   UNL A   1      42.164  25.050  27.506  1.00  0.00     0.148 A 
ATOM     80  C   UNL A   1      43.923  26.291  25.702  1.00  0.00     0.002 A 
ATOM     81  C   UNL A   1      42.708  24.332  26.445  1.00  0.00     0.091 A 
ATOM     82  F   UNL A   1      41.303  24.493  28.370  1.00  0.00    -0.205 F 
ATOM     83  C   UNL A   1      43.574  24.954  25.534  1.00  0.00     0.022 A 
BRANCH  81  84
ATOM     84  S   UNL A   1      42.413  22.573  26.221  1.00  0.00     0.127 S 
ATOM     85  O   UNL A   1      40.956  22.502  26.299  1.00  0.00    -0.237 OA
ATOM     86  O   UNL A   1      42.968  22.338  24.887  1.00  0.00    -0.237 OA
ATOM     87  O   UNL A   1      43.142  21.915  27.297  1.00  0.00    -0.744 OA
ENDBRANCH  81  84
ENDBRANCH  53  77
BRANCH  65  88
ATOM     88  C   UNL A   1      44.649  27.274  34.300  1.00  0.00     0.023 A 
ATOM     89  C   UNL A   1      45.858  27.987  34.410  1.00  0.00     0.012 A 
ATOM     90  C   UNL A   1      44.470  26.088  35.038  1.00  0.00     0.148 A 
ATOM     91  C   UNL A   1      46.879  27.520  35.234  1.00  0.00     0.002 A 
ATOM     92  C   UNL A   1      45.475  25.652  35.892  1.00  0.00     0.091 A 
ATOM     93  F   UNL A   1      43.315  25.419  34.903  1.00  0.00    -0.205 F 
ATOM     94  C   UNL A   1      46.683  26.363  35.984  1.00  0.00     0.022 A 
BRANCH  92  95
ATOM     95  S   UNL A   1      45.270  24.232  36.971  1.00  0.00     0.127 S 
ATOM     96  O   UNL A   1      44.961  23.171  36.013  1.00  0.00    -0.237 OA
ATOM     97  O   UNL A   1      46.588  24.124  37.596  1.00  0.00    -0.237 OA
ATOM     98  O   UNL A   1      44.194  24.576  37.890  1.00  0.00    -0.744 OA
ENDBRANCH  92  95
ENDBRANCH  65  88
ENDBRANCH  39  40
ENDBRANCH  31  34
ENDBRANCH  29  30
ENDBRANCH   1  29
TORSDOF 16
ENDMDL
MODEL 2
REMARK VINA RESULT:     -13.4      5.118      8.293
REMARK SMILES O=C(CCC(=O)Nc1cccc2c1C(=O)c1ccccc1C2=O)NCCCNC(=O)c1ccc(-c2c3nc(c(-c4cccc(S(=O)(=O)[O-])c4F)c4ccc([nH]4)c(-c4cccc(S(=O)(=O)[O-])c4F)c4nc(c(-c5cccc(S(=O)(=O)[O-])c5F)c5ccc2[nH]5)C=C4)C=C3)cc1
REMARK SMILES IDX 26 1 25 2 24 3 1 4 2 5 3 7 4 8 5 9 6 10 7 11 8 13 9 14 13 15
REMARK SMILES IDX 10 16 12 17 14 18 11 19 22 20 15 21 16 22 21 23 23 24 17 25
REMARK SMILES IDX 20 26 18 27 19 28 27 29 28 30 29 31 30 33 31 34 32 35 93 36
REMARK SMILES IDX 33 37 92 38 34 39 35 40 36 41 86 42 37 43 91 44 85 45 87 46
REMARK SMILES IDX 38 47 90 48 84 49 83 50 39 52 71 53 51 54 70 55 52 56 55 57
REMARK SMILES IDX 69 58 88 59 53 60 54 61 68 63 89 64 56 65 40 66 41 67 49 68
REMARK SMILES IDX 42 69 44 70 50 71 43 72 45 73 46 74 47 75 48 76 72 77 73 78
REMARK SMILES IDX 81 79 74 80 76 81 82 82 75 83 77 84 78 85 79 86 80 87 57 88
REMARK SMILES IDX 58 89 66 90 59 91 61 92 67 93 60 94 62 95 63 96 64 97 65 98
REMARK H PARENT 24 6 7 12 28 32 87 51 55 62
REMARK Flexibility Score: inf
ROOT
ATOM      1  C   UNL A   1      35.457  21.944  24.624  1.00  0.00     0.042 C 
ENDROOT
BRANCH   1   2
ATOM      2  C   UNL A   1      34.562  20.931  25.301  1.00  0.00     0.117 C 
BRANCH   2   3
ATOM      3  N   UNL A   1      33.515  20.317  24.516  1.00  0.00    -0.356 N 
ATOM      4  O   UNL A   1      31.509  21.150  25.298  1.00  0.00    -0.275 OA
ATOM      5  C   UNL A   1      32.315  20.987  24.392  1.00  0.00     0.220 C 
ATOM      6  H   UNL A   1      33.654  19.444  24.081  1.00  0.00     0.163 HD
BRANCH   5   7
ATOM      7  C   UNL A   1      32.152  21.723  23.086  1.00  0.00     0.110 C 
BRANCH   7   8
ATOM      8  C   UNL A   1      31.863  23.202  23.402  1.00  0.00     0.110 C 
BRANCH   8   9
ATOM      9  C   UNL A   1      32.820  24.077  22.644  1.00  0.00     0.224 C 
ATOM     10  O   UNL A   1      33.348  23.634  21.612  1.00  0.00    -0.275 OA
ATOM     11  N   UNL A   1      33.147  25.354  22.954  1.00  0.00    -0.325 N 
ATOM     12  H   UNL A   1      33.771  25.704  22.278  1.00  0.00     0.169 HD
BRANCH  11  13
ATOM     13  C   UNL A   1      32.890  26.356  23.925  1.00  0.00     0.053 A 
ATOM     14  C   UNL A   1      33.796  26.242  25.005  1.00  0.00     0.027 A 
ATOM     15  C   UNL A   1      31.955  27.412  23.988  1.00  0.00     0.057 A 
ATOM     16  C   UNL A   1      33.867  27.185  26.028  1.00  0.00     0.003 A 
ATOM     17  C   UNL A   1      32.127  28.437  24.943  1.00  0.00     0.036 A 
ATOM     18  C   UNL A   1      30.521  27.307  23.617  1.00  0.00     0.196 C 
ATOM     19  C   UNL A   1      33.070  28.315  25.966  1.00  0.00     0.013 A 
ATOM     20  C   UNL A   1      31.268  29.648  24.915  1.00  0.00     0.194 C 
ATOM     21  O   UNL A   1      29.908  26.278  23.854  1.00  0.00    -0.288 OA
ATOM     22  C   UNL A   1      29.736  28.522  23.352  1.00  0.00     0.034 A 
ATOM     23  C   UNL A   1      30.125  29.694  23.984  1.00  0.00     0.034 A 
ATOM     24  O   UNL A   1      31.524  30.607  25.634  1.00  0.00    -0.289 OA
ATOM     25  C   UNL A   1      28.548  28.485  22.617  1.00  0.00     0.013 A 
ATOM     26  C   UNL A   1      29.377  30.864  23.814  1.00  0.00     0.013 A 
ATOM     27  C   UNL A   1      27.808  29.653  22.429  1.00  0.00     0.001 A 
ATOM     28  C   UNL A   1      28.230  30.846  23.017  1.00  0.00     0.001 A 
ENDBRANCH  11  13
ENDBRANCH   8   9
ENDBRANCH   7   8
ENDBRANCH   5   7
ENDBRANCH   2   3
ENDBRANCH   1   2
BRANCH   1  29
ATOM     29  C   UNL A   1      36.707  22.177  25.431  1.00  0.00     0.118 C 
BRANCH  29  30
ATOM     30  N   UNL A   1      37.671  21.078  25.354  1.00  0.00    -0.352 N 
ATOM     31  C   UNL A   1      38.946  21.034  25.893  1.00  0.00     0.251 C 
ATOM     32  H   UNL A   1      37.380  20.276  24.862  1.00  0.00     0.163 HD
ATOM     33  O   UNL A   1      39.676  20.073  25.718  1.00  0.00    -0.269 OA
BRANCH  31  34
ATOM     34  C   UNL A   1      39.407  22.234  26.613  1.00  0.00     0.039 A 
ATOM     35  C   UNL A   1      40.428  22.107  27.555  1.00  0.00     0.014 A 
ATOM     36  C   UNL A   1      38.971  23.490  26.196  1.00  0.00     0.014 A 
ATOM     37  C   UNL A   1      41.088  23.252  28.000  1.00  0.00     0.010 A 
ATOM     38  C   UNL A   1      39.728  24.600  26.514  1.00  0.00     0.010 A 
ATOM     39  C   UNL A   1      40.784  24.500  27.434  1.00  0.00    -0.014 A 
BRANCH  39  40
ATOM     40  C   UNL A   1      41.518  25.742  27.784  1.00  0.00     0.031 A 
ATOM     41  C   UNL A   1      40.801  26.810  28.567  1.00  0.00     0.074 A 
ATOM     42  C   UNL A   1      42.750  25.968  27.283  1.00  0.00     0.049 A 
ATOM     43  N   UNL A   1      41.158  28.044  28.799  1.00  0.00    -0.248 NA
ATOM     44  C   UNL A   1      39.468  26.464  29.099  1.00  0.00     0.031 C 
ATOM     45  C   UNL A   1      43.506  25.053  26.425  1.00  0.00     0.029 A 
ATOM     46  N   UNL A   1      43.570  27.063  27.398  1.00  0.00    -0.354 N 
ATOM     47  C   UNL A   1      40.067  28.638  29.422  1.00  0.00     0.074 A 
ATOM     48  C   UNL A   1      39.019  27.646  29.489  1.00  0.00     0.031 C 
ATOM     49  C   UNL A   1      44.685  25.615  26.109  1.00  0.00     0.029 A 
ATOM     50  C   UNL A   1      44.754  26.944  26.707  1.00  0.00     0.049 A 
ATOM     51  H   UNL A   1      43.333  27.859  27.927  1.00  0.00     0.167 HD
ATOM     52  C   UNL A   1      39.960  29.884  29.938  1.00  0.00     0.034 A 
ATOM     53  C   UNL A   1      45.774  27.813  26.572  1.00  0.00     0.034 A 
ATOM     54  C   UNL A   1      41.050  30.815  29.978  1.00  0.00     0.049 A 
ATOM     55  C   UNL A   1      45.684  29.145  27.268  1.00  0.00     0.074 A 
ATOM     56  C   UNL A   1      41.103  32.052  30.590  1.00  0.00     0.029 A 
ATOM     57  N   UNL A   1      42.292  30.594  29.402  1.00  0.00    -0.354 N 
ATOM     58  N   UNL A   1      44.700  29.635  27.983  1.00  0.00    -0.248 NA
ATOM     59  C   UNL A   1      46.854  30.029  27.173  1.00  0.00     0.031 C 
ATOM     60  C   UNL A   1      42.382  32.579  30.390  1.00  0.00     0.029 A 
ATOM     61  C   UNL A   1      43.126  31.665  29.657  1.00  0.00     0.049 A 
ATOM     62  H   UNL A   1      42.542  29.793  28.887  1.00  0.00     0.167 HD
ATOM     63  C   UNL A   1      45.144  30.864  28.455  1.00  0.00     0.074 A 
ATOM     64  C   UNL A   1      46.495  31.038  27.956  1.00  0.00     0.031 C 
ATOM     65  C   UNL A   1      44.492  31.775  29.217  1.00  0.00     0.034 A 
BRANCH  52  66
ATOM     66  C   UNL A   1      38.652  30.269  30.575  1.00  0.00     0.023 A 
ATOM     67  C   UNL A   1      38.401  29.907  31.916  1.00  0.00     0.012 A 
ATOM     68  C   UNL A   1      37.687  31.010  29.868  1.00  0.00     0.148 A 
ATOM     69  C   UNL A   1      37.192  30.236  32.527  1.00  0.00     0.002 A 
ATOM     70  C   UNL A   1      36.505  31.379  30.501  1.00  0.00     0.091 A 
ATOM     71  F   UNL A   1      37.931  31.325  28.588  1.00  0.00    -0.205 F 
ATOM     72  C   UNL A   1      36.250  30.981  31.823  1.00  0.00     0.022 A 
BRANCH  70  73
ATOM     73  S   UNL A   1      35.264  32.407  29.707  1.00  0.00     0.127 S 
ATOM     74  O   UNL A   1      36.068  33.536  29.242  1.00  0.00    -0.237 OA
ATOM     75  O   UNL A   1      34.772  31.531  28.642  1.00  0.00    -0.237 OA
ATOM     76  O   UNL A   1      34.282  32.716  30.737  1.00  0.00    -0.744 OA
ENDBRANCH  70  73
ENDBRANCH  52  66
BRANCH  53  77
ATOM     77  C   UNL A   1      47.005  27.412  25.833  1.00  0.00     0.023 A 
ATOM     78  C   UNL A   1      47.996  26.672  26.511  1.00  0.00     0.012 A 
ATOM     79  C   UNL A   1      47.192  27.718  24.471  1.00  0.00     0.148 A 
ATOM     80  C   UNL A   1      49.161  26.271  25.857  1.00  0.00     0.002 A 
ATOM     81  C   UNL A   1      48.334  27.273  23.812  1.00  0.00     0.091 A 
ATOM     82  F   UNL A   1      46.245  28.430  23.845  1.00  0.00    -0.205 F 
ATOM     83  C   UNL A   1      49.326  26.564  24.506  1.00  0.00     0.022 A 
BRANCH  81  84
ATOM     84  S   UNL A   1      48.576  27.498  22.045  1.00  0.00     0.127 S 
ATOM     85  O   UNL A   1      47.371  28.234  21.670  1.00  0.00    -0.237 OA
ATOM     86  O   UNL A   1      49.812  28.281  22.003  1.00  0.00    -0.237 OA
ATOM     87  O   UNL A   1      48.700  26.155  21.495  1.00  0.00    -0.744 OA
ENDBRANCH  81  84
ENDBRANCH  53  77
BRANCH  65  88
ATOM     88  C   UNL A   1      45.231  33.023  29.610  1.00  0.00     0.023 A 
ATOM     89  C   UNL A   1      46.060  33.012  30.748  1.00  0.00     0.012 A 
ATOM     90  C   UNL A   1      45.200  34.161  28.780  1.00  0.00     0.148 A 
ATOM     91  C   UNL A   1      46.837  34.125  31.064  1.00  0.00     0.002 A 
ATOM     92  C   UNL A   1      46.011  35.248  29.076  1.00  0.00     0.091 A 
ATOM     93  F   UNL A   1      44.390  34.150  27.712  1.00  0.00    -0.205 F 
ATOM     94  C   UNL A   1      46.823  35.235  30.222  1.00  0.00     0.022 A 
BRANCH  92  95
ATOM     95  S   UNL A   1      46.135  36.677  27.995  1.00  0.00     0.127 S 
ATOM     96  O   UNL A   1      46.446  36.052  26.710  1.00  0.00    -0.237 OA
ATOM     97  O   UNL A   1      44.794  37.252  28.085  1.00  0.00    -0.237 OA
ATOM     98  O   UNL A   1      47.189  37.513  28.553  1.00  0.00    -0.744 OA
ENDBRANCH  92  95
ENDBRANCH  65  88
ENDBRANCH  39  40
ENDBRANCH  31  34
ENDBRANCH  29  30
ENDBRANCH   1  29
TORSDOF 16
ENDMDL
MODEL 3
REMARK VINA RESULT:     -13.2      2.056      2.780
REMARK SMILES O=C(CCC(=O)Nc1cccc2c1C(=O)c1ccccc1C2=O)NCCCNC(=O)c1ccc(-c2c3nc(c(-c4cccc(S(=O)(=O)[O-])c4F)c4ccc([nH]4)c(-c4cccc(S(=O)(=O)[O-])c4F)c4nc(c(-c5cccc(S(=O)(=O)[O-])c5F)c5ccc2[nH]5)C=C4)C=C3)cc1
REMARK SMILES IDX 26 1 25 2 24 3 1 4 2 5 3 7 4 8 5 9 6 10 7 11 8 13 9 14 13 15
REMARK SMILES IDX 10 16 12 17 14 18 11 19 22 20 15 21 16 22 21 23 23 24 17 25
REMARK SMILES IDX 20 26 18 27 19 28 27 29 28 30 29 31 30 33 31 34 32 35 93 36
REMARK SMILES IDX 33 37 92 38 34 39 35 40 36 41 86 42 37 43 91 44 85 45 87 46
REMARK SMILES IDX 38 47 90 48 84 49 83 50 39 52 71 53 51 54 70 55 52 56 55 57
REMARK SMILES IDX 69 58 88 59 53 60 54 61 68 63 89 64 56 65 40 66 41 67 49 68
REMARK SMILES IDX 42 69 44 70 50 71 43 72 45 73 46 74 47 75 48 76 72 77 73 78
REMARK SMILES IDX 81 79 74 80 76 81 82 82 75 83 77 84 78 85 79 86 80 87 57 88
REMARK SMILES IDX 58 89 66 90 59 91 61 92 67 93 60 94 62 95 63 96 64 97 65 98
REMARK H PARENT 24 6 7 12 28 32 87 51 55 62
REMARK Flexibility Score: inf
ROOT
ATOM      1  C   UNL A   1      32.532  29.361  25.585  1.00  0.00     0.042 C 
ENDROOT
BRANCH   1   2
ATOM      2  C   UNL A   1      32.639  28.069  24.806  1.00  0.00     0.117 C 
BRANCH   2   3
ATOM      3  N   UNL A   1      32.375  26.831  25.506  1.00  0.00    -0.356 N 
ATOM      4  O   UNL A   1      31.031  27.349  27.310  1.00  0.00    -0.275 OA
ATOM      5  C   UNL A   1      31.226  26.743  26.265  1.00  0.00     0.220 C 
ATOM      6  H   UNL A   1      32.998  26.071  25.442  1.00  0.00     0.163 HD
BRANCH   5   7
ATOM      7  C   UNL A   1      30.098  26.003  25.593  1.00  0.00     0.110 C 
BRANCH   7   8
ATOM      8  C   UNL A   1      30.613  24.610  25.188  1.00  0.00     0.110 C 
BRANCH   8   9
ATOM      9  C   UNL A   1      30.797  23.762  26.414  1.00  0.00     0.224 C 
ATOM     10  O   UNL A   1      29.881  23.710  27.250  1.00  0.00    -0.275 OA
ATOM     11  N   UNL A   1      31.874  22.990  26.694  1.00  0.00    -0.325 N 
ATOM     12  H   UNL A   1      31.725  22.518  27.544  1.00  0.00     0.169 HD
BRANCH  11  13
ATOM     13  C   UNL A   1      33.144  22.634  26.171  1.00  0.00     0.053 A 
ATOM     14  C   UNL A   1      34.052  23.709  26.302  1.00  0.00     0.027 A 
ATOM     15  C   UNL A   1      33.644  21.444  25.597  1.00  0.00     0.057 A 
ATOM     16  C   UNL A   1      35.408  23.587  26.006  1.00  0.00     0.003 A 
ATOM     17  C   UNL A   1      35.037  21.282  25.437  1.00  0.00     0.036 A 
ATOM     18  C   UNL A   1      32.925  20.604  24.606  1.00  0.00     0.196 C 
ATOM     19  C   UNL A   1      35.912  22.355  25.628  1.00  0.00     0.013 A 
ATOM     20  C   UNL A   1      35.602  19.978  25.007  1.00  0.00     0.194 C 
ATOM     21  O   UNL A   1      32.219  21.134  23.762  1.00  0.00    -0.288 OA
ATOM     22  C   UNL A   1      33.351  19.218  24.366  1.00  0.00     0.034 A 
ATOM     23  C   UNL A   1      34.683  18.903  24.589  1.00  0.00     0.034 A 
ATOM     24  O   UNL A   1      36.813  19.788  25.030  1.00  0.00    -0.289 OA
ATOM     25  C   UNL A   1      32.497  18.275  23.787  1.00  0.00     0.013 A 
ATOM     26  C   UNL A   1      35.154  17.614  24.316  1.00  0.00     0.013 A 
ATOM     27  C   UNL A   1      32.957  16.982  23.531  1.00  0.00     0.001 A 
ATOM     28  C   UNL A   1      34.282  16.648  23.809  1.00  0.00     0.001 A 
ENDBRANCH  11  13
ENDBRANCH   8   9
ENDBRANCH   7   8
ENDBRANCH   5   7
ENDBRANCH   2   3
ENDBRANCH   1   2
BRANCH   1  29
ATOM     29  C   UNL A   1      33.634  29.462  26.606  1.00  0.00     0.118 C 
BRANCH  29  30
ATOM     30  N   UNL A   1      33.826  30.815  27.134  1.00  0.00    -0.352 N 
ATOM     31  C   UNL A   1      34.919  31.301  27.832  1.00  0.00     0.251 C 
ATOM     32  H   UNL A   1      33.094  31.453  26.973  1.00  0.00     0.163 HD
ATOM     33  O   UNL A   1      34.939  32.441  28.263  1.00  0.00    -0.269 OA
BRANCH  31  34
ATOM     34  C   UNL A   1      36.014  30.352  28.102  1.00  0.00     0.039 A 
ATOM     35  C   UNL A   1      37.120  30.337  27.252  1.00  0.00     0.014 A 
ATOM     36  C   UNL A   1      36.024  29.646  29.302  1.00  0.00     0.014 A 
ATOM     37  C   UNL A   1      38.285  29.692  27.667  1.00  0.00     0.010 A 
ATOM     38  C   UNL A   1      37.223  29.151  29.777  1.00  0.00     0.010 A 
ATOM     39  C   UNL A   1      38.364  29.150  28.959  1.00  0.00    -0.014 A 
BRANCH  39  40
ATOM     40  C   UNL A   1      39.605  28.544  29.502  1.00  0.00     0.031 A 
ATOM     41  C   UNL A   1      40.291  29.216  30.663  1.00  0.00     0.074 A 
ATOM     42  C   UNL A   1      40.185  27.501  28.874  1.00  0.00     0.049 A 
ATOM     43  N   UNL A   1      41.478  28.999  31.159  1.00  0.00    -0.248 NA
ATOM     44  C   UNL A   1      39.570  30.332  31.306  1.00  0.00     0.031 C 
ATOM     45  C   UNL A   1      39.671  26.830  27.677  1.00  0.00     0.029 A 
ATOM     46  N   UNL A   1      41.360  26.844  29.139  1.00  0.00    -0.354 N 
ATOM     47  C   UNL A   1      41.677  29.998  32.104  1.00  0.00     0.074 A 
ATOM     48  C   UNL A   1      40.510  30.850  32.079  1.00  0.00     0.031 C 
ATOM     49  C   UNL A   1      40.514  25.846  27.325  1.00  0.00     0.029 A 
ATOM     50  C   UNL A   1      41.647  25.839  28.243  1.00  0.00     0.049 A 
ATOM     51  H   UNL A   1      41.943  27.070  29.900  1.00  0.00     0.167 HD
ATOM     52  C   UNL A   1      42.716  30.167  32.953  1.00  0.00     0.034 A 
ATOM     53  C   UNL A   1      42.708  25.011  28.174  1.00  0.00     0.034 A 
ATOM     54  C   UNL A   1      43.808  29.242  33.055  1.00  0.00     0.049 A 
ATOM     55  C   UNL A   1      43.789  25.136  29.215  1.00  0.00     0.074 A 
ATOM     56  C   UNL A   1      44.847  29.234  33.964  1.00  0.00     0.029 A 
ATOM     57  N   UNL A   1      43.982  28.141  32.230  1.00  0.00    -0.354 N 
ATOM     58  N   UNL A   1      43.888  25.997  30.199  1.00  0.00    -0.248 NA
ATOM     59  C   UNL A   1      44.884  24.157  29.161  1.00  0.00     0.031 C 
ATOM     60  C   UNL A   1      45.650  28.122  33.694  1.00  0.00     0.029 A 
ATOM     61  C   UNL A   1      45.104  27.436  32.619  1.00  0.00     0.049 A 
ATOM     62  H   UNL A   1      43.394  27.898  31.478  1.00  0.00     0.167 HD
ATOM     63  C   UNL A   1      45.032  25.641  30.905  1.00  0.00     0.074 A 
ATOM     64  C   UNL A   1      45.584  24.476  30.242  1.00  0.00     0.031 C 
ATOM     65  C   UNL A   1      45.585  26.233  31.991  1.00  0.00     0.034 A 
BRANCH  52  66
ATOM     66  C   UNL A   1      42.670  31.342  33.893  1.00  0.00     0.023 A 
ATOM     67  C   UNL A   1      43.277  32.557  33.515  1.00  0.00     0.012 A 
ATOM     68  C   UNL A   1      42.004  31.259  35.130  1.00  0.00     0.148 A 
ATOM     69  C   UNL A   1      43.264  33.657  34.371  1.00  0.00     0.002 A 
ATOM     70  C   UNL A   1      41.951  32.375  35.957  1.00  0.00     0.091 A 
ATOM     71  F   UNL A   1      41.453  30.090  35.485  1.00  0.00    -0.205 F 
ATOM     72  C   UNL A   1      42.592  33.569  35.587  1.00  0.00     0.022 A 
BRANCH  70  73
ATOM     73  S   UNL A   1      41.040  32.389  37.506  1.00  0.00     0.127 S 
ATOM     74  O   UNL A   1      41.906  31.583  38.366  1.00  0.00    -0.237 OA
ATOM     75  O   UNL A   1      41.014  33.815  37.836  1.00  0.00    -0.237 OA
ATOM     76  O   UNL A   1      39.737  31.813  37.208  1.00  0.00    -0.744 OA
ENDBRANCH  70  73
ENDBRANCH  52  66
BRANCH  53  77
ATOM     77  C   UNL A   1      42.748  23.931  27.148  1.00  0.00     0.023 A 
ATOM     78  C   UNL A   1      43.508  24.132  25.977  1.00  0.00     0.012 A 
ATOM     79  C   UNL A   1      42.080  22.704  27.327  1.00  0.00     0.148 A 
ATOM     80  C   UNL A   1      43.577  23.147  24.992  1.00  0.00     0.002 A 
ATOM     81  C   UNL A   1      42.194  21.707  26.363  1.00  0.00     0.091 A 
ATOM     82  F   UNL A   1      41.354  22.533  28.441  1.00  0.00    -0.205 F 
ATOM     83  C   UNL A   1      42.928  21.931  25.189  1.00  0.00     0.022 A 
BRANCH  81  84
ATOM     84  S   UNL A   1      41.493  20.066  26.587  1.00  0.00     0.127 S 
ATOM     85  O   UNL A   1      40.063  20.359  26.654  1.00  0.00    -0.237 OA
ATOM     86  O   UNL A   1      41.923  19.381  25.367  1.00  0.00    -0.237 OA
ATOM     87  O   UNL A   1      42.095  19.549  27.808  1.00  0.00    -0.744 OA
ENDBRANCH  81  84
ENDBRANCH  53  77
BRANCH  65  88
ATOM     88  C   UNL A   1      46.824  25.613  32.575  1.00  0.00     0.023 A 
ATOM     89  C   UNL A   1      48.090  26.091  32.189  1.00  0.00     0.012 A 
ATOM     90  C   UNL A   1      46.723  24.647  33.595  1.00  0.00     0.148 A 
ATOM     91  C   UNL A   1      49.243  25.604  32.801  1.00  0.00     0.002 A 
ATOM     92  C   UNL A   1      47.873  24.200  34.232  1.00  0.00     0.091 A 
ATOM     93  F   UNL A   1      45.505  24.198  33.932  1.00  0.00    -0.205 F 
ATOM     94  C   UNL A   1      49.134  24.671  33.831  1.00  0.00     0.022 A 
BRANCH  92  95
ATOM     95  S   UNL A   1      47.821  23.079  35.634  1.00  0.00     0.127 S 
ATOM     96  O   UNL A   1      46.959  23.805  36.565  1.00  0.00    -0.237 OA
ATOM     97  O   UNL A   1      47.217  21.881  35.051  1.00  0.00    -0.237 OA
ATOM     98  O   UNL A   1      49.202  22.909  36.064  1.00  0.00    -0.744 OA
ENDBRANCH  92  95
ENDBRANCH  65  88
ENDBRANCH  39  40
ENDBRANCH  31  34
ENDBRANCH  29  30
ENDBRANCH   1  29
TORSDOF 16
ENDMDL
