MODEL 1
REMARK VINA RESULT:     -11.8      0.000      0.000
REMARK SMILES Cc1nc2ncnn2c(O)c1CCC(=O)NCCCNC(=O)c1ccc(-c2c3nc(c(-c4cccc(S(=O)(=O)[O-])c4F)c4ccc([nH]4)c(-c4cccc(S(=O)(=O)[O-])c4F)c4nc(c(-c5cccc(S(=O)(=O)[O-])c5F)c5ccc2[nH]5)C=C4)C=C3)cc1
REMARK SMILES IDX 18 1 17 2 16 3 14 4 15 5 13 7 12 8 11 9 1 10 2 11 3 12 4 13
REMARK SMILES IDX 9 14 5 15 8 16 6 17 7 18 10 19 19 21 20 22 21 23 22 25 23 26
REMARK SMILES IDX 24 27 85 28 25 29 84 30 26 31 27 32 28 33 78 34 29 35 83 36
REMARK SMILES IDX 77 37 79 38 30 39 82 40 76 41 75 42 31 44 63 45 43 46 62 47
REMARK SMILES IDX 44 48 47 49 61 50 80 51 45 52 46 53 60 55 81 56 48 57 32 58
REMARK SMILES IDX 33 59 41 60 34 61 36 62 42 63 35 64 37 65 38 66 39 67 40 68
REMARK SMILES IDX 64 69 65 70 73 71 66 72 68 73 74 74 67 75 69 76 70 77 71 78
REMARK SMILES IDX 72 79 49 80 50 81 58 82 51 83 53 84 59 85 52 86 54 87 55 88
REMARK SMILES IDX 56 89 57 90
REMARK H PARENT 16 6 10 20 20 24 79 43 47 54
REMARK Flexibility Score: inf
ROOT
ATOM      1  C   UNL A   1      38.057  19.951  24.846  1.00  0.00     0.042 C 
ENDROOT
BRANCH   1   2
ATOM      2  C   UNL A   1      36.751  20.627  25.198  1.00  0.00     0.117 C 
BRANCH   2   3
ATOM      3  N   UNL A   1      37.039  21.914  25.815  1.00  0.00    -0.356 N 
ATOM      4  C   UNL A   1      37.015  23.160  25.265  1.00  0.00     0.220 C 
ATOM      5  O   UNL A   1      37.671  24.057  25.792  1.00  0.00    -0.275 OA
ATOM      6  H   UNL A   1      37.288  21.879  26.767  1.00  0.00     0.163 HD
BRANCH   4   7
ATOM      7  C   UNL A   1      36.135  23.463  24.070  1.00  0.00     0.105 C 
BRANCH   7   8
ATOM      8  C   UNL A   1      34.724  23.941  24.456  1.00  0.00     0.053 C 
BRANCH   8   9
ATOM      9  C   UNL A   1      33.748  22.793  24.549  1.00  0.00     0.036 A 
ATOM     10  C   UNL A   1      33.645  22.954  27.145  1.00  0.00     0.067 C 
ATOM     11  C   UNL A   1      33.474  22.133  25.887  1.00  0.00     0.050 A 
ATOM     12  N   UNL A   1      33.033  20.922  26.054  1.00  0.00    -0.216 NA
ATOM     13  C   UNL A   1      32.703  20.242  24.924  1.00  0.00     0.255 A 
ATOM     14  C   UNL A   1      33.120  22.198  23.511  1.00  0.00     0.220 A 
ATOM     15  N   UNL A   1      32.452  18.960  24.768  1.00  0.00    -0.197 NA
ATOM     16  N   UNL A   1      32.605  20.891  23.688  1.00  0.00    -0.163 N 
ATOM     17  C   UNL A   1      32.168  18.856  23.441  1.00  0.00     0.249 A 
ATOM     18  N   UNL A   1      32.179  19.997  22.755  1.00  0.00    -0.150 NA
BRANCH  14  19
ATOM     19  O   UNL A   1      33.142  22.704  22.221  1.00  0.00    -0.493 OA
ATOM     20  H   UNL A   1      33.459  22.175  21.516  1.00  0.00     0.295 HD
ENDBRANCH  14  19
ENDBRANCH   8   9
ENDBRANCH   7   8
ENDBRANCH   4   7
ENDBRANCH   2   3
ENDBRANCH   1   2
BRANCH   1  21
ATOM     21  C   UNL A   1      39.221  20.192  25.767  1.00  0.00     0.118 C 
BRANCH  21  22
ATOM     22  N   UNL A   1      40.254  19.152  25.876  1.00  0.00    -0.352 N 
ATOM     23  C   UNL A   1      41.635  19.281  26.142  1.00  0.00     0.251 C 
ATOM     24  H   UNL A   1      39.936  18.230  25.743  1.00  0.00     0.163 HD
ATOM     25  O   UNL A   1      42.362  18.316  26.088  1.00  0.00    -0.269 OA
BRANCH  23  26
ATOM     26  C   UNL A   1      42.197  20.628  26.470  1.00  0.00     0.039 A 
ATOM     27  C   UNL A   1      42.443  21.667  25.559  1.00  0.00     0.014 A 
ATOM     28  C   UNL A   1      42.326  20.920  27.792  1.00  0.00     0.014 A 
ATOM     29  C   UNL A   1      42.671  22.962  26.075  1.00  0.00     0.010 A 
ATOM     30  C   UNL A   1      41.803  22.130  28.080  1.00  0.00     0.010 A 
ATOM     31  C   UNL A   1      42.351  23.181  27.414  1.00  0.00    -0.014 A 
BRANCH  31  32
ATOM     32  C   UNL A   1      42.392  24.406  28.202  1.00  0.00     0.031 A 
ATOM     33  C   UNL A   1      41.209  25.274  28.079  1.00  0.00     0.074 A 
ATOM     34  C   UNL A   1      43.304  24.619  29.191  1.00  0.00     0.049 A 
ATOM     35  N   UNL A   1      41.121  26.359  27.389  1.00  0.00    -0.248 NA
ATOM     36  C   UNL A   1      39.943  24.825  28.670  1.00  0.00     0.031 C 
ATOM     37  C   UNL A   1      44.344  23.710  29.720  1.00  0.00     0.029 A 
ATOM     38  N   UNL A   1      43.407  25.677  30.041  1.00  0.00    -0.354 N 
ATOM     39  C   UNL A   1      39.863  26.872  27.675  1.00  0.00     0.074 A 
ATOM     40  C   UNL A   1      39.113  25.790  28.263  1.00  0.00     0.031 C 
ATOM     41  C   UNL A   1      44.781  24.148  30.921  1.00  0.00     0.029 A 
ATOM     42  C   UNL A   1      44.222  25.462  31.149  1.00  0.00     0.049 A 
ATOM     43  H   UNL A   1      42.943  26.530  29.883  1.00  0.00     0.167 HD
ATOM     44  C   UNL A   1      39.632  28.213  27.651  1.00  0.00     0.034 A 
ATOM     45  C   UNL A   1      44.423  26.308  32.186  1.00  0.00     0.034 A 
ATOM     46  C   UNL A   1      40.759  28.931  27.102  1.00  0.00     0.049 A 
ATOM     47  C   UNL A   1      44.092  27.662  31.687  1.00  0.00     0.074 A 
ATOM     48  C   UNL A   1      41.453  28.894  25.908  1.00  0.00     0.029 A 
ATOM     49  N   UNL A   1      41.597  29.546  28.004  1.00  0.00    -0.354 N 
ATOM     50  N   UNL A   1      44.764  28.263  30.744  1.00  0.00    -0.248 NA
ATOM     51  C   UNL A   1      42.746  28.159  31.916  1.00  0.00     0.031 C 
ATOM     52  C   UNL A   1      42.824  29.034  26.279  1.00  0.00     0.029 A 
ATOM     53  C   UNL A   1      42.885  29.225  27.663  1.00  0.00     0.049 A 
ATOM     54  H   UNL A   1      41.320  30.114  28.760  1.00  0.00     0.167 HD
ATOM     55  C   UNL A   1      43.788  28.871  29.963  1.00  0.00     0.074 A 
ATOM     56  C   UNL A   1      42.586  28.871  30.796  1.00  0.00     0.031 C 
ATOM     57  C   UNL A   1      43.962  29.047  28.617  1.00  0.00     0.034 A 
BRANCH  44  58
ATOM     58  C   UNL A   1      38.560  28.928  28.428  1.00  0.00     0.023 A 
ATOM     59  C   UNL A   1      37.669  29.743  27.697  1.00  0.00     0.012 A 
ATOM     60  C   UNL A   1      38.523  29.035  29.836  1.00  0.00     0.148 A 
ATOM     61  C   UNL A   1      36.805  30.639  28.333  1.00  0.00     0.002 A 
ATOM     62  C   UNL A   1      37.601  29.862  30.467  1.00  0.00     0.091 A 
ATOM     63  F   UNL A   1      39.469  28.447  30.576  1.00  0.00    -0.205 F 
ATOM     64  C   UNL A   1      36.759  30.689  29.720  1.00  0.00     0.022 A 
BRANCH  62  65
ATOM     65  S   UNL A   1      37.454  29.914  32.257  1.00  0.00     0.127 S 
ATOM     66  O   UNL A   1      36.324  30.821  32.432  1.00  0.00    -0.237 OA
ATOM     67  O   UNL A   1      37.180  28.512  32.576  1.00  0.00    -0.237 OA
ATOM     68  O   UNL A   1      38.746  30.390  32.734  1.00  0.00    -0.744 OA
ENDBRANCH  62  65
ENDBRANCH  44  58
BRANCH  45  69
ATOM     69  C   UNL A   1      44.600  26.010  33.626  1.00  0.00     0.023 A 
ATOM     70  C   UNL A   1      45.886  26.076  34.197  1.00  0.00     0.012 A 
ATOM     71  C   UNL A   1      43.485  25.976  34.495  1.00  0.00     0.148 A 
ATOM     72  C   UNL A   1      46.056  26.163  35.583  1.00  0.00     0.002 A 
ATOM     73  C   UNL A   1      43.658  26.071  35.873  1.00  0.00     0.091 A 
ATOM     74  F   UNL A   1      42.256  25.944  33.964  1.00  0.00    -0.205 F 
ATOM     75  C   UNL A   1      44.944  26.179  36.420  1.00  0.00     0.022 A 
BRANCH  73  76
ATOM     76  S   UNL A   1      42.271  26.145  37.016  1.00  0.00     0.127 S 
ATOM     77  O   UNL A   1      41.524  27.296  36.510  1.00  0.00    -0.237 OA
ATOM     78  O   UNL A   1      41.629  24.853  36.796  1.00  0.00    -0.237 OA
ATOM     79  O   UNL A   1      42.856  26.344  38.337  1.00  0.00    -0.744 OA
ENDBRANCH  73  76
ENDBRANCH  45  69
BRANCH  57  80
ATOM     80  C   UNL A   1      45.332  28.780  28.029  1.00  0.00     0.023 A 
ATOM     81  C   UNL A   1      46.401  29.694  28.156  1.00  0.00     0.012 A 
ATOM     82  C   UNL A   1      45.601  27.500  27.515  1.00  0.00     0.148 A 
ATOM     83  C   UNL A   1      47.700  29.345  27.773  1.00  0.00     0.002 A 
ATOM     84  C   UNL A   1      46.902  27.140  27.177  1.00  0.00     0.091 A 
ATOM     85  F   UNL A   1      44.581  26.637  27.399  1.00  0.00    -0.205 F 
ATOM     86  C   UNL A   1      47.954  28.062  27.297  1.00  0.00     0.022 A 
BRANCH  84  87
ATOM     87  S   UNL A   1      47.317  25.465  26.686  1.00  0.00     0.127 S 
ATOM     88  O   UNL A   1      46.962  24.700  27.879  1.00  0.00    -0.237 OA
ATOM     89  O   UNL A   1      46.438  25.246  25.535  1.00  0.00    -0.237 OA
ATOM     90  O   UNL A   1      48.737  25.483  26.352  1.00  0.00    -0.744 OA
ENDBRANCH  84  87
ENDBRANCH  57  80
ENDBRANCH  31  32
ENDBRANCH  23  26
ENDBRANCH  21  22
ENDBRANCH   1  21
TORSDOF 16
ENDMDL
MODEL 2
REMARK VINA RESULT:     -11.7      4.909      9.886
REMARK SMILES Cc1nc2ncnn2c(O)c1CCC(=O)NCCCNC(=O)c1ccc(-c2c3nc(c(-c4cccc(S(=O)(=O)[O-])c4F)c4ccc([nH]4)c(-c4cccc(S(=O)(=O)[O-])c4F)c4nc(c(-c5cccc(S(=O)(=O)[O-])c5F)c5ccc2[nH]5)C=C4)C=C3)cc1
REMARK SMILES IDX 18 1 17 2 16 3 14 4 15 5 13 7 12 8 11 9 1 10 2 11 3 12 4 13
REMARK SMILES IDX 9 14 5 15 8 16 6 17 7 18 10 19 19 21 20 22 21 23 22 25 23 26
REMARK SMILES IDX 24 27 85 28 25 29 84 30 26 31 27 32 28 33 78 34 29 35 83 36
REMARK SMILES IDX 77 37 79 38 30 39 82 40 76 41 75 42 31 44 63 45 43 46 62 47
REMARK SMILES IDX 44 48 47 49 61 50 80 51 45 52 46 53 60 55 81 56 48 57 32 58
REMARK SMILES IDX 33 59 41 60 34 61 36 62 42 63 35 64 37 65 38 66 39 67 40 68
REMARK SMILES IDX 64 69 65 70 73 71 66 72 68 73 74 74 67 75 69 76 70 77 71 78
REMARK SMILES IDX 72 79 49 80 50 81 58 82 51 83 53 84 59 85 52 86 54 87 55 88
REMARK SMILES IDX 56 89 57 90
REMARK H PARENT 16 6 10 20 20 24 79 43 47 54
REMARK Flexibility Score: inf
ROOT
ATOM      1  C   UNL A   1      31.438  31.986  26.634  1.00  0.00     0.042 C 
ENDROOT
BRANCH   1   2
ATOM      2  C   UNL A   1      31.778  30.599  26.136  1.00  0.00     0.117 C 
BRANCH   2   3
ATOM      3  N   UNL A   1      31.751  29.676  27.263  1.00  0.00    -0.356 N 
ATOM      4  C   UNL A   1      32.127  28.368  27.316  1.00  0.00     0.220 C 
ATOM      5  O   UNL A   1      31.660  27.649  28.198  1.00  0.00    -0.275 OA
ATOM      6  H   UNL A   1      31.411  30.052  28.108  1.00  0.00     0.163 HD
BRANCH   4   7
ATOM      7  C   UNL A   1      33.165  27.820  26.358  1.00  0.00     0.105 C 
BRANCH   7   8
ATOM      8  C   UNL A   1      32.569  26.919  25.261  1.00  0.00     0.053 C 
BRANCH   8   9
ATOM      9  C   UNL A   1      32.545  25.469  25.679  1.00  0.00     0.036 A 
ATOM     10  C   UNL A   1      29.954  25.475  25.926  1.00  0.00     0.067 C 
ATOM     11  C   UNL A   1      31.292  24.873  26.293  1.00  0.00     0.050 A 
ATOM     12  N   UNL A   1      31.254  23.831  27.068  1.00  0.00    -0.216 NA
ATOM     13  C   UNL A   1      32.431  23.177  27.252  1.00  0.00     0.255 A 
ATOM     14  C   UNL A   1      33.592  24.615  25.645  1.00  0.00     0.220 A 
ATOM     15  N   UNL A   1      32.739  22.252  28.136  1.00  0.00    -0.197 NA
ATOM     16  N   UNL A   1      33.551  23.458  26.461  1.00  0.00    -0.163 N 
ATOM     17  C   UNL A   1      34.036  21.959  27.842  1.00  0.00     0.249 A 
ATOM     18  N   UNL A   1      34.555  22.604  26.800  1.00  0.00    -0.150 NA
BRANCH  14  19
ATOM     19  O   UNL A   1      34.795  24.915  25.027  1.00  0.00    -0.493 OA
ATOM     20  H   UNL A   1      35.072  25.807  24.950  1.00  0.00     0.295 HD
ENDBRANCH  14  19
ENDBRANCH   8   9
ENDBRANCH   7   8
ENDBRANCH   4   7
ENDBRANCH   2   3
ENDBRANCH   1   2
BRANCH   1  21
ATOM     21  C   UNL A   1      32.534  32.753  27.321  1.00  0.00     0.118 C 
BRANCH  21  22
ATOM     22  N   UNL A   1      32.267  34.139  27.731  1.00  0.00    -0.352 N 
ATOM     23  C   UNL A   1      32.918  34.929  28.703  1.00  0.00     0.251 C 
ATOM     24  H   UNL A   1      31.524  34.580  27.259  1.00  0.00     0.163 HD
ATOM     25  O   UNL A   1      32.491  36.025  28.988  1.00  0.00    -0.269 OA
BRANCH  23  26
ATOM     26  C   UNL A   1      34.129  34.391  29.397  1.00  0.00     0.039 A 
ATOM     27  C   UNL A   1      34.141  33.420  30.410  1.00  0.00     0.014 A 
ATOM     28  C   UNL A   1      35.332  34.763  28.881  1.00  0.00     0.014 A 
ATOM     29  C   UNL A   1      35.372  32.804  30.725  1.00  0.00     0.010 A 
ATOM     30  C   UNL A   1      36.140  33.696  28.706  1.00  0.00     0.010 A 
ATOM     31  C   UNL A   1      36.423  32.982  29.826  1.00  0.00    -0.014 A 
BRANCH  31  32
ATOM     32  C   UNL A   1      37.766  32.417  29.827  1.00  0.00     0.031 A 
ATOM     33  C   UNL A   1      37.876  31.055  29.278  1.00  0.00     0.074 A 
ATOM     34  C   UNL A   1      38.883  33.165  30.047  1.00  0.00     0.049 A 
ATOM     35  N   UNL A   1      37.999  29.963  29.951  1.00  0.00    -0.248 NA
ATOM     36  C   UNL A   1      37.694  30.861  27.835  1.00  0.00     0.031 C 
ATOM     37  C   UNL A   1      39.010  34.624  30.249  1.00  0.00     0.029 A 
ATOM     38  N   UNL A   1      40.187  32.779  30.006  1.00  0.00    -0.354 N 
ATOM     39  C   UNL A   1      38.177  28.967  29.002  1.00  0.00     0.074 A 
ATOM     40  C   UNL A   1      37.750  29.529  27.745  1.00  0.00     0.031 C 
ATOM     41  C   UNL A   1      40.291  35.012  30.063  1.00  0.00     0.029 A 
ATOM     42  C   UNL A   1      41.106  33.824  29.944  1.00  0.00     0.049 A 
ATOM     43  H   UNL A   1      40.461  31.833  30.021  1.00  0.00     0.167 HD
ATOM     44  C   UNL A   1      38.912  27.855  29.282  1.00  0.00     0.034 A 
ATOM     45  C   UNL A   1      42.448  33.718  29.804  1.00  0.00     0.034 A 
ATOM     46  C   UNL A   1      39.250  27.789  30.685  1.00  0.00     0.049 A 
ATOM     47  C   UNL A   1      42.810  32.361  30.275  1.00  0.00     0.074 A 
ATOM     48  C   UNL A   1      38.530  27.774  31.863  1.00  0.00     0.029 A 
ATOM     49  N   UNL A   1      40.527  28.171  31.030  1.00  0.00    -0.354 N 
ATOM     50  N   UNL A   1      42.658  31.967  31.509  1.00  0.00    -0.248 NA
ATOM     51  C   UNL A   1      42.911  31.304  29.284  1.00  0.00     0.031 C 
ATOM     52  C   UNL A   1      39.269  28.610  32.753  1.00  0.00     0.029 A 
ATOM     53  C   UNL A   1      40.432  29.026  32.097  1.00  0.00     0.049 A 
ATOM     54  H   UNL A   1      41.358  27.883  30.588  1.00  0.00     0.167 HD
ATOM     55  C   UNL A   1      42.178  30.668  31.397  1.00  0.00     0.074 A 
ATOM     56  C   UNL A   1      42.467  30.278  30.017  1.00  0.00     0.031 C 
ATOM     57  C   UNL A   1      41.332  30.139  32.333  1.00  0.00     0.034 A 
BRANCH  44  58
ATOM     58  C   UNL A   1      39.630  27.005  28.269  1.00  0.00     0.023 A 
ATOM     59  C   UNL A   1      39.354  25.620  28.279  1.00  0.00     0.012 A 
ATOM     60  C   UNL A   1      40.717  27.440  27.481  1.00  0.00     0.148 A 
ATOM     61  C   UNL A   1      40.139  24.711  27.563  1.00  0.00     0.002 A 
ATOM     62  C   UNL A   1      41.439  26.544  26.701  1.00  0.00     0.091 A 
ATOM     63  F   UNL A   1      41.155  28.700  27.582  1.00  0.00    -0.205 F 
ATOM     64  C   UNL A   1      41.173  25.174  26.761  1.00  0.00     0.022 A 
BRANCH  62  65
ATOM     65  S   UNL A   1      42.742  27.098  25.594  1.00  0.00     0.127 S 
ATOM     66  O   UNL A   1      43.046  25.872  24.862  1.00  0.00    -0.237 OA
ATOM     67  O   UNL A   1      42.057  28.130  24.817  1.00  0.00    -0.237 OA
ATOM     68  O   UNL A   1      43.794  27.608  26.465  1.00  0.00    -0.744 OA
ENDBRANCH  62  65
ENDBRANCH  44  58
BRANCH  45  69
ATOM     69  C   UNL A   1      43.388  34.574  29.044  1.00  0.00     0.023 A 
ATOM     70  C   UNL A   1      43.670  34.273  27.698  1.00  0.00     0.012 A 
ATOM     71  C   UNL A   1      43.753  35.849  29.534  1.00  0.00     0.148 A 
ATOM     72  C   UNL A   1      44.244  35.228  26.850  1.00  0.00     0.002 A 
ATOM     73  C   UNL A   1      44.317  36.799  28.686  1.00  0.00     0.091 A 
ATOM     74  F   UNL A   1      43.463  36.158  30.805  1.00  0.00    -0.205 F 
ATOM     75  C   UNL A   1      44.551  36.495  27.338  1.00  0.00     0.022 A 
BRANCH  73  76
ATOM     76  S   UNL A   1      44.696  38.472  29.228  1.00  0.00     0.127 S 
ATOM     77  O   UNL A   1      45.311  39.045  28.030  1.00  0.00    -0.237 OA
ATOM     78  O   UNL A   1      43.371  38.993  29.546  1.00  0.00    -0.237 OA
ATOM     79  O   UNL A   1      45.606  38.326  30.358  1.00  0.00    -0.744 OA
ENDBRANCH  73  76
ENDBRANCH  45  69
BRANCH  57  80
ATOM     80  C   UNL A   1      41.108  30.911  33.618  1.00  0.00     0.023 A 
ATOM     81  C   UNL A   1      42.061  30.935  34.659  1.00  0.00     0.012 A 
ATOM     82  C   UNL A   1      40.011  31.787  33.690  1.00  0.00     0.148 A 
ATOM     83  C   UNL A   1      41.918  31.801  35.749  1.00  0.00     0.002 A 
ATOM     84  C   UNL A   1      39.897  32.679  34.751  1.00  0.00     0.091 A 
ATOM     85  F   UNL A   1      39.112  31.758  32.695  1.00  0.00    -0.205 F 
ATOM     86  C   UNL A   1      40.844  32.685  35.787  1.00  0.00     0.022 A 
BRANCH  84  87
ATOM     87  S   UNL A   1      38.612  33.932  34.792  1.00  0.00     0.127 S 
ATOM     88  O   UNL A   1      38.820  34.540  36.105  1.00  0.00    -0.237 OA
ATOM     89  O   UNL A   1      38.970  34.788  33.659  1.00  0.00    -0.237 OA
ATOM     90  O   UNL A   1      37.351  33.220  34.623  1.00  0.00    -0.744 OA
ENDBRANCH  84  87
ENDBRANCH  57  80
ENDBRANCH  31  32
ENDBRANCH  23  26
ENDBRANCH  21  22
ENDBRANCH   1  21
TORSDOF 16
ENDMDL
MODEL 3
REMARK VINA RESULT:     -11.5      5.026      9.938
REMARK SMILES Cc1nc2ncnn2c(O)c1CCC(=O)NCCCNC(=O)c1ccc(-c2c3nc(c(-c4cccc(S(=O)(=O)[O-])c4F)c4ccc([nH]4)c(-c4cccc(S(=O)(=O)[O-])c4F)c4nc(c(-c5cccc(S(=O)(=O)[O-])c5F)c5ccc2[nH]5)C=C4)C=C3)cc1
REMARK SMILES IDX 18 1 17 2 16 3 14 4 15 5 13 7 12 8 11 9 1 10 2 11 3 12 4 13
REMARK SMILES IDX 9 14 5 15 8 16 6 17 7 18 10 19 19 21 20 22 21 23 22 25 23 26
REMARK SMILES IDX 24 27 85 28 25 29 84 30 26 31 27 32 28 33 78 34 29 35 83 36
REMARK SMILES IDX 77 37 79 38 30 39 82 40 76 41 75 42 31 44 63 45 43 46 62 47
REMARK SMILES IDX 44 48 47 49 61 50 80 51 45 52 46 53 60 55 81 56 48 57 32 58
REMARK SMILES IDX 33 59 41 60 34 61 36 62 42 63 35 64 37 65 38 66 39 67 40 68
REMARK SMILES IDX 64 69 65 70 73 71 66 72 68 73 74 74 67 75 69 76 70 77 71 78
REMARK SMILES IDX 72 79 49 80 50 81 58 82 51 83 53 84 59 85 52 86 54 87 55 88
REMARK SMILES IDX 56 89 57 90
REMARK H PARENT 16 6 10 20 20 24 79 43 47 54
REMARK Flexibility Score: inf
ROOT
ATOM      1  C   UNL A   1      31.576  31.821  26.546  1.00  0.00     0.042 C 
ENDROOT
BRANCH   1   2
ATOM      2  C   UNL A   1      31.750  30.319  26.517  1.00  0.00     0.117 C 
BRANCH   2   3
ATOM      3  N   UNL A   1      32.158  29.919  25.177  1.00  0.00    -0.356 N 
ATOM      4  C   UNL A   1      33.273  29.246  24.779  1.00  0.00     0.220 C 
ATOM      5  O   UNL A   1      33.654  29.359  23.616  1.00  0.00    -0.275 OA
ATOM      6  H   UNL A   1      31.539  30.173  24.454  1.00  0.00     0.163 HD
BRANCH   4   7
ATOM      7  C   UNL A   1      33.991  28.308  25.727  1.00  0.00     0.105 C 
BRANCH   7   8
ATOM      8  C   UNL A   1      33.225  26.999  25.990  1.00  0.00     0.053 C 
BRANCH   8   9
ATOM      9  C   UNL A   1      32.982  26.226  24.716  1.00  0.00     0.036 A 
ATOM     10  C   UNL A   1      34.937  24.582  25.217  1.00  0.00     0.067 C 
ATOM     11  C   UNL A   1      34.021  25.243  24.211  1.00  0.00     0.050 A 
ATOM     12  N   UNL A   1      34.157  24.856  22.979  1.00  0.00    -0.216 NA
ATOM     13  C   UNL A   1      33.220  25.304  22.101  1.00  0.00     0.255 A 
ATOM     14  C   UNL A   1      31.927  26.376  23.884  1.00  0.00     0.220 A 
ATOM     15  N   UNL A   1      33.226  25.266  20.787  1.00  0.00    -0.197 NA
ATOM     16  N   UNL A   1      32.050  25.930  22.545  1.00  0.00    -0.163 N 
ATOM     17  C   UNL A   1      32.037  25.839  20.452  1.00  0.00     0.249 A 
ATOM     18  N   UNL A   1      31.259  26.196  21.471  1.00  0.00    -0.150 NA
BRANCH  14  19
ATOM     19  O   UNL A   1      30.814  27.138  24.201  1.00  0.00    -0.493 OA
ATOM     20  H   UNL A   1      29.967  26.880  23.894  1.00  0.00     0.295 HD
ENDBRANCH  14  19
ENDBRANCH   8   9
ENDBRANCH   7   8
ENDBRANCH   4   7
ENDBRANCH   2   3
ENDBRANCH   1   2
BRANCH   1  21
ATOM     21  C   UNL A   1      32.604  32.614  27.305  1.00  0.00     0.118 C 
BRANCH  21  22
ATOM     22  N   UNL A   1      32.281  33.996  27.687  1.00  0.00    -0.352 N 
ATOM     23  C   UNL A   1      32.905  34.835  28.635  1.00  0.00     0.251 C 
ATOM     24  H   UNL A   1      31.516  34.394  27.211  1.00  0.00     0.163 HD
ATOM     25  O   UNL A   1      32.434  35.918  28.899  1.00  0.00    -0.269 OA
BRANCH  23  26
ATOM     26  C   UNL A   1      34.144  34.366  29.329  1.00  0.00     0.039 A 
ATOM     27  C   UNL A   1      34.198  33.513  30.443  1.00  0.00     0.014 A 
ATOM     28  C   UNL A   1      35.324  34.667  28.722  1.00  0.00     0.014 A 
ATOM     29  C   UNL A   1      35.439  32.924  30.768  1.00  0.00     0.010 A 
ATOM     30  C   UNL A   1      36.118  33.580  28.630  1.00  0.00     0.010 A 
ATOM     31  C   UNL A   1      36.448  32.991  29.810  1.00  0.00    -0.014 A 
BRANCH  31  32
ATOM     32  C   UNL A   1      37.788  32.417  29.813  1.00  0.00     0.031 A 
ATOM     33  C   UNL A   1      37.888  31.048  29.280  1.00  0.00     0.074 A 
ATOM     34  C   UNL A   1      38.911  33.160  30.021  1.00  0.00     0.049 A 
ATOM     35  N   UNL A   1      38.005  29.963  29.965  1.00  0.00    -0.248 NA
ATOM     36  C   UNL A   1      37.700  30.839  27.839  1.00  0.00     0.031 C 
ATOM     37  C   UNL A   1      39.049  34.620  30.206  1.00  0.00     0.029 A 
ATOM     38  N   UNL A   1      40.212  32.765  29.982  1.00  0.00    -0.354 N 
ATOM     39  C   UNL A   1      38.173  28.955  29.027  1.00  0.00     0.074 A 
ATOM     40  C   UNL A   1      37.746  29.506  27.765  1.00  0.00     0.031 C 
ATOM     41  C   UNL A   1      40.331  34.997  30.012  1.00  0.00     0.029 A 
ATOM     42  C   UNL A   1      41.138  33.802  29.905  1.00  0.00     0.049 A 
ATOM     43  H   UNL A   1      40.480  31.818  30.006  1.00  0.00     0.167 HD
ATOM     44  C   UNL A   1      38.901  27.842  29.318  1.00  0.00     0.034 A 
ATOM     45  C   UNL A   1      42.479  33.686  29.763  1.00  0.00     0.034 A 
ATOM     46  C   UNL A   1      39.243  27.789  30.721  1.00  0.00     0.049 A 
ATOM     47  C   UNL A   1      42.832  32.332  30.248  1.00  0.00     0.074 A 
ATOM     48  C   UNL A   1      38.526  27.793  31.901  1.00  0.00     0.029 A 
ATOM     49  N   UNL A   1      40.523  28.167  31.057  1.00  0.00    -0.354 N 
ATOM     50  N   UNL A   1      42.682  31.953  31.487  1.00  0.00    -0.248 NA
ATOM     51  C   UNL A   1      42.923  31.263  29.270  1.00  0.00     0.031 C 
ATOM     52  C   UNL A   1      39.273  28.635  32.779  1.00  0.00     0.029 A 
ATOM     53  C   UNL A   1      40.438  29.035  32.115  1.00  0.00     0.049 A 
ATOM     54  H   UNL A   1      41.352  27.868  30.617  1.00  0.00     0.167 HD
ATOM     55  C   UNL A   1      42.192  30.656  31.392  1.00  0.00     0.074 A 
ATOM     56  C   UNL A   1      42.475  30.249  30.016  1.00  0.00     0.031 C 
ATOM     57  C   UNL A   1      41.345  30.144  32.336  1.00  0.00     0.034 A 
BRANCH  44  58
ATOM     58  C   UNL A   1      39.610  26.975  28.313  1.00  0.00     0.023 A 
ATOM     59  C   UNL A   1      39.373  25.585  28.379  1.00  0.00     0.012 A 
ATOM     60  C   UNL A   1      40.662  27.410  27.477  1.00  0.00     0.148 A 
ATOM     61  C   UNL A   1      40.159  24.672  27.671  1.00  0.00     0.002 A 
ATOM     62  C   UNL A   1      41.383  26.505  26.706  1.00  0.00     0.091 A 
ATOM     63  F   UNL A   1      41.068  28.683  27.521  1.00  0.00    -0.205 F 
ATOM     64  C   UNL A   1      41.156  25.133  26.821  1.00  0.00     0.022 A 
BRANCH  62  65
ATOM     65  S   UNL A   1      42.637  27.053  25.541  1.00  0.00     0.127 S 
ATOM     66  O   UNL A   1      42.752  25.891  24.666  1.00  0.00    -0.237 OA
ATOM     67  O   UNL A   1      41.996  28.222  24.938  1.00  0.00    -0.237 OA
ATOM     68  O   UNL A   1      43.805  27.368  26.354  1.00  0.00    -0.744 OA
ENDBRANCH  62  65
ENDBRANCH  44  58
BRANCH  45  69
ATOM     69  C   UNL A   1      43.422  34.527  28.990  1.00  0.00     0.023 A 
ATOM     70  C   UNL A   1      43.735  34.182  27.661  1.00  0.00     0.012 A 
ATOM     71  C   UNL A   1      43.762  35.824  29.441  1.00  0.00     0.148 A 
ATOM     72  C   UNL A   1      44.313  35.113  26.791  1.00  0.00     0.002 A 
ATOM     73  C   UNL A   1      44.330  36.749  28.570  1.00  0.00     0.091 A 
ATOM     74  F   UNL A   1      43.443  36.174  30.694  1.00  0.00    -0.205 F 
ATOM     75  C   UNL A   1      44.594  36.401  27.238  1.00  0.00     0.022 A 
BRANCH  73  76
ATOM     76  S   UNL A   1      44.677  38.446  29.058  1.00  0.00     0.127 S 
ATOM     77  O   UNL A   1      45.449  38.936  27.917  1.00  0.00    -0.237 OA
ATOM     78  O   UNL A   1      43.335  39.006  29.177  1.00  0.00    -0.237 OA
ATOM     79  O   UNL A   1      45.435  38.354  30.301  1.00  0.00    -0.744 OA
ENDBRANCH  73  76
ENDBRANCH  45  69
BRANCH  57  80
ATOM     80  C   UNL A   1      41.130  30.932  33.612  1.00  0.00     0.023 A 
ATOM     81  C   UNL A   1      42.086  30.962  34.650  1.00  0.00     0.012 A 
ATOM     82  C   UNL A   1      40.039  31.815  33.678  1.00  0.00     0.148 A 
ATOM     83  C   UNL A   1      41.953  31.842  35.730  1.00  0.00     0.002 A 
ATOM     84  C   UNL A   1      39.933  32.720  34.729  1.00  0.00     0.091 A 
ATOM     85  F   UNL A   1      39.137  31.781  32.686  1.00  0.00    -0.205 F 
ATOM     86  C   UNL A   1      40.884  32.733  35.762  1.00  0.00     0.022 A 
BRANCH  84  87
ATOM     87  S   UNL A   1      38.656  33.981  34.759  1.00  0.00     0.127 S 
ATOM     88  O   UNL A   1      38.949  34.742  33.546  1.00  0.00    -0.237 OA
ATOM     89  O   UNL A   1      37.427  33.187  34.701  1.00  0.00    -0.237 OA
ATOM     90  O   UNL A   1      38.836  34.706  36.012  1.00  0.00    -0.744 OA
ENDBRANCH  84  87
ENDBRANCH  57  80
ENDBRANCH  31  32
ENDBRANCH  23  26
ENDBRANCH  21  22
ENDBRANCH   1  21
TORSDOF 16
ENDMDL
