MODEL 1
REMARK VINA RESULT:     -13.0      0.000      0.000
REMARK SMILES O=C(NCCCNC(=O)c1cc(-c2ccccc2)nc(Nc2nc3ccccc3s2)n1)c1ccc(-c2c3nc(c(-c4cccc(S(=O)(=O)[O-])c4F)c4ccc([nH]4)c(-c4cccc(S(=O)(=O)[O-])c4F)c4nc(c(-c5cccc(S(=O)(=O)[O-])c5F)c5ccc2[nH]5)C=C4)C=C3)cc1
REMARK SMILES IDX 4 1 3 2 1 3 2 4 32 6 33 7 94 8 34 9 93 10 35 11 36 12 37 13
REMARK SMILES IDX 87 14 38 15 92 16 86 17 88 18 39 19 91 20 85 21 84 22 40 24
REMARK SMILES IDX 72 25 52 26 71 27 53 28 56 29 70 30 89 31 54 32 55 33 69 35
REMARK SMILES IDX 90 36 57 37 41 38 42 39 50 40 43 41 45 42 51 43 44 44 46 45
REMARK SMILES IDX 47 46 48 47 49 48 73 49 74 50 82 51 75 52 77 53 83 54 76 55
REMARK SMILES IDX 78 56 79 57 80 58 81 59 58 60 59 61 67 62 60 63 62 64 68 65
REMARK SMILES IDX 61 66 63 67 64 68 65 69 66 70 5 71 6 72 7 73 8 74 9 76 10 77
REMARK SMILES IDX 11 78 31 79 12 80 20 81 19 82 13 83 14 84 18 85 15 86 17 87
REMARK SMILES IDX 16 88 21 89 22 91 23 92 30 93 24 94 29 95 25 96 28 97 26 98
REMARK SMILES IDX 27 99
REMARK H PARENT 3 5 88 23 56 34 7 75 21 90
REMARK Flexibility Score: inf
ROOT
ATOM      1  C   UNL A   1      38.873  20.186  26.131  1.00  0.00     0.118 C 
ENDROOT
BRANCH   1   2
ATOM      2  N   UNL A   1      40.029  19.301  26.128  1.00  0.00    -0.352 N 
ATOM      3  O   UNL A   1      42.189  18.706  25.955  1.00  0.00    -0.269 OA
ATOM      4  C   UNL A   1      41.374  19.594  26.165  1.00  0.00     0.251 C 
ATOM      5  H   UNL A   1      39.816  18.340  26.094  1.00  0.00     0.163 HD
BRANCH   4   6
ATOM      6  C   UNL A   1      41.820  20.981  26.429  1.00  0.00     0.039 A 
ATOM      7  C   UNL A   1      42.100  21.404  27.727  1.00  0.00     0.014 A 
ATOM      8  C   UNL A   1      41.974  21.866  25.358  1.00  0.00     0.014 A 
ATOM      9  C   UNL A   1      42.352  22.745  27.980  1.00  0.00     0.010 A 
ATOM     10  C   UNL A   1      42.342  23.193  25.603  1.00  0.00     0.010 A 
ATOM     11  C   UNL A   1      42.497  23.653  26.920  1.00  0.00    -0.014 A 
BRANCH  11  12
ATOM     12  C   UNL A   1      42.901  25.051  27.217  1.00  0.00     0.031 A 
ATOM     13  C   UNL A   1      41.966  26.010  27.900  1.00  0.00     0.074 A 
ATOM     14  C   UNL A   1      44.135  25.450  26.854  1.00  0.00     0.049 A 
ATOM     15  N   UNL A   1      42.176  27.257  28.238  1.00  0.00    -0.248 NA
ATOM     16  C   UNL A   1      40.622  25.517  28.238  1.00  0.00     0.031 C 
ATOM     17  C   UNL A   1      45.108  24.621  26.135  1.00  0.00     0.029 A 
ATOM     18  N   UNL A   1      44.783  26.646  27.026  1.00  0.00    -0.354 N 
ATOM     19  C   UNL A   1      40.983  27.713  28.785  1.00  0.00     0.074 A 
ATOM     20  C   UNL A   1      40.049  26.608  28.730  1.00  0.00     0.031 C 
ATOM     21  C   UNL A   1      46.232  25.325  25.946  1.00  0.00     0.029 A 
ATOM     22  C   UNL A   1      46.041  26.670  26.474  1.00  0.00     0.049 A 
ATOM     23  H   UNL A   1      44.386  27.412  27.499  1.00  0.00     0.167 HD
ATOM     24  C   UNL A   1      40.700  28.934  29.299  1.00  0.00     0.034 A 
ATOM     25  C   UNL A   1      46.938  27.668  26.374  1.00  0.00     0.034 A 
ATOM     26  C   UNL A   1      41.648  30.013  29.382  1.00  0.00     0.049 A 
ATOM     27  C   UNL A   1      46.608  29.000  26.981  1.00  0.00     0.074 A 
ATOM     28  C   UNL A   1      41.482  31.261  29.960  1.00  0.00     0.029 A 
ATOM     29  N   UNL A   1      42.934  29.983  28.866  1.00  0.00    -0.354 N 
ATOM     30  N   UNL A   1      45.526  29.365  27.624  1.00  0.00    -0.248 NA
ATOM     31  C   UNL A   1      47.632  30.048  26.877  1.00  0.00     0.031 C 
ATOM     32  C   UNL A   1      42.659  31.993  29.768  1.00  0.00     0.029 A 
ATOM     33  C   UNL A   1      43.568  31.193  29.093  1.00  0.00     0.049 A 
ATOM     34  H   UNL A   1      43.338  29.213  28.403  1.00  0.00     0.167 HD
ATOM     35  C   UNL A   1      45.743  30.679  28.017  1.00  0.00     0.074 A 
ATOM     36  C   UNL A   1      47.074  31.034  27.566  1.00  0.00     0.031 C 
ATOM     37  C   UNL A   1      44.908  31.520  28.676  1.00  0.00     0.034 A 
BRANCH  24  38
ATOM     38  C   UNL A   1      39.312  29.163  29.842  1.00  0.00     0.023 A 
ATOM     39  C   UNL A   1      39.014  28.806  31.173  1.00  0.00     0.012 A 
ATOM     40  C   UNL A   1      38.322  29.789  29.059  1.00  0.00     0.148 A 
ATOM     41  C   UNL A   1      37.746  29.037  31.706  1.00  0.00     0.002 A 
ATOM     42  C   UNL A   1      37.072  30.055  29.609  1.00  0.00     0.091 A 
ATOM     43  F   UNL A   1      38.613  30.103  27.788  1.00  0.00    -0.205 F 
ATOM     44  C   UNL A   1      36.779  29.670  30.928  1.00  0.00     0.022 A 
BRANCH  42  45
ATOM     45  S   UNL A   1      35.788  30.933  28.711  1.00  0.00     0.127 S 
ATOM     46  O   UNL A   1      34.959  31.441  29.801  1.00  0.00    -0.237 OA
ATOM     47  O   UNL A   1      36.552  31.958  27.998  1.00  0.00    -0.237 OA
ATOM     48  O   UNL A   1      35.157  29.942  27.849  1.00  0.00    -0.744 OA
ENDBRANCH  42  45
ENDBRANCH  24  38
BRANCH  25  49
ATOM     49  C   UNL A   1      48.238  27.416  25.696  1.00  0.00     0.023 A 
ATOM     50  C   UNL A   1      49.338  26.955  26.443  1.00  0.00     0.012 A 
ATOM     51  C   UNL A   1      48.364  27.557  24.299  1.00  0.00     0.148 A 
ATOM     52  C   UNL A   1      50.547  26.657  25.813  1.00  0.00     0.002 A 
ATOM     53  C   UNL A   1      49.551  27.199  23.671  1.00  0.00     0.091 A 
ATOM     54  F   UNL A   1      47.308  28.009  23.608  1.00  0.00    -0.205 F 
ATOM     55  C   UNL A   1      50.648  26.764  24.428  1.00  0.00     0.022 A 
BRANCH  53  56
ATOM     56  S   UNL A   1      49.714  27.161  21.883  1.00  0.00     0.127 S 
ATOM     57  O   UNL A   1      48.653  26.231  21.506  1.00  0.00    -0.237 OA
ATOM     58  O   UNL A   1      49.467  28.558  21.525  1.00  0.00    -0.237 OA
ATOM     59  O   UNL A   1      51.076  26.712  21.624  1.00  0.00    -0.744 OA
ENDBRANCH  53  56
ENDBRANCH  25  49
BRANCH  37  60
ATOM     60  C   UNL A   1      45.414  32.908  28.965  1.00  0.00     0.023 A 
ATOM     61  C   UNL A   1      46.117  33.159  30.160  1.00  0.00     0.012 A 
ATOM     62  C   UNL A   1      45.249  33.945  28.027  1.00  0.00     0.148 A 
ATOM     63  C   UNL A   1      46.623  34.429  30.430  1.00  0.00     0.002 A 
ATOM     64  C   UNL A   1      45.796  35.197  28.281  1.00  0.00     0.091 A 
ATOM     65  F   UNL A   1      44.556  33.691  26.906  1.00  0.00    -0.205 F 
ATOM     66  C   UNL A   1      46.473  35.444  29.486  1.00  0.00     0.022 A 
BRANCH  64  67
ATOM     67  S   UNL A   1      45.732  36.535  27.086  1.00  0.00     0.127 S 
ATOM     68  O   UNL A   1      46.404  35.940  25.933  1.00  0.00    -0.237 OA
ATOM     69  O   UNL A   1      44.292  36.735  26.918  1.00  0.00    -0.237 OA
ATOM     70  O   UNL A   1      46.428  37.657  27.705  1.00  0.00    -0.744 OA
ENDBRANCH  64  67
ENDBRANCH  37  60
ENDBRANCH  11  12
ENDBRANCH   4   6
ENDBRANCH   1   2
BRANCH   1  71
ATOM     71  C   UNL A   1      38.042  20.075  24.861  1.00  0.00     0.042 C 
BRANCH  71  72
ATOM     72  C   UNL A   1      37.468  21.397  24.383  1.00  0.00     0.118 C 
BRANCH  72  73
ATOM     73  N   UNL A   1      36.936  22.206  25.470  1.00  0.00    -0.351 N 
ATOM     74  C   UNL A   1      35.628  22.474  25.807  1.00  0.00     0.270 C 
ATOM     75  H   UNL A   1      37.612  22.624  26.051  1.00  0.00     0.163 HD
ATOM     76  O   UNL A   1      35.386  23.265  26.714  1.00  0.00    -0.268 OA
BRANCH  74  77
ATOM     77  C   UNL A   1      34.530  21.773  25.099  1.00  0.00     0.134 A 
ATOM     78  C   UNL A   1      34.307  20.445  25.326  1.00  0.00     0.063 A 
ATOM     79  N   UNL A   1      33.807  22.510  24.251  1.00  0.00    -0.207 NA
ATOM     80  C   UNL A   1      33.342  19.865  24.537  1.00  0.00     0.077 A 
ATOM     81  C   UNL A   1      32.844  21.899  23.556  1.00  0.00     0.230 A 
ATOM     82  N   UNL A   1      32.591  20.580  23.663  1.00  0.00    -0.213 NA
BRANCH  80  83
ATOM     83  C   UNL A   1      33.176  18.404  24.559  1.00  0.00     0.000 A 
ATOM     84  C   UNL A   1      33.769  17.598  23.574  1.00  0.00     0.010 A 
ATOM     85  C   UNL A   1      32.539  17.765  25.640  1.00  0.00     0.010 A 
ATOM     86  C   UNL A   1      33.759  16.203  23.687  1.00  0.00     0.001 A 
ATOM     87  C   UNL A   1      32.528  16.373  25.753  1.00  0.00     0.001 A 
ATOM     88  C   UNL A   1      33.146  15.594  24.780  1.00  0.00     0.000 A 
ENDBRANCH  80  83
BRANCH  81  89
ATOM     89  N   UNL A   1      31.997  22.657  22.752  1.00  0.00    -0.300 N 
ATOM     90  H   UNL A   1      31.439  22.193  22.086  1.00  0.00     0.172 HD
BRANCH  89  91
ATOM     91  C   UNL A   1      31.910  24.001  22.844  1.00  0.00     0.190 A 
ATOM     92  N   UNL A   1      32.712  24.851  22.246  1.00  0.00    -0.220 NA
ATOM     93  S   UNL A   1      30.692  24.748  23.813  1.00  0.00    -0.097 S 
ATOM     94  C   UNL A   1      32.521  26.130  22.717  1.00  0.00     0.084 A 
ATOM     95  C   UNL A   1      31.468  26.278  23.617  1.00  0.00     0.056 A 
ATOM     96  C   UNL A   1      33.303  27.253  22.381  1.00  0.00     0.030 A 
ATOM     97  C   UNL A   1      31.178  27.519  24.211  1.00  0.00     0.021 A 
ATOM     98  C   UNL A   1      33.032  28.488  22.973  1.00  0.00     0.002 A 
ATOM     99  C   UNL A   1      31.985  28.616  23.881  1.00  0.00     0.002 A 
ENDBRANCH  89  91
ENDBRANCH  81  89
ENDBRANCH  74  77
ENDBRANCH  72  73
ENDBRANCH  71  72
ENDBRANCH   1  71
TORSDOF 16
ENDMDL
MODEL 2
REMARK VINA RESULT:     -12.9      5.212      8.673
REMARK SMILES O=C(NCCCNC(=O)c1cc(-c2ccccc2)nc(Nc2nc3ccccc3s2)n1)c1ccc(-c2c3nc(c(-c4cccc(S(=O)(=O)[O-])c4F)c4ccc([nH]4)c(-c4cccc(S(=O)(=O)[O-])c4F)c4nc(c(-c5cccc(S(=O)(=O)[O-])c5F)c5ccc2[nH]5)C=C4)C=C3)cc1
REMARK SMILES IDX 4 1 3 2 1 3 2 4 32 6 33 7 94 8 34 9 93 10 35 11 36 12 37 13
REMARK SMILES IDX 87 14 38 15 92 16 86 17 88 18 39 19 91 20 85 21 84 22 40 24
REMARK SMILES IDX 72 25 52 26 71 27 53 28 56 29 70 30 89 31 54 32 55 33 69 35
REMARK SMILES IDX 90 36 57 37 41 38 42 39 50 40 43 41 45 42 51 43 44 44 46 45
REMARK SMILES IDX 47 46 48 47 49 48 73 49 74 50 82 51 75 52 77 53 83 54 76 55
REMARK SMILES IDX 78 56 79 57 80 58 81 59 58 60 59 61 67 62 60 63 62 64 68 65
REMARK SMILES IDX 61 66 63 67 64 68 65 69 66 70 5 71 6 72 7 73 8 74 9 76 10 77
REMARK SMILES IDX 11 78 31 79 12 80 20 81 19 82 13 83 14 84 18 85 15 86 17 87
REMARK SMILES IDX 16 88 21 89 22 91 23 92 30 93 24 94 29 95 25 96 28 97 26 98
REMARK SMILES IDX 27 99
REMARK H PARENT 3 5 88 23 56 34 7 75 21 90
REMARK Flexibility Score: inf
ROOT
ATOM      1  C   UNL A   1      33.116  28.990  25.403  1.00  0.00     0.118 C 
ENDROOT
BRANCH   1   2
ATOM      2  N   UNL A   1      32.668  30.313  25.815  1.00  0.00    -0.352 N 
ATOM      3  O   UNL A   1      32.478  32.126  27.128  1.00  0.00    -0.269 OA
ATOM      4  C   UNL A   1      33.124  31.133  26.823  1.00  0.00     0.251 C 
ATOM      5  H   UNL A   1      31.921  30.680  25.289  1.00  0.00     0.163 HD
BRANCH   4   6
ATOM      6  C   UNL A   1      34.370  30.792  27.544  1.00  0.00     0.039 A 
ATOM      7  C   UNL A   1      34.541  29.533  28.118  1.00  0.00     0.014 A 
ATOM      8  C   UNL A   1      35.390  31.744  27.636  1.00  0.00     0.014 A 
ATOM      9  C   UNL A   1      35.637  29.285  28.932  1.00  0.00     0.010 A 
ATOM     10  C   UNL A   1      36.549  31.451  28.363  1.00  0.00     0.010 A 
ATOM     11  C   UNL A   1      36.665  30.232  29.048  1.00  0.00    -0.014 A 
BRANCH  11  12
ATOM     12  C   UNL A   1      37.886  29.881  29.817  1.00  0.00     0.031 A 
ATOM     13  C   UNL A   1      38.127  30.421  31.199  1.00  0.00     0.074 A 
ATOM     14  C   UNL A   1      38.789  29.062  29.243  1.00  0.00     0.049 A 
ATOM     15  N   UNL A   1      39.137  30.198  32.001  1.00  0.00    -0.248 NA
ATOM     16  C   UNL A   1      37.116  31.337  31.751  1.00  0.00     0.031 C 
ATOM     17  C   UNL A   1      38.687  28.521  27.885  1.00  0.00     0.029 A 
ATOM     18  N   UNL A   1      39.968  28.547  29.716  1.00  0.00    -0.354 N 
ATOM     19  C   UNL A   1      38.910  30.976  33.129  1.00  0.00     0.074 A 
ATOM     20  C   UNL A   1      37.666  31.684  32.907  1.00  0.00     0.031 C 
ATOM     21  C   UNL A   1      39.745  27.737  27.642  1.00  0.00     0.029 A 
ATOM     22  C   UNL A   1      40.630  27.767  28.799  1.00  0.00     0.049 A 
ATOM     23  H   UNL A   1      40.307  28.720  30.624  1.00  0.00     0.167 HD
ATOM     24  C   UNL A   1      39.662  31.078  34.252  1.00  0.00     0.034 A 
ATOM     25  C   UNL A   1      41.829  27.160  28.865  1.00  0.00     0.034 A 
ATOM     26  C   UNL A   1      40.878  30.342  34.477  1.00  0.00     0.049 A 
ATOM     27  C   UNL A   1      42.624  27.265  30.132  1.00  0.00     0.074 A 
ATOM     28  C   UNL A   1      41.668  30.315  35.614  1.00  0.00     0.029 A 
ATOM     29  N   UNL A   1      41.489  29.514  33.549  1.00  0.00    -0.354 N 
ATOM     30  N   UNL A   1      42.322  27.890  31.244  1.00  0.00    -0.248 NA
ATOM     31  C   UNL A   1      43.911  26.558  30.168  1.00  0.00     0.031 C 
ATOM     32  C   UNL A   1      42.770  29.490  35.362  1.00  0.00     0.029 A 
ATOM     33  C   UNL A   1      42.655  28.984  34.077  1.00  0.00     0.049 A 
ATOM     34  H   UNL A   1      41.146  29.330  32.645  1.00  0.00     0.167 HD
ATOM     35  C   UNL A   1      43.370  27.640  32.119  1.00  0.00     0.074 A 
ATOM     36  C   UNL A   1      44.301  26.779  31.417  1.00  0.00     0.031 C 
ATOM     37  C   UNL A   1      43.553  28.096  33.383  1.00  0.00     0.034 A 
BRANCH  24  38
ATOM     38  C   UNL A   1      39.177  32.000  35.342  1.00  0.00     0.023 A 
ATOM     39  C   UNL A   1      38.212  31.545  36.264  1.00  0.00     0.012 A 
ATOM     40  C   UNL A   1      39.719  33.292  35.493  1.00  0.00     0.148 A 
ATOM     41  C   UNL A   1      37.772  32.370  37.299  1.00  0.00     0.002 A 
ATOM     42  C   UNL A   1      39.306  34.095  36.551  1.00  0.00     0.091 A 
ATOM     43  F   UNL A   1      40.619  33.719  34.595  1.00  0.00    -0.205 F 
ATOM     44  C   UNL A   1      38.325  33.640  37.448  1.00  0.00     0.022 A 
BRANCH  42  45
ATOM     45  S   UNL A   1      40.015  35.714  36.870  1.00  0.00     0.127 S 
ATOM     46  O   UNL A   1      39.648  36.441  35.657  1.00  0.00    -0.237 OA
ATOM     47  O   UNL A   1      39.297  36.137  38.073  1.00  0.00    -0.237 OA
ATOM     48  O   UNL A   1      41.442  35.493  37.065  1.00  0.00    -0.744 OA
ENDBRANCH  42  45
ENDBRANCH  24  38
BRANCH  25  49
ATOM     49  C   UNL A   1      42.318  26.380  27.695  1.00  0.00     0.023 A 
ATOM     50  C   UNL A   1      42.957  27.044  26.632  1.00  0.00     0.012 A 
ATOM     51  C   UNL A   1      42.222  24.974  27.672  1.00  0.00     0.148 A 
ATOM     52  C   UNL A   1      43.475  26.323  25.556  1.00  0.00     0.002 A 
ATOM     53  C   UNL A   1      42.795  24.258  26.629  1.00  0.00     0.091 A 
ATOM     54  F   UNL A   1      41.599  24.363  28.690  1.00  0.00    -0.205 F 
ATOM     55  C   UNL A   1      43.408  24.931  25.561  1.00  0.00     0.022 A 
BRANCH  53  56
ATOM     56  S   UNL A   1      42.888  22.465  26.635  1.00  0.00     0.127 S 
ATOM     57  O   UNL A   1      42.239  22.127  25.372  1.00  0.00    -0.237 OA
ATOM     58  O   UNL A   1      44.333  22.235  26.667  1.00  0.00    -0.237 OA
ATOM     59  O   UNL A   1      42.191  22.041  27.842  1.00  0.00    -0.744 OA
ENDBRANCH  53  56
ENDBRANCH  25  49
BRANCH  37  60
ATOM     60  C   UNL A   1      44.802  27.661  34.099  1.00  0.00     0.023 A 
ATOM     61  C   UNL A   1      45.952  28.474  34.054  1.00  0.00     0.012 A 
ATOM     62  C   UNL A   1      44.818  26.481  34.869  1.00  0.00     0.148 A 
ATOM     63  C   UNL A   1      47.108  28.105  34.740  1.00  0.00     0.002 A 
ATOM     64  C   UNL A   1      45.958  26.143  35.588  1.00  0.00     0.091 A 
ATOM     65  F   UNL A   1      43.721  25.709  34.880  1.00  0.00    -0.205 F 
ATOM     66  C   UNL A   1      47.107  26.947  35.515  1.00  0.00     0.022 A 
BRANCH  64  67
ATOM     67  S   UNL A   1      46.019  24.722  36.684  1.00  0.00     0.127 S 
ATOM     68  O   UNL A   1      47.204  25.014  37.487  1.00  0.00    -0.237 OA
ATOM     69  O   UNL A   1      44.750  24.832  37.406  1.00  0.00    -0.237 OA
ATOM     70  O   UNL A   1      46.121  23.554  35.819  1.00  0.00    -0.744 OA
ENDBRANCH  64  67
ENDBRANCH  37  60
ENDBRANCH  11  12
ENDBRANCH   4   6
ENDBRANCH   1   2
BRANCH   1  71
ATOM     71  C   UNL A   1      32.223  27.876  25.926  1.00  0.00     0.042 C 
BRANCH  71  72
ATOM     72  C   UNL A   1      31.573  27.043  24.836  1.00  0.00     0.118 C 
BRANCH  72  73
ATOM     73  N   UNL A   1      32.308  27.087  23.579  1.00  0.00    -0.351 N 
ATOM     74  C   UNL A   1      33.275  26.235  23.097  1.00  0.00     0.270 C 
ATOM     75  H   UNL A   1      32.079  27.840  22.987  1.00  0.00     0.163 HD
ATOM     76  O   UNL A   1      33.846  26.501  22.043  1.00  0.00    -0.268 OA
BRANCH  74  77
ATOM     77  C   UNL A   1      33.586  24.985  23.832  1.00  0.00     0.134 A 
ATOM     78  C   UNL A   1      34.782  24.849  24.475  1.00  0.00     0.063 A 
ATOM     79  N   UNL A   1      32.645  24.037  23.811  1.00  0.00    -0.207 NA
ATOM     80  C   UNL A   1      35.017  23.613  25.029  1.00  0.00     0.077 A 
ATOM     81  C   UNL A   1      32.912  22.877  24.417  1.00  0.00     0.230 A 
ATOM     82  N   UNL A   1      34.088  22.625  25.024  1.00  0.00    -0.213 NA
BRANCH  80  83
ATOM     83  C   UNL A   1      36.354  23.304  25.559  1.00  0.00     0.000 A 
ATOM     84  C   UNL A   1      36.929  22.037  25.366  1.00  0.00     0.010 A 
ATOM     85  C   UNL A   1      37.147  24.306  26.150  1.00  0.00     0.010 A 
ATOM     86  C   UNL A   1      38.263  21.795  25.715  1.00  0.00     0.001 A 
ATOM     87  C   UNL A   1      38.477  24.064  26.499  1.00  0.00     0.001 A 
ATOM     88  C   UNL A   1      39.036  22.811  26.272  1.00  0.00     0.000 A 
ENDBRANCH  80  83
BRANCH  81  89
ATOM     89  N   UNL A   1      31.913  21.913  24.515  1.00  0.00    -0.300 N 
ATOM     90  H   UNL A   1      30.990  22.207  24.692  1.00  0.00     0.172 HD
BRANCH  89  91
ATOM     91  C   UNL A   1      32.155  20.592  24.380  1.00  0.00     0.190 A 
ATOM     92  N   UNL A   1      32.153  19.721  25.363  1.00  0.00    -0.220 NA
ATOM     93  S   UNL A   1      32.520  19.908  22.838  1.00  0.00    -0.097 S 
ATOM     94  C   UNL A   1      32.662  18.509  24.954  1.00  0.00     0.084 A 
ATOM     95  C   UNL A   1      32.956  18.419  23.595  1.00  0.00     0.056 A 
ATOM     96  C   UNL A   1      32.919  17.404  25.788  1.00  0.00     0.030 A 
ATOM     97  C   UNL A   1      33.519  17.256  23.041  1.00  0.00     0.021 A 
ATOM     98  C   UNL A   1      33.488  16.248  25.252  1.00  0.00     0.002 A 
ATOM     99  C   UNL A   1      33.788  16.178  23.894  1.00  0.00     0.002 A 
ENDBRANCH  89  91
ENDBRANCH  81  89
ENDBRANCH  74  77
ENDBRANCH  72  73
ENDBRANCH  71  72
ENDBRANCH   1  71
TORSDOF 16
ENDMDL
MODEL 3
REMARK VINA RESULT:     -12.9      4.995      8.821
REMARK SMILES O=C(NCCCNC(=O)c1cc(-c2ccccc2)nc(Nc2nc3ccccc3s2)n1)c1ccc(-c2c3nc(c(-c4cccc(S(=O)(=O)[O-])c4F)c4ccc([nH]4)c(-c4cccc(S(=O)(=O)[O-])c4F)c4nc(c(-c5cccc(S(=O)(=O)[O-])c5F)c5ccc2[nH]5)C=C4)C=C3)cc1
REMARK SMILES IDX 4 1 3 2 1 3 2 4 32 6 33 7 94 8 34 9 93 10 35 11 36 12 37 13
REMARK SMILES IDX 87 14 38 15 92 16 86 17 88 18 39 19 91 20 85 21 84 22 40 24
REMARK SMILES IDX 72 25 52 26 71 27 53 28 56 29 70 30 89 31 54 32 55 33 69 35
REMARK SMILES IDX 90 36 57 37 41 38 42 39 50 40 43 41 45 42 51 43 44 44 46 45
REMARK SMILES IDX 47 46 48 47 49 48 73 49 74 50 82 51 75 52 77 53 83 54 76 55
REMARK SMILES IDX 78 56 79 57 80 58 81 59 58 60 59 61 67 62 60 63 62 64 68 65
REMARK SMILES IDX 61 66 63 67 64 68 65 69 66 70 5 71 6 72 7 73 8 74 9 76 10 77
REMARK SMILES IDX 11 78 31 79 12 80 20 81 19 82 13 83 14 84 18 85 15 86 17 87
REMARK SMILES IDX 16 88 21 89 22 91 23 92 30 93 24 94 29 95 25 96 28 97 26 98
REMARK SMILES IDX 27 99
REMARK H PARENT 3 5 88 23 56 34 7 75 21 90
REMARK Flexibility Score: inf
ROOT
ATOM      1  C   UNL A   1      34.174  28.732  25.931  1.00  0.00     0.118 C 
ENDROOT
BRANCH   1   2
ATOM      2  N   UNL A   1      34.002  30.083  26.444  1.00  0.00    -0.352 N 
ATOM      3  O   UNL A   1      34.270  31.826  27.836  1.00  0.00    -0.269 OA
ATOM      4  C   UNL A   1      34.703  30.763  27.415  1.00  0.00     0.251 C 
ATOM      5  H   UNL A   1      33.267  30.592  26.032  1.00  0.00     0.163 HD
BRANCH   4   6
ATOM      6  C   UNL A   1      35.955  30.190  27.958  1.00  0.00     0.039 A 
ATOM      7  C   UNL A   1      35.951  29.468  29.151  1.00  0.00     0.014 A 
ATOM      8  C   UNL A   1      37.151  30.368  27.255  1.00  0.00     0.014 A 
ATOM      9  C   UNL A   1      37.150  29.084  29.733  1.00  0.00     0.010 A 
ATOM     10  C   UNL A   1      38.347  29.877  27.788  1.00  0.00     0.010 A 
ATOM     11  C   UNL A   1      38.362  29.264  29.050  1.00  0.00    -0.014 A 
BRANCH  11  12
ATOM     12  C   UNL A   1      39.611  28.720  29.640  1.00  0.00     0.031 A 
ATOM     13  C   UNL A   1      40.244  29.343  30.852  1.00  0.00     0.074 A 
ATOM     14  C   UNL A   1      40.177  27.644  29.057  1.00  0.00     0.049 A 
ATOM     15  N   UNL A   1      41.327  28.977  31.491  1.00  0.00    -0.248 NA
ATOM     16  C   UNL A   1      39.592  30.535  31.416  1.00  0.00     0.031 C 
ATOM     17  C   UNL A   1      39.681  26.989  27.844  1.00  0.00     0.029 A 
ATOM     18  N   UNL A   1      41.289  26.917  29.394  1.00  0.00    -0.354 N 
ATOM     19  C   UNL A   1      41.513  29.913  32.500  1.00  0.00     0.074 A 
ATOM     20  C   UNL A   1      40.432  30.871  32.387  1.00  0.00     0.031 C 
ATOM     21  C   UNL A   1      40.471  25.949  27.550  1.00  0.00     0.029 A 
ATOM     22  C   UNL A   1      41.562  25.898  28.514  1.00  0.00     0.049 A 
ATOM     23  H   UNL A   1      41.839  27.108  30.188  1.00  0.00     0.167 HD
ATOM     24  C   UNL A   1      42.486  29.960  33.442  1.00  0.00     0.034 A 
ATOM     25  C   UNL A   1      42.589  25.030  28.467  1.00  0.00     0.034 A 
ATOM     26  C   UNL A   1      43.534  28.983  33.568  1.00  0.00     0.049 A 
ATOM     27  C   UNL A   1      43.634  25.086  29.542  1.00  0.00     0.074 A 
ATOM     28  C   UNL A   1      44.518  28.897  34.538  1.00  0.00     0.029 A 
ATOM     29  N   UNL A   1      43.746  27.928  32.693  1.00  0.00    -0.354 N 
ATOM     30  N   UNL A   1      43.711  25.892  30.572  1.00  0.00    -0.248 NA
ATOM     31  C   UNL A   1      44.717  24.097  29.466  1.00  0.00     0.031 C 
ATOM     32  C   UNL A   1      45.340  27.806  34.234  1.00  0.00     0.029 A 
ATOM     33  C   UNL A   1      44.853  27.196  33.089  1.00  0.00     0.049 A 
ATOM     34  H   UNL A   1      43.190  27.728  31.905  1.00  0.00     0.167 HD
ATOM     35  C   UNL A   1      44.838  25.499  31.280  1.00  0.00     0.074 A 
ATOM     36  C   UNL A   1      45.396  24.361  30.575  1.00  0.00     0.031 C 
ATOM     37  C   UNL A   1      45.374  26.041  32.401  1.00  0.00     0.034 A 
BRANCH  24  38
ATOM     38  C   UNL A   1      42.447  31.094  34.436  1.00  0.00     0.023 A 
ATOM     39  C   UNL A   1      41.744  30.937  35.648  1.00  0.00     0.012 A 
ATOM     40  C   UNL A   1      43.158  32.287  34.201  1.00  0.00     0.148 A 
ATOM     41  C   UNL A   1      41.722  31.961  36.595  1.00  0.00     0.002 A 
ATOM     42  C   UNL A   1      43.165  33.288  35.167  1.00  0.00     0.091 A 
ATOM     43  F   UNL A   1      43.804  32.430  33.034  1.00  0.00    -0.205 F 
ATOM     44  C   UNL A   1      42.439  33.131  36.359  1.00  0.00     0.022 A 
BRANCH  42  45
ATOM     45  S   UNL A   1      44.121  34.799  34.986  1.00  0.00     0.127 S 
ATOM     46  O   UNL A   1      43.712  35.551  36.171  1.00  0.00    -0.237 OA
ATOM     47  O   UNL A   1      45.498  34.302  35.027  1.00  0.00    -0.237 OA
ATOM     48  O   UNL A   1      43.723  35.371  33.708  1.00  0.00    -0.744 OA
ENDBRANCH  42  45
ENDBRANCH  24  38
BRANCH  25  49
ATOM     49  C   UNL A   1      42.645  24.023  27.372  1.00  0.00     0.023 A 
ATOM     50  C   UNL A   1      43.304  24.337  26.169  1.00  0.00     0.012 A 
ATOM     51  C   UNL A   1      42.115  22.730  27.551  1.00  0.00     0.148 A 
ATOM     52  C   UNL A   1      43.418  23.384  25.155  1.00  0.00     0.002 A 
ATOM     53  C   UNL A   1      42.287  21.768  26.564  1.00  0.00     0.091 A 
ATOM     54  F   UNL A   1      41.481  22.456  28.700  1.00  0.00    -0.205 F 
ATOM     55  C   UNL A   1      42.924  22.098  25.358  1.00  0.00     0.022 A 
BRANCH  53  56
ATOM     56  S   UNL A   1      41.818  20.051  26.807  1.00  0.00     0.127 S 
ATOM     57  O   UNL A   1      41.276  19.701  25.497  1.00  0.00    -0.237 OA
ATOM     58  O   UNL A   1      43.103  19.429  27.130  1.00  0.00    -0.237 OA
ATOM     59  O   UNL A   1      40.866  20.057  27.909  1.00  0.00    -0.744 OA
ENDBRANCH  53  56
ENDBRANCH  25  49
BRANCH  37  60
ATOM     60  C   UNL A   1      46.622  25.403  32.949  1.00  0.00     0.023 A 
ATOM     61  C   UNL A   1      47.884  25.904  32.575  1.00  0.00     0.012 A 
ATOM     62  C   UNL A   1      46.543  24.350  33.883  1.00  0.00     0.148 A 
ATOM     63  C   UNL A   1      49.050  25.348  33.099  1.00  0.00     0.002 A 
ATOM     64  C   UNL A   1      47.707  23.833  34.436  1.00  0.00     0.091 A 
ATOM     65  F   UNL A   1      45.332  23.873  34.208  1.00  0.00    -0.205 F 
ATOM     66  C   UNL A   1      48.961  24.321  34.037  1.00  0.00     0.022 A 
BRANCH  64  67
ATOM     67  S   UNL A   1      47.686  22.575  35.717  1.00  0.00     0.127 S 
ATOM     68  O   UNL A   1      49.103  22.472  36.059  1.00  0.00    -0.237 OA
ATOM     69  O   UNL A   1      46.853  23.194  36.749  1.00  0.00    -0.237 OA
ATOM     70  O   UNL A   1      47.103  21.388  35.104  1.00  0.00    -0.744 OA
ENDBRANCH  64  67
ENDBRANCH  37  60
ENDBRANCH  11  12
ENDBRANCH   4   6
ENDBRANCH   1   2
BRANCH   1  71
ATOM     71  C   UNL A   1      33.249  27.725  26.597  1.00  0.00     0.042 C 
BRANCH  71  72
ATOM     72  C   UNL A   1      32.122  27.239  25.703  1.00  0.00     0.118 C 
BRANCH  72  73
ATOM     73  N   UNL A   1      32.445  27.337  24.286  1.00  0.00    -0.351 N 
ATOM     74  C   UNL A   1      33.106  26.445  23.472  1.00  0.00     0.270 C 
ATOM     75  H   UNL A   1      32.144  28.164  23.844  1.00  0.00     0.163 HD
ATOM     76  O   UNL A   1      33.362  26.759  22.313  1.00  0.00    -0.268 OA
BRANCH  74  77
ATOM     77  C   UNL A   1      33.464  25.104  23.991  1.00  0.00     0.134 A 
ATOM     78  C   UNL A   1      34.721  24.867  24.468  1.00  0.00     0.063 A 
ATOM     79  N   UNL A   1      32.502  24.177  23.950  1.00  0.00    -0.207 NA
ATOM     80  C   UNL A   1      34.984  23.565  24.819  1.00  0.00     0.077 A 
ATOM     81  C   UNL A   1      32.806  22.943  24.358  1.00  0.00     0.230 A 
ATOM     82  N   UNL A   1      34.035  22.597  24.787  1.00  0.00    -0.213 NA
BRANCH  80  83
ATOM     83  C   UNL A   1      36.364  23.171  25.144  1.00  0.00     0.000 A 
ATOM     84  C   UNL A   1      37.181  23.997  25.934  1.00  0.00     0.010 A 
ATOM     85  C   UNL A   1      36.855  21.899  24.791  1.00  0.00     0.010 A 
ATOM     86  C   UNL A   1      38.427  23.550  26.387  1.00  0.00     0.001 A 
ATOM     87  C   UNL A   1      38.099  21.453  25.243  1.00  0.00     0.001 A 
ATOM     88  C   UNL A   1      38.879  22.276  26.048  1.00  0.00     0.000 A 
ENDBRANCH  80  83
BRANCH  81  89
ATOM     89  N   UNL A   1      31.799  21.984  24.439  1.00  0.00    -0.300 N 
ATOM     90  H   UNL A   1      30.874  22.285  24.595  1.00  0.00     0.172 HD
BRANCH  89  91
ATOM     91  C   UNL A   1      32.035  20.662  24.314  1.00  0.00     0.190 A 
ATOM     92  N   UNL A   1      32.092  19.809  25.311  1.00  0.00    -0.220 NA
ATOM     93  S   UNL A   1      32.313  19.950  22.766  1.00  0.00    -0.097 S 
ATOM     94  C   UNL A   1      32.579  18.590  24.896  1.00  0.00     0.084 A 
ATOM     95  C   UNL A   1      32.795  18.476  23.524  1.00  0.00     0.056 A 
ATOM     96  C   UNL A   1      32.885  17.501  25.734  1.00  0.00     0.030 A 
ATOM     97  C   UNL A   1      33.327  17.303  22.960  1.00  0.00     0.021 A 
ATOM     98  C   UNL A   1      33.425  16.336  25.187  1.00  0.00     0.002 A 
ATOM     99  C   UNL A   1      33.648  16.242  23.816  1.00  0.00     0.002 A 
ENDBRANCH  89  91
ENDBRANCH  81  89
ENDBRANCH  74  77
ENDBRANCH  72  73
ENDBRANCH  71  72
ENDBRANCH   1  71
TORSDOF 16
ENDMDL
