MODEL 1
REMARK VINA RESULT:     -13.8      0.000      0.000
REMARK SMILES Cc1ccc(-c2cc(C(=O)NCCCNC(=O)c3ccc(-c4c5nc(c(-c6cccc(S(=O)(=O)[O-])c6F)c6ccc([nH]6)c(-c6cccc(S(=O)(=O)[O-])c6F)c6nc(c(-c7cccc(S(=O)(=O)[O-])c7F)c7ccc4[nH]7)C=C6)C=C5)cc3)c3cc(C)ccc3n2)c(C)c1
REMARK SMILES IDX 14 1 13 2 12 3 11 4 9 5 10 6 8 8 6 9 7 10 88 11 87 12 81 13
REMARK SMILES IDX 86 14 82 15 85 16 83 17 84 18 5 19 1 20 2 21 3 22 91 23 4 24
REMARK SMILES IDX 89 25 90 26 15 27 16 28 17 30 18 31 19 32 80 33 20 34 79 35
REMARK SMILES IDX 21 36 22 37 23 38 73 39 24 40 78 41 72 42 74 43 25 44 77 45
REMARK SMILES IDX 71 46 70 47 26 49 58 50 38 51 57 52 39 53 42 54 56 55 75 56
REMARK SMILES IDX 40 57 41 58 55 60 76 61 43 62 27 63 28 64 36 65 29 66 31 67
REMARK SMILES IDX 37 68 30 69 32 70 33 71 34 72 35 73 59 74 60 75 68 76 61 77
REMARK SMILES IDX 63 78 69 79 62 80 64 81 65 82 66 83 67 84 44 85 45 86 53 87
REMARK SMILES IDX 46 88 48 89 54 90 47 91 49 92 50 93 51 94 52 95
REMARK H PARENT 11 7 15 29 74 48 42 59
REMARK Flexibility Score: inf
ROOT
ATOM      1  C   UNL A   1      37.331  21.271  24.799  1.00  0.00     0.118 C 
ENDROOT
BRANCH   1   2
ATOM      2  C   UNL A   1      36.036  21.328  25.597  1.00  0.00     0.042 C 
BRANCH   2   3
ATOM      3  C   UNL A   1      35.693  22.692  26.163  1.00  0.00     0.118 C 
BRANCH   3   4
ATOM      4  N   UNL A   1      34.625  22.735  27.155  1.00  0.00    -0.352 N 
ATOM      5  C   UNL A   1      33.254  22.704  27.002  1.00  0.00     0.252 C 
ATOM      6  O   UNL A   1      32.557  22.661  28.017  1.00  0.00    -0.269 OA
ATOM      7  H   UNL A   1      34.934  22.798  28.087  1.00  0.00     0.163 HD
BRANCH   5   8
ATOM      8  C   UNL A   1      32.578  22.824  25.678  1.00  0.00     0.051 A 
ATOM      9  C   UNL A   1      31.698  24.326  24.038  1.00  0.00     0.072 A 
ATOM     10  C   UNL A   1      32.218  24.123  25.304  1.00  0.00     0.043 A 
ATOM     11  N   UNL A   1      31.651  23.339  23.115  1.00  0.00    -0.248 NA
ATOM     12  C   UNL A   1      31.986  22.091  23.476  1.00  0.00     0.072 A 
ATOM     13  C   UNL A   1      32.327  21.753  24.795  1.00  0.00     0.013 A 
ATOM     14  C   UNL A   1      32.010  21.095  22.509  1.00  0.00     0.029 A 
ATOM     15  C   UNL A   1      32.422  20.384  25.131  1.00  0.00     0.014 A 
ATOM     16  C   UNL A   1      32.335  19.772  22.821  1.00  0.00     0.005 A 
ATOM     17  C   UNL A   1      32.519  19.399  24.147  1.00  0.00    -0.050 A 
ATOM     18  C   UNL A   1      32.983  18.020  24.514  1.00  0.00     0.044 C 
BRANCH   9  19
ATOM     19  C   UNL A   1      31.078  25.598  23.638  1.00  0.00     0.003 A 
ATOM     20  C   UNL A   1      29.224  29.350  22.506  1.00  0.00     0.044 C 
ATOM     21  C   UNL A   1      29.848  28.044  22.896  1.00  0.00    -0.051 A 
ATOM     22  C   UNL A   1      29.145  27.096  23.642  1.00  0.00     0.004 A 
ATOM     23  C   UNL A   1      31.166  27.767  22.519  1.00  0.00     0.007 A 
ATOM     24  C   UNL A   1      29.754  25.890  24.007  1.00  0.00     0.011 A 
ATOM     25  C   UNL A   1      31.786  26.553  22.868  1.00  0.00    -0.041 A 
ATOM     26  C   UNL A   1      33.216  26.350  22.434  1.00  0.00     0.045 C 
ENDBRANCH   9  19
ENDBRANCH   5   8
ENDBRANCH   3   4
ENDBRANCH   2   3
ENDBRANCH   1   2
BRANCH   1  27
ATOM     27  N   UNL A   1      38.359  20.391  25.352  1.00  0.00    -0.352 N 
ATOM     28  C   UNL A   1      39.486  20.618  26.109  1.00  0.00     0.251 C 
ATOM     29  H   UNL A   1      38.217  19.441  25.140  1.00  0.00     0.163 HD
ATOM     30  O   UNL A   1      40.217  19.662  26.372  1.00  0.00    -0.269 OA
BRANCH  28  31
ATOM     31  C   UNL A   1      39.869  21.974  26.570  1.00  0.00     0.039 A 
ATOM     32  C   UNL A   1      40.881  22.104  27.532  1.00  0.00     0.014 A 
ATOM     33  C   UNL A   1      39.249  23.121  26.087  1.00  0.00     0.014 A 
ATOM     34  C   UNL A   1      41.334  23.374  27.909  1.00  0.00     0.010 A 
ATOM     35  C   UNL A   1      39.791  24.373  26.353  1.00  0.00     0.010 A 
ATOM     36  C   UNL A   1      40.838  24.521  27.272  1.00  0.00    -0.014 A 
BRANCH  36  37
ATOM     37  C   UNL A   1      41.387  25.882  27.528  1.00  0.00     0.031 A 
ATOM     38  C   UNL A   1      42.806  26.216  27.138  1.00  0.00     0.074 A 
ATOM     39  C   UNL A   1      40.661  26.774  28.234  1.00  0.00     0.049 A 
ATOM     40  N   UNL A   1      43.513  27.278  27.421  1.00  0.00    -0.248 NA
ATOM     41  C   UNL A   1      43.545  25.195  26.374  1.00  0.00     0.031 C 
ATOM     42  C   UNL A   1      39.315  26.545  28.763  1.00  0.00     0.029 A 
ATOM     43  N   UNL A   1      40.972  28.041  28.664  1.00  0.00    -0.354 N 
ATOM     44  C   UNL A   1      44.787  27.032  26.922  1.00  0.00     0.074 A 
ATOM     45  C   UNL A   1      44.769  25.699  26.362  1.00  0.00     0.031 C 
ATOM     46  C   UNL A   1      38.914  27.633  29.439  1.00  0.00     0.029 A 
ATOM     47  C   UNL A   1      39.985  28.622  29.427  1.00  0.00     0.049 A 
ATOM     48  H   UNL A   1      41.821  28.491  28.448  1.00  0.00     0.167 HD
ATOM     49  C   UNL A   1      45.866  27.851  26.891  1.00  0.00     0.034 A 
ATOM     50  C   UNL A   1      39.948  29.813  30.057  1.00  0.00     0.034 A 
ATOM     51  C   UNL A   1      45.860  29.203  27.378  1.00  0.00     0.049 A 
ATOM     52  C   UNL A   1      41.127  30.739  29.940  1.00  0.00     0.074 A 
ATOM     53  C   UNL A   1      46.863  30.152  27.298  1.00  0.00     0.029 A 
ATOM     54  N   UNL A   1      44.794  29.803  28.031  1.00  0.00    -0.354 N 
ATOM     55  N   UNL A   1      42.268  30.546  29.326  1.00  0.00    -0.248 NA
ATOM     56  C   UNL A   1      41.000  32.061  30.571  1.00  0.00     0.031 C 
ATOM     57  C   UNL A   1      46.406  31.324  27.912  1.00  0.00     0.029 A 
ATOM     58  C   UNL A   1      45.113  31.109  28.358  1.00  0.00     0.049 A 
ATOM     59  H   UNL A   1      43.935  29.364  28.231  1.00  0.00     0.167 HD
ATOM     60  C   UNL A   1      42.985  31.728  29.470  1.00  0.00     0.074 A 
ATOM     61  C   UNL A   1      42.137  32.642  30.208  1.00  0.00     0.031 C 
ATOM     62  C   UNL A   1      44.239  32.024  29.046  1.00  0.00     0.034 A 
BRANCH  49  63
ATOM     63  C   UNL A   1      47.121  27.326  26.240  1.00  0.00     0.023 A 
ATOM     64  C   UNL A   1      47.343  27.572  24.868  1.00  0.00     0.012 A 
ATOM     65  C   UNL A   1      48.091  26.623  26.979  1.00  0.00     0.148 A 
ATOM     66  C   UNL A   1      48.484  27.086  24.232  1.00  0.00     0.002 A 
ATOM     67  C   UNL A   1      49.250  26.182  26.348  1.00  0.00     0.091 A 
ATOM     68  F   UNL A   1      47.857  26.378  28.276  1.00  0.00    -0.205 F 
ATOM     69  C   UNL A   1      49.441  26.400  24.973  1.00  0.00     0.022 A 
BRANCH  67  70
ATOM     70  S   UNL A   1      50.580  25.359  27.232  1.00  0.00     0.127 S 
ATOM     71  O   UNL A   1      50.987  26.393  28.182  1.00  0.00    -0.237 OA
ATOM     72  O   UNL A   1      49.892  24.215  27.833  1.00  0.00    -0.237 OA
ATOM     73  O   UNL A   1      51.570  25.006  26.223  1.00  0.00    -0.744 OA
ENDBRANCH  67  70
ENDBRANCH  49  63
BRANCH  50  74
ATOM     74  C   UNL A   1      38.717  30.222  30.793  1.00  0.00     0.023 A 
ATOM     75  C   UNL A   1      38.601  29.920  32.163  1.00  0.00     0.012 A 
ATOM     76  C   UNL A   1      37.688  30.948  30.161  1.00  0.00     0.148 A 
ATOM     77  C   UNL A   1      37.473  30.308  32.886  1.00  0.00     0.002 A 
ATOM     78  C   UNL A   1      36.593  31.380  30.900  1.00  0.00     0.091 A 
ATOM     79  F   UNL A   1      37.812  31.218  28.854  1.00  0.00    -0.205 F 
ATOM     80  C   UNL A   1      36.474  31.048  32.258  1.00  0.00     0.022 A 
BRANCH  78  81
ATOM     81  S   UNL A   1      35.328  32.455  30.210  1.00  0.00     0.127 S 
ATOM     82  O   UNL A   1      36.100  33.649  29.874  1.00  0.00    -0.237 OA
ATOM     83  O   UNL A   1      34.864  31.677  29.061  1.00  0.00    -0.237 OA
ATOM     84  O   UNL A   1      34.335  32.617  31.263  1.00  0.00    -0.744 OA
ENDBRANCH  78  81
ENDBRANCH  50  74
BRANCH  62  85
ATOM     85  C   UNL A   1      44.768  33.402  29.345  1.00  0.00     0.023 A 
ATOM     86  C   UNL A   1      45.453  33.638  30.554  1.00  0.00     0.012 A 
ATOM     87  C   UNL A   1      44.658  34.437  28.397  1.00  0.00     0.148 A 
ATOM     88  C   UNL A   1      45.994  34.893  30.828  1.00  0.00     0.002 A 
ATOM     89  C   UNL A   1      45.241  35.672  28.657  1.00  0.00     0.091 A 
ATOM     90  F   UNL A   1      43.985  34.197  27.262  1.00  0.00    -0.205 F 
ATOM     91  C   UNL A   1      45.899  35.906  29.874  1.00  0.00     0.022 A 
BRANCH  89  92
ATOM     92  S   UNL A   1      45.249  37.003  27.449  1.00  0.00     0.127 S 
ATOM     93  O   UNL A   1      45.895  38.080  28.197  1.00  0.00    -0.237 OA
ATOM     94  O   UNL A   1      46.060  36.438  26.369  1.00  0.00    -0.237 OA
ATOM     95  O   UNL A   1      43.855  37.232  27.098  1.00  0.00    -0.744 OA
ENDBRANCH  89  92
ENDBRANCH  62  85
ENDBRANCH  36  37
ENDBRANCH  28  31
ENDBRANCH   1  27
TORSDOF 14
ENDMDL
MODEL 2
REMARK VINA RESULT:     -13.8      4.841     10.236
REMARK SMILES Cc1ccc(-c2cc(C(=O)NCCCNC(=O)c3ccc(-c4c5nc(c(-c6cccc(S(=O)(=O)[O-])c6F)c6ccc([nH]6)c(-c6cccc(S(=O)(=O)[O-])c6F)c6nc(c(-c7cccc(S(=O)(=O)[O-])c7F)c7ccc4[nH]7)C=C6)C=C5)cc3)c3cc(C)ccc3n2)c(C)c1
REMARK SMILES IDX 14 1 13 2 12 3 11 4 9 5 10 6 8 8 6 9 7 10 88 11 87 12 81 13
REMARK SMILES IDX 86 14 82 15 85 16 83 17 84 18 5 19 1 20 2 21 3 22 91 23 4 24
REMARK SMILES IDX 89 25 90 26 15 27 16 28 17 30 18 31 19 32 80 33 20 34 79 35
REMARK SMILES IDX 21 36 22 37 23 38 73 39 24 40 78 41 72 42 74 43 25 44 77 45
REMARK SMILES IDX 71 46 70 47 26 49 58 50 38 51 57 52 39 53 42 54 56 55 75 56
REMARK SMILES IDX 40 57 41 58 55 60 76 61 43 62 27 63 28 64 36 65 29 66 31 67
REMARK SMILES IDX 37 68 30 69 32 70 33 71 34 72 35 73 59 74 60 75 68 76 61 77
REMARK SMILES IDX 63 78 69 79 62 80 64 81 65 82 66 83 67 84 44 85 45 86 53 87
REMARK SMILES IDX 46 88 48 89 54 90 47 91 49 92 50 93 51 94 52 95
REMARK H PARENT 11 7 15 29 74 48 42 59
REMARK Flexibility Score: inf
ROOT
ATOM      1  C   UNL A   1      32.056  30.137  26.575  1.00  0.00     0.118 C 
ENDROOT
BRANCH   1   2
ATOM      2  C   UNL A   1      32.396  29.701  25.157  1.00  0.00     0.042 C 
BRANCH   2   3
ATOM      3  C   UNL A   1      33.562  28.738  25.045  1.00  0.00     0.118 C 
BRANCH   3   4
ATOM      4  N   UNL A   1      34.021  28.425  23.698  1.00  0.00    -0.352 N 
ATOM      5  C   UNL A   1      33.484  27.592  22.737  1.00  0.00     0.252 C 
ATOM      6  O   UNL A   1      34.018  27.567  21.626  1.00  0.00    -0.269 OA
ATOM      7  H   UNL A   1      34.851  28.882  23.430  1.00  0.00     0.163 HD
BRANCH   5   8
ATOM      8  C   UNL A   1      32.359  26.652  23.007  1.00  0.00     0.051 A 
ATOM      9  C   UNL A   1      31.752  24.453  23.727  1.00  0.00     0.072 A 
ATOM     10  C   UNL A   1      32.736  25.348  23.345  1.00  0.00     0.043 A 
ATOM     11  N   UNL A   1      30.467  24.835  23.911  1.00  0.00    -0.248 NA
ATOM     12  C   UNL A   1      30.104  26.083  23.578  1.00  0.00     0.072 A 
ATOM     13  C   UNL A   1      30.991  26.995  22.986  1.00  0.00     0.013 A 
ATOM     14  C   UNL A   1      28.804  26.495  23.838  1.00  0.00     0.029 A 
ATOM     15  C   UNL A   1      30.462  28.189  22.447  1.00  0.00     0.014 A 
ATOM     16  C   UNL A   1      28.355  27.775  23.502  1.00  0.00     0.005 A 
ATOM     17  C   UNL A   1      29.178  28.628  22.776  1.00  0.00    -0.050 A 
ATOM     18  C   UNL A   1      28.781  30.048  22.498  1.00  0.00     0.044 C 
BRANCH   9  19
ATOM     19  C   UNL A   1      32.012  23.014  23.872  1.00  0.00     0.003 A 
ATOM     20  C   UNL A   1      32.804  18.767  24.251  1.00  0.00     0.044 C 
ATOM     21  C   UNL A   1      32.517  20.232  24.105  1.00  0.00    -0.051 A 
ATOM     22  C   UNL A   1      32.204  20.793  22.866  1.00  0.00     0.004 A 
ATOM     23  C   UNL A   1      32.575  21.063  25.229  1.00  0.00     0.007 A 
ATOM     24  C   UNL A   1      31.956  22.166  22.753  1.00  0.00     0.011 A 
ATOM     25  C   UNL A   1      32.314  22.442  25.132  1.00  0.00    -0.041 A 
ATOM     26  C   UNL A   1      32.418  23.262  26.393  1.00  0.00     0.045 C 
ENDBRANCH   9  19
ENDBRANCH   5   8
ENDBRANCH   3   4
ENDBRANCH   2   3
ENDBRANCH   1   2
BRANCH   1  27
ATOM     27  N   UNL A   1      32.211  31.566  26.837  1.00  0.00    -0.352 N 
ATOM     28  C   UNL A   1      33.201  32.314  27.433  1.00  0.00     0.251 C 
ATOM     29  H   UNL A   1      31.450  32.106  26.522  1.00  0.00     0.163 HD
ATOM     30  O   UNL A   1      33.016  33.523  27.577  1.00  0.00    -0.269 OA
BRANCH  28  31
ATOM     31  C   UNL A   1      34.451  31.704  27.946  1.00  0.00     0.039 A 
ATOM     32  C   UNL A   1      35.560  32.527  28.187  1.00  0.00     0.014 A 
ATOM     33  C   UNL A   1      34.562  30.339  28.186  1.00  0.00     0.014 A 
ATOM     34  C   UNL A   1      36.717  31.996  28.769  1.00  0.00     0.010 A 
ATOM     35  C   UNL A   1      35.652  29.839  28.890  1.00  0.00     0.010 A 
ATOM     36  C   UNL A   1      36.749  30.658  29.189  1.00  0.00    -0.014 A 
BRANCH  36  37
ATOM     37  C   UNL A   1      37.897  30.081  29.943  1.00  0.00     0.031 A 
ATOM     38  C   UNL A   1      38.182  30.529  31.355  1.00  0.00     0.074 A 
ATOM     39  C   UNL A   1      38.764  29.259  29.315  1.00  0.00     0.049 A 
ATOM     40  N   UNL A   1      39.215  30.271  32.112  1.00  0.00    -0.248 NA
ATOM     41  C   UNL A   1      37.197  31.431  31.979  1.00  0.00     0.031 C 
ATOM     42  C   UNL A   1      38.667  28.826  27.919  1.00  0.00     0.029 A 
ATOM     43  N   UNL A   1      39.924  28.673  29.760  1.00  0.00    -0.354 N 
ATOM     44  C   UNL A   1      39.035  31.017  33.271  1.00  0.00     0.074 A 
ATOM     45  C   UNL A   1      37.817  31.777  33.097  1.00  0.00     0.031 C 
ATOM     46  C   UNL A   1      39.715  28.042  27.625  1.00  0.00     0.029 A 
ATOM     47  C   UNL A   1      40.581  27.945  28.795  1.00  0.00     0.049 A 
ATOM     48  H   UNL A   1      40.255  28.765  30.683  1.00  0.00     0.167 HD
ATOM     49  C   UNL A   1      39.788  31.042  34.398  1.00  0.00     0.034 A 
ATOM     50  C   UNL A   1      41.753  27.282  28.839  1.00  0.00     0.034 A 
ATOM     51  C   UNL A   1      40.955  30.229  34.599  1.00  0.00     0.049 A 
ATOM     52  C   UNL A   1      42.530  27.257  30.126  1.00  0.00     0.074 A 
ATOM     53  C   UNL A   1      41.727  30.097  35.740  1.00  0.00     0.029 A 
ATOM     54  N   UNL A   1      41.517  29.402  33.639  1.00  0.00    -0.354 N 
ATOM     55  N   UNL A   1      42.258  27.845  31.265  1.00  0.00    -0.248 NA
ATOM     56  C   UNL A   1      43.757  26.446  30.147  1.00  0.00     0.031 C 
ATOM     57  C   UNL A   1      42.762  29.196  35.466  1.00  0.00     0.029 A 
ATOM     58  C   UNL A   1      42.625  28.755  34.160  1.00  0.00     0.049 A 
ATOM     59  H   UNL A   1      41.178  29.290  32.721  1.00  0.00     0.167 HD
ATOM     60  C   UNL A   1      43.260  27.457  32.145  1.00  0.00     0.074 A 
ATOM     61  C   UNL A   1      44.132  26.559  31.415  1.00  0.00     0.031 C 
ATOM     62  C   UNL A   1      43.452  27.824  33.437  1.00  0.00     0.034 A 
BRANCH  49  63
ATOM     63  C   UNL A   1      39.321  31.926  35.527  1.00  0.00     0.023 A 
ATOM     64  C   UNL A   1      38.412  31.413  36.476  1.00  0.00     0.012 A 
ATOM     65  C   UNL A   1      39.800  33.242  35.673  1.00  0.00     0.148 A 
ATOM     66  C   UNL A   1      37.949  32.209  37.523  1.00  0.00     0.002 A 
ATOM     67  C   UNL A   1      39.370  34.015  36.747  1.00  0.00     0.091 A 
ATOM     68  F   UNL A   1      40.647  33.723  34.753  1.00  0.00    -0.205 F 
ATOM     69  C   UNL A   1      38.434  33.506  37.663  1.00  0.00     0.022 A 
BRANCH  67  70
ATOM     70  S   UNL A   1      39.997  35.669  37.062  1.00  0.00     0.127 S 
ATOM     71  O   UNL A   1      39.288  36.024  38.290  1.00  0.00    -0.237 OA
ATOM     72  O   UNL A   1      41.430  35.429  37.233  1.00  0.00    -0.237 OA
ATOM     73  O   UNL A   1      39.652  36.456  35.886  1.00  0.00    -0.744 OA
ENDBRANCH  67  70
ENDBRANCH  49  63
BRANCH  50  74
ATOM     74  C   UNL A   1      42.221  26.527  27.641  1.00  0.00     0.023 A 
ATOM     75  C   UNL A   1      42.998  27.188  26.670  1.00  0.00     0.012 A 
ATOM     76  C   UNL A   1      41.946  25.154  27.481  1.00  0.00     0.148 A 
ATOM     77  C   UNL A   1      43.471  26.505  25.549  1.00  0.00     0.002 A 
ATOM     78  C   UNL A   1      42.467  24.467  26.392  1.00  0.00     0.091 A 
ATOM     79  F   UNL A   1      41.197  24.545  28.411  1.00  0.00    -0.205 F 
ATOM     80  C   UNL A   1      43.215  25.143  25.415  1.00  0.00     0.022 A 
BRANCH  78  81
ATOM     81  S   UNL A   1      42.308  22.686  26.210  1.00  0.00     0.127 S 
ATOM     82  O   UNL A   1      42.983  22.200  27.410  1.00  0.00    -0.237 OA
ATOM     83  O   UNL A   1      40.855  22.511  26.205  1.00  0.00    -0.237 OA
ATOM     84  O   UNL A   1      42.954  22.363  24.945  1.00  0.00    -0.744 OA
ENDBRANCH  78  81
ENDBRANCH  50  74
BRANCH  62  85
ATOM     85  C   UNL A   1      44.637  27.238  34.159  1.00  0.00     0.023 A 
ATOM     86  C   UNL A   1      45.874  27.912  34.129  1.00  0.00     0.012 A 
ATOM     87  C   UNL A   1      44.503  26.067  34.930  1.00  0.00     0.148 A 
ATOM     88  C   UNL A   1      46.969  27.413  34.832  1.00  0.00     0.002 A 
ATOM     89  C   UNL A   1      45.586  25.602  35.666  1.00  0.00     0.091 A 
ATOM     90  F   UNL A   1      43.323  25.431  34.929  1.00  0.00    -0.205 F 
ATOM     91  C   UNL A   1      46.823  26.266  35.610  1.00  0.00     0.022 A 
BRANCH  89  92
ATOM     92  S   UNL A   1      45.463  24.187  36.767  1.00  0.00     0.127 S 
ATOM     93  O   UNL A   1      46.836  24.066  37.253  1.00  0.00    -0.237 OA
ATOM     94  O   UNL A   1      44.501  24.655  37.767  1.00  0.00    -0.237 OA
ATOM     95  O   UNL A   1      44.988  23.082  35.947  1.00  0.00    -0.744 OA
ENDBRANCH  89  92
ENDBRANCH  62  85
ENDBRANCH  36  37
ENDBRANCH  28  31
ENDBRANCH   1  27
TORSDOF 14
ENDMDL
MODEL 3
REMARK VINA RESULT:     -13.7      5.312      8.391
REMARK SMILES Cc1ccc(-c2cc(C(=O)NCCCNC(=O)c3ccc(-c4c5nc(c(-c6cccc(S(=O)(=O)[O-])c6F)c6ccc([nH]6)c(-c6cccc(S(=O)(=O)[O-])c6F)c6nc(c(-c7cccc(S(=O)(=O)[O-])c7F)c7ccc4[nH]7)C=C6)C=C5)cc3)c3cc(C)ccc3n2)c(C)c1
REMARK SMILES IDX 14 1 13 2 12 3 11 4 9 5 10 6 8 8 6 9 7 10 88 11 87 12 81 13
REMARK SMILES IDX 86 14 82 15 85 16 83 17 84 18 5 19 1 20 2 21 3 22 91 23 4 24
REMARK SMILES IDX 89 25 90 26 15 27 16 28 17 30 18 31 19 32 80 33 20 34 79 35
REMARK SMILES IDX 21 36 22 37 23 38 73 39 24 40 78 41 72 42 74 43 25 44 77 45
REMARK SMILES IDX 71 46 70 47 26 49 58 50 38 51 57 52 39 53 42 54 56 55 75 56
REMARK SMILES IDX 40 57 41 58 55 60 76 61 43 62 27 63 28 64 36 65 29 66 31 67
REMARK SMILES IDX 37 68 30 69 32 70 33 71 34 72 35 73 59 74 60 75 68 76 61 77
REMARK SMILES IDX 63 78 69 79 62 80 64 81 65 82 66 83 67 84 44 85 45 86 53 87
REMARK SMILES IDX 46 88 48 89 54 90 47 91 49 92 50 93 51 94 52 95
REMARK H PARENT 11 7 15 29 74 48 42 59
REMARK Flexibility Score: inf
ROOT
ATOM      1  C   UNL A   1      31.893  30.558  26.752  1.00  0.00     0.118 C 
ENDROOT
BRANCH   1   2
ATOM      2  C   UNL A   1      32.247  30.077  25.352  1.00  0.00     0.042 C 
BRANCH   2   3
ATOM      3  C   UNL A   1      33.446  29.152  25.276  1.00  0.00     0.118 C 
BRANCH   3   4
ATOM      4  N   UNL A   1      33.986  28.894  23.947  1.00  0.00    -0.352 N 
ATOM      5  C   UNL A   1      33.496  28.123  22.913  1.00  0.00     0.252 C 
ATOM      6  O   UNL A   1      34.102  28.139  21.840  1.00  0.00    -0.269 OA
ATOM      7  H   UNL A   1      34.842  29.342  23.758  1.00  0.00     0.163 HD
BRANCH   5   8
ATOM      8  C   UNL A   1      32.335  27.200  23.062  1.00  0.00     0.051 A 
ATOM      9  C   UNL A   1      31.622  25.011  23.712  1.00  0.00     0.072 A 
ATOM     10  C   UNL A   1      32.655  25.890  23.437  1.00  0.00     0.043 A 
ATOM     11  N   UNL A   1      30.331  25.412  23.758  1.00  0.00    -0.248 NA
ATOM     12  C   UNL A   1      30.023  26.664  23.389  1.00  0.00     0.072 A 
ATOM     13  C   UNL A   1      30.982  27.563  22.895  1.00  0.00     0.013 A 
ATOM     14  C   UNL A   1      28.709  27.095  23.509  1.00  0.00     0.029 A 
ATOM     15  C   UNL A   1      30.531  28.763  22.303  1.00  0.00     0.014 A 
ATOM     16  C   UNL A   1      28.318  28.382  23.127  1.00  0.00     0.005 A 
ATOM     17  C   UNL A   1      29.226  29.221  22.493  1.00  0.00    -0.050 A 
ATOM     18  C   UNL A   1      28.881  30.647  22.174  1.00  0.00     0.044 C 
BRANCH   9  19
ATOM     19  C   UNL A   1      31.845  23.568  23.884  1.00  0.00     0.003 A 
ATOM     20  C   UNL A   1      32.531  19.311  24.345  1.00  0.00     0.044 C 
ATOM     21  C   UNL A   1      32.284  20.780  24.169  1.00  0.00    -0.051 A 
ATOM     22  C   UNL A   1      32.159  21.350  22.902  1.00  0.00     0.004 A 
ATOM     23  C   UNL A   1      32.185  21.604  25.295  1.00  0.00     0.007 A 
ATOM     24  C   UNL A   1      31.943  22.726  22.762  1.00  0.00     0.011 A 
ATOM     25  C   UNL A   1      31.955  22.986  25.171  1.00  0.00    -0.041 A 
ATOM     26  C   UNL A   1      31.883  23.799  26.439  1.00  0.00     0.045 C 
ENDBRANCH   9  19
ENDBRANCH   5   8
ENDBRANCH   3   4
ENDBRANCH   2   3
ENDBRANCH   1   2
BRANCH   1  27
ATOM     27  N   UNL A   1      31.983  32.004  26.950  1.00  0.00    -0.352 N 
ATOM     28  C   UNL A   1      32.946  32.823  27.492  1.00  0.00     0.251 C 
ATOM     29  H   UNL A   1      31.189  32.491  26.630  1.00  0.00     0.163 HD
ATOM     30  O   UNL A   1      32.703  34.027  27.590  1.00  0.00    -0.269 OA
BRANCH  28  31
ATOM     31  C   UNL A   1      34.235  32.298  28.004  1.00  0.00     0.039 A 
ATOM     32  C   UNL A   1      35.330  33.166  28.103  1.00  0.00     0.014 A 
ATOM     33  C   UNL A   1      34.394  30.968  28.377  1.00  0.00     0.014 A 
ATOM     34  C   UNL A   1      36.528  32.724  28.679  1.00  0.00     0.010 A 
ATOM     35  C   UNL A   1      35.529  30.569  29.073  1.00  0.00     0.010 A 
ATOM     36  C   UNL A   1      36.616  31.438  29.231  1.00  0.00    -0.014 A 
BRANCH  36  37
ATOM     37  C   UNL A   1      37.813  30.968  29.983  1.00  0.00     0.031 A 
ATOM     38  C   UNL A   1      38.767  29.982  29.355  1.00  0.00     0.074 A 
ATOM     39  C   UNL A   1      37.971  31.319  31.276  1.00  0.00     0.049 A 
ATOM     40  N   UNL A   1      39.765  29.336  29.899  1.00  0.00    -0.248 NA
ATOM     41  C   UNL A   1      38.535  29.638  27.941  1.00  0.00     0.031 C 
ATOM     42  C   UNL A   1      37.067  32.183  32.039  1.00  0.00     0.029 A 
ATOM     43  N   UNL A   1      38.928  30.957  32.192  1.00  0.00    -0.354 N 
ATOM     44  C   UNL A   1      40.240  28.473  28.918  1.00  0.00     0.074 A 
ATOM     45  C   UNL A   1      39.390  28.644  27.760  1.00  0.00     0.031 C 
ATOM     46  C   UNL A   1      37.514  32.289  33.300  1.00  0.00     0.029 A 
ATOM     47  C   UNL A   1      38.713  31.472  33.450  1.00  0.00     0.049 A 
ATOM     48  H   UNL A   1      39.697  30.382  31.970  1.00  0.00     0.167 HD
ATOM     49  C   UNL A   1      41.310  27.642  28.955  1.00  0.00     0.034 A 
ATOM     50  C   UNL A   1      39.394  31.299  34.600  1.00  0.00     0.034 A 
ATOM     51  C   UNL A   1      42.199  27.531  30.078  1.00  0.00     0.049 A 
ATOM     52  C   UNL A   1      40.626  30.437  34.596  1.00  0.00     0.074 A 
ATOM     53  C   UNL A   1      43.371  26.803  30.181  1.00  0.00     0.029 A 
ATOM     54  N   UNL A   1      42.019  28.172  31.295  1.00  0.00    -0.354 N 
ATOM     55  N   UNL A   1      41.150  29.752  33.609  1.00  0.00    -0.248 NA
ATOM     56  C   UNL A   1      41.384  30.353  35.853  1.00  0.00     0.031 C 
ATOM     57  C   UNL A   1      43.895  26.997  31.464  1.00  0.00     0.029 A 
ATOM     58  C   UNL A   1      43.058  27.858  32.154  1.00  0.00     0.049 A 
ATOM     59  H   UNL A   1      41.264  28.764  31.515  1.00  0.00     0.167 HD
ATOM     60  C   UNL A   1      42.310  29.178  34.115  1.00  0.00     0.074 A 
ATOM     61  C   UNL A   1      42.427  29.619  35.490  1.00  0.00     0.031 C 
ATOM     62  C   UNL A   1      43.189  28.347  33.502  1.00  0.00     0.034 A 
BRANCH  49  63
ATOM     63  C   UNL A   1      41.617  26.847  27.711  1.00  0.00     0.023 A 
ATOM     64  C   UNL A   1      42.136  27.508  26.578  1.00  0.00     0.012 A 
ATOM     65  C   UNL A   1      41.428  25.452  27.668  1.00  0.00     0.148 A 
ATOM     66  C   UNL A   1      42.415  26.804  25.408  1.00  0.00     0.002 A 
ATOM     67  C   UNL A   1      41.754  24.749  26.512  1.00  0.00     0.091 A 
ATOM     68  F   UNL A   1      40.916  24.840  28.744  1.00  0.00    -0.205 F 
ATOM     69  C   UNL A   1      42.233  25.425  25.378  1.00  0.00     0.022 A 
BRANCH  67  70
ATOM     70  S   UNL A   1      41.632  22.961  26.400  1.00  0.00     0.127 S 
ATOM     71  O   UNL A   1      42.288  22.700  25.120  1.00  0.00    -0.237 OA
ATOM     72  O   UNL A   1      42.389  22.524  27.574  1.00  0.00    -0.237 OA
ATOM     73  O   UNL A   1      40.208  22.655  26.452  1.00  0.00    -0.744 OA
ENDBRANCH  67  70
ENDBRANCH  49  63
BRANCH  50  74
ATOM     74  C   UNL A   1      38.962  32.021  35.830  1.00  0.00     0.023 A 
ATOM     75  C   UNL A   1      39.272  33.387  35.972  1.00  0.00     0.012 A 
ATOM     76  C   UNL A   1      38.208  31.381  36.834  1.00  0.00     0.148 A 
ATOM     77  C   UNL A   1      38.862  34.098  37.101  1.00  0.00     0.002 A 
ATOM     78  C   UNL A   1      37.755  32.109  37.928  1.00  0.00     0.091 A 
ATOM     79  F   UNL A   1      37.931  30.078  36.685  1.00  0.00    -0.205 F 
ATOM     80  C   UNL A   1      38.095  33.463  38.073  1.00  0.00     0.022 A 
BRANCH  78  81
ATOM     81  S   UNL A   1      36.645  31.410  39.157  1.00  0.00     0.127 S 
ATOM     82  O   UNL A   1      36.318  30.116  38.565  1.00  0.00    -0.237 OA
ATOM     83  O   UNL A   1      37.505  31.347  40.340  1.00  0.00    -0.237 OA
ATOM     84  O   UNL A   1      35.542  32.354  39.269  1.00  0.00    -0.744 OA
ENDBRANCH  78  81
ENDBRANCH  50  74
BRANCH  62  85
ATOM     85  C   UNL A   1      44.375  27.874  34.302  1.00  0.00     0.023 A 
ATOM     86  C   UNL A   1      45.552  28.647  34.326  1.00  0.00     0.012 A 
ATOM     87  C   UNL A   1      44.293  26.709  35.090  1.00  0.00     0.148 A 
ATOM     88  C   UNL A   1      46.643  28.252  35.100  1.00  0.00     0.002 A 
ATOM     89  C   UNL A   1      45.367  26.348  35.895  1.00  0.00     0.091 A 
ATOM     90  F   UNL A   1      43.171  25.977  35.038  1.00  0.00    -0.205 F 
ATOM     91  C   UNL A   1      46.546  27.110  35.894  1.00  0.00     0.022 A 
BRANCH  89  92
ATOM     92  S   UNL A   1      45.296  24.947  37.019  1.00  0.00     0.127 S 
ATOM     93  O   UNL A   1      45.003  23.845  36.103  1.00  0.00    -0.237 OA
ATOM     94  O   UNL A   1      46.647  24.930  37.580  1.00  0.00    -0.237 OA
ATOM     95  O   UNL A   1      44.248  25.258  37.980  1.00  0.00    -0.744 OA
ENDBRANCH  89  92
ENDBRANCH  62  85
ENDBRANCH  36  37
ENDBRANCH  28  31
ENDBRANCH   1  27
TORSDOF 14
ENDMDL
