MODEL 1
REMARK VINA RESULT:     -11.9      0.000      0.000
REMARK SMILES CCc1ccc(S(=O)(=O)Cc2noc(C(=O)NCCCNC(=O)c3ccc(-c4c5nc(c(-c6cccc(S(=O)(=O)[O-])c6F)c6ccc([nH]6)c(-c6cccc(S(=O)(=O)[O-])c6F)c6nc(c(-c7cccc(S(=O)(=O)[O-])c7F)c7ccc4[nH]7)C=C6)C=C5)cc3)n2)cc1
REMARK SMILES IDX 18 1 17 2 15 3 16 4 14 6 11 7 12 8 87 9 13 10 10 11 7 12
REMARK SMILES IDX 8 13 9 14 6 15 3 16 4 17 89 18 5 19 88 20 2 21 1 22 19 23
REMARK SMILES IDX 20 24 21 25 22 26 23 28 24 29 25 30 86 31 26 32 85 33 27 34
REMARK SMILES IDX 28 35 29 36 79 37 30 38 84 39 78 40 80 41 31 42 83 43 77 44
REMARK SMILES IDX 76 45 32 47 64 48 44 49 63 50 45 51 48 52 62 53 81 54 46 55
REMARK SMILES IDX 47 56 61 58 82 59 49 60 33 61 34 62 42 63 35 64 37 65 43 66
REMARK SMILES IDX 36 67 38 68 39 69 40 70 41 71 65 72 66 73 74 74 67 75 69 76
REMARK SMILES IDX 75 77 68 78 70 79 71 80 72 81 73 82 50 83 51 84 59 85 52 86
REMARK SMILES IDX 54 87 60 88 53 89 55 90 56 91 57 92 58 93
REMARK H PARENT 17 5 21 27 80 46 48 57
REMARK Flexibility Score: inf
ROOT
ATOM      1  C   UNL A   1      33.126  28.519  22.931  1.00  0.00     0.118 C 
ENDROOT
BRANCH   1   2
ATOM      2  N   UNL A   1      31.984  29.186  22.324  1.00  0.00    -0.348 N 
ATOM      3  C   UNL A   1      30.636  28.888  22.407  1.00  0.00     0.309 C 
ATOM      4  O   UNL A   1      29.866  29.663  21.829  1.00  0.00    -0.264 OA
ATOM      5  H   UNL A   1      32.204  29.970  21.770  1.00  0.00     0.163 HD
BRANCH   3   6
ATOM      6  C   UNL A   1      30.181  27.729  23.150  1.00  0.00     0.315 A 
ATOM      7  C   UNL A   1      29.972  25.935  24.228  1.00  0.00     0.187 A 
ATOM      8  N   UNL A   1      28.723  26.421  24.198  1.00  0.00    -0.061 NA
ATOM      9  N   UNL A   1      30.887  26.704  23.574  1.00  0.00    -0.186 NA
ATOM     10  O   UNL A   1      28.857  27.619  23.480  1.00  0.00    -0.329 OA
BRANCH   7  11
ATOM     11  C   UNL A   1      30.291  24.639  24.856  1.00  0.00     0.223 C 
BRANCH  11  12
ATOM     12  S   UNL A   1      31.209  24.740  26.367  1.00  0.00     0.185 S 
ATOM     13  O   UNL A   1      30.687  23.701  27.239  1.00  0.00    -0.223 OA
ATOM     14  O   UNL A   1      31.194  26.123  26.817  1.00  0.00    -0.223 OA
BRANCH  12  15
ATOM     15  C   UNL A   1      32.910  24.305  26.063  1.00  0.00     0.067 A 
ATOM     16  C   UNL A   1      35.580  23.726  25.388  1.00  0.00    -0.048 A 
ATOM     17  C   UNL A   1      35.116  25.047  25.384  1.00  0.00     0.005 A 
ATOM     18  C   UNL A   1      34.694  22.708  25.778  1.00  0.00     0.005 A 
ATOM     19  C   UNL A   1      33.785  25.336  25.709  1.00  0.00     0.020 A 
ATOM     20  C   UNL A   1      33.370  22.991  26.130  1.00  0.00     0.020 A 
BRANCH  16  21
ATOM     21  C   UNL A   1      36.978  23.325  24.965  1.00  0.00     0.032 C 
ATOM     22  C   UNL A   1      37.190  21.875  24.549  1.00  0.00     0.009 C 
ENDBRANCH  16  21
ENDBRANCH  12  15
ENDBRANCH  11  12
ENDBRANCH   7  11
ENDBRANCH   3   6
ENDBRANCH   1   2
BRANCH   1  23
ATOM     23  C   UNL A   1      33.726  29.332  24.071  1.00  0.00     0.042 C 
BRANCH  23  24
ATOM     24  C   UNL A   1      32.909  29.297  25.357  1.00  0.00     0.118 C 
BRANCH  24  25
ATOM     25  N   UNL A   1      32.572  30.635  25.826  1.00  0.00    -0.352 N 
ATOM     26  C   UNL A   1      33.042  31.363  26.887  1.00  0.00     0.251 C 
ATOM     27  H   UNL A   1      31.888  31.095  25.288  1.00  0.00     0.163 HD
ATOM     28  O   UNL A   1      32.436  32.381  27.216  1.00  0.00    -0.269 OA
BRANCH  26  29
ATOM     29  C   UNL A   1      34.254  30.956  27.632  1.00  0.00     0.039 A 
ATOM     30  C   UNL A   1      35.251  31.913  27.854  1.00  0.00     0.014 A 
ATOM     31  C   UNL A   1      34.460  29.638  28.049  1.00  0.00     0.014 A 
ATOM     32  C   UNL A   1      36.429  31.554  28.511  1.00  0.00     0.010 A 
ATOM     33  C   UNL A   1      35.594  29.304  28.786  1.00  0.00     0.010 A 
ATOM     34  C   UNL A   1      36.603  30.251  29.005  1.00  0.00    -0.014 A 
BRANCH  34  35
ATOM     35  C   UNL A   1      37.839  29.877  29.740  1.00  0.00     0.031 A 
ATOM     36  C   UNL A   1      38.104  30.410  31.125  1.00  0.00     0.074 A 
ATOM     37  C   UNL A   1      38.751  29.087  29.141  1.00  0.00     0.049 A 
ATOM     38  N   UNL A   1      39.118  30.175  31.917  1.00  0.00    -0.248 NA
ATOM     39  C   UNL A   1      37.117  31.347  31.685  1.00  0.00     0.031 C 
ATOM     40  C   UNL A   1      38.653  28.572  27.773  1.00  0.00     0.029 A 
ATOM     41  N   UNL A   1      39.944  28.587  29.597  1.00  0.00    -0.354 N 
ATOM     42  C   UNL A   1      38.910  30.953  33.050  1.00  0.00     0.074 A 
ATOM     43  C   UNL A   1      37.692  31.702  32.826  1.00  0.00     0.031 C 
ATOM     44  C   UNL A   1      39.728  27.815  27.508  1.00  0.00     0.029 A 
ATOM     45  C   UNL A   1      40.606  27.812  28.673  1.00  0.00     0.049 A 
ATOM     46  H   UNL A   1      40.293  28.766  30.499  1.00  0.00     0.167 HD
ATOM     47  C   UNL A   1      39.645  31.021  34.187  1.00  0.00     0.034 A 
ATOM     48  C   UNL A   1      41.788  27.171  28.755  1.00  0.00     0.034 A 
ATOM     49  C   UNL A   1      40.837  30.250  34.420  1.00  0.00     0.049 A 
ATOM     50  C   UNL A   1      42.560  27.223  30.045  1.00  0.00     0.074 A 
ATOM     51  C   UNL A   1      41.611  30.188  35.566  1.00  0.00     0.029 A 
ATOM     52  N   UNL A   1      41.437  29.417  33.489  1.00  0.00    -0.354 N 
ATOM     53  N   UNL A   1      42.266  27.846  31.160  1.00  0.00    -0.248 NA
ATOM     54  C   UNL A   1      43.805  26.445  30.102  1.00  0.00     0.031 C 
ATOM     55  C   UNL A   1      42.697  29.341  35.316  1.00  0.00     0.029 A 
ATOM     56  C   UNL A   1      42.575  28.841  34.030  1.00  0.00     0.049 A 
ATOM     57  H   UNL A   1      41.104  29.258  32.577  1.00  0.00     0.167 HD
ATOM     58  C   UNL A   1      43.264  27.503  32.063  1.00  0.00     0.074 A 
ATOM     59  C   UNL A   1      44.159  26.598  31.370  1.00  0.00     0.031 C 
ATOM     60  C   UNL A   1      43.433  27.908  33.346  1.00  0.00     0.034 A 
BRANCH  47  61
ATOM     61  C   UNL A   1      39.155  31.930  35.287  1.00  0.00     0.023 A 
ATOM     62  C   UNL A   1      38.193  31.462  36.206  1.00  0.00     0.012 A 
ATOM     63  C   UNL A   1      39.689  33.224  35.449  1.00  0.00     0.148 A 
ATOM     64  C   UNL A   1      37.740  32.277  37.242  1.00  0.00     0.002 A 
ATOM     65  C   UNL A   1      39.270  34.013  36.514  1.00  0.00     0.091 A 
ATOM     66  F   UNL A   1      40.588  33.661  34.557  1.00  0.00    -0.205 F 
ATOM     67  C   UNL A   1      38.287  33.548  37.403  1.00  0.00     0.022 A 
BRANCH  65  68
ATOM     68  S   UNL A   1      39.972  35.631  36.859  1.00  0.00     0.127 S 
ATOM     69  O   UNL A   1      39.282  35.993  38.096  1.00  0.00    -0.237 OA
ATOM     70  O   UNL A   1      41.392  35.321  37.021  1.00  0.00    -0.237 OA
ATOM     71  O   UNL A   1      39.657  36.459  35.704  1.00  0.00    -0.744 OA
ENDBRANCH  65  68
ENDBRANCH  47  61
BRANCH  48  72
ATOM     72  C   UNL A   1      42.280  26.368  27.600  1.00  0.00     0.023 A 
ATOM     73  C   UNL A   1      43.137  26.961  26.654  1.00  0.00     0.012 A 
ATOM     74  C   UNL A   1      41.918  25.017  27.447  1.00  0.00     0.148 A 
ATOM     75  C   UNL A   1      43.595  26.233  25.555  1.00  0.00     0.002 A 
ATOM     76  C   UNL A   1      42.425  24.281  26.383  1.00  0.00     0.091 A 
ATOM     77  F   UNL A   1      41.094  24.474  28.356  1.00  0.00    -0.205 F 
ATOM     78  C   UNL A   1      43.246  24.892  25.425  1.00  0.00     0.022 A 
BRANCH  76  79
ATOM     79  S   UNL A   1      42.139  22.516  26.215  1.00  0.00     0.127 S 
ATOM     80  O   UNL A   1      42.890  22.207  25.001  1.00  0.00    -0.237 OA
ATOM     81  O   UNL A   1      42.723  21.998  27.453  1.00  0.00    -0.237 OA
ATOM     82  O   UNL A   1      40.693  22.358  26.121  1.00  0.00    -0.744 OA
ENDBRANCH  76  79
ENDBRANCH  48  72
BRANCH  60  83
ATOM     83  C   UNL A   1      44.602  27.334  34.107  1.00  0.00     0.023 A 
ATOM     84  C   UNL A   1      45.866  27.953  34.038  1.00  0.00     0.012 A 
ATOM     85  C   UNL A   1      44.434  26.198  34.922  1.00  0.00     0.148 A 
ATOM     86  C   UNL A   1      46.956  27.420  34.726  1.00  0.00     0.002 A 
ATOM     87  C   UNL A   1      45.510  25.705  35.649  1.00  0.00     0.091 A 
ATOM     88  F   UNL A   1      43.229  25.610  34.962  1.00  0.00    -0.205 F 
ATOM     89  C   UNL A   1      46.776  26.302  35.538  1.00  0.00     0.022 A 
BRANCH  87  90
ATOM     90  S   UNL A   1      45.343  24.334  36.798  1.00  0.00     0.127 S 
ATOM     91  O   UNL A   1      44.921  23.252  35.910  1.00  0.00    -0.237 OA
ATOM     92  O   UNL A   1      46.704  24.197  37.319  1.00  0.00    -0.237 OA
ATOM     93  O   UNL A   1      44.361  24.757  37.785  1.00  0.00    -0.744 OA
ENDBRANCH  87  90
ENDBRANCH  60  83
ENDBRANCH  34  35
ENDBRANCH  26  29
ENDBRANCH  24  25
ENDBRANCH  23  24
ENDBRANCH   1  23
TORSDOF 17
ENDMDL
MODEL 2
REMARK VINA RESULT:     -11.6      1.929      2.458
REMARK SMILES CCc1ccc(S(=O)(=O)Cc2noc(C(=O)NCCCNC(=O)c3ccc(-c4c5nc(c(-c6cccc(S(=O)(=O)[O-])c6F)c6ccc([nH]6)c(-c6cccc(S(=O)(=O)[O-])c6F)c6nc(c(-c7cccc(S(=O)(=O)[O-])c7F)c7ccc4[nH]7)C=C6)C=C5)cc3)n2)cc1
REMARK SMILES IDX 18 1 17 2 15 3 16 4 14 6 11 7 12 8 87 9 13 10 10 11 7 12
REMARK SMILES IDX 8 13 9 14 6 15 3 16 4 17 89 18 5 19 88 20 2 21 1 22 19 23
REMARK SMILES IDX 20 24 21 25 22 26 23 28 24 29 25 30 86 31 26 32 85 33 27 34
REMARK SMILES IDX 28 35 29 36 79 37 30 38 84 39 78 40 80 41 31 42 83 43 77 44
REMARK SMILES IDX 76 45 32 47 64 48 44 49 63 50 45 51 48 52 62 53 81 54 46 55
REMARK SMILES IDX 47 56 61 58 82 59 49 60 33 61 34 62 42 63 35 64 37 65 43 66
REMARK SMILES IDX 36 67 38 68 39 69 40 70 41 71 65 72 66 73 74 74 67 75 69 76
REMARK SMILES IDX 75 77 68 78 70 79 71 80 72 81 73 82 50 83 51 84 59 85 52 86
REMARK SMILES IDX 54 87 60 88 53 89 55 90 56 91 57 92 58 93
REMARK H PARENT 17 5 21 27 80 46 48 57
REMARK Flexibility Score: inf
ROOT
ATOM      1  C   UNL A   1      31.202  27.458  25.471  1.00  0.00     0.118 C 
ENDROOT
BRANCH   1   2
ATOM      2  N   UNL A   1      30.831  28.061  24.199  1.00  0.00    -0.348 N 
ATOM      3  C   UNL A   1      31.083  27.633  22.908  1.00  0.00     0.309 C 
ATOM      4  O   UNL A   1      30.599  28.317  22.000  1.00  0.00    -0.264 OA
ATOM      5  H   UNL A   1      30.321  28.901  24.267  1.00  0.00     0.163 HD
BRANCH   3   6
ATOM      6  C   UNL A   1      31.868  26.438  22.667  1.00  0.00     0.315 A 
ATOM      7  C   UNL A   1      32.617  24.485  22.447  1.00  0.00     0.187 A 
ATOM      8  N   UNL A   1      33.637  25.252  22.036  1.00  0.00    -0.061 NA
ATOM      9  N   UNL A   1      31.524  25.184  22.861  1.00  0.00    -0.186 NA
ATOM     10  O   UNL A   1      33.141  26.556  22.180  1.00  0.00    -0.329 OA
BRANCH   7  11
ATOM     11  C   UNL A   1      32.721  23.015  22.507  1.00  0.00     0.223 C 
BRANCH  11  12
ATOM     12  S   UNL A   1      32.841  22.336  24.139  1.00  0.00     0.185 S 
ATOM     13  O   UNL A   1      31.513  22.423  24.723  1.00  0.00    -0.223 OA
ATOM     14  O   UNL A   1      33.962  22.971  24.815  1.00  0.00    -0.223 OA
BRANCH  12  15
ATOM     15  C   UNL A   1      33.211  20.596  24.036  1.00  0.00     0.067 A 
ATOM     16  C   UNL A   1      33.588  17.808  23.948  1.00  0.00    -0.048 A 
ATOM     17  C   UNL A   1      32.506  18.401  23.286  1.00  0.00     0.005 A 
ATOM     18  C   UNL A   1      34.500  18.642  24.617  1.00  0.00     0.005 A 
ATOM     19  C   UNL A   1      32.310  19.786  23.338  1.00  0.00     0.020 A 
ATOM     20  C   UNL A   1      34.327  20.029  24.650  1.00  0.00     0.020 A 
BRANCH  16  21
ATOM     21  C   UNL A   1      33.818  16.313  24.011  1.00  0.00     0.032 C 
ATOM     22  C   UNL A   1      33.019  15.528  25.044  1.00  0.00     0.009 C 
ENDBRANCH  16  21
ENDBRANCH  12  15
ENDBRANCH  11  12
ENDBRANCH   7  11
ENDBRANCH   3   6
ENDBRANCH   1   2
BRANCH   1  23
ATOM     23  C   UNL A   1      31.984  28.420  26.355  1.00  0.00     0.042 C 
BRANCH  23  24
ATOM     24  C   UNL A   1      32.825  29.431  25.582  1.00  0.00     0.118 C 
BRANCH  24  25
ATOM     25  N   UNL A   1      32.529  30.802  25.976  1.00  0.00    -0.352 N 
ATOM     26  C   UNL A   1      33.068  31.594  26.955  1.00  0.00     0.251 C 
ATOM     27  H   UNL A   1      31.818  31.233  25.448  1.00  0.00     0.163 HD
ATOM     28  O   UNL A   1      32.492  32.640  27.248  1.00  0.00    -0.269 OA
BRANCH  26  29
ATOM     29  C   UNL A   1      34.318  31.222  27.655  1.00  0.00     0.039 A 
ATOM     30  C   UNL A   1      34.405  29.949  28.228  1.00  0.00     0.014 A 
ATOM     31  C   UNL A   1      35.370  32.127  27.822  1.00  0.00     0.014 A 
ATOM     32  C   UNL A   1      35.549  29.580  28.937  1.00  0.00     0.010 A 
ATOM     33  C   UNL A   1      36.547  31.725  28.449  1.00  0.00     0.010 A 
ATOM     34  C   UNL A   1      36.642  30.456  29.036  1.00  0.00    -0.014 A 
BRANCH  34  35
ATOM     35  C   UNL A   1      37.877  30.051  29.756  1.00  0.00     0.031 A 
ATOM     36  C   UNL A   1      38.173  30.577  31.137  1.00  0.00     0.074 A 
ATOM     37  C   UNL A   1      38.761  29.237  29.145  1.00  0.00     0.049 A 
ATOM     38  N   UNL A   1      39.191  30.315  31.917  1.00  0.00    -0.248 NA
ATOM     39  C   UNL A   1      37.218  31.539  31.709  1.00  0.00     0.031 C 
ATOM     40  C   UNL A   1      38.632  28.725  27.779  1.00  0.00     0.029 A 
ATOM     41  N   UNL A   1      39.946  28.706  29.587  1.00  0.00    -0.354 N 
ATOM     42  C   UNL A   1      39.017  31.099  33.052  1.00  0.00     0.074 A 
ATOM     43  C   UNL A   1      37.817  31.879  32.843  1.00  0.00     0.031 C 
ATOM     44  C   UNL A   1      39.684  27.940  27.501  1.00  0.00     0.029 A 
ATOM     45  C   UNL A   1      40.576  27.914  28.655  1.00  0.00     0.049 A 
ATOM     46  H   UNL A   1      40.311  28.876  30.484  1.00  0.00     0.167 HD
ATOM     47  C   UNL A   1      39.768  31.147  34.179  1.00  0.00     0.034 A 
ATOM     48  C   UNL A   1      41.741  27.242  28.722  1.00  0.00     0.034 A 
ATOM     49  C   UNL A   1      40.943  30.346  34.397  1.00  0.00     0.049 A 
ATOM     50  C   UNL A   1      42.531  27.274  30.003  1.00  0.00     0.074 A 
ATOM     51  C   UNL A   1      41.729  30.263  35.534  1.00  0.00     0.029 A 
ATOM     52  N   UNL A   1      41.509  29.497  33.459  1.00  0.00    -0.354 N 
ATOM     53  N   UNL A   1      42.267  27.905  31.120  1.00  0.00    -0.248 NA
ATOM     54  C   UNL A   1      43.756  26.464  30.044  1.00  0.00     0.031 C 
ATOM     55  C   UNL A   1      42.789  29.389  35.270  1.00  0.00     0.029 A 
ATOM     56  C   UNL A   1      42.638  28.892  33.987  1.00  0.00     0.049 A 
ATOM     57  H   UNL A   1      41.160  29.347  32.551  1.00  0.00     0.167 HD
ATOM     58  C   UNL A   1      43.268  27.537  32.012  1.00  0.00     0.074 A 
ATOM     59  C   UNL A   1      44.130  26.609  31.308  1.00  0.00     0.031 C 
ATOM     60  C   UNL A   1      43.463  27.937  33.292  1.00  0.00     0.034 A 
BRANCH  47  61
ATOM     61  C   UNL A   1      39.316  32.069  35.285  1.00  0.00     0.023 A 
ATOM     62  C   UNL A   1      38.356  31.625  36.218  1.00  0.00     0.012 A 
ATOM     63  C   UNL A   1      39.883  33.350  35.438  1.00  0.00     0.148 A 
ATOM     64  C   UNL A   1      37.938  32.452  37.259  1.00  0.00     0.002 A 
ATOM     65  C   UNL A   1      39.499  34.150  36.507  1.00  0.00     0.091 A 
ATOM     66  F   UNL A   1      40.780  33.764  34.532  1.00  0.00    -0.205 F 
ATOM     67  C   UNL A   1      38.517  33.710  37.411  1.00  0.00     0.022 A 
BRANCH  65  68
ATOM     68  S   UNL A   1      40.244  35.751  36.840  1.00  0.00     0.127 S 
ATOM     69  O   UNL A   1      39.632  36.581  35.802  1.00  0.00    -0.237 OA
ATOM     70  O   UNL A   1      39.778  36.030  38.198  1.00  0.00    -0.237 OA
ATOM     71  O   UNL A   1      41.682  35.558  36.717  1.00  0.00    -0.744 OA
ENDBRANCH  65  68
ENDBRANCH  47  61
BRANCH  48  72
ATOM     72  C   UNL A   1      42.198  26.426  27.562  1.00  0.00     0.023 A 
ATOM     73  C   UNL A   1      42.992  27.021  26.562  1.00  0.00     0.012 A 
ATOM     74  C   UNL A   1      41.865  25.064  27.455  1.00  0.00     0.148 A 
ATOM     75  C   UNL A   1      43.415  26.280  25.457  1.00  0.00     0.002 A 
ATOM     76  C   UNL A   1      42.339  24.317  26.383  1.00  0.00     0.091 A 
ATOM     77  F   UNL A   1      41.101  24.520  28.415  1.00  0.00    -0.205 F 
ATOM     78  C   UNL A   1      43.096  24.928  25.373  1.00  0.00     0.022 A 
BRANCH  76  79
ATOM     79  S   UNL A   1      42.092  22.543  26.266  1.00  0.00     0.127 S 
ATOM     80  O   UNL A   1      40.637  22.448  26.182  1.00  0.00    -0.237 OA
ATOM     81  O   UNL A   1      42.805  22.222  25.029  1.00  0.00    -0.237 OA
ATOM     82  O   UNL A   1      42.693  21.981  27.468  1.00  0.00    -0.744 OA
ENDBRANCH  76  79
ENDBRANCH  48  72
BRANCH  60  83
ATOM     83  C   UNL A   1      44.626  27.333  34.038  1.00  0.00     0.023 A 
ATOM     84  C   UNL A   1      45.899  27.934  33.975  1.00  0.00     0.012 A 
ATOM     85  C   UNL A   1      44.445  26.185  34.835  1.00  0.00     0.148 A 
ATOM     86  C   UNL A   1      46.983  27.373  34.649  1.00  0.00     0.002 A 
ATOM     87  C   UNL A   1      45.516  25.664  35.549  1.00  0.00     0.091 A 
ATOM     88  F   UNL A   1      43.231  25.616  34.870  1.00  0.00    -0.205 F 
ATOM     89  C   UNL A   1      46.790  26.244  35.443  1.00  0.00     0.022 A 
BRANCH  87  90
ATOM     90  S   UNL A   1      45.333  24.277  36.675  1.00  0.00     0.127 S 
ATOM     91  O   UNL A   1      46.709  24.074  37.124  1.00  0.00    -0.237 OA
ATOM     92  O   UNL A   1      44.433  24.820  37.694  1.00  0.00    -0.237 OA
ATOM     93  O   UNL A   1      44.764  23.194  35.885  1.00  0.00    -0.744 OA
ENDBRANCH  87  90
ENDBRANCH  60  83
ENDBRANCH  34  35
ENDBRANCH  26  29
ENDBRANCH  24  25
ENDBRANCH  23  24
ENDBRANCH   1  23
TORSDOF 17
ENDMDL
MODEL 3
REMARK VINA RESULT:     -11.1      7.115      9.214
REMARK SMILES CCc1ccc(S(=O)(=O)Cc2noc(C(=O)NCCCNC(=O)c3ccc(-c4c5nc(c(-c6cccc(S(=O)(=O)[O-])c6F)c6ccc([nH]6)c(-c6cccc(S(=O)(=O)[O-])c6F)c6nc(c(-c7cccc(S(=O)(=O)[O-])c7F)c7ccc4[nH]7)C=C6)C=C5)cc3)n2)cc1
REMARK SMILES IDX 18 1 17 2 15 3 16 4 14 6 11 7 12 8 87 9 13 10 10 11 7 12
REMARK SMILES IDX 8 13 9 14 6 15 3 16 4 17 89 18 5 19 88 20 2 21 1 22 19 23
REMARK SMILES IDX 20 24 21 25 22 26 23 28 24 29 25 30 86 31 26 32 85 33 27 34
REMARK SMILES IDX 28 35 29 36 79 37 30 38 84 39 78 40 80 41 31 42 83 43 77 44
REMARK SMILES IDX 76 45 32 47 64 48 44 49 63 50 45 51 48 52 62 53 81 54 46 55
REMARK SMILES IDX 47 56 61 58 82 59 49 60 33 61 34 62 42 63 35 64 37 65 43 66
REMARK SMILES IDX 36 67 38 68 39 69 40 70 41 71 65 72 66 73 74 74 67 75 69 76
REMARK SMILES IDX 75 77 68 78 70 79 71 80 72 81 73 82 50 83 51 84 59 85 52 86
REMARK SMILES IDX 54 87 60 88 53 89 55 90 56 91 57 92 58 93
REMARK H PARENT 17 5 21 27 80 46 48 57
REMARK Flexibility Score: inf
ROOT
ATOM      1  C   UNL A   1      34.910  35.410  33.341  1.00  0.00     0.118 C 
ENDROOT
BRANCH   1   2
ATOM      2  N   UNL A   1      33.613  36.049  33.516  1.00  0.00    -0.348 N 
ATOM      3  C   UNL A   1      32.635  36.340  32.583  1.00  0.00     0.309 C 
ATOM      4  O   UNL A   1      31.594  36.842  33.019  1.00  0.00    -0.264 OA
ATOM      5  H   UNL A   1      33.399  36.312  34.441  1.00  0.00     0.163 HD
BRANCH   3   6
ATOM      6  C   UNL A   1      32.846  36.049  31.178  1.00  0.00     0.315 A 
ATOM      7  C   UNL A   1      33.097  35.187  29.277  1.00  0.00     0.187 A 
ATOM      8  N   UNL A   1      33.167  36.503  29.028  1.00  0.00    -0.061 NA
ATOM      9  N   UNL A   1      32.922  34.875  30.591  1.00  0.00    -0.186 NA
ATOM     10  O   UNL A   1      32.999  37.082  30.294  1.00  0.00    -0.329 OA
BRANCH   7  11
ATOM     11  C   UNL A   1      33.273  34.180  28.213  1.00  0.00     0.223 C 
BRANCH  11  12
ATOM     12  S   UNL A   1      34.665  33.104  28.418  1.00  0.00     0.185 S 
ATOM     13  O   UNL A   1      34.840  32.921  29.850  1.00  0.00    -0.223 OA
ATOM     14  O   UNL A   1      35.767  33.629  27.626  1.00  0.00    -0.223 OA
BRANCH  12  15
ATOM     15  C   UNL A   1      34.274  31.491  27.769  1.00  0.00     0.067 A 
ATOM     16  C   UNL A   1      33.484  28.939  26.886  1.00  0.00    -0.048 A 
ATOM     17  C   UNL A   1      32.577  30.005  26.882  1.00  0.00     0.005 A 
ATOM     18  C   UNL A   1      34.805  29.186  27.298  1.00  0.00     0.005 A 
ATOM     19  C   UNL A   1      32.965  31.273  27.332  1.00  0.00     0.020 A 
ATOM     20  C   UNL A   1      35.207  30.457  27.723  1.00  0.00     0.020 A 
BRANCH  16  21
ATOM     21  C   UNL A   1      33.118  27.522  26.498  1.00  0.00     0.032 C 
ATOM     22  C   UNL A   1      31.641  27.218  26.284  1.00  0.00     0.009 C 
ENDBRANCH  16  21
ENDBRANCH  12  15
ENDBRANCH  11  12
ENDBRANCH   7  11
ENDBRANCH   3   6
ENDBRANCH   1   2
BRANCH   1  23
ATOM     23  C   UNL A   1      34.825  33.895  33.470  1.00  0.00     0.042 C 
BRANCH  23  24
ATOM     24  C   UNL A   1      36.107  33.166  33.082  1.00  0.00     0.118 C 
BRANCH  24  25
ATOM     25  N   UNL A   1      35.852  31.788  32.685  1.00  0.00    -0.352 N 
ATOM     26  C   UNL A   1      36.544  30.947  31.853  1.00  0.00     0.251 C 
ATOM     27  H   UNL A   1      35.043  31.392  33.084  1.00  0.00     0.163 HD
ATOM     28  O   UNL A   1      36.005  29.903  31.492  1.00  0.00    -0.269 OA
BRANCH  26  29
ATOM     29  C   UNL A   1      37.913  31.265  31.391  1.00  0.00     0.039 A 
ATOM     30  C   UNL A   1      38.111  31.524  30.030  1.00  0.00     0.014 A 
ATOM     31  C   UNL A   1      39.011  31.238  32.254  1.00  0.00     0.014 A 
ATOM     32  C   UNL A   1      39.396  31.781  29.549  1.00  0.00     0.010 A 
ATOM     33  C   UNL A   1      40.278  31.585  31.789  1.00  0.00     0.010 A 
ATOM     34  C   UNL A   1      40.491  31.837  30.427  1.00  0.00    -0.014 A 
BRANCH  34  35
ATOM     35  C   UNL A   1      41.853  32.149  29.923  1.00  0.00     0.031 A 
ATOM     36  C   UNL A   1      42.271  33.573  29.660  1.00  0.00     0.074 A 
ATOM     37  C   UNL A   1      42.707  31.141  29.660  1.00  0.00     0.049 A 
ATOM     38  N   UNL A   1      43.422  34.028  29.237  1.00  0.00    -0.248 NA
ATOM     39  C   UNL A   1      41.260  34.621  29.874  1.00  0.00     0.031 C 
ATOM     40  C   UNL A   1      42.397  29.715  29.794  1.00  0.00     0.029 A 
ATOM     41  N   UNL A   1      44.004  31.156  29.214  1.00  0.00    -0.354 N 
ATOM     42  C   UNL A   1      43.267  35.404  29.105  1.00  0.00     0.074 A 
ATOM     43  C   UNL A   1      41.895  35.706  29.453  1.00  0.00     0.031 C 
ATOM     44  C   UNL A   1      43.478  28.995  29.457  1.00  0.00     0.029 A 
ATOM     45  C   UNL A   1      44.548  29.903  29.056  1.00  0.00     0.049 A 
ATOM     46  H   UNL A   1      44.498  31.986  29.024  1.00  0.00     0.167 HD
ATOM     47  C   UNL A   1      44.185  36.337  28.756  1.00  0.00     0.034 A 
ATOM     48  C   UNL A   1      45.771  29.526  28.636  1.00  0.00     0.034 A 
ATOM     49  C   UNL A   1      45.558  36.037  28.443  1.00  0.00     0.049 A 
ATOM     50  C   UNL A   1      46.787  30.584  28.301  1.00  0.00     0.074 A 
ATOM     51  C   UNL A   1      46.586  36.917  28.153  1.00  0.00     0.029 A 
ATOM     52  N   UNL A   1      46.092  34.761  28.368  1.00  0.00    -0.354 N 
ATOM     53  N   UNL A   1      46.662  31.888  28.329  1.00  0.00    -0.248 NA
ATOM     54  C   UNL A   1      48.126  30.116  27.919  1.00  0.00     0.031 C 
ATOM     55  C   UNL A   1      47.735  36.169  27.871  1.00  0.00     0.029 A 
ATOM     56  C   UNL A   1      47.434  34.827  28.029  1.00  0.00     0.049 A 
ATOM     57  H   UNL A   1      45.592  33.929  28.531  1.00  0.00     0.167 HD
ATOM     58  C   UNL A   1      47.915  32.398  28.011  1.00  0.00     0.074 A 
ATOM     59  C   UNL A   1      48.790  31.259  27.817  1.00  0.00     0.031 C 
ATOM     60  C   UNL A   1      48.305  33.690  27.881  1.00  0.00     0.034 A 
BRANCH  47  61
ATOM     61  C   UNL A   1      43.747  37.781  28.736  1.00  0.00     0.023 A 
ATOM     62  C   UNL A   1      43.180  38.323  27.564  1.00  0.00     0.012 A 
ATOM     63  C   UNL A   1      43.841  38.583  29.890  1.00  0.00     0.148 A 
ATOM     64  C   UNL A   1      42.750  39.649  27.528  1.00  0.00     0.002 A 
ATOM     65  C   UNL A   1      43.364  39.888  29.862  1.00  0.00     0.091 A 
ATOM     66  F   UNL A   1      44.400  38.058  30.990  1.00  0.00    -0.205 F 
ATOM     67  C   UNL A   1      42.832  40.428  28.679  1.00  0.00     0.022 A 
BRANCH  65  68
ATOM     68  S   UNL A   1      43.347  40.947  31.314  1.00  0.00     0.127 S 
ATOM     69  O   UNL A   1      44.776  41.163  31.538  1.00  0.00    -0.237 OA
ATOM     70  O   UNL A   1      42.622  42.121  30.828  1.00  0.00    -0.237 OA
ATOM     71  O   UNL A   1      42.660  40.194  32.353  1.00  0.00    -0.744 OA
ENDBRANCH  65  68
ENDBRANCH  47  61
BRANCH  48  72
ATOM     72  C   UNL A   1      46.123  28.079  28.574  1.00  0.00     0.023 A 
ATOM     73  C   UNL A   1      46.584  27.424  29.732  1.00  0.00     0.012 A 
ATOM     74  C   UNL A   1      45.984  27.348  27.380  1.00  0.00     0.148 A 
ATOM     75  C   UNL A   1      46.936  26.074  29.692  1.00  0.00     0.002 A 
ATOM     76  C   UNL A   1      46.280  25.991  27.361  1.00  0.00     0.091 A 
ATOM     77  F   UNL A   1      45.551  27.994  26.287  1.00  0.00    -0.205 F 
ATOM     78  C   UNL A   1      46.775  25.356  28.509  1.00  0.00     0.022 A 
BRANCH  76  79
ATOM     79  S   UNL A   1      45.973  24.961  25.922  1.00  0.00     0.127 S 
ATOM     80  O   UNL A   1      44.515  24.870  25.925  1.00  0.00    -0.237 OA
ATOM     81  O   UNL A   1      46.539  25.775  24.845  1.00  0.00    -0.237 OA
ATOM     82  O   UNL A   1      46.685  23.715  26.170  1.00  0.00    -0.744 OA
ENDBRANCH  76  79
ENDBRANCH  48  72
BRANCH  60  83
ATOM     83  C   UNL A   1      49.757  33.948  27.562  1.00  0.00     0.023 A 
ATOM     84  C   UNL A   1      50.722  33.930  28.588  1.00  0.00     0.012 A 
ATOM     85  C   UNL A   1      50.167  34.171  26.233  1.00  0.00     0.148 A 
ATOM     86  C   UNL A   1      52.064  34.183  28.304  1.00  0.00     0.002 A 
ATOM     87  C   UNL A   1      51.512  34.366  25.949  1.00  0.00     0.091 A 
ATOM     88  F   UNL A   1      49.232  34.203  25.271  1.00  0.00    -0.205 F 
ATOM     89  C   UNL A   1      52.460  34.391  26.984  1.00  0.00     0.022 A 
BRANCH  87  90
ATOM     90  S   UNL A   1      52.122  34.540  24.269  1.00  0.00     0.127 S 
ATOM     91  O   UNL A   1      53.567  34.603  24.481  1.00  0.00    -0.237 OA
ATOM     92  O   UNL A   1      51.652  33.304  23.639  1.00  0.00    -0.237 OA
ATOM     93  O   UNL A   1      51.510  35.752  23.745  1.00  0.00    -0.744 OA
ENDBRANCH  87  90
ENDBRANCH  60  83
ENDBRANCH  34  35
ENDBRANCH  26  29
ENDBRANCH  24  25
ENDBRANCH  23  24
ENDBRANCH   1  23
TORSDOF 17
ENDMDL
