MODEL 1
REMARK VINA RESULT:     -13.2      0.000      0.000
REMARK SMILES O=C(NCCCNC(=O)c1ccc(-c2c3nc(c(-c4cccc(S(=O)(=O)[O-])c4F)c4ccc([nH]4)c(-c4cccc(S(=O)(=O)[O-])c4F)c4nc(c(-c5cccc(S(=O)(=O)[O-])c5F)c5ccc2[nH]5)C=C4)C=C3)cc1)C1=Cc2c(ccc(Cl)c2-c2ccccc2)O[C@H]1C(F)(F)F
REMARK SMILES IDX 6 1 5 2 4 3 3 4 1 5 2 6 73 8 74 9 89 10 75 11 88 12 76 13
REMARK SMILES IDX 81 14 77 15 79 16 78 17 80 18 90 19 91 20 92 21 93 22 82 23
REMARK SMILES IDX 83 24 87 25 84 26 86 27 85 28 7 29 8 30 9 32 10 33 11 34
REMARK SMILES IDX 72 35 12 36 71 37 13 38 14 39 15 40 65 41 16 42 70 43 64 44
REMARK SMILES IDX 66 45 17 46 69 47 63 48 62 49 18 51 50 52 30 53 49 54 31 55
REMARK SMILES IDX 34 56 48 57 67 58 32 59 33 60 47 62 68 63 35 64 19 65 20 66
REMARK SMILES IDX 28 67 21 68 23 69 29 70 22 71 24 72 25 73 26 74 27 75 51 76
REMARK SMILES IDX 52 77 60 78 53 79 55 80 61 81 54 82 56 83 57 84 58 85 59 86
REMARK SMILES IDX 36 87 37 88 45 89 38 90 40 91 46 92 39 93 41 94 42 95 43 96
REMARK SMILES IDX 44 97
REMARK H PARENT 3 7 7 31 66 50 34 61
REMARK Flexibility Score: inf
ROOT
ATOM      1  C   UNL A   1      32.865  32.307  27.252  1.00  0.00     0.118 C 
ENDROOT
BRANCH   1   2
ATOM      2  C   UNL A   1      31.678  31.484  26.770  1.00  0.00     0.042 C 
BRANCH   2   3
ATOM      3  C   UNL A   1      31.937  29.989  26.740  1.00  0.00     0.118 C 
BRANCH   3   4
ATOM      4  N   UNL A   1      33.059  29.558  25.925  1.00  0.00    -0.352 N 
ATOM      5  O   UNL A   1      34.090  28.542  24.199  1.00  0.00    -0.270 OA
ATOM      6  C   UNL A   1      33.040  28.817  24.775  1.00  0.00     0.251 C 
ATOM      7  H   UNL A   1      33.949  29.834  26.242  1.00  0.00     0.163 HD
BRANCH   6   8
ATOM      8  C   UNL A   1      31.759  28.347  24.200  1.00  0.00     0.067 C 
ATOM      9  C   UNL A   1      31.355  27.111  24.528  1.00  0.00     0.026 C 
ATOM     10  C   UNL A   1      31.224  28.961  22.940  1.00  0.00     0.314 C 
ATOM     11  C   UNL A   1      31.650  26.193  23.393  1.00  0.00     0.027 A 
ATOM     12  O   UNL A   1      31.120  27.991  21.839  1.00  0.00    -0.475 OA
ATOM     13  C   UNL A   1      31.539  26.706  22.091  1.00  0.00     0.128 A 
ATOM     14  C   UNL A   1      32.208  24.915  23.655  1.00  0.00     0.011 A 
ATOM     15  C   UNL A   1      31.992  25.949  21.017  1.00  0.00     0.049 A 
ATOM     16  C   UNL A   1      32.683  24.182  22.559  1.00  0.00     0.049 A 
ATOM     17  C   UNL A   1      32.582  24.700  21.255  1.00  0.00     0.025 A 
ATOM     18  Cl  UNL A   1      33.464  22.657  22.765  1.00  0.00    -0.084 Cl
BRANCH  10  19
ATOM     19  C   UNL A   1      29.864  29.647  23.193  1.00  0.00     0.429 C 
ATOM     20  F   UNL A   1      28.847  28.765  23.365  1.00  0.00    -0.167 F 
ATOM     21  F   UNL A   1      29.903  30.420  24.304  1.00  0.00    -0.167 F 
ATOM     22  F   UNL A   1      29.496  30.448  22.164  1.00  0.00    -0.167 F 
ENDBRANCH  10  19
BRANCH  14  23
ATOM     23  C   UNL A   1      32.363  24.538  25.074  1.00  0.00    -0.016 A 
ATOM     24  C   UNL A   1      31.307  23.895  25.743  1.00  0.00     0.009 A 
ATOM     25  C   UNL A   1      33.652  24.472  25.631  1.00  0.00     0.009 A 
ATOM     26  C   UNL A   1      31.557  23.103  26.864  1.00  0.00     0.001 A 
ATOM     27  C   UNL A   1      33.901  23.670  26.746  1.00  0.00     0.001 A 
ATOM     28  C   UNL A   1      32.859  22.964  27.342  1.00  0.00     0.000 A 
ENDBRANCH  14  23
ENDBRANCH   6   8
ENDBRANCH   3   4
ENDBRANCH   2   3
ENDBRANCH   1   2
BRANCH   1  29
ATOM     29  N   UNL A   1      32.539  33.687  27.614  1.00  0.00    -0.352 N 
ATOM     30  C   UNL A   1      33.096  34.584  28.500  1.00  0.00     0.251 C 
ATOM     31  H   UNL A   1      31.765  34.049  27.125  1.00  0.00     0.163 HD
ATOM     32  O   UNL A   1      32.565  35.688  28.631  1.00  0.00    -0.269 OA
BRANCH  30  33
ATOM     33  C   UNL A   1      34.272  34.244  29.333  1.00  0.00     0.039 A 
ATOM     34  C   UNL A   1      34.072  33.618  30.570  1.00  0.00     0.014 A 
ATOM     35  C   UNL A   1      35.568  34.530  28.922  1.00  0.00     0.014 A 
ATOM     36  C   UNL A   1      35.169  33.176  31.319  1.00  0.00     0.010 A 
ATOM     37  C   UNL A   1      36.648  33.967  29.591  1.00  0.00     0.010 A 
ATOM     38  C   UNL A   1      36.467  33.282  30.800  1.00  0.00    -0.014 A 
BRANCH  38  39
ATOM     39  C   UNL A   1      37.656  32.693  31.476  1.00  0.00     0.031 A 
ATOM     40  C   UNL A   1      38.407  31.558  30.823  1.00  0.00     0.074 A 
ATOM     41  C   UNL A   1      37.972  33.070  32.733  1.00  0.00     0.049 A 
ATOM     42  N   UNL A   1      39.328  30.777  31.325  1.00  0.00    -0.248 NA
ATOM     43  C   UNL A   1      38.030  31.220  29.439  1.00  0.00     0.031 C 
ATOM     44  C   UNL A   1      37.272  34.091  33.517  1.00  0.00     0.029 A 
ATOM     45  N   UNL A   1      38.943  32.612  33.589  1.00  0.00    -0.354 N 
ATOM     46  C   UNL A   1      39.584  29.818  30.352  1.00  0.00     0.074 A 
ATOM     47  C   UNL A   1      38.694  30.090  29.245  1.00  0.00     0.031 C 
ATOM     48  C   UNL A   1      37.841  34.189  34.729  1.00  0.00     0.029 A 
ATOM     49  C   UNL A   1      38.921  33.214  34.826  1.00  0.00     0.049 A 
ATOM     50  H   UNL A   1      39.596  31.916  33.340  1.00  0.00     0.167 HD
ATOM     51  C   UNL A   1      40.502  28.821  30.358  1.00  0.00     0.034 A 
ATOM     52  C   UNL A   1      39.676  32.998  35.922  1.00  0.00     0.034 A 
ATOM     53  C   UNL A   1      41.453  28.618  31.415  1.00  0.00     0.049 A 
ATOM     54  C   UNL A   1      40.758  31.955  35.864  1.00  0.00     0.074 A 
ATOM     55  C   UNL A   1      42.499  27.715  31.472  1.00  0.00     0.029 A 
ATOM     56  N   UNL A   1      41.485  29.344  32.596  1.00  0.00    -0.354 N 
ATOM     57  N   UNL A   1      41.077  31.150  34.878  1.00  0.00    -0.248 NA
ATOM     58  C   UNL A   1      41.608  31.811  37.055  1.00  0.00     0.031 C 
ATOM     59  C   UNL A   1      43.164  27.893  32.689  1.00  0.00     0.029 A 
ATOM     60  C   UNL A   1      42.538  28.917  33.385  1.00  0.00     0.049 A 
ATOM     61  H   UNL A   1      40.853  30.059  32.838  1.00  0.00     0.167 HD
ATOM     62  C   UNL A   1      42.184  30.432  35.314  1.00  0.00     0.074 A 
ATOM     63  C   UNL A   1      42.494  30.913  36.647  1.00  0.00     0.031 C 
ATOM     64  C   UNL A   1      42.871  29.453  34.680  1.00  0.00     0.034 A 
BRANCH  51  65
ATOM     65  C   UNL A   1      40.573  27.927  29.146  1.00  0.00     0.023 A 
ATOM     66  C   UNL A   1      39.691  26.831  29.040  1.00  0.00     0.012 A 
ATOM     67  C   UNL A   1      41.474  28.190  28.096  1.00  0.00     0.148 A 
ATOM     68  C   UNL A   1      39.737  25.984  27.933  1.00  0.00     0.002 A 
ATOM     69  C   UNL A   1      41.481  27.369  26.973  1.00  0.00     0.091 A 
ATOM     70  F   UNL A   1      42.319  29.224  28.220  1.00  0.00    -0.205 F 
ATOM     71  C   UNL A   1      40.623  26.260  26.897  1.00  0.00     0.022 A 
BRANCH  69  72
ATOM     72  S   UNL A   1      42.527  27.685  25.547  1.00  0.00     0.127 S 
ATOM     73  O   UNL A   1      42.284  26.494  24.734  1.00  0.00    -0.237 OA
ATOM     74  O   UNL A   1      41.951  28.918  25.008  1.00  0.00    -0.237 OA
ATOM     75  O   UNL A   1      43.880  27.825  26.066  1.00  0.00    -0.744 OA
ENDBRANCH  69  72
ENDBRANCH  51  65
BRANCH  52  76
ATOM     76  C   UNL A   1      39.495  33.850  37.133  1.00  0.00     0.023 A 
ATOM     77  C   UNL A   1      39.967  35.178  37.110  1.00  0.00     0.012 A 
ATOM     78  C   UNL A   1      38.837  33.377  38.283  1.00  0.00     0.148 A 
ATOM     79  C   UNL A   1      39.816  36.008  38.221  1.00  0.00     0.002 A 
ATOM     80  C   UNL A   1      38.642  34.226  39.368  1.00  0.00     0.091 A 
ATOM     81  F   UNL A   1      38.405  32.107  38.292  1.00  0.00    -0.205 F 
ATOM     82  C   UNL A   1      39.145  35.536  39.345  1.00  0.00     0.022 A 
BRANCH  80  83
ATOM     83  S   UNL A   1      37.670  33.746  40.801  1.00  0.00     0.127 S 
ATOM     84  O   UNL A   1      38.571  32.814  41.475  1.00  0.00    -0.237 OA
ATOM     85  O   UNL A   1      37.482  35.026  41.485  1.00  0.00    -0.237 OA
ATOM     86  O   UNL A   1      36.444  33.171  40.264  1.00  0.00    -0.744 OA
ENDBRANCH  80  83
ENDBRANCH  52  76
BRANCH  64  87
ATOM     87  C   UNL A   1      44.055  28.854  35.391  1.00  0.00     0.023 A 
ATOM     88  C   UNL A   1      45.337  29.403  35.195  1.00  0.00     0.012 A 
ATOM     89  C   UNL A   1      43.882  27.806  36.316  1.00  0.00     0.148 A 
ATOM     90  C   UNL A   1      46.435  28.900  35.892  1.00  0.00     0.002 A 
ATOM     91  C   UNL A   1      44.973  27.341  37.040  1.00  0.00     0.091 A 
ATOM     92  F   UNL A   1      42.656  27.285  36.471  1.00  0.00    -0.205 F 
ATOM     93  C   UNL A   1      46.250  27.879  36.822  1.00  0.00     0.022 A 
BRANCH  91  94
ATOM     94  S   UNL A   1      44.809  26.098  38.326  1.00  0.00     0.127 S 
ATOM     95  O   UNL A   1      43.877  26.744  39.248  1.00  0.00    -0.237 OA
ATOM     96  O   UNL A   1      44.253  24.960  37.592  1.00  0.00    -0.237 OA
ATOM     97  O   UNL A   1      46.153  25.880  38.844  1.00  0.00    -0.744 OA
ENDBRANCH  91  94
ENDBRANCH  64  87
ENDBRANCH  38  39
ENDBRANCH  30  33
ENDBRANCH   1  29
TORSDOF 15
ENDMDL
MODEL 2
REMARK VINA RESULT:     -13.1      5.923     10.457
REMARK SMILES O=C(NCCCNC(=O)c1ccc(-c2c3nc(c(-c4cccc(S(=O)(=O)[O-])c4F)c4ccc([nH]4)c(-c4cccc(S(=O)(=O)[O-])c4F)c4nc(c(-c5cccc(S(=O)(=O)[O-])c5F)c5ccc2[nH]5)C=C4)C=C3)cc1)C1=Cc2c(ccc(Cl)c2-c2ccccc2)O[C@H]1C(F)(F)F
REMARK SMILES IDX 6 1 5 2 4 3 3 4 1 5 2 6 73 8 74 9 89 10 75 11 88 12 76 13
REMARK SMILES IDX 81 14 77 15 79 16 78 17 80 18 90 19 91 20 92 21 93 22 82 23
REMARK SMILES IDX 83 24 87 25 84 26 86 27 85 28 7 29 8 30 9 32 10 33 11 34
REMARK SMILES IDX 72 35 12 36 71 37 13 38 14 39 15 40 65 41 16 42 70 43 64 44
REMARK SMILES IDX 66 45 17 46 69 47 63 48 62 49 18 51 50 52 30 53 49 54 31 55
REMARK SMILES IDX 34 56 48 57 67 58 32 59 33 60 47 62 68 63 35 64 19 65 20 66
REMARK SMILES IDX 28 67 21 68 23 69 29 70 22 71 24 72 25 73 26 74 27 75 51 76
REMARK SMILES IDX 52 77 60 78 53 79 55 80 61 81 54 82 56 83 57 84 58 85 59 86
REMARK SMILES IDX 36 87 37 88 45 89 38 90 40 91 46 92 39 93 41 94 42 95 43 96
REMARK SMILES IDX 44 97
REMARK H PARENT 3 7 7 31 66 50 34 61
REMARK Flexibility Score: inf
ROOT
ATOM      1  C   UNL A   1      35.806  22.219  25.736  1.00  0.00     0.118 C 
ENDROOT
BRANCH   1   2
ATOM      2  C   UNL A   1      35.137  22.052  27.093  1.00  0.00     0.042 C 
BRANCH   2   3
ATOM      3  C   UNL A   1      33.714  21.530  27.018  1.00  0.00     0.118 C 
BRANCH   3   4
ATOM      4  N   UNL A   1      32.679  22.451  27.454  1.00  0.00    -0.352 N 
ATOM      5  O   UNL A   1      31.127  24.068  27.238  1.00  0.00    -0.270 OA
ATOM      6  C   UNL A   1      31.983  23.363  26.710  1.00  0.00     0.251 C 
ATOM      7  H   UNL A   1      32.449  22.414  28.411  1.00  0.00     0.163 HD
BRANCH   6   8
ATOM      8  C   UNL A   1      32.240  23.507  25.258  1.00  0.00     0.067 C 
ATOM      9  C   UNL A   1      32.810  24.649  24.846  1.00  0.00     0.026 C 
ATOM     10  C   UNL A   1      31.451  22.704  24.266  1.00  0.00     0.314 C 
ATOM     11  C   UNL A   1      31.758  25.525  24.259  1.00  0.00     0.027 A 
ATOM     12  O   UNL A   1      30.651  23.549  23.366  1.00  0.00    -0.475 OA
ATOM     13  C   UNL A   1      30.706  24.908  23.564  1.00  0.00     0.128 A 
ATOM     14  C   UNL A   1      31.743  26.908  24.576  1.00  0.00     0.011 A 
ATOM     15  C   UNL A   1      29.607  25.665  23.174  1.00  0.00     0.049 A 
ATOM     16  C   UNL A   1      30.613  27.645  24.197  1.00  0.00     0.049 A 
ATOM     17  C   UNL A   1      29.554  27.025  23.510  1.00  0.00     0.025 A 
ATOM     18  Cl  UNL A   1      30.443  29.312  24.609  1.00  0.00    -0.084 Cl
BRANCH  10  19
ATOM     19  C   UNL A   1      32.373  21.765  23.458  1.00  0.00     0.429 C 
ATOM     20  F   UNL A   1      33.656  22.200  23.397  1.00  0.00    -0.167 F 
ATOM     21  F   UNL A   1      32.405  20.524  23.999  1.00  0.00    -0.167 F 
ATOM     22  F   UNL A   1      31.962  21.629  22.173  1.00  0.00    -0.167 F 
ENDBRANCH  10  19
BRANCH  14  23
ATOM     23  C   UNL A   1      32.860  27.410  25.401  1.00  0.00    -0.016 A 
ATOM     24  C   UNL A   1      33.943  28.060  24.785  1.00  0.00     0.009 A 
ATOM     25  C   UNL A   1      32.671  27.580  26.784  1.00  0.00     0.009 A 
ATOM     26  C   UNL A   1      34.735  28.954  25.505  1.00  0.00     0.001 A 
ATOM     27  C   UNL A   1      33.458  28.483  27.500  1.00  0.00     0.001 A 
ATOM     28  C   UNL A   1      34.469  29.190  26.853  1.00  0.00     0.000 A 
ENDBRANCH  14  23
ENDBRANCH   6   8
ENDBRANCH   3   4
ENDBRANCH   2   3
ENDBRANCH   1   2
BRANCH   1  29
ATOM     29  N   UNL A   1      36.923  21.303  25.493  1.00  0.00    -0.352 N 
ATOM     30  C   UNL A   1      38.274  21.382  25.745  1.00  0.00     0.251 C 
ATOM     31  H   UNL A   1      36.652  20.460  25.064  1.00  0.00     0.163 HD
ATOM     32  O   UNL A   1      38.996  20.454  25.378  1.00  0.00    -0.269 OA
BRANCH  30  33
ATOM     33  C   UNL A   1      38.891  22.564  26.389  1.00  0.00     0.039 A 
ATOM     34  C   UNL A   1      39.966  22.378  27.268  1.00  0.00     0.014 A 
ATOM     35  C   UNL A   1      38.433  23.854  26.146  1.00  0.00     0.014 A 
ATOM     36  C   UNL A   1      40.645  23.484  27.793  1.00  0.00     0.010 A 
ATOM     37  C   UNL A   1      39.190  24.946  26.549  1.00  0.00     0.010 A 
ATOM     38  C   UNL A   1      40.307  24.781  27.379  1.00  0.00    -0.014 A 
BRANCH  38  39
ATOM     39  C   UNL A   1      41.088  25.984  27.779  1.00  0.00     0.031 A 
ATOM     40  C   UNL A   1      40.421  27.087  28.565  1.00  0.00     0.074 A 
ATOM     41  C   UNL A   1      42.343  26.157  27.313  1.00  0.00     0.049 A 
ATOM     42  N   UNL A   1      40.855  28.292  28.832  1.00  0.00    -0.248 NA
ATOM     43  C   UNL A   1      39.063  26.817  29.068  1.00  0.00     0.031 C 
ATOM     44  C   UNL A   1      43.074  25.212  26.465  1.00  0.00     0.029 A 
ATOM     45  N   UNL A   1      43.215  27.208  27.456  1.00  0.00    -0.354 N 
ATOM     46  C   UNL A   1      39.800  28.942  29.463  1.00  0.00     0.074 A 
ATOM     47  C   UNL A   1      38.694  28.013  29.505  1.00  0.00     0.031 C 
ATOM     48  C   UNL A   1      44.284  25.718  26.175  1.00  0.00     0.029 A 
ATOM     49  C   UNL A   1      44.402  27.040  26.780  1.00  0.00     0.049 A 
ATOM     50  H   UNL A   1      43.010  28.009  27.992  1.00  0.00     0.167 HD
ATOM     51  C   UNL A   1      39.764  30.187  29.996  1.00  0.00     0.034 A 
ATOM     52  C   UNL A   1      45.463  27.861  26.651  1.00  0.00     0.034 A 
ATOM     53  C   UNL A   1      40.897  31.068  30.043  1.00  0.00     0.049 A 
ATOM     54  C   UNL A   1      45.436  29.197  27.341  1.00  0.00     0.074 A 
ATOM     55  C   UNL A   1      41.004  32.302  30.659  1.00  0.00     0.029 A 
ATOM     56  N   UNL A   1      42.129  30.801  29.466  1.00  0.00    -0.354 N 
ATOM     57  N   UNL A   1      44.478  29.737  28.056  1.00  0.00    -0.248 NA
ATOM     58  C   UNL A   1      46.647  30.024  27.238  1.00  0.00     0.031 C 
ATOM     59  C   UNL A   1      42.302  32.782  30.453  1.00  0.00     0.029 A 
ATOM     60  C   UNL A   1      43.006  31.841  29.718  1.00  0.00     0.049 A 
ATOM     61  H   UNL A   1      42.348  29.990  28.952  1.00  0.00     0.167 HD
ATOM     62  C   UNL A   1      44.982  30.947  28.517  1.00  0.00     0.074 A 
ATOM     63  C   UNL A   1      46.339  31.051  28.018  1.00  0.00     0.031 C 
ATOM     64  C   UNL A   1      44.373  31.895  29.269  1.00  0.00     0.034 A 
BRANCH  51  65
ATOM     65  C   UNL A   1      38.478  30.635  30.644  1.00  0.00     0.023 A 
ATOM     66  C   UNL A   1      38.234  30.317  31.996  1.00  0.00     0.012 A 
ATOM     67  C   UNL A   1      37.534  31.404  29.935  1.00  0.00     0.148 A 
ATOM     68  C   UNL A   1      37.052  30.714  32.619  1.00  0.00     0.002 A 
ATOM     69  C   UNL A   1      36.378  31.837  30.577  1.00  0.00     0.091 A 
ATOM     70  F   UNL A   1      37.770  31.681  28.645  1.00  0.00    -0.205 F 
ATOM     71  C   UNL A   1      36.131  31.482  31.914  1.00  0.00     0.022 A 
BRANCH  69  72
ATOM     72  S   UNL A   1      35.167  32.899  29.782  1.00  0.00     0.127 S 
ATOM     73  O   UNL A   1      34.667  32.029  28.718  1.00  0.00    -0.237 OA
ATOM     74  O   UNL A   1      34.213  33.146  30.865  1.00  0.00    -0.237 OA
ATOM     75  O   UNL A   1      35.897  34.077  29.337  1.00  0.00    -0.744 OA
ENDBRANCH  69  72
ENDBRANCH  51  65
BRANCH  52  76
ATOM     76  C   UNL A   1      46.676  27.403  25.912  1.00  0.00     0.023 A 
ATOM     77  C   UNL A   1      46.774  27.667  24.531  1.00  0.00     0.012 A 
ATOM     78  C   UNL A   1      47.738  26.747  26.561  1.00  0.00     0.148 A 
ATOM     79  C   UNL A   1      47.892  27.256  23.804  1.00  0.00     0.002 A 
ATOM     80  C   UNL A   1      48.874  26.389  25.842  1.00  0.00     0.091 A 
ATOM     81  F   UNL A   1      47.624  26.495  27.874  1.00  0.00    -0.205 F 
ATOM     82  C   UNL A   1      48.945  26.627  24.460  1.00  0.00     0.022 A 
BRANCH  80  83
ATOM     83  S   UNL A   1      50.334  25.699  26.632  1.00  0.00     0.127 S 
ATOM     84  O   UNL A   1      51.247  25.557  25.500  1.00  0.00    -0.237 OA
ATOM     85  O   UNL A   1      50.691  26.752  27.584  1.00  0.00    -0.237 OA
ATOM     86  O   UNL A   1      49.890  24.459  27.253  1.00  0.00    -0.744 OA
ENDBRANCH  80  83
ENDBRANCH  52  76
BRANCH  64  87
ATOM     87  C   UNL A   1      45.174  33.115  29.640  1.00  0.00     0.023 A 
ATOM     88  C   UNL A   1      45.921  33.122  30.834  1.00  0.00     0.012 A 
ATOM     89  C   UNL A   1      45.251  34.216  28.766  1.00  0.00     0.148 A 
ATOM     90  C   UNL A   1      46.715  34.219  31.164  1.00  0.00     0.002 A 
ATOM     91  C   UNL A   1      46.080  35.286  29.079  1.00  0.00     0.091 A 
ATOM     92  F   UNL A   1      44.514  34.197  27.645  1.00  0.00    -0.205 F 
ATOM     93  C   UNL A   1      46.805  35.293  30.282  1.00  0.00     0.022 A 
BRANCH  91  94
ATOM     94  S   UNL A   1      46.330  36.666  27.957  1.00  0.00     0.127 S 
ATOM     95  O   UNL A   1      47.142  37.568  28.771  1.00  0.00    -0.237 OA
ATOM     96  O   UNL A   1      47.043  36.038  26.844  1.00  0.00    -0.237 OA
ATOM     97  O   UNL A   1      44.998  37.153  27.621  1.00  0.00    -0.744 OA
ENDBRANCH  91  94
ENDBRANCH  64  87
ENDBRANCH  38  39
ENDBRANCH  30  33
ENDBRANCH   1  29
TORSDOF 15
ENDMDL
MODEL 3
REMARK VINA RESULT:     -13.0      2.746      3.766
REMARK SMILES O=C(NCCCNC(=O)c1ccc(-c2c3nc(c(-c4cccc(S(=O)(=O)[O-])c4F)c4ccc([nH]4)c(-c4cccc(S(=O)(=O)[O-])c4F)c4nc(c(-c5cccc(S(=O)(=O)[O-])c5F)c5ccc2[nH]5)C=C4)C=C3)cc1)C1=Cc2c(ccc(Cl)c2-c2ccccc2)O[C@H]1C(F)(F)F
REMARK SMILES IDX 6 1 5 2 4 3 3 4 1 5 2 6 73 8 74 9 89 10 75 11 88 12 76 13
REMARK SMILES IDX 81 14 77 15 79 16 78 17 80 18 90 19 91 20 92 21 93 22 82 23
REMARK SMILES IDX 83 24 87 25 84 26 86 27 85 28 7 29 8 30 9 32 10 33 11 34
REMARK SMILES IDX 72 35 12 36 71 37 13 38 14 39 15 40 65 41 16 42 70 43 64 44
REMARK SMILES IDX 66 45 17 46 69 47 63 48 62 49 18 51 50 52 30 53 49 54 31 55
REMARK SMILES IDX 34 56 48 57 67 58 32 59 33 60 47 62 68 63 35 64 19 65 20 66
REMARK SMILES IDX 28 67 21 68 23 69 29 70 22 71 24 72 25 73 26 74 27 75 51 76
REMARK SMILES IDX 52 77 60 78 53 79 55 80 61 81 54 82 56 83 57 84 58 85 59 86
REMARK SMILES IDX 36 87 37 88 45 89 38 90 40 91 46 92 39 93 41 94 42 95 43 96
REMARK SMILES IDX 44 97
REMARK H PARENT 3 7 7 31 66 50 34 61
REMARK Flexibility Score: inf
ROOT
ATOM      1  C   UNL A   1      32.254  28.542  26.016  1.00  0.00     0.118 C 
ENDROOT
BRANCH   1   2
ATOM      2  C   UNL A   1      31.533  27.534  26.900  1.00  0.00     0.042 C 
BRANCH   2   3
ATOM      3  C   UNL A   1      30.837  26.426  26.131  1.00  0.00     0.118 C 
BRANCH   3   4
ATOM      4  N   UNL A   1      31.007  25.085  26.660  1.00  0.00    -0.352 N 
ATOM      5  O   UNL A   1      31.594  22.911  26.632  1.00  0.00    -0.270 OA
ATOM      6  C   UNL A   1      31.512  23.980  26.032  1.00  0.00     0.251 C 
ATOM      7  H   UNL A   1      30.721  24.954  27.593  1.00  0.00     0.163 HD
BRANCH   6   8
ATOM      8  C   UNL A   1      31.978  24.055  24.628  1.00  0.00     0.067 C 
ATOM      9  C   UNL A   1      32.260  22.899  24.011  1.00  0.00     0.026 C 
ATOM     10  C   UNL A   1      32.605  25.315  24.105  1.00  0.00     0.314 C 
ATOM     11  C   UNL A   1      33.738  22.717  23.988  1.00  0.00     0.027 A 
ATOM     12  O   UNL A   1      34.001  25.118  23.687  1.00  0.00    -0.475 OA
ATOM     13  C   UNL A   1      34.537  23.863  23.852  1.00  0.00     0.128 A 
ATOM     14  C   UNL A   1      34.290  21.445  24.291  1.00  0.00     0.011 A 
ATOM     15  C   UNL A   1      35.912  23.762  24.023  1.00  0.00     0.049 A 
ATOM     16  C   UNL A   1      35.676  21.373  24.486  1.00  0.00     0.049 A 
ATOM     17  C   UNL A   1      36.476  22.524  24.360  1.00  0.00     0.025 A 
ATOM     18  Cl  UNL A   1      36.447  19.900  24.948  1.00  0.00    -0.084 Cl
BRANCH  10  19
ATOM     19  C   UNL A   1      31.768  25.911  22.952  1.00  0.00     0.429 C 
ATOM     20  F   UNL A   1      32.174  25.492  21.728  1.00  0.00    -0.167 F 
ATOM     21  F   UNL A   1      30.462  25.572  23.068  1.00  0.00    -0.167 F 
ATOM     22  F   UNL A   1      31.828  27.265  22.925  1.00  0.00    -0.167 F 
ENDBRANCH  10  19
BRANCH  14  23
ATOM     23  C   UNL A   1      33.333  20.342  24.511  1.00  0.00    -0.016 A 
ATOM     24  C   UNL A   1      32.853  19.608  23.412  1.00  0.00     0.009 A 
ATOM     25  C   UNL A   1      33.200  19.793  25.797  1.00  0.00     0.009 A 
ATOM     26  C   UNL A   1      32.375  18.309  23.585  1.00  0.00     0.001 A 
ATOM     27  C   UNL A   1      32.731  18.489  25.966  1.00  0.00     0.001 A 
ATOM     28  C   UNL A   1      32.348  17.740  24.857  1.00  0.00     0.000 A 
ENDBRANCH  14  23
ENDBRANCH   6   8
ENDBRANCH   3   4
ENDBRANCH   2   3
ENDBRANCH   1   2
BRANCH   1  29
ATOM     29  N   UNL A   1      31.941  29.941  26.312  1.00  0.00    -0.352 N 
ATOM     30  C   UNL A   1      32.655  30.959  26.906  1.00  0.00     0.251 C 
ATOM     31  H   UNL A   1      31.037  30.210  26.027  1.00  0.00     0.163 HD
ATOM     32  O   UNL A   1      32.103  32.048  27.068  1.00  0.00    -0.269 OA
BRANCH  30  33
ATOM     33  C   UNL A   1      34.037  30.769  27.401  1.00  0.00     0.039 A 
ATOM     34  C   UNL A   1      34.838  31.895  27.631  1.00  0.00     0.014 A 
ATOM     35  C   UNL A   1      34.562  29.506  27.645  1.00  0.00     0.014 A 
ATOM     36  C   UNL A   1      36.102  31.751  28.216  1.00  0.00     0.010 A 
ATOM     37  C   UNL A   1      35.750  29.373  28.353  1.00  0.00     0.010 A 
ATOM     38  C   UNL A   1      36.540  30.492  28.650  1.00  0.00    -0.014 A 
BRANCH  38  39
ATOM     39  C   UNL A   1      37.802  30.296  29.415  1.00  0.00     0.031 A 
ATOM     40  C   UNL A   1      38.894  29.418  28.854  1.00  0.00     0.074 A 
ATOM     41  C   UNL A   1      37.908  30.779  30.671  1.00  0.00     0.049 A 
ATOM     42  N   UNL A   1      39.968  28.955  29.441  1.00  0.00    -0.248 NA
ATOM     43  C   UNL A   1      38.725  28.951  27.467  1.00  0.00     0.031 C 
ATOM     44  C   UNL A   1      36.889  31.566  31.370  1.00  0.00     0.029 A 
ATOM     45  N   UNL A   1      38.912  30.648  31.600  1.00  0.00    -0.354 N 
ATOM     46  C   UNL A   1      40.557  28.091  28.525  1.00  0.00     0.074 A 
ATOM     47  C   UNL A   1      39.702  28.062  27.359  1.00  0.00     0.031 C 
ATOM     48  C   UNL A   1      37.324  31.856  32.608  1.00  0.00     0.029 A 
ATOM     49  C   UNL A   1      38.632  31.245  32.807  1.00  0.00     0.049 A 
ATOM     50  H   UNL A   1      39.755  30.170  31.418  1.00  0.00     0.167 HD
ATOM     51  C   UNL A   1      41.724  27.410  28.625  1.00  0.00     0.034 A 
ATOM     52  C   UNL A   1      39.343  31.288  33.952  1.00  0.00     0.034 A 
ATOM     53  C   UNL A   1      42.620  27.522  29.742  1.00  0.00     0.049 A 
ATOM     54  C   UNL A   1      40.684  30.609  34.000  1.00  0.00     0.074 A 
ATOM     55  C   UNL A   1      43.878  26.968  29.896  1.00  0.00     0.029 A 
ATOM     56  N   UNL A   1      42.360  28.252  30.891  1.00  0.00    -0.354 N 
ATOM     57  N   UNL A   1      41.290  29.911  33.068  1.00  0.00    -0.248 NA
ATOM     58  C   UNL A   1      41.458  30.750  35.242  1.00  0.00     0.031 C 
ATOM     59  C   UNL A   1      44.380  27.364  31.140  1.00  0.00     0.029 A 
ATOM     60  C   UNL A   1      43.437  28.173  31.756  1.00  0.00     0.049 A 
ATOM     61  H   UNL A   1      41.531  28.754  31.067  1.00  0.00     0.167 HD
ATOM     62  C   UNL A   1      42.527  29.562  33.597  1.00  0.00     0.074 A 
ATOM     63  C   UNL A   1      42.593  30.144  34.923  1.00  0.00     0.031 C 
ATOM     64  C   UNL A   1      43.511  28.814  33.044  1.00  0.00     0.034 A 
BRANCH  51  65
ATOM     65  C   UNL A   1      42.134  26.548  27.458  1.00  0.00     0.023 A 
ATOM     66  C   UNL A   1      42.863  27.119  26.395  1.00  0.00     0.012 A 
ATOM     67  C   UNL A   1      41.841  25.170  27.431  1.00  0.00     0.148 A 
ATOM     68  C   UNL A   1      43.251  26.347  25.301  1.00  0.00     0.002 A 
ATOM     69  C   UNL A   1      42.273  24.396  26.358  1.00  0.00     0.091 A 
ATOM     70  F   UNL A   1      41.131  24.644  28.439  1.00  0.00    -0.205 F 
ATOM     71  C   UNL A   1      42.966  24.986  25.288  1.00  0.00     0.022 A 
BRANCH  69  72
ATOM     72  S   UNL A   1      42.028  22.618  26.285  1.00  0.00     0.127 S 
ATOM     73  O   UNL A   1      42.698  22.280  25.029  1.00  0.00    -0.237 OA
ATOM     74  O   UNL A   1      42.724  22.159  27.488  1.00  0.00    -0.237 OA
ATOM     75  O   UNL A   1      40.587  22.411  26.302  1.00  0.00    -0.744 OA
ENDBRANCH  69  72
ENDBRANCH  51  65
BRANCH  52  76
ATOM     76  C   UNL A   1      38.840  32.077  35.114  1.00  0.00     0.023 A 
ATOM     77  C   UNL A   1      38.817  33.483  35.025  1.00  0.00     0.012 A 
ATOM     78  C   UNL A   1      38.357  31.457  36.281  1.00  0.00     0.148 A 
ATOM     79  C   UNL A   1      38.353  34.258  36.089  1.00  0.00     0.002 A 
ATOM     80  C   UNL A   1      37.845  32.232  37.316  1.00  0.00     0.091 A 
ATOM     81  F   UNL A   1      38.396  30.118  36.353  1.00  0.00    -0.205 F 
ATOM     82  C   UNL A   1      37.858  33.633  37.229  1.00  0.00     0.022 A 
BRANCH  80  83
ATOM     83  S   UNL A   1      37.062  31.508  38.763  1.00  0.00     0.127 S 
ATOM     84  O   UNL A   1      38.074  31.728  39.793  1.00  0.00    -0.237 OA
ATOM     85  O   UNL A   1      35.856  32.325  38.898  1.00  0.00    -0.237 OA
ATOM     86  O   UNL A   1      36.804  30.118  38.410  1.00  0.00    -0.744 OA
ENDBRANCH  80  83
ENDBRANCH  52  76
BRANCH  64  87
ATOM     87  C   UNL A   1      44.768  28.608  33.846  1.00  0.00     0.023 A 
ATOM     88  C   UNL A   1      45.825  29.532  33.735  1.00  0.00     0.012 A 
ATOM     89  C   UNL A   1      44.865  27.549  34.769  1.00  0.00     0.148 A 
ATOM     90  C   UNL A   1      46.972  29.390  34.515  1.00  0.00     0.002 A 
ATOM     91  C   UNL A   1      45.992  27.440  35.576  1.00  0.00     0.091 A 
ATOM     92  F   UNL A   1      43.855  26.669  34.842  1.00  0.00    -0.205 F 
ATOM     93  C   UNL A   1      47.049  28.354  35.443  1.00  0.00     0.022 A 
BRANCH  91  94
ATOM     94  S   UNL A   1      46.132  26.195  36.862  1.00  0.00     0.127 S 
ATOM     95  O   UNL A   1      47.431  26.520  37.449  1.00  0.00    -0.237 OA
ATOM     96  O   UNL A   1      44.983  26.498  37.717  1.00  0.00    -0.237 OA
ATOM     97  O   UNL A   1      46.055  24.909  36.183  1.00  0.00    -0.744 OA
ENDBRANCH  91  94
ENDBRANCH  64  87
ENDBRANCH  38  39
ENDBRANCH  30  33
ENDBRANCH   1  29
TORSDOF 15
ENDMDL
