MODEL 1
REMARK VINA RESULT:     -11.9      0.000      0.000
REMARK SMILES COc1cc(NS(=O)(=O)c2cc(C)c(C(=O)NCCCNC(=O)c3ccc(-c4c5nc(c(-c6cccc(S(=O)(=O)[O-])c6F)c6ccc([nH]6)c(-c6cccc(S(=O)(=O)[O-])c6F)c6nc(c(-c7cccc(S(=O)(=O)[O-])c7F)c7ccc4[nH]7)C=C6)C=C5)cc3)s2)cc(OC)c1
REMARK SMILES IDX 18 1 17 2 15 3 16 4 14 6 10 7 11 8 87 9 12 10 13 11 7 12
REMARK SMILES IDX 8 13 9 14 6 15 5 17 3 18 4 19 92 20 89 21 88 22 2 23 1 24
REMARK SMILES IDX 90 25 91 26 19 27 20 28 21 29 22 30 23 32 24 33 25 34 86 35
REMARK SMILES IDX 26 36 85 37 27 38 28 39 29 40 79 41 30 42 84 43 78 44 80 45
REMARK SMILES IDX 31 46 83 47 77 48 76 49 32 51 64 52 44 53 63 54 45 55 48 56
REMARK SMILES IDX 62 57 81 58 46 59 47 60 61 62 82 63 49 64 33 65 34 66 42 67
REMARK SMILES IDX 35 68 37 69 43 70 36 71 38 72 39 73 40 74 41 75 65 76 66 77
REMARK SMILES IDX 74 78 67 79 69 80 75 81 68 82 70 83 71 84 72 85 73 86 50 87
REMARK SMILES IDX 51 88 59 89 52 90 54 91 60 92 53 93 55 94 56 95 57 96 58 97
REMARK H PARENT 17 5 6 16 21 31 80 50 48 61
REMARK Flexibility Score: inf
ROOT
ATOM      1  C   UNL A   1      35.804  20.254  25.275  1.00  0.00     0.118 C 
ENDROOT
BRANCH   1   2
ATOM      2  N   UNL A   1      35.200  21.284  26.093  1.00  0.00    -0.351 N 
ATOM      3  C   UNL A   1      34.401  22.364  25.818  1.00  0.00     0.261 C 
ATOM      4  O   UNL A   1      34.097  23.024  26.818  1.00  0.00    -0.268 OA
ATOM      5  H   UNL A   1      35.407  21.189  27.051  1.00  0.00     0.163 HD
BRANCH   3   6
ATOM      6  C   UNL A   1      33.864  22.654  24.489  1.00  0.00     0.096 A 
ATOM      7  C   UNL A   1      33.356  24.074  22.510  1.00  0.00     0.141 A 
ATOM      8  C   UNL A   1      32.774  22.830  22.426  1.00  0.00     0.038 A 
ATOM      9  S   UNL A   1      34.439  24.151  23.812  1.00  0.00    -0.116 S 
ATOM     10  C   UNL A   1      33.040  21.999  23.573  1.00  0.00    -0.026 A 
ATOM     11  C   UNL A   1      32.442  20.635  23.651  1.00  0.00     0.046 C 
BRANCH   7  12
ATOM     12  S   UNL A   1      33.060  25.569  21.595  1.00  0.00     0.271 S 
ATOM     13  O   UNL A   1      32.918  25.160  20.214  1.00  0.00    -0.200 OA
ATOM     14  O   UNL A   1      34.043  26.549  22.000  1.00  0.00    -0.200 OA
BRANCH  12  15
ATOM     15  N   UNL A   1      31.545  26.124  22.084  1.00  0.00    -0.279 N 
ATOM     16  H   UNL A   1      30.803  26.089  21.439  1.00  0.00     0.180 HD
BRANCH  15  17
ATOM     17  C   UNL A   1      31.285  26.648  23.396  1.00  0.00     0.056 A 
ATOM     18  C   UNL A   1      31.564  28.323  25.136  1.00  0.00     0.124 A 
ATOM     19  C   UNL A   1      31.557  27.958  23.789  1.00  0.00     0.073 A 
ATOM     20  C   UNL A   1      31.186  27.403  26.107  1.00  0.00     0.093 A 
ATOM     21  C   UNL A   1      30.841  26.106  25.727  1.00  0.00     0.124 A 
ATOM     22  C   UNL A   1      30.934  25.724  24.382  1.00  0.00     0.073 A 
BRANCH  18  23
ATOM     23  O   UNL A   1      31.932  29.617  25.396  1.00  0.00    -0.497 OA
ATOM     24  C   UNL A   1      33.155  29.749  26.116  1.00  0.00     0.278 C 
ENDBRANCH  18  23
BRANCH  21  25
ATOM     25  O   UNL A   1      30.430  25.116  26.579  1.00  0.00    -0.497 OA
ATOM     26  C   UNL A   1      30.748  23.785  26.189  1.00  0.00     0.278 C 
ENDBRANCH  21  25
ENDBRANCH  15  17
ENDBRANCH  12  15
ENDBRANCH   7  12
ENDBRANCH   3   6
ENDBRANCH   1   2
BRANCH   1  27
ATOM     27  C   UNL A   1      36.943  20.838  24.441  1.00  0.00     0.042 C 
BRANCH  27  28
ATOM     28  C   UNL A   1      37.987  21.590  25.264  1.00  0.00     0.118 C 
BRANCH  28  29
ATOM     29  N   UNL A   1      38.857  20.686  25.999  1.00  0.00    -0.352 N 
ATOM     30  C   UNL A   1      40.026  20.943  26.676  1.00  0.00     0.251 C 
ATOM     31  H   UNL A   1      38.565  19.746  26.014  1.00  0.00     0.163 HD
ATOM     32  O   UNL A   1      40.725  19.995  27.029  1.00  0.00    -0.269 OA
BRANCH  30  33
ATOM     33  C   UNL A   1      40.461  22.331  26.973  1.00  0.00     0.039 A 
ATOM     34  C   UNL A   1      41.359  22.546  28.025  1.00  0.00     0.014 A 
ATOM     35  C   UNL A   1      39.950  23.429  26.275  1.00  0.00     0.014 A 
ATOM     36  C   UNL A   1      41.779  23.844  28.341  1.00  0.00     0.010 A 
ATOM     37  C   UNL A   1      40.424  24.714  26.541  1.00  0.00     0.010 A 
ATOM     38  C   UNL A   1      41.332  24.939  27.586  1.00  0.00    -0.014 A 
BRANCH  38  39
ATOM     39  C   UNL A   1      41.781  26.326  27.882  1.00  0.00     0.031 A 
ATOM     40  C   UNL A   1      43.185  26.757  27.541  1.00  0.00     0.074 A 
ATOM     41  C   UNL A   1      40.965  27.173  28.540  1.00  0.00     0.049 A 
ATOM     42  N   UNL A   1      43.789  27.887  27.805  1.00  0.00    -0.248 NA
ATOM     43  C   UNL A   1      44.028  25.780  26.833  1.00  0.00     0.031 C 
ATOM     44  C   UNL A   1      39.609  26.860  28.994  1.00  0.00     0.029 A 
ATOM     45  N   UNL A   1      41.168  28.462  28.969  1.00  0.00    -0.354 N 
ATOM     46  C   UNL A   1      45.091  27.739  27.346  1.00  0.00     0.074 A 
ATOM     47  C   UNL A   1      45.198  26.403  26.801  1.00  0.00     0.031 C 
ATOM     48  C   UNL A   1      39.103  27.925  29.637  1.00  0.00     0.029 A 
ATOM     49  C   UNL A   1      40.102  28.989  29.662  1.00  0.00     0.049 A 
ATOM     50  H   UNL A   1      41.998  28.963  28.796  1.00  0.00     0.167 HD
ATOM     51  C   UNL A   1      46.102  28.641  27.347  1.00  0.00     0.034 A 
ATOM     52  C   UNL A   1      39.947  30.191  30.250  1.00  0.00     0.034 A 
ATOM     53  C   UNL A   1      45.978  29.995  27.813  1.00  0.00     0.049 A 
ATOM     54  C   UNL A   1      41.057  31.203  30.165  1.00  0.00     0.074 A 
ATOM     55  C   UNL A   1      46.917  31.012  27.763  1.00  0.00     0.029 A 
ATOM     56  N   UNL A   1      44.842  30.527  28.401  1.00  0.00    -0.354 N 
ATOM     57  N   UNL A   1      42.228  31.093  29.588  1.00  0.00    -0.248 NA
ATOM     58  C   UNL A   1      40.811  32.517  30.779  1.00  0.00     0.031 C 
ATOM     59  C   UNL A   1      46.343  32.162  28.316  1.00  0.00     0.029 A 
ATOM     60  C   UNL A   1      45.051  31.859  28.714  1.00  0.00     0.049 A 
ATOM     61  H   UNL A   1      44.009  30.031  28.571  1.00  0.00     0.167 HD
ATOM     62  C   UNL A   1      42.848  32.328  29.743  1.00  0.00     0.074 A 
ATOM     63  C   UNL A   1      41.913  33.180  30.450  1.00  0.00     0.031 C 
ATOM     64  C   UNL A   1      44.088  32.714  29.355  1.00  0.00     0.034 A 
BRANCH  51  65
ATOM     65  C   UNL A   1      47.416  28.216  26.748  1.00  0.00     0.023 A 
ATOM     66  C   UNL A   1      48.505  27.956  27.603  1.00  0.00     0.012 A 
ATOM     67  C   UNL A   1      47.561  28.019  25.362  1.00  0.00     0.148 A 
ATOM     68  C   UNL A   1      49.728  27.532  27.086  1.00  0.00     0.002 A 
ATOM     69  C   UNL A   1      48.774  27.564  24.856  1.00  0.00     0.091 A 
ATOM     70  F   UNL A   1      46.522  28.299  24.560  1.00  0.00    -0.205 F 
ATOM     71  C   UNL A   1      49.860  27.327  25.715  1.00  0.00     0.022 A 
BRANCH  69  72
ATOM     72  S   UNL A   1      49.012  27.213  23.110  1.00  0.00     0.127 S 
ATOM     73  O   UNL A   1      48.304  25.943  22.964  1.00  0.00    -0.237 OA
ATOM     74  O   UNL A   1      48.356  28.353  22.467  1.00  0.00    -0.237 OA
ATOM     75  O   UNL A   1      50.454  27.162  22.913  1.00  0.00    -0.744 OA
ENDBRANCH  69  72
ENDBRANCH  51  65
BRANCH  52  76
ATOM     76  C   UNL A   1      38.647  30.535  30.893  1.00  0.00     0.023 A 
ATOM     77  C   UNL A   1      38.458  30.230  32.256  1.00  0.00     0.012 A 
ATOM     78  C   UNL A   1      37.625  31.199  30.190  1.00  0.00     0.148 A 
ATOM     79  C   UNL A   1      37.267  30.563  32.901  1.00  0.00     0.002 A 
ATOM     80  C   UNL A   1      36.460  31.572  30.854  1.00  0.00     0.091 A 
ATOM     81  F   UNL A   1      37.810  31.463  28.889  1.00  0.00    -0.205 F 
ATOM     82  C   UNL A   1      36.273  31.244  32.204  1.00  0.00     0.022 A 
BRANCH  80  83
ATOM     83  S   UNL A   1      35.203  32.576  30.051  1.00  0.00     0.127 S 
ATOM     84  O   UNL A   1      34.732  31.684  28.995  1.00  0.00    -0.237 OA
ATOM     85  O   UNL A   1      34.246  32.807  31.133  1.00  0.00    -0.237 OA
ATOM     86  O   UNL A   1      35.904  33.777  29.616  1.00  0.00    -0.744 OA
ENDBRANCH  80  83
ENDBRANCH  52  76
BRANCH  64  87
ATOM     87  C   UNL A   1      44.509  34.125  29.661  1.00  0.00     0.023 A 
ATOM     88  C   UNL A   1      45.152  34.400  30.885  1.00  0.00     0.012 A 
ATOM     89  C   UNL A   1      44.349  35.154  28.715  1.00  0.00     0.148 A 
ATOM     90  C   UNL A   1      45.615  35.685  31.166  1.00  0.00     0.002 A 
ATOM     91  C   UNL A   1      44.844  36.425  28.988  1.00  0.00     0.091 A 
ATOM     92  F   UNL A   1      43.712  34.879  27.567  1.00  0.00    -0.205 F 
ATOM     93  C   UNL A   1      45.472  36.693  30.215  1.00  0.00     0.022 A 
BRANCH  91  94
ATOM     94  S   UNL A   1      44.769  37.749  27.776  1.00  0.00     0.127 S 
ATOM     95  O   UNL A   1      45.584  37.208  26.691  1.00  0.00    -0.237 OA
ATOM     96  O   UNL A   1      43.338  37.831  27.481  1.00  0.00    -0.237 OA
ATOM     97  O   UNL A   1      45.307  38.923  28.451  1.00  0.00    -0.744 OA
ENDBRANCH  91  94
ENDBRANCH  64  87
ENDBRANCH  38  39
ENDBRANCH  30  33
ENDBRANCH  28  29
ENDBRANCH  27  28
ENDBRANCH   1  27
TORSDOF 18
ENDMDL
MODEL 2
REMARK VINA RESULT:     -11.7      5.065     10.604
REMARK SMILES COc1cc(NS(=O)(=O)c2cc(C)c(C(=O)NCCCNC(=O)c3ccc(-c4c5nc(c(-c6cccc(S(=O)(=O)[O-])c6F)c6ccc([nH]6)c(-c6cccc(S(=O)(=O)[O-])c6F)c6nc(c(-c7cccc(S(=O)(=O)[O-])c7F)c7ccc4[nH]7)C=C6)C=C5)cc3)s2)cc(OC)c1
REMARK SMILES IDX 18 1 17 2 15 3 16 4 14 6 10 7 11 8 87 9 12 10 13 11 7 12
REMARK SMILES IDX 8 13 9 14 6 15 5 17 3 18 4 19 92 20 89 21 88 22 2 23 1 24
REMARK SMILES IDX 90 25 91 26 19 27 20 28 21 29 22 30 23 32 24 33 25 34 86 35
REMARK SMILES IDX 26 36 85 37 27 38 28 39 29 40 79 41 30 42 84 43 78 44 80 45
REMARK SMILES IDX 31 46 83 47 77 48 76 49 32 51 64 52 44 53 63 54 45 55 48 56
REMARK SMILES IDX 62 57 81 58 46 59 47 60 61 62 82 63 49 64 33 65 34 66 42 67
REMARK SMILES IDX 35 68 37 69 43 70 36 71 38 72 39 73 40 74 41 75 65 76 66 77
REMARK SMILES IDX 74 78 67 79 69 80 75 81 68 82 70 83 71 84 72 85 73 86 50 87
REMARK SMILES IDX 51 88 59 89 52 90 54 91 60 92 53 93 55 94 56 95 57 96 58 97
REMARK H PARENT 17 5 6 16 21 31 80 50 48 61
REMARK Flexibility Score: inf
ROOT
ATOM      1  C   UNL A   1      31.051  30.788  25.421  1.00  0.00     0.118 C 
ENDROOT
BRANCH   1   2
ATOM      2  N   UNL A   1      32.255  30.077  25.049  1.00  0.00    -0.351 N 
ATOM      3  C   UNL A   1      32.559  28.749  24.889  1.00  0.00     0.261 C 
ATOM      4  O   UNL A   1      33.734  28.545  24.566  1.00  0.00    -0.268 OA
ATOM      5  H   UNL A   1      33.019  30.673  24.874  1.00  0.00     0.163 HD
BRANCH   3   6
ATOM      6  C   UNL A   1      31.568  27.677  24.982  1.00  0.00     0.096 A 
ATOM      7  C   UNL A   1      30.593  25.562  25.856  1.00  0.00     0.141 A 
ATOM      8  C   UNL A   1      29.894  26.055  24.778  1.00  0.00     0.038 A 
ATOM      9  S   UNL A   1      31.741  26.684  26.401  1.00  0.00    -0.116 S 
ATOM     10  C   UNL A   1      30.455  27.270  24.245  1.00  0.00    -0.026 A 
ATOM     11  C   UNL A   1      29.835  27.906  23.047  1.00  0.00     0.046 C 
BRANCH   7  12
ATOM     12  S   UNL A   1      30.569  23.964  26.634  1.00  0.00     0.271 S 
ATOM     13  O   UNL A   1      29.285  23.870  27.294  1.00  0.00    -0.200 OA
ATOM     14  O   UNL A   1      31.810  23.795  27.357  1.00  0.00    -0.200 OA
BRANCH  12  15
ATOM     15  N   UNL A   1      30.544  22.835  25.382  1.00  0.00    -0.279 N 
ATOM     16  H   UNL A   1      29.678  22.613  24.969  1.00  0.00     0.180 HD
BRANCH  15  17
ATOM     17  C   UNL A   1      31.722  22.179  24.890  1.00  0.00     0.056 A 
ATOM     18  C   UNL A   1      33.317  20.343  24.884  1.00  0.00     0.124 A 
ATOM     19  C   UNL A   1      32.036  20.841  25.127  1.00  0.00     0.073 A 
ATOM     20  C   UNL A   1      34.276  21.156  24.290  1.00  0.00     0.093 A 
ATOM     21  C   UNL A   1      33.960  22.478  23.978  1.00  0.00     0.124 A 
ATOM     22  C   UNL A   1      32.702  22.993  24.319  1.00  0.00     0.073 A 
BRANCH  18  23
ATOM     23  O   UNL A   1      33.522  19.037  25.241  1.00  0.00    -0.497 OA
ATOM     24  C   UNL A   1      32.738  18.095  24.512  1.00  0.00     0.278 C 
ENDBRANCH  18  23
BRANCH  21  25
ATOM     25  O   UNL A   1      34.803  23.371  23.373  1.00  0.00    -0.497 OA
ATOM     26  C   UNL A   1      36.188  23.051  23.419  1.00  0.00     0.278 C 
ENDBRANCH  21  25
ENDBRANCH  15  17
ENDBRANCH  12  15
ENDBRANCH   7  12
ENDBRANCH   3   6
ENDBRANCH   1   2
BRANCH   1  27
ATOM     27  C   UNL A   1      31.277  31.579  26.708  1.00  0.00     0.042 C 
BRANCH  27  28
ATOM     28  C   UNL A   1      32.749  31.818  27.034  1.00  0.00     0.118 C 
BRANCH  28  29
ATOM     29  N   UNL A   1      33.060  33.234  27.152  1.00  0.00    -0.352 N 
ATOM     30  C   UNL A   1      34.035  33.864  27.888  1.00  0.00     0.251 C 
ATOM     31  H   UNL A   1      32.483  33.832  26.625  1.00  0.00     0.163 HD
ATOM     32  O   UNL A   1      33.974  35.084  28.028  1.00  0.00    -0.269 OA
BRANCH  30  33
ATOM     33  C   UNL A   1      35.142  33.104  28.522  1.00  0.00     0.039 A 
ATOM     34  C   UNL A   1      36.443  33.613  28.440  1.00  0.00     0.014 A 
ATOM     35  C   UNL A   1      34.928  31.868  29.139  1.00  0.00     0.014 A 
ATOM     36  C   UNL A   1      37.512  32.914  29.015  1.00  0.00     0.010 A 
ATOM     37  C   UNL A   1      35.981  31.208  29.775  1.00  0.00     0.010 A 
ATOM     38  C   UNL A   1      37.287  31.715  29.708  1.00  0.00    -0.014 A 
BRANCH  38  39
ATOM     39  C   UNL A   1      38.399  30.964  30.351  1.00  0.00     0.031 A 
ATOM     40  C   UNL A   1      38.821  31.294  31.760  1.00  0.00     0.074 A 
ATOM     41  C   UNL A   1      39.093  30.051  29.643  1.00  0.00     0.049 A 
ATOM     42  N   UNL A   1      39.823  30.820  32.454  1.00  0.00    -0.248 NA
ATOM     43  C   UNL A   1      38.028  32.309  32.473  1.00  0.00     0.031 C 
ATOM     44  C   UNL A   1      38.837  29.689  28.248  1.00  0.00     0.029 A 
ATOM     45  N   UNL A   1      40.176  29.281  29.992  1.00  0.00    -0.354 N 
ATOM     46  C   UNL A   1      39.813  31.512  33.659  1.00  0.00     0.074 A 
ATOM     47  C   UNL A   1      38.716  32.452  33.597  1.00  0.00     0.031 C 
ATOM     48  C   UNL A   1      39.737  28.770  27.860  1.00  0.00     0.029 A 
ATOM     49  C   UNL A   1      40.647  28.493  28.967  1.00  0.00     0.049 A 
ATOM     50  H   UNL A   1      40.578  29.293  30.890  1.00  0.00     0.167 HD
ATOM     51  C   UNL A   1      40.623  31.360  34.734  1.00  0.00     0.034 A 
ATOM     52  C   UNL A   1      41.691  27.643  28.924  1.00  0.00     0.034 A 
ATOM     53  C   UNL A   1      41.662  30.372  34.832  1.00  0.00     0.049 A 
ATOM     54  C   UNL A   1      42.524  27.433  30.160  1.00  0.00     0.074 A 
ATOM     55  C   UNL A   1      42.469  30.076  35.918  1.00  0.00     0.029 A 
ATOM     56  N   UNL A   1      42.030  29.509  33.812  1.00  0.00    -0.354 N 
ATOM     57  N   UNL A   1      42.399  27.989  31.340  1.00  0.00    -0.248 NA
ATOM     58  C   UNL A   1      43.618  26.454  30.070  1.00  0.00     0.031 C 
ATOM     59  C   UNL A   1      43.321  29.027  35.554  1.00  0.00     0.029 A 
ATOM     60  C   UNL A   1      43.048  28.676  34.242  1.00  0.00     0.049 A 
ATOM     61  H   UNL A   1      41.627  29.492  32.914  1.00  0.00     0.167 HD
ATOM     62  C   UNL A   1      43.377  27.408  32.140  1.00  0.00     0.074 A 
ATOM     63  C   UNL A   1      44.073  26.441  31.316  1.00  0.00     0.031 C 
ATOM     64  C   UNL A   1      43.684  27.670  33.434  1.00  0.00     0.034 A 
BRANCH  51  65
ATOM     65  C   UNL A   1      40.362  32.234  35.931  1.00  0.00     0.023 A 
ATOM     66  C   UNL A   1      41.176  33.364  36.145  1.00  0.00     0.012 A 
ATOM     67  C   UNL A   1      39.290  31.977  36.807  1.00  0.00     0.148 A 
ATOM     68  C   UNL A   1      40.944  34.212  37.227  1.00  0.00     0.002 A 
ATOM     69  C   UNL A   1      39.044  32.846  37.865  1.00  0.00     0.091 A 
ATOM     70  F   UNL A   1      38.542  30.881  36.605  1.00  0.00    -0.205 F 
ATOM     71  C   UNL A   1      39.874  33.959  38.080  1.00  0.00     0.022 A 
BRANCH  69  72
ATOM     72  S   UNL A   1      37.648  32.630  38.976  1.00  0.00     0.127 S 
ATOM     73  O   UNL A   1      37.878  33.695  39.950  1.00  0.00    -0.237 OA
ATOM     74  O   UNL A   1      36.503  32.852  38.090  1.00  0.00    -0.237 OA
ATOM     75  O   UNL A   1      37.757  31.270  39.484  1.00  0.00    -0.744 OA
ENDBRANCH  69  72
ENDBRANCH  51  65
BRANCH  52  76
ATOM     76  C   UNL A   1      41.949  26.854  27.686  1.00  0.00     0.023 A 
ATOM     77  C   UNL A   1      42.526  27.498  26.574  1.00  0.00     0.012 A 
ATOM     78  C   UNL A   1      41.678  25.474  27.616  1.00  0.00     0.148 A 
ATOM     79  C   UNL A   1      42.810  26.787  25.408  1.00  0.00     0.002 A 
ATOM     80  C   UNL A   1      42.010  24.762  26.468  1.00  0.00     0.091 A 
ATOM     81  F   UNL A   1      41.108  24.880  28.674  1.00  0.00    -0.205 F 
ATOM     82  C   UNL A   1      42.564  25.418  25.358  1.00  0.00     0.022 A 
BRANCH  80  83
ATOM     83  S   UNL A   1      41.849  22.973  26.393  1.00  0.00     0.127 S 
ATOM     84  O   UNL A   1      42.577  22.554  27.586  1.00  0.00    -0.237 OA
ATOM     85  O   UNL A   1      40.400  22.785  26.458  1.00  0.00    -0.237 OA
ATOM     86  O   UNL A   1      42.437  22.598  25.113  1.00  0.00    -0.744 OA
ENDBRANCH  80  83
ENDBRANCH  52  76
BRANCH  64  87
ATOM     87  C   UNL A   1      44.808  26.889  34.057  1.00  0.00     0.023 A 
ATOM     88  C   UNL A   1      46.129  27.362  33.929  1.00  0.00     0.012 A 
ATOM     89  C   UNL A   1      44.554  25.744  34.835  1.00  0.00     0.148 A 
ATOM     90  C   UNL A   1      47.182  26.696  34.554  1.00  0.00     0.002 A 
ATOM     91  C   UNL A   1      45.606  25.105  35.484  1.00  0.00     0.091 A 
ATOM     92  F   UNL A   1      43.294  25.293  34.925  1.00  0.00    -0.205 F 
ATOM     93  C   UNL A   1      46.920  25.576  35.341  1.00  0.00     0.022 A 
BRANCH  91  94
ATOM     94  S   UNL A   1      45.330  23.707  36.579  1.00  0.00     0.127 S 
ATOM     95  O   UNL A   1      46.697  23.298  36.893  1.00  0.00    -0.237 OA
ATOM     96  O   UNL A   1      44.604  24.313  37.696  1.00  0.00    -0.237 OA
ATOM     97  O   UNL A   1      44.544  22.756  35.803  1.00  0.00    -0.744 OA
ENDBRANCH  91  94
ENDBRANCH  64  87
ENDBRANCH  38  39
ENDBRANCH  30  33
ENDBRANCH  28  29
ENDBRANCH  27  28
ENDBRANCH   1  27
TORSDOF 18
ENDMDL
MODEL 3
REMARK VINA RESULT:     -11.7      4.870      7.843
REMARK SMILES COc1cc(NS(=O)(=O)c2cc(C)c(C(=O)NCCCNC(=O)c3ccc(-c4c5nc(c(-c6cccc(S(=O)(=O)[O-])c6F)c6ccc([nH]6)c(-c6cccc(S(=O)(=O)[O-])c6F)c6nc(c(-c7cccc(S(=O)(=O)[O-])c7F)c7ccc4[nH]7)C=C6)C=C5)cc3)s2)cc(OC)c1
REMARK SMILES IDX 18 1 17 2 15 3 16 4 14 6 10 7 11 8 87 9 12 10 13 11 7 12
REMARK SMILES IDX 8 13 9 14 6 15 5 17 3 18 4 19 92 20 89 21 88 22 2 23 1 24
REMARK SMILES IDX 90 25 91 26 19 27 20 28 21 29 22 30 23 32 24 33 25 34 86 35
REMARK SMILES IDX 26 36 85 37 27 38 28 39 29 40 79 41 30 42 84 43 78 44 80 45
REMARK SMILES IDX 31 46 83 47 77 48 76 49 32 51 64 52 44 53 63 54 45 55 48 56
REMARK SMILES IDX 62 57 81 58 46 59 47 60 61 62 82 63 49 64 33 65 34 66 42 67
REMARK SMILES IDX 35 68 37 69 43 70 36 71 38 72 39 73 40 74 41 75 65 76 66 77
REMARK SMILES IDX 74 78 67 79 69 80 75 81 68 82 70 83 71 84 72 85 73 86 50 87
REMARK SMILES IDX 51 88 59 89 52 90 54 91 60 92 53 93 55 94 56 95 57 96 58 97
REMARK H PARENT 17 5 6 16 21 31 80 50 48 61
REMARK Flexibility Score: inf
ROOT
ATOM      1  C   UNL A   1      33.824  27.890  22.932  1.00  0.00     0.118 C 
ENDROOT
BRANCH   1   2
ATOM      2  N   UNL A   1      32.986  27.266  21.930  1.00  0.00    -0.351 N 
ATOM      3  C   UNL A   1      31.887  26.449  21.991  1.00  0.00     0.261 C 
ATOM      4  O   UNL A   1      31.456  26.114  20.882  1.00  0.00    -0.268 OA
ATOM      5  H   UNL A   1      33.265  27.473  21.009  1.00  0.00     0.163 HD
BRANCH   3   6
ATOM      6  C   UNL A   1      31.214  26.091  23.240  1.00  0.00     0.096 A 
ATOM      7  C   UNL A   1      30.787  24.719  25.270  1.00  0.00     0.141 A 
ATOM      8  C   UNL A   1      29.848  25.711  25.101  1.00  0.00     0.038 A 
ATOM      9  S   UNL A   1      32.075  24.909  24.184  1.00  0.00    -0.116 S 
ATOM     10  C   UNL A   1      30.067  26.504  23.918  1.00  0.00    -0.026 A 
ATOM     11  C   UNL A   1      29.109  27.593  23.572  1.00  0.00     0.046 C 
BRANCH   7  12
ATOM     12  S   UNL A   1      30.788  23.274  26.305  1.00  0.00     0.271 S 
ATOM     13  O   UNL A   1      30.762  22.145  25.400  1.00  0.00    -0.200 OA
ATOM     14  O   UNL A   1      29.783  23.450  27.329  1.00  0.00    -0.200 OA
BRANCH  12  15
ATOM     15  N   UNL A   1      32.295  23.241  27.061  1.00  0.00    -0.279 N 
ATOM     16  H   UNL A   1      32.385  23.668  27.944  1.00  0.00     0.180 HD
BRANCH  15  17
ATOM     17  C   UNL A   1      33.453  22.624  26.481  1.00  0.00     0.056 A 
ATOM     18  C   UNL A   1      35.602  22.724  25.346  1.00  0.00     0.124 A 
ATOM     19  C   UNL A   1      34.634  23.299  26.170  1.00  0.00     0.073 A 
ATOM     20  C   UNL A   1      35.452  21.413  24.909  1.00  0.00     0.093 A 
ATOM     21  C   UNL A   1      34.312  20.695  25.268  1.00  0.00     0.124 A 
ATOM     22  C   UNL A   1      33.301  21.318  26.013  1.00  0.00     0.073 A 
BRANCH  18  23
ATOM     23  O   UNL A   1      36.674  23.523  25.045  1.00  0.00    -0.497 OA
ATOM     24  C   UNL A   1      37.576  23.734  26.129  1.00  0.00     0.278 C 
ENDBRANCH  18  23
BRANCH  21  25
ATOM     25  O   UNL A   1      34.055  19.395  24.924  1.00  0.00    -0.497 OA
ATOM     26  C   UNL A   1      32.863  19.169  24.181  1.00  0.00     0.278 C 
ENDBRANCH  21  25
ENDBRANCH  15  17
ENDBRANCH  12  15
ENDBRANCH   7  12
ENDBRANCH   3   6
ENDBRANCH   1   2
BRANCH   1  27
ATOM     27  C   UNL A   1      33.111  29.091  23.549  1.00  0.00     0.042 C 
BRANCH  27  28
ATOM     28  C   UNL A   1      33.249  29.177  25.067  1.00  0.00     0.118 C 
BRANCH  28  29
ATOM     29  N   UNL A   1      32.690  30.411  25.597  1.00  0.00    -0.352 N 
ATOM     30  C   UNL A   1      33.032  31.122  26.723  1.00  0.00     0.251 C 
ATOM     31  H   UNL A   1      31.954  30.796  25.069  1.00  0.00     0.163 HD
ATOM     32  O   UNL A   1      32.278  32.010  27.113  1.00  0.00    -0.269 OA
BRANCH  30  33
ATOM     33  C   UNL A   1      34.278  30.829  27.477  1.00  0.00     0.039 A 
ATOM     34  C   UNL A   1      35.230  31.844  27.626  1.00  0.00     0.014 A 
ATOM     35  C   UNL A   1      34.551  29.555  27.982  1.00  0.00     0.014 A 
ATOM     36  C   UNL A   1      36.422  31.598  28.319  1.00  0.00     0.010 A 
ATOM     37  C   UNL A   1      35.704  29.329  28.735  1.00  0.00     0.010 A 
ATOM     38  C   UNL A   1      36.660  30.342  28.900  1.00  0.00    -0.014 A 
BRANCH  38  39
ATOM     39  C   UNL A   1      37.905  30.059  29.663  1.00  0.00     0.031 A 
ATOM     40  C   UNL A   1      38.940  29.116  29.103  1.00  0.00     0.074 A 
ATOM     41  C   UNL A   1      38.068  30.570  30.899  1.00  0.00     0.049 A 
ATOM     42  N   UNL A   1      40.038  28.672  29.658  1.00  0.00    -0.248 NA
ATOM     43  C   UNL A   1      38.694  28.583  27.753  1.00  0.00     0.031 C 
ATOM     44  C   UNL A   1      37.111  31.436  31.590  1.00  0.00     0.029 A 
ATOM     45  N   UNL A   1      39.086  30.411  31.808  1.00  0.00    -0.354 N 
ATOM     46  C   UNL A   1      40.584  27.772  28.752  1.00  0.00     0.074 A 
ATOM     47  C   UNL A   1      39.689  27.719  27.616  1.00  0.00     0.031 C 
ATOM     48  C   UNL A   1      37.586  31.731  32.811  1.00  0.00     0.029 A 
ATOM     49  C   UNL A   1      38.869  31.060  33.002  1.00  0.00     0.049 A 
ATOM     50  H   UNL A   1      39.896  29.883  31.623  1.00  0.00     0.167 HD
ATOM     51  C   UNL A   1      41.743  27.074  28.839  1.00  0.00     0.034 A 
ATOM     52  C   UNL A   1      39.616  31.109  34.122  1.00  0.00     0.034 A 
ATOM     53  C   UNL A   1      42.675  27.185  29.926  1.00  0.00     0.049 A 
ATOM     54  C   UNL A   1      40.937  30.390  34.160  1.00  0.00     0.074 A 
ATOM     55  C   UNL A   1      43.920  26.594  30.057  1.00  0.00     0.029 A 
ATOM     56  N   UNL A   1      42.472  27.947  31.066  1.00  0.00    -0.354 N 
ATOM     57  N   UNL A   1      41.507  29.667  33.228  1.00  0.00    -0.248 NA
ATOM     58  C   UNL A   1      41.735  30.523  35.389  1.00  0.00     0.031 C 
ATOM     59  C   UNL A   1      44.473  27.007  31.274  1.00  0.00     0.029 A 
ATOM     60  C   UNL A   1      43.570  27.848  31.903  1.00  0.00     0.049 A 
ATOM     61  H   UNL A   1      41.665  28.480  31.253  1.00  0.00     0.167 HD
ATOM     62  C   UNL A   1      42.740  29.283  33.743  1.00  0.00     0.074 A 
ATOM     63  C   UNL A   1      42.844  29.871  35.063  1.00  0.00     0.031 C 
ATOM     64  C   UNL A   1      43.690  28.495  33.182  1.00  0.00     0.034 A 
BRANCH  51  65
ATOM     65  C   UNL A   1      42.109  26.186  27.680  1.00  0.00     0.023 A 
ATOM     66  C   UNL A   1      42.790  26.742  26.579  1.00  0.00     0.012 A 
ATOM     67  C   UNL A   1      41.834  24.806  27.699  1.00  0.00     0.148 A 
ATOM     68  C   UNL A   1      43.170  25.944  25.502  1.00  0.00     0.002 A 
ATOM     69  C   UNL A   1      42.246  24.008  26.636  1.00  0.00     0.091 A 
ATOM     70  F   UNL A   1      41.160  24.298  28.742  1.00  0.00    -0.205 F 
ATOM     71  C   UNL A   1      42.907  24.576  25.534  1.00  0.00     0.022 A 
BRANCH  69  72
ATOM     72  S   UNL A   1      42.004  22.227  26.625  1.00  0.00     0.127 S 
ATOM     73  O   UNL A   1      42.694  21.827  27.849  1.00  0.00    -0.237 OA
ATOM     74  O   UNL A   1      40.546  22.108  26.680  1.00  0.00    -0.237 OA
ATOM     75  O   UNL A   1      42.597  21.760  25.380  1.00  0.00    -0.744 OA
ENDBRANCH  69  72
ENDBRANCH  51  65
BRANCH  52  76
ATOM     76  C   UNL A   1      39.170  31.949  35.269  1.00  0.00     0.023 A 
ATOM     77  C   UNL A   1      38.260  31.407  36.199  1.00  0.00     0.012 A 
ATOM     78  C   UNL A   1      39.670  33.248  35.476  1.00  0.00     0.148 A 
ATOM     79  C   UNL A   1      37.842  32.151  37.302  1.00  0.00     0.002 A 
ATOM     80  C   UNL A   1      39.288  33.964  36.606  1.00  0.00     0.091 A 
ATOM     81  F   UNL A   1      40.519  33.758  34.572  1.00  0.00    -0.205 F 
ATOM     82  C   UNL A   1      38.364  33.424  37.513  1.00  0.00     0.022 A 
BRANCH  80  83
ATOM     83  S   UNL A   1      40.032  35.551  37.009  1.00  0.00     0.127 S 
ATOM     84  O   UNL A   1      39.620  36.374  35.876  1.00  0.00    -0.237 OA
ATOM     85  O   UNL A   1      39.388  35.886  38.279  1.00  0.00    -0.237 OA
ATOM     86  O   UNL A   1      41.459  35.276  37.123  1.00  0.00    -0.744 OA
ENDBRANCH  80  83
ENDBRANCH  52  76
BRANCH  64  87
ATOM     87  C   UNL A   1      44.939  28.233  33.977  1.00  0.00     0.023 A 
ATOM     88  C   UNL A   1      46.021  29.131  33.873  1.00  0.00     0.012 A 
ATOM     89  C   UNL A   1      45.014  27.159  34.883  1.00  0.00     0.148 A 
ATOM     90  C   UNL A   1      47.165  28.951  34.649  1.00  0.00     0.002 A 
ATOM     91  C   UNL A   1      46.145  27.007  35.679  1.00  0.00     0.091 A 
ATOM     92  F   UNL A   1      43.986  26.301  34.950  1.00  0.00    -0.205 F 
ATOM     93  C   UNL A   1      47.223  27.898  35.560  1.00  0.00     0.022 A 
BRANCH  91  94
ATOM     94  S   UNL A   1      46.252  25.723  36.932  1.00  0.00     0.127 S 
ATOM     95  O   UNL A   1      47.654  25.811  37.332  1.00  0.00    -0.237 OA
ATOM     96  O   UNL A   1      45.299  26.182  37.943  1.00  0.00    -0.237 OA
ATOM     97  O   UNL A   1      45.859  24.492  36.258  1.00  0.00    -0.744 OA
ENDBRANCH  91  94
ENDBRANCH  64  87
ENDBRANCH  38  39
ENDBRANCH  30  33
ENDBRANCH  28  29
ENDBRANCH  27  28
ENDBRANCH   1  27
TORSDOF 18
ENDMDL
