MODEL 1
REMARK VINA RESULT:     -12.6      0.000      0.000
REMARK SMILES O=C(NCCCNC(=O)c1cncc(Oc2cc(F)ccc2F)n1)c1ccc(-c2c3nc(c(-c4cccc(S(=O)(=O)[O-])c4F)c4ccc([nH]4)c(-c4cccc(S(=O)(=O)[O-])c4F)c4nc(c(-c5cccc(S(=O)(=O)[O-])c5F)c5ccc2[nH]5)C=C4)C=C3)cc1
REMARK SMILES IDX 4 1 3 2 1 3 2 4 25 6 26 7 87 8 27 9 86 10 28 11 29 12 30 13
REMARK SMILES IDX 80 14 31 15 85 16 79 17 81 18 32 19 84 20 78 21 77 22 33 24
REMARK SMILES IDX 65 25 45 26 64 27 46 28 49 29 63 30 82 31 47 32 48 33 62 35
REMARK SMILES IDX 83 36 50 37 34 38 35 39 43 40 36 41 38 42 44 43 37 44 39 45
REMARK SMILES IDX 40 46 41 47 42 48 66 49 67 50 75 51 68 52 70 53 76 54 69 55
REMARK SMILES IDX 71 56 72 57 73 58 74 59 51 60 52 61 60 62 53 63 55 64 61 65
REMARK SMILES IDX 54 66 56 67 57 68 58 69 59 70 5 71 6 72 7 73 8 74 9 76 10 77
REMARK SMILES IDX 11 78 24 79 12 80 14 81 13 82 15 83 16 84 17 85 22 86 18 87
REMARK SMILES IDX 21 88 23 89 19 90 20 91
REMARK H PARENT 3 5 81 23 49 34 7 75
REMARK Flexibility Score: inf
ROOT
ATOM      1  C   UNL A   1      32.385  30.426  26.078  1.00  0.00     0.118 C 
ENDROOT
BRANCH   1   2
ATOM      2  N   UNL A   1      32.228  31.816  26.490  1.00  0.00    -0.352 N 
ATOM      3  O   UNL A   1      32.545  33.699  27.670  1.00  0.00    -0.269 OA
ATOM      4  C   UNL A   1      32.978  32.595  27.341  1.00  0.00     0.251 C 
ATOM      5  H   UNL A   1      31.452  32.274  26.093  1.00  0.00     0.163 HD
BRANCH   4   6
ATOM      6  C   UNL A   1      34.266  32.111  27.885  1.00  0.00     0.039 A 
ATOM      7  C   UNL A   1      34.424  30.788  28.295  1.00  0.00     0.014 A 
ATOM      8  C   UNL A   1      35.349  32.992  27.969  1.00  0.00     0.014 A 
ATOM      9  C   UNL A   1      35.580  30.404  28.968  1.00  0.00     0.010 A 
ATOM     10  C   UNL A   1      36.552  32.572  28.548  1.00  0.00     0.010 A 
ATOM     11  C   UNL A   1      36.661  31.289  29.105  1.00  0.00    -0.014 A 
BRANCH  11  12
ATOM     12  C   UNL A   1      37.890  30.829  29.807  1.00  0.00     0.031 A 
ATOM     13  C   UNL A   1      38.183  31.241  31.227  1.00  0.00     0.074 A 
ATOM     14  C   UNL A   1      38.734  29.997  29.164  1.00  0.00     0.049 A 
ATOM     15  N   UNL A   1      39.161  30.855  32.007  1.00  0.00    -0.248 NA
ATOM     16  C   UNL A   1      37.275  32.217  31.851  1.00  0.00     0.031 C 
ATOM     17  C   UNL A   1      38.592  29.566  27.772  1.00  0.00     0.029 A 
ATOM     18  N   UNL A   1      39.866  29.352  29.595  1.00  0.00    -0.354 N 
ATOM     19  C   UNL A   1      39.017  31.573  33.190  1.00  0.00     0.074 A 
ATOM     20  C   UNL A   1      37.859  32.424  33.024  1.00  0.00     0.031 C 
ATOM     21  C   UNL A   1      39.563  28.690  27.479  1.00  0.00     0.029 A 
ATOM     22  C   UNL A   1      40.427  28.532  28.644  1.00  0.00     0.049 A 
ATOM     23  H   UNL A   1      40.240  29.465  30.499  1.00  0.00     0.167 HD
ATOM     24  C   UNL A   1      39.765  31.514  34.318  1.00  0.00     0.034 A 
ATOM     25  C   UNL A   1      41.511  27.735  28.699  1.00  0.00     0.034 A 
ATOM     26  C   UNL A   1      40.880  30.622  34.505  1.00  0.00     0.049 A 
ATOM     27  C   UNL A   1      42.284  27.644  29.984  1.00  0.00     0.074 A 
ATOM     28  C   UNL A   1      41.650  30.434  35.639  1.00  0.00     0.029 A 
ATOM     29  N   UNL A   1      41.386  29.772  33.534  1.00  0.00    -0.354 N 
ATOM     30  N   UNL A   1      42.043  28.225  31.134  1.00  0.00    -0.248 NA
ATOM     31  C   UNL A   1      43.463  26.766  29.987  1.00  0.00     0.031 C 
ATOM     32  C   UNL A   1      42.629  29.478  35.350  1.00  0.00     0.029 A 
ATOM     33  C   UNL A   1      42.461  29.060  34.041  1.00  0.00     0.049 A 
ATOM     34  H   UNL A   1      41.032  29.686  32.619  1.00  0.00     0.167 HD
ATOM     35  C   UNL A   1      43.021  27.763  32.005  1.00  0.00     0.074 A 
ATOM     36  C   UNL A   1      43.842  26.832  31.257  1.00  0.00     0.031 C 
ATOM     37  C   UNL A   1      43.233  28.095  33.302  1.00  0.00     0.034 A 
BRANCH  24  38
ATOM     38  C   UNL A   1      39.377  32.407  35.468  1.00  0.00     0.023 A 
ATOM     39  C   UNL A   1      38.554  31.903  36.494  1.00  0.00     0.012 A 
ATOM     40  C   UNL A   1      39.885  33.718  35.571  1.00  0.00     0.148 A 
ATOM     41  C   UNL A   1      38.218  32.697  37.591  1.00  0.00     0.002 A 
ATOM     42  C   UNL A   1      39.576  34.490  36.686  1.00  0.00     0.091 A 
ATOM     43  F   UNL A   1      40.647  34.190  34.575  1.00  0.00    -0.205 F 
ATOM     44  C   UNL A   1      38.737  33.984  37.693  1.00  0.00     0.022 A 
BRANCH  42  45
ATOM     45  S   UNL A   1      40.260  36.133  36.938  1.00  0.00     0.127 S 
ATOM     46  O   UNL A   1      39.849  36.815  35.711  1.00  0.00    -0.237 OA
ATOM     47  O   UNL A   1      39.563  36.579  38.145  1.00  0.00    -0.237 OA
ATOM     48  O   UNL A   1      41.694  35.944  37.105  1.00  0.00    -0.744 OA
ENDBRANCH  42  45
ENDBRANCH  24  38
BRANCH  25  49
ATOM     49  C   UNL A   1      41.878  26.904  27.519  1.00  0.00     0.023 A 
ATOM     50  C   UNL A   1      42.542  27.505  26.432  1.00  0.00     0.012 A 
ATOM     51  C   UNL A   1      41.624  25.519  27.487  1.00  0.00     0.148 A 
ATOM     52  C   UNL A   1      42.927  26.747  25.326  1.00  0.00     0.002 A 
ATOM     53  C   UNL A   1      42.061  24.759  26.410  1.00  0.00     0.091 A 
ATOM     54  F   UNL A   1      40.973  24.969  28.522  1.00  0.00    -0.205 F 
ATOM     55  C   UNL A   1      42.699  25.372  25.321  1.00  0.00     0.022 A 
BRANCH  53  56
ATOM     56  S   UNL A   1      41.938  22.967  26.397  1.00  0.00     0.127 S 
ATOM     57  O   UNL A   1      40.495  22.766  26.483  1.00  0.00    -0.237 OA
ATOM     58  O   UNL A   1      42.533  22.628  25.103  1.00  0.00    -0.237 OA
ATOM     59  O   UNL A   1      42.716  22.519  27.544  1.00  0.00    -0.744 OA
ENDBRANCH  53  56
ENDBRANCH  25  49
BRANCH  37  60
ATOM     60  C   UNL A   1      44.386  27.432  34.007  1.00  0.00     0.023 A 
ATOM     61  C   UNL A   1      45.670  28.008  33.938  1.00  0.00     0.012 A 
ATOM     62  C   UNL A   1      44.188  26.274  34.783  1.00  0.00     0.148 A 
ATOM     63  C   UNL A   1      46.745  27.425  34.605  1.00  0.00     0.002 A 
ATOM     64  C   UNL A   1      45.257  25.721  35.480  1.00  0.00     0.091 A 
ATOM     65  F   UNL A   1      42.965  25.724  34.816  1.00  0.00    -0.205 F 
ATOM     66  C   UNL A   1      46.538  26.288  35.384  1.00  0.00     0.022 A 
BRANCH  64  67
ATOM     67  S   UNL A   1      45.049  24.313  36.577  1.00  0.00     0.127 S 
ATOM     68  O   UNL A   1      46.420  24.085  37.032  1.00  0.00    -0.237 OA
ATOM     69  O   UNL A   1      44.147  24.840  37.602  1.00  0.00    -0.237 OA
ATOM     70  O   UNL A   1      44.471  23.258  35.756  1.00  0.00    -0.744 OA
ENDBRANCH  64  67
ENDBRANCH  37  60
ENDBRANCH  11  12
ENDBRANCH   4   6
ENDBRANCH   1   2
BRANCH   1  71
ATOM     71  C   UNL A   1      31.534  29.460  26.893  1.00  0.00     0.042 C 
BRANCH  71  72
ATOM     72  C   UNL A   1      32.256  28.182  27.300  1.00  0.00     0.118 C 
BRANCH  72  73
ATOM     73  N   UNL A   1      31.383  27.016  27.278  1.00  0.00    -0.351 N 
ATOM     74  C   UNL A   1      30.814  26.363  26.209  1.00  0.00     0.271 C 
ATOM     75  H   UNL A   1      31.167  26.639  28.162  1.00  0.00     0.163 HD
ATOM     76  O   UNL A   1      29.997  25.467  26.412  1.00  0.00    -0.267 OA
BRANCH  74  77
ATOM     77  C   UNL A   1      31.211  26.708  24.825  1.00  0.00     0.150 A 
ATOM     78  C   UNL A   1      32.465  26.337  24.356  1.00  0.00     0.145 A 
ATOM     79  N   UNL A   1      30.297  27.352  24.054  1.00  0.00    -0.205 NA
ATOM     80  N   UNL A   1      32.892  26.643  23.107  1.00  0.00    -0.257 NA
ATOM     81  C   UNL A   1      30.715  27.636  22.799  1.00  0.00     0.238 A 
ATOM     82  C   UNL A   1      31.989  27.308  22.345  1.00  0.00     0.179 A 
BRANCH  81  83
ATOM     83  O   UNL A   1      29.894  28.320  21.911  1.00  0.00    -0.434 OA
BRANCH  83  84
ATOM     84  C   UNL A   1      29.199  29.388  22.421  1.00  0.00     0.168 A 
ATOM     85  C   UNL A   1      29.683  30.690  22.297  1.00  0.00     0.089 A 
ATOM     86  C   UNL A   1      27.934  29.163  22.969  1.00  0.00     0.166 A 
ATOM     87  C   UNL A   1      28.904  31.745  22.760  1.00  0.00     0.127 A 
ATOM     88  C   UNL A   1      27.155  30.225  23.423  1.00  0.00     0.046 A 
ATOM     89  F   UNL A   1      27.447  27.916  23.051  1.00  0.00    -0.203 F 
ATOM     90  F   UNL A   1      29.363  32.999  22.653  1.00  0.00    -0.207 F 
ATOM     91  C   UNL A   1      27.646  31.526  23.320  1.00  0.00     0.042 A 
ENDBRANCH  83  84
ENDBRANCH  81  83
ENDBRANCH  74  77
ENDBRANCH  72  73
ENDBRANCH  71  72
ENDBRANCH   1  71
TORSDOF 15
ENDMDL
MODEL 2
REMARK VINA RESULT:     -12.5      1.550      1.757
REMARK SMILES O=C(NCCCNC(=O)c1cncc(Oc2cc(F)ccc2F)n1)c1ccc(-c2c3nc(c(-c4cccc(S(=O)(=O)[O-])c4F)c4ccc([nH]4)c(-c4cccc(S(=O)(=O)[O-])c4F)c4nc(c(-c5cccc(S(=O)(=O)[O-])c5F)c5ccc2[nH]5)C=C4)C=C3)cc1
REMARK SMILES IDX 4 1 3 2 1 3 2 4 25 6 26 7 87 8 27 9 86 10 28 11 29 12 30 13
REMARK SMILES IDX 80 14 31 15 85 16 79 17 81 18 32 19 84 20 78 21 77 22 33 24
REMARK SMILES IDX 65 25 45 26 64 27 46 28 49 29 63 30 82 31 47 32 48 33 62 35
REMARK SMILES IDX 83 36 50 37 34 38 35 39 43 40 36 41 38 42 44 43 37 44 39 45
REMARK SMILES IDX 40 46 41 47 42 48 66 49 67 50 75 51 68 52 70 53 76 54 69 55
REMARK SMILES IDX 71 56 72 57 73 58 74 59 51 60 52 61 60 62 53 63 55 64 61 65
REMARK SMILES IDX 54 66 56 67 57 68 58 69 59 70 5 71 6 72 7 73 8 74 9 76 10 77
REMARK SMILES IDX 11 78 24 79 12 80 14 81 13 82 15 83 16 84 17 85 22 86 18 87
REMARK SMILES IDX 21 88 23 89 19 90 20 91
REMARK H PARENT 3 5 81 23 49 34 7 75
REMARK Flexibility Score: inf
ROOT
ATOM      1  C   UNL A   1      33.060  29.917  26.194  1.00  0.00     0.118 C 
ENDROOT
BRANCH   1   2
ATOM      2  N   UNL A   1      32.919  31.292  26.656  1.00  0.00    -0.352 N 
ATOM      3  O   UNL A   1      33.267  33.131  27.895  1.00  0.00    -0.269 OA
ATOM      4  C   UNL A   1      33.687  32.037  27.522  1.00  0.00     0.251 C 
ATOM      5  H   UNL A   1      32.140  31.769  26.287  1.00  0.00     0.163 HD
BRANCH   4   6
ATOM      6  C   UNL A   1      34.980  31.526  28.029  1.00  0.00     0.039 A 
ATOM      7  C   UNL A   1      35.115  30.207  28.459  1.00  0.00     0.014 A 
ATOM      8  C   UNL A   1      36.089  32.377  28.058  1.00  0.00     0.014 A 
ATOM      9  C   UNL A   1      36.283  29.802  29.098  1.00  0.00     0.010 A 
ATOM     10  C   UNL A   1      37.300  31.933  28.603  1.00  0.00     0.010 A 
ATOM     11  C   UNL A   1      37.393  30.658  29.180  1.00  0.00    -0.014 A 
BRANCH  11  12
ATOM     12  C   UNL A   1      38.633  30.176  29.847  1.00  0.00     0.031 A 
ATOM     13  C   UNL A   1      38.985  30.601  31.250  1.00  0.00     0.074 A 
ATOM     14  C   UNL A   1      39.432  29.313  29.189  1.00  0.00     0.049 A 
ATOM     15  N   UNL A   1      39.979  30.201  32.002  1.00  0.00    -0.248 NA
ATOM     16  C   UNL A   1      38.124  31.609  31.889  1.00  0.00     0.031 C 
ATOM     17  C   UNL A   1      39.231  28.866  27.808  1.00  0.00     0.029 A 
ATOM     18  N   UNL A   1      40.561  28.645  29.591  1.00  0.00    -0.354 N 
ATOM     19  C   UNL A   1      39.893  30.939  33.178  1.00  0.00     0.074 A 
ATOM     20  C   UNL A   1      38.753  31.817  33.038  1.00  0.00     0.031 C 
ATOM     21  C   UNL A   1      40.169  27.961  27.496  1.00  0.00     0.029 A 
ATOM     22  C   UNL A   1      41.068  27.796  28.634  1.00  0.00     0.049 A 
ATOM     23  H   UNL A   1      40.969  28.761  30.480  1.00  0.00     0.167 HD
ATOM     24  C   UNL A   1      40.678  30.876  34.281  1.00  0.00     0.034 A 
ATOM     25  C   UNL A   1      42.132  26.972  28.665  1.00  0.00     0.034 A 
ATOM     26  C   UNL A   1      41.775  29.958  34.444  1.00  0.00     0.049 A 
ATOM     27  C   UNL A   1      42.946  26.879  29.924  1.00  0.00     0.074 A 
ATOM     28  C   UNL A   1      42.578  29.766  35.554  1.00  0.00     0.029 A 
ATOM     29  N   UNL A   1      42.225  29.081  33.469  1.00  0.00    -0.354 N 
ATOM     30  N   UNL A   1      42.760  27.482  31.072  1.00  0.00    -0.248 NA
ATOM     31  C   UNL A   1      44.101  25.971  29.900  1.00  0.00     0.031 C 
ATOM     32  C   UNL A   1      43.522  28.780  35.247  1.00  0.00     0.029 A 
ATOM     33  C   UNL A   1      43.298  28.348  33.951  1.00  0.00     0.049 A 
ATOM     34  H   UNL A   1      41.838  28.991  32.568  1.00  0.00     0.167 HD
ATOM     35  C   UNL A   1      43.755  27.007  31.917  1.00  0.00     0.074 A 
ATOM     36  C   UNL A   1      44.525  26.045  31.155  1.00  0.00     0.031 C 
ATOM     37  C   UNL A   1      44.020  27.353  33.201  1.00  0.00     0.034 A 
BRANCH  24  38
ATOM     38  C   UNL A   1      40.353  31.795  35.430  1.00  0.00     0.023 A 
ATOM     39  C   UNL A   1      41.121  32.960  35.628  1.00  0.00     0.012 A 
ATOM     40  C   UNL A   1      39.247  31.547  36.267  1.00  0.00     0.148 A 
ATOM     41  C   UNL A   1      40.812  33.849  36.658  1.00  0.00     0.002 A 
ATOM     42  C   UNL A   1      38.921  32.458  37.267  1.00  0.00     0.091 A 
ATOM     43  F   UNL A   1      38.541  30.423  36.080  1.00  0.00    -0.205 F 
ATOM     44  C   UNL A   1      39.707  33.605  37.469  1.00  0.00     0.022 A 
BRANCH  42  45
ATOM     45  S   UNL A   1      37.472  32.263  38.312  1.00  0.00     0.127 S 
ATOM     46  O   UNL A   1      37.923  32.883  39.558  1.00  0.00    -0.237 OA
ATOM     47  O   UNL A   1      36.458  33.028  37.585  1.00  0.00    -0.237 OA
ATOM     48  O   UNL A   1      37.218  30.831  38.374  1.00  0.00    -0.744 OA
ENDBRANCH  42  45
ENDBRANCH  24  38
BRANCH  25  49
ATOM     49  C   UNL A   1      42.437  26.115  27.485  1.00  0.00     0.023 A 
ATOM     50  C   UNL A   1      43.222  26.636  26.438  1.00  0.00     0.012 A 
ATOM     51  C   UNL A   1      42.003  24.777  27.418  1.00  0.00     0.148 A 
ATOM     52  C   UNL A   1      43.550  25.847  25.335  1.00  0.00     0.002 A 
ATOM     53  C   UNL A   1      42.382  23.979  26.345  1.00  0.00     0.091 A 
ATOM     54  F   UNL A   1      41.240  24.305  28.414  1.00  0.00    -0.205 F 
ATOM     55  C   UNL A   1      43.143  24.515  25.295  1.00  0.00     0.022 A 
BRANCH  53  56
ATOM     56  S   UNL A   1      42.023  22.220  26.295  1.00  0.00     0.127 S 
ATOM     57  O   UNL A   1      40.573  22.215  26.132  1.00  0.00    -0.237 OA
ATOM     58  O   UNL A   1      42.778  21.786  25.117  1.00  0.00    -0.237 OA
ATOM     59  O   UNL A   1      42.528  21.686  27.553  1.00  0.00    -0.744 OA
ENDBRANCH  53  56
ENDBRANCH  25  49
BRANCH  37  60
ATOM     60  C   UNL A   1      45.179  26.669  33.877  1.00  0.00     0.023 A 
ATOM     61  C   UNL A   1      46.469  27.226  33.779  1.00  0.00     0.012 A 
ATOM     62  C   UNL A   1      44.981  25.512  34.654  1.00  0.00     0.148 A 
ATOM     63  C   UNL A   1      47.551  26.623  34.418  1.00  0.00     0.002 A 
ATOM     64  C   UNL A   1      46.056  24.941  35.324  1.00  0.00     0.091 A 
ATOM     65  F   UNL A   1      43.750  24.981  34.715  1.00  0.00    -0.205 F 
ATOM     66  C   UNL A   1      47.344  25.488  35.199  1.00  0.00     0.022 A 
BRANCH  64  67
ATOM     67  S   UNL A   1      45.853  23.533  36.422  1.00  0.00     0.127 S 
ATOM     68  O   UNL A   1      47.235  23.250  36.804  1.00  0.00    -0.237 OA
ATOM     69  O   UNL A   1      45.024  24.085  37.495  1.00  0.00    -0.237 OA
ATOM     70  O   UNL A   1      45.194  22.506  35.626  1.00  0.00    -0.744 OA
ENDBRANCH  64  67
ENDBRANCH  37  60
ENDBRANCH  11  12
ENDBRANCH   4   6
ENDBRANCH   1   2
BRANCH   1  71
ATOM     71  C   UNL A   1      31.960  28.996  26.709  1.00  0.00     0.042 C 
BRANCH  71  72
ATOM     72  C   UNL A   1      32.399  27.552  26.915  1.00  0.00     0.118 C 
BRANCH  72  73
ATOM     73  N   UNL A   1      31.272  26.636  27.021  1.00  0.00    -0.351 N 
ATOM     74  C   UNL A   1      30.464  26.116  26.036  1.00  0.00     0.271 C 
ATOM     75  H   UNL A   1      31.056  26.345  27.937  1.00  0.00     0.163 HD
ATOM     76  O   UNL A   1      29.478  25.453  26.350  1.00  0.00    -0.267 OA
BRANCH  74  77
ATOM     77  C   UNL A   1      30.800  26.321  24.610  1.00  0.00     0.150 A 
ATOM     78  C   UNL A   1      31.680  25.451  23.978  1.00  0.00     0.145 A 
ATOM     79  N   UNL A   1      30.191  27.349  23.963  1.00  0.00    -0.205 NA
ATOM     80  N   UNL A   1      32.042  25.598  22.681  1.00  0.00    -0.257 NA
ATOM     81  C   UNL A   1      30.534  27.482  22.661  1.00  0.00     0.238 A 
ATOM     82  C   UNL A   1      31.452  26.640  22.042  1.00  0.00     0.179 A 
BRANCH  81  83
ATOM     83  O   UNL A   1      30.011  28.510  21.887  1.00  0.00    -0.434 OA
BRANCH  83  84
ATOM     84  C   UNL A   1      29.463  29.569  22.567  1.00  0.00     0.168 A 
ATOM     85  C   UNL A   1      30.155  30.197  23.602  1.00  0.00     0.089 A 
ATOM     86  C   UNL A   1      28.241  30.086  22.130  1.00  0.00     0.166 A 
ATOM     87  C   UNL A   1      29.592  31.315  24.207  1.00  0.00     0.127 A 
ATOM     88  C   UNL A   1      27.686  31.210  22.736  1.00  0.00     0.046 A 
ATOM     89  F   UNL A   1      27.593  29.509  21.108  1.00  0.00    -0.203 F 
ATOM     90  F   UNL A   1      30.244  31.922  25.207  1.00  0.00    -0.207 F 
ATOM     91  C   UNL A   1      28.366  31.828  23.784  1.00  0.00     0.042 A 
ENDBRANCH  83  84
ENDBRANCH  81  83
ENDBRANCH  74  77
ENDBRANCH  72  73
ENDBRANCH  71  72
ENDBRANCH   1  71
TORSDOF 15
ENDMDL
MODEL 3
REMARK VINA RESULT:     -12.4      5.001      9.975
REMARK SMILES O=C(NCCCNC(=O)c1cncc(Oc2cc(F)ccc2F)n1)c1ccc(-c2c3nc(c(-c4cccc(S(=O)(=O)[O-])c4F)c4ccc([nH]4)c(-c4cccc(S(=O)(=O)[O-])c4F)c4nc(c(-c5cccc(S(=O)(=O)[O-])c5F)c5ccc2[nH]5)C=C4)C=C3)cc1
REMARK SMILES IDX 4 1 3 2 1 3 2 4 25 6 26 7 87 8 27 9 86 10 28 11 29 12 30 13
REMARK SMILES IDX 80 14 31 15 85 16 79 17 81 18 32 19 84 20 78 21 77 22 33 24
REMARK SMILES IDX 65 25 45 26 64 27 46 28 49 29 63 30 82 31 47 32 48 33 62 35
REMARK SMILES IDX 83 36 50 37 34 38 35 39 43 40 36 41 38 42 44 43 37 44 39 45
REMARK SMILES IDX 40 46 41 47 42 48 66 49 67 50 75 51 68 52 70 53 76 54 69 55
REMARK SMILES IDX 71 56 72 57 73 58 74 59 51 60 52 61 60 62 53 63 55 64 61 65
REMARK SMILES IDX 54 66 56 67 57 68 58 69 59 70 5 71 6 72 7 73 8 74 9 76 10 77
REMARK SMILES IDX 11 78 24 79 12 80 14 81 13 82 15 83 16 84 17 85 22 86 18 87
REMARK SMILES IDX 21 88 23 89 19 90 20 91
REMARK H PARENT 3 5 81 23 49 34 7 75
REMARK Flexibility Score: inf
ROOT
ATOM      1  C   UNL A   1      36.129  22.302  25.286  1.00  0.00     0.118 C 
ENDROOT
BRANCH   1   2
ATOM      2  N   UNL A   1      37.100  21.218  25.383  1.00  0.00    -0.352 N 
ATOM      3  O   UNL A   1      39.090  20.203  25.601  1.00  0.00    -0.269 OA
ATOM      4  C   UNL A   1      38.422  21.223  25.766  1.00  0.00     0.251 C 
ATOM      5  H   UNL A   1      36.750  20.333  25.131  1.00  0.00     0.163 HD
BRANCH   4   6
ATOM      6  C   UNL A   1      39.049  22.437  26.334  1.00  0.00     0.039 A 
ATOM      7  C   UNL A   1      38.543  23.707  26.058  1.00  0.00     0.014 A 
ATOM      8  C   UNL A   1      40.156  22.305  27.178  1.00  0.00     0.014 A 
ATOM      9  C   UNL A   1      39.253  24.837  26.452  1.00  0.00     0.010 A 
ATOM     10  C   UNL A   1      40.807  23.446  27.665  1.00  0.00     0.010 A 
ATOM     11  C   UNL A   1      40.395  24.724  27.260  1.00  0.00    -0.014 A 
BRANCH  11  12
ATOM     12  C   UNL A   1      41.109  25.959  27.683  1.00  0.00     0.031 A 
ATOM     13  C   UNL A   1      42.513  26.251  27.220  1.00  0.00     0.074 A 
ATOM     14  C   UNL A   1      40.465  26.848  28.466  1.00  0.00     0.049 A 
ATOM     15  N   UNL A   1      43.238  27.322  27.425  1.00  0.00    -0.248 NA
ATOM     16  C   UNL A   1      43.199  25.210  26.438  1.00  0.00     0.031 C 
ATOM     17  C   UNL A   1      39.124  26.658  29.026  1.00  0.00     0.029 A 
ATOM     18  N   UNL A   1      40.838  28.089  28.915  1.00  0.00    -0.354 N 
ATOM     19  C   UNL A   1      44.475  27.067  26.843  1.00  0.00     0.074 A 
ATOM     20  C   UNL A   1      44.407  25.736  26.282  1.00  0.00     0.031 C 
ATOM     21  C   UNL A   1      38.766  27.762  29.697  1.00  0.00     0.029 A 
ATOM     22  C   UNL A   1      39.866  28.720  29.659  1.00  0.00     0.049 A 
ATOM     23  H   UNL A   1      41.715  28.491  28.724  1.00  0.00     0.167 HD
ATOM     24  C   UNL A   1      45.561  27.874  26.765  1.00  0.00     0.034 A 
ATOM     25  C   UNL A   1      39.854  29.934  30.241  1.00  0.00     0.034 A 
ATOM     26  C   UNL A   1      45.608  29.221  27.270  1.00  0.00     0.049 A 
ATOM     27  C   UNL A   1      41.050  30.829  30.085  1.00  0.00     0.074 A 
ATOM     28  C   UNL A   1      46.635  30.143  27.168  1.00  0.00     0.029 A 
ATOM     29  N   UNL A   1      44.585  29.839  27.973  1.00  0.00    -0.354 N 
ATOM     30  N   UNL A   1      42.153  30.620  29.408  1.00  0.00    -0.248 NA
ATOM     31  C   UNL A   1      40.988  32.139  30.747  1.00  0.00     0.031 C 
ATOM     32  C   UNL A   1      46.238  31.315  27.821  1.00  0.00     0.029 A 
ATOM     33  C   UNL A   1      44.959  31.129  28.316  1.00  0.00     0.049 A 
ATOM     34  H   UNL A   1      43.721  29.424  28.195  1.00  0.00     0.167 HD
ATOM     35  C   UNL A   1      42.905  31.780  29.540  1.00  0.00     0.074 A 
ATOM     36  C   UNL A   1      42.119  32.700  30.338  1.00  0.00     0.031 C 
ATOM     37  C   UNL A   1      44.144  32.053  29.061  1.00  0.00     0.034 A 
BRANCH  24  38
ATOM     38  C   UNL A   1      46.784  27.342  26.063  1.00  0.00     0.023 A 
ATOM     39  C   UNL A   1      46.943  27.558  24.680  1.00  0.00     0.012 A 
ATOM     40  C   UNL A   1      47.809  26.695  26.783  1.00  0.00     0.148 A 
ATOM     41  C   UNL A   1      48.088  27.114  24.017  1.00  0.00     0.002 A 
ATOM     42  C   UNL A   1      48.964  26.289  26.122  1.00  0.00     0.091 A 
ATOM     43  F   UNL A   1      47.632  26.477  28.094  1.00  0.00    -0.205 F 
ATOM     44  C   UNL A   1      49.101  26.490  24.739  1.00  0.00     0.022 A 
BRANCH  42  45
ATOM     45  S   UNL A   1      50.354  25.545  26.984  1.00  0.00     0.127 S 
ATOM     46  O   UNL A   1      51.306  25.345  25.891  1.00  0.00    -0.237 OA
ATOM     47  O   UNL A   1      50.731  26.594  27.933  1.00  0.00    -0.237 OA
ATOM     48  O   UNL A   1      49.836  24.332  27.600  1.00  0.00    -0.744 OA
ENDBRANCH  42  45
ENDBRANCH  24  38
BRANCH  25  49
ATOM     49  C   UNL A   1      38.635  30.395  30.962  1.00  0.00     0.023 A 
ATOM     50  C   UNL A   1      38.532  30.183  32.350  1.00  0.00     0.012 A 
ATOM     51  C   UNL A   1      37.606  31.088  30.295  1.00  0.00     0.148 A 
ATOM     52  C   UNL A   1      37.416  30.632  33.058  1.00  0.00     0.002 A 
ATOM     53  C   UNL A   1      36.526  31.584  31.014  1.00  0.00     0.091 A 
ATOM     54  F   UNL A   1      37.712  31.263  28.970  1.00  0.00    -0.205 F 
ATOM     55  C   UNL A   1      36.420  31.345  32.392  1.00  0.00     0.022 A 
BRANCH  53  56
ATOM     56  S   UNL A   1      35.281  32.636  30.258  1.00  0.00     0.127 S 
ATOM     57  O   UNL A   1      36.078  33.781  29.829  1.00  0.00    -0.237 OA
ATOM     58  O   UNL A   1      34.783  31.790  29.173  1.00  0.00    -0.237 OA
ATOM     59  O   UNL A   1      34.304  32.894  31.307  1.00  0.00    -0.744 OA
ENDBRANCH  53  56
ENDBRANCH  25  49
BRANCH  37  60
ATOM     60  C   UNL A   1      44.721  33.410  29.366  1.00  0.00     0.023 A 
ATOM     61  C   UNL A   1      45.424  33.613  30.570  1.00  0.00     0.012 A 
ATOM     62  C   UNL A   1      44.619  34.463  28.437  1.00  0.00     0.148 A 
ATOM     63  C   UNL A   1      45.988  34.854  30.859  1.00  0.00     0.002 A 
ATOM     64  C   UNL A   1      45.221  35.685  28.714  1.00  0.00     0.091 A 
ATOM     65  F   UNL A   1      43.924  34.259  27.309  1.00  0.00    -0.205 F 
ATOM     66  C   UNL A   1      45.897  35.886  29.928  1.00  0.00     0.022 A 
BRANCH  64  67
ATOM     67  S   UNL A   1      45.226  37.032  27.525  1.00  0.00     0.127 S 
ATOM     68  O   UNL A   1      45.971  36.446  26.412  1.00  0.00    -0.237 OA
ATOM     69  O   UNL A   1      43.799  37.232  27.266  1.00  0.00    -0.237 OA
ATOM     70  O   UNL A   1      45.872  38.150  28.200  1.00  0.00    -0.744 OA
ENDBRANCH  64  67
ENDBRANCH  37  60
ENDBRANCH  11  12
ENDBRANCH   4   6
ENDBRANCH   1   2
BRANCH   1  71
ATOM     71  C   UNL A   1      35.091  22.277  26.402  1.00  0.00     0.042 C 
BRANCH  71  72
ATOM     72  C   UNL A   1      33.814  21.524  26.050  1.00  0.00     0.118 C 
BRANCH  72  73
ATOM     73  N   UNL A   1      32.686  21.920  26.882  1.00  0.00    -0.351 N 
ATOM     74  C   UNL A   1      31.787  22.949  26.714  1.00  0.00     0.271 C 
ATOM     75  H   UNL A   1      32.546  21.369  27.686  1.00  0.00     0.163 HD
ATOM     76  O   UNL A   1      30.976  23.195  27.604  1.00  0.00    -0.267 OA
BRANCH  74  77
ATOM     77  C   UNL A   1      31.769  23.727  25.455  1.00  0.00     0.150 A 
ATOM     78  C   UNL A   1      31.071  23.243  24.356  1.00  0.00     0.145 A 
ATOM     79  N   UNL A   1      32.421  24.919  25.446  1.00  0.00    -0.205 NA
ATOM     80  N   UNL A   1      31.035  23.900  23.171  1.00  0.00    -0.257 NA
ATOM     81  C   UNL A   1      32.365  25.587  24.271  1.00  0.00     0.238 A 
ATOM     82  C   UNL A   1      31.706  25.078  23.155  1.00  0.00     0.179 A 
BRANCH  81  83
ATOM     83  O   UNL A   1      33.013  26.804  24.110  1.00  0.00    -0.434 OA
BRANCH  83  84
ATOM     84  C   UNL A   1      32.936  27.681  25.163  1.00  0.00     0.168 A 
ATOM     85  C   UNL A   1      34.001  27.837  26.051  1.00  0.00     0.089 A 
ATOM     86  C   UNL A   1      31.813  28.504  25.269  1.00  0.00     0.166 A 
ATOM     87  C   UNL A   1      33.905  28.794  27.055  1.00  0.00     0.127 A 
ATOM     88  C   UNL A   1      31.727  29.466  26.272  1.00  0.00     0.046 A 
ATOM     89  F   UNL A   1      30.806  28.385  24.392  1.00  0.00    -0.203 F 
ATOM     90  F   UNL A   1      34.918  28.948  27.918  1.00  0.00    -0.207 F 
ATOM     91  C   UNL A   1      32.781  29.611  27.174  1.00  0.00     0.042 A 
ENDBRANCH  83  84
ENDBRANCH  81  83
ENDBRANCH  74  77
ENDBRANCH  72  73
ENDBRANCH  71  72
ENDBRANCH   1  71
TORSDOF 15
ENDMDL
