MODEL 1
REMARK VINA RESULT:     -12.2      0.000      0.000
REMARK SMILES O=C(CSc1ccc(NC(=O)c2cccc3ccccc23)cc1)NCCCNC(=O)c1ccc(-c2c3nc(c(-c4cccc(S(=O)(=O)[O-])c4F)c4ccc([nH]4)c(-c4cccc(S(=O)(=O)[O-])c4F)c4nc(c(-c5cccc(S(=O)(=O)[O-])c5F)c5ccc2[nH]5)C=C4)C=C3)cc1
REMARK SMILES IDX 25 1 24 2 1 3 2 4 3 6 4 7 5 8 6 9 23 10 7 11 22 12 8 13 9 14
REMARK SMILES IDX 10 15 11 17 12 18 13 19 21 20 14 21 16 22 20 23 15 24 17 25
REMARK SMILES IDX 19 26 18 27 26 28 27 29 28 30 29 31 30 33 31 34 32 35 93 36
REMARK SMILES IDX 33 37 92 38 34 39 35 40 36 41 86 42 37 43 91 44 85 45 87 46
REMARK SMILES IDX 38 47 90 48 84 49 83 50 39 52 71 53 51 54 70 55 52 56 55 57
REMARK SMILES IDX 69 58 88 59 53 60 54 61 68 63 89 64 56 65 40 66 41 67 49 68
REMARK SMILES IDX 42 69 44 70 50 71 43 72 45 73 46 74 47 75 48 76 72 77 73 78
REMARK SMILES IDX 81 79 74 80 76 81 82 82 75 83 77 84 78 85 79 86 80 87 57 88
REMARK SMILES IDX 58 89 66 90 59 91 61 92 67 93 60 94 62 95 63 96 64 97 65 98
REMARK H PARENT 24 5 9 16 28 32 87 51 55 62
REMARK Flexibility Score: inf
ROOT
ATOM      1  C   UNL A   1      39.264  22.424  26.045  1.00  0.00     0.117 C 
ENDROOT
BRANCH   1   2
ATOM      2  N   UNL A   1      38.136  22.255  25.155  1.00  0.00    -0.355 N 
ATOM      3  O   UNL A   1      36.849  23.945  26.037  1.00  0.00    -0.274 OA
ATOM      4  C   UNL A   1      37.017  23.059  25.204  1.00  0.00     0.230 C 
ATOM      5  H   UNL A   1      38.169  21.533  24.486  1.00  0.00     0.163 HD
BRANCH   4   6
ATOM      6  C   UNL A   1      35.961  22.736  24.162  1.00  0.00     0.174 C 
BRANCH   6   7
ATOM      7  S   UNL A   1      34.773  21.482  24.750  1.00  0.00    -0.116 SA
BRANCH   7   8
ATOM      8  C   UNL A   1      33.214  22.310  24.484  1.00  0.00     0.008 A 
ATOM      9  C   UNL A   1      32.464  22.667  25.608  1.00  0.00     0.017 A 
ATOM     10  C   UNL A   1      32.744  22.659  23.218  1.00  0.00     0.017 A 
ATOM     11  C   UNL A   1      31.306  23.439  25.475  1.00  0.00     0.027 A 
ATOM     12  C   UNL A   1      31.595  23.443  23.088  1.00  0.00     0.027 A 
ATOM     13  C   UNL A   1      30.933  23.917  24.225  1.00  0.00     0.041 A 
BRANCH  13  14
ATOM     14  N   UNL A   1      30.002  24.943  24.017  1.00  0.00    -0.322 N 
ATOM     15  C   UNL A   1      30.120  26.306  23.891  1.00  0.00     0.256 C 
ATOM     16  H   UNL A   1      29.074  24.622  23.948  1.00  0.00     0.170 HD
ATOM     17  O   UNL A   1      29.086  26.959  23.714  1.00  0.00    -0.269 OA
BRANCH  15  18
ATOM     18  C   UNL A   1      31.395  27.064  23.942  1.00  0.00     0.048 A 
ATOM     19  C   UNL A   1      32.022  27.192  22.690  1.00  0.00     0.014 A 
ATOM     20  C   UNL A   1      32.031  27.552  25.126  1.00  0.00    -0.006 A 
ATOM     21  C   UNL A   1      33.275  27.780  22.579  1.00  0.00     0.001 A 
ATOM     22  C   UNL A   1      33.310  28.153  24.983  1.00  0.00    -0.018 A 
ATOM     23  C   UNL A   1      31.488  27.514  26.437  1.00  0.00     0.009 A 
ATOM     24  C   UNL A   1      33.919  28.240  23.722  1.00  0.00     0.009 A 
ATOM     25  C   UNL A   1      33.975  28.691  26.098  1.00  0.00     0.009 A 
ATOM     26  C   UNL A   1      32.118  28.140  27.517  1.00  0.00     0.001 A 
ATOM     27  C   UNL A   1      33.368  28.717  27.350  1.00  0.00     0.001 A 
ENDBRANCH  15  18
ENDBRANCH  13  14
ENDBRANCH   7   8
ENDBRANCH   6   7
ENDBRANCH   4   6
ENDBRANCH   1   2
BRANCH   1  28
ATOM     28  C   UNL A   1      39.699  21.105  26.671  1.00  0.00     0.042 C 
BRANCH  28  29
ATOM     29  C   UNL A   1      39.696  19.918  25.711  1.00  0.00     0.118 C 
BRANCH  29  30
ATOM     30  N   UNL A   1      40.777  18.976  25.961  1.00  0.00    -0.352 N 
ATOM     31  C   UNL A   1      42.101  19.196  26.253  1.00  0.00     0.251 C 
ATOM     32  H   UNL A   1      40.518  18.027  25.915  1.00  0.00     0.163 HD
ATOM     33  O   UNL A   1      42.867  18.235  26.292  1.00  0.00    -0.269 OA
BRANCH  31  34
ATOM     34  C   UNL A   1      42.622  20.563  26.497  1.00  0.00     0.039 A 
ATOM     35  C   UNL A   1      43.044  21.316  25.398  1.00  0.00     0.014 A 
ATOM     36  C   UNL A   1      42.735  21.098  27.783  1.00  0.00     0.014 A 
ATOM     37  C   UNL A   1      43.525  22.616  25.584  1.00  0.00     0.010 A 
ATOM     38  C   UNL A   1      43.136  22.424  27.959  1.00  0.00     0.010 A 
ATOM     39  C   UNL A   1      43.543  23.197  26.863  1.00  0.00    -0.014 A 
BRANCH  39  40
ATOM     40  C   UNL A   1      43.959  24.615  27.040  1.00  0.00     0.031 A 
ATOM     41  C   UNL A   1      42.998  25.654  27.558  1.00  0.00     0.074 A 
ATOM     42  C   UNL A   1      45.209  24.982  26.693  1.00  0.00     0.049 A 
ATOM     43  N   UNL A   1      43.215  26.918  27.822  1.00  0.00    -0.248 NA
ATOM     44  C   UNL A   1      41.607  25.230  27.787  1.00  0.00     0.031 C 
ATOM     45  C   UNL A   1      46.209  24.100  26.088  1.00  0.00     0.029 A 
ATOM     46  N   UNL A   1      45.850  26.192  26.787  1.00  0.00    -0.354 N 
ATOM     47  C   UNL A   1      41.992  27.444  28.222  1.00  0.00     0.074 A 
ATOM     48  C   UNL A   1      41.025  26.372  28.128  1.00  0.00     0.031 C 
ATOM     49  C   UNL A   1      47.345  24.789  25.891  1.00  0.00     0.029 A 
ATOM     50  C   UNL A   1      47.147  26.167  26.327  1.00  0.00     0.049 A 
ATOM     51  H   UNL A   1      45.424  27.001  27.150  1.00  0.00     0.167 HD
ATOM     52  C   UNL A   1      41.703  28.695  28.656  1.00  0.00     0.034 A 
ATOM     53  C   UNL A   1      48.076  27.140  26.266  1.00  0.00     0.034 A 
ATOM     54  C   UNL A   1      42.670  29.754  28.774  1.00  0.00     0.049 A 
ATOM     55  C   UNL A   1      47.745  28.504  26.807  1.00  0.00     0.074 A 
ATOM     56  C   UNL A   1      42.492  31.031  29.281  1.00  0.00     0.029 A 
ATOM     57  N   UNL A   1      43.993  29.670  28.369  1.00  0.00    -0.354 N 
ATOM     58  N   UNL A   1      46.626  28.933  27.338  1.00  0.00    -0.248 NA
ATOM     59  C   UNL A   1      48.820  29.505  26.780  1.00  0.00     0.031 C 
ATOM     60  C   UNL A   1      43.698  31.727  29.152  1.00  0.00     0.029 A 
ATOM     61  C   UNL A   1      44.641  30.872  28.605  1.00  0.00     0.049 A 
ATOM     62  H   UNL A   1      44.411  28.872  27.972  1.00  0.00     0.167 HD
ATOM     63  C   UNL A   1      46.874  30.239  27.743  1.00  0.00     0.074 A 
ATOM     64  C   UNL A   1      48.258  30.519  27.422  1.00  0.00     0.031 C 
ATOM     65  C   UNL A   1      46.028  31.132  28.318  1.00  0.00     0.034 A 
BRANCH  52  66
ATOM     66  C   UNL A   1      40.283  28.978  29.083  1.00  0.00     0.023 A 
ATOM     67  C   UNL A   1      39.306  29.273  28.108  1.00  0.00     0.012 A 
ATOM     68  C   UNL A   1      39.899  28.891  30.436  1.00  0.00     0.148 A 
ATOM     69  C   UNL A   1      37.982  29.513  28.475  1.00  0.00     0.002 A 
ATOM     70  C   UNL A   1      38.568  29.083  30.789  1.00  0.00     0.091 A 
ATOM     71  F   UNL A   1      40.841  28.627  31.352  1.00  0.00    -0.205 F 
ATOM     72  C   UNL A   1      37.612  29.408  29.811  1.00  0.00     0.022 A 
BRANCH  70  73
ATOM     73  S   UNL A   1      37.970  28.888  32.471  1.00  0.00     0.127 S 
ATOM     74  O   UNL A   1      38.870  29.774  33.208  1.00  0.00    -0.237 OA
ATOM     75  O   UNL A   1      36.592  29.368  32.366  1.00  0.00    -0.237 OA
ATOM     76  O   UNL A   1      38.099  27.471  32.782  1.00  0.00    -0.744 OA
ENDBRANCH  70  73
ENDBRANCH  52  66
BRANCH  53  77
ATOM     77  C   UNL A   1      49.437  26.840  25.737  1.00  0.00     0.023 A 
ATOM     78  C   UNL A   1      50.377  26.186  26.559  1.00  0.00     0.012 A 
ATOM     79  C   UNL A   1      49.796  27.179  24.419  1.00  0.00     0.148 A 
ATOM     80  C   UNL A   1      51.663  25.913  26.091  1.00  0.00     0.002 A 
ATOM     81  C   UNL A   1      51.058  26.850  23.939  1.00  0.00     0.091 A 
ATOM     82  F   UNL A   1      48.891  27.808  23.656  1.00  0.00    -0.205 F 
ATOM     83  C   UNL A   1      52.000  26.235  24.779  1.00  0.00     0.022 A 
BRANCH  81  84
ATOM     84  S   UNL A   1      51.534  27.103  22.226  1.00  0.00     0.127 S 
ATOM     85  O   UNL A   1      50.362  26.605  21.513  1.00  0.00    -0.237 OA
ATOM     86  O   UNL A   1      51.720  28.552  22.177  1.00  0.00    -0.237 OA
ATOM     87  O   UNL A   1      52.760  26.334  22.043  1.00  0.00    -0.744 OA
ENDBRANCH  81  84
ENDBRANCH  53  77
BRANCH  65  88
ATOM     88  C   UNL A   1      46.590  32.485  28.676  1.00  0.00     0.023 A 
ATOM     89  C   UNL A   1      47.160  32.702  29.947  1.00  0.00     0.012 A 
ATOM     90  C   UNL A   1      46.575  33.538  27.739  1.00  0.00     0.148 A 
ATOM     91  C   UNL A   1      47.652  33.959  30.300  1.00  0.00     0.002 A 
ATOM     92  C   UNL A   1      47.118  34.771  28.079  1.00  0.00     0.091 A 
ATOM     93  F   UNL A   1      46.014  33.323  26.541  1.00  0.00    -0.205 F 
ATOM     94  C   UNL A   1      47.640  34.990  29.364  1.00  0.00     0.022 A 
BRANCH  92  95
ATOM     95  S   UNL A   1      47.233  36.124  26.902  1.00  0.00     0.127 S 
ATOM     96  O   UNL A   1      47.956  35.497  25.798  1.00  0.00    -0.237 OA
ATOM     97  O   UNL A   1      45.827  36.416  26.623  1.00  0.00    -0.237 OA
ATOM     98  O   UNL A   1      47.943  37.193  27.592  1.00  0.00    -0.744 OA
ENDBRANCH  92  95
ENDBRANCH  65  88
ENDBRANCH  39  40
ENDBRANCH  31  34
ENDBRANCH  29  30
ENDBRANCH  28  29
ENDBRANCH   1  28
TORSDOF 17
ENDMDL
MODEL 2
REMARK VINA RESULT:     -12.0      5.882     10.150
REMARK SMILES O=C(CSc1ccc(NC(=O)c2cccc3ccccc23)cc1)NCCCNC(=O)c1ccc(-c2c3nc(c(-c4cccc(S(=O)(=O)[O-])c4F)c4ccc([nH]4)c(-c4cccc(S(=O)(=O)[O-])c4F)c4nc(c(-c5cccc(S(=O)(=O)[O-])c5F)c5ccc2[nH]5)C=C4)C=C3)cc1
REMARK SMILES IDX 25 1 24 2 1 3 2 4 3 6 4 7 5 8 6 9 23 10 7 11 22 12 8 13 9 14
REMARK SMILES IDX 10 15 11 17 12 18 13 19 21 20 14 21 16 22 20 23 15 24 17 25
REMARK SMILES IDX 19 26 18 27 26 28 27 29 28 30 29 31 30 33 31 34 32 35 93 36
REMARK SMILES IDX 33 37 92 38 34 39 35 40 36 41 86 42 37 43 91 44 85 45 87 46
REMARK SMILES IDX 38 47 90 48 84 49 83 50 39 52 71 53 51 54 70 55 52 56 55 57
REMARK SMILES IDX 69 58 88 59 53 60 54 61 68 63 89 64 56 65 40 66 41 67 49 68
REMARK SMILES IDX 42 69 44 70 50 71 43 72 45 73 46 74 47 75 48 76 72 77 73 78
REMARK SMILES IDX 81 79 74 80 76 81 82 82 75 83 77 84 78 85 79 86 80 87 57 88
REMARK SMILES IDX 58 89 66 90 59 91 61 92 67 93 60 94 62 95 63 96 64 97 65 98
REMARK H PARENT 24 5 9 16 28 32 87 51 55 62
REMARK Flexibility Score: inf
ROOT
ATOM      1  C   UNL A   1      34.147  31.987  27.799  1.00  0.00     0.117 C 
ENDROOT
BRANCH   1   2
ATOM      2  N   UNL A   1      33.820  30.836  26.986  1.00  0.00    -0.355 N 
ATOM      3  O   UNL A   1      35.315  29.389  27.965  1.00  0.00    -0.274 OA
ATOM      4  C   UNL A   1      34.417  29.605  27.157  1.00  0.00     0.230 C 
ATOM      5  H   UNL A   1      33.141  30.936  26.280  1.00  0.00     0.163 HD
BRANCH   4   6
ATOM      6  C   UNL A   1      33.909  28.521  26.223  1.00  0.00     0.174 C 
BRANCH   6   7
ATOM      7  S   UNL A   1      32.706  29.164  25.010  1.00  0.00    -0.116 SA
BRANCH   7   8
ATOM      8  C   UNL A   1      32.341  27.701  24.054  1.00  0.00     0.008 A 
ATOM      9  C   UNL A   1      33.370  27.149  23.285  1.00  0.00     0.017 A 
ATOM     10  C   UNL A   1      31.101  27.062  24.084  1.00  0.00     0.017 A 
ATOM     11  C   UNL A   1      33.190  25.930  22.627  1.00  0.00     0.027 A 
ATOM     12  C   UNL A   1      30.929  25.836  23.438  1.00  0.00     0.027 A 
ATOM     13  C   UNL A   1      32.007  25.221  22.792  1.00  0.00     0.041 A 
BRANCH  13  14
ATOM     14  N   UNL A   1      31.840  23.871  22.456  1.00  0.00    -0.322 N 
ATOM     15  C   UNL A   1      32.251  22.700  23.046  1.00  0.00     0.256 C 
ATOM     16  H   UNL A   1      31.323  23.734  21.630  1.00  0.00     0.170 HD
ATOM     17  O   UNL A   1      31.942  21.640  22.493  1.00  0.00    -0.269 OA
BRANCH  15  18
ATOM     18  C   UNL A   1      33.034  22.602  24.303  1.00  0.00     0.048 A 
ATOM     19  C   UNL A   1      32.239  22.388  25.443  1.00  0.00     0.014 A 
ATOM     20  C   UNL A   1      34.443  22.800  24.427  1.00  0.00    -0.006 A 
ATOM     21  C   UNL A   1      32.803  22.379  26.711  1.00  0.00     0.001 A 
ATOM     22  C   UNL A   1      34.996  22.781  25.737  1.00  0.00    -0.018 A 
ATOM     23  C   UNL A   1      35.355  22.989  23.356  1.00  0.00     0.009 A 
ATOM     24  C   UNL A   1      34.169  22.592  26.855  1.00  0.00     0.009 A 
ATOM     25  C   UNL A   1      36.380  22.928  25.930  1.00  0.00     0.009 A 
ATOM     26  C   UNL A   1      36.738  23.036  23.559  1.00  0.00     0.001 A 
ATOM     27  C   UNL A   1      37.249  23.018  24.847  1.00  0.00     0.001 A 
ENDBRANCH  15  18
ENDBRANCH  13  14
ENDBRANCH   7   8
ENDBRANCH   6   7
ENDBRANCH   4   6
ENDBRANCH   1   2
BRANCH   1  28
ATOM     28  C   UNL A   1      33.022  33.014  27.810  1.00  0.00     0.042 C 
BRANCH  28  29
ATOM     29  C   UNL A   1      33.481  34.452  28.033  1.00  0.00     0.118 C 
BRANCH  29  30
ATOM     30  N   UNL A   1      32.932  35.049  29.242  1.00  0.00    -0.352 N 
ATOM     31  C   UNL A   1      33.299  34.896  30.557  1.00  0.00     0.251 C 
ATOM     32  H   UNL A   1      32.175  35.662  29.094  1.00  0.00     0.163 HD
ATOM     33  O   UNL A   1      32.595  35.401  31.430  1.00  0.00    -0.269 OA
BRANCH  31  34
ATOM     34  C   UNL A   1      34.503  34.121  30.938  1.00  0.00     0.039 A 
ATOM     35  C   UNL A   1      35.748  34.565  30.482  1.00  0.00     0.014 A 
ATOM     36  C   UNL A   1      34.426  32.951  31.699  1.00  0.00     0.014 A 
ATOM     37  C   UNL A   1      36.910  33.871  30.833  1.00  0.00     0.010 A 
ATOM     38  C   UNL A   1      35.592  32.308  32.119  1.00  0.00     0.010 A 
ATOM     39  C   UNL A   1      36.848  32.755  31.685  1.00  0.00    -0.014 A 
BRANCH  39  40
ATOM     40  C   UNL A   1      38.097  32.084  32.139  1.00  0.00     0.031 A 
ATOM     41  C   UNL A   1      38.781  32.486  33.420  1.00  0.00     0.074 A 
ATOM     42  C   UNL A   1      38.645  31.124  31.366  1.00  0.00     0.049 A 
ATOM     43  N   UNL A   1      39.843  31.966  33.984  1.00  0.00    -0.248 NA
ATOM     44  C   UNL A   1      38.220  33.633  34.151  1.00  0.00     0.031 C 
ATOM     45  C   UNL A   1      38.140  30.706  30.056  1.00  0.00     0.029 A 
ATOM     46  N   UNL A   1      39.749  30.333  31.562  1.00  0.00    -0.354 N 
ATOM     47  C   UNL A   1      40.090  32.733  35.117  1.00  0.00     0.074 A 
ATOM     48  C   UNL A   1      39.092  33.780  35.139  1.00  0.00     0.031 C 
ATOM     49  C   UNL A   1      38.916  29.718  29.579  1.00  0.00     0.029 A 
ATOM     50  C   UNL A   1      39.987  29.452  30.533  1.00  0.00     0.049 A 
ATOM     51  H   UNL A   1      40.318  30.390  32.364  1.00  0.00     0.167 HD
ATOM     52  C   UNL A   1      41.041  32.567  36.068  1.00  0.00     0.034 A 
ATOM     53  C   UNL A   1      40.955  28.528  30.373  1.00  0.00     0.034 A 
ATOM     54  C   UNL A   1      42.018  31.509  36.059  1.00  0.00     0.049 A 
ATOM     55  C   UNL A   1      41.964  28.328  31.470  1.00  0.00     0.074 A 
ATOM     56  C   UNL A   1      42.969  31.207  37.019  1.00  0.00     0.029 A 
ATOM     57  N   UNL A   1      42.181  30.588  35.036  1.00  0.00    -0.354 N 
ATOM     58  N   UNL A   1      42.076  28.956  32.615  1.00  0.00    -0.248 NA
ATOM     59  C   UNL A   1      42.952  27.258  31.272  1.00  0.00     0.031 C 
ATOM     60  C   UNL A   1      43.728  30.125  36.562  1.00  0.00     0.029 A 
ATOM     61  C   UNL A   1      43.222  29.724  35.336  1.00  0.00     0.049 A 
ATOM     62  H   UNL A   1      41.637  30.553  34.217  1.00  0.00     0.167 HD
ATOM     63  C   UNL A   1      43.121  28.335  33.288  1.00  0.00     0.074 A 
ATOM     64  C   UNL A   1      43.587  27.261  32.435  1.00  0.00     0.031 C 
ATOM     65  C   UNL A   1      43.656  28.634  34.499  1.00  0.00     0.034 A 
BRANCH  52  66
ATOM     66  C   UNL A   1      41.045  33.528  37.232  1.00  0.00     0.023 A 
ATOM     67  C   UNL A   1      41.921  34.635  37.220  1.00  0.00     0.012 A 
ATOM     68  C   UNL A   1      40.143  33.376  38.303  1.00  0.00     0.148 A 
ATOM     69  C   UNL A   1      41.926  35.551  38.271  1.00  0.00     0.002 A 
ATOM     70  C   UNL A   1      40.120  34.321  39.323  1.00  0.00     0.091 A 
ATOM     71  F   UNL A   1      39.330  32.312  38.309  1.00  0.00    -0.205 F 
ATOM     72  C   UNL A   1      41.019  35.401  39.316  1.00  0.00     0.022 A 
BRANCH  70  73
ATOM     73  S   UNL A   1      38.935  34.266  40.673  1.00  0.00     0.127 S 
ATOM     74  O   UNL A   1      38.834  35.679  41.033  1.00  0.00    -0.237 OA
ATOM     75  O   UNL A   1      37.748  33.717  40.017  1.00  0.00    -0.237 OA
ATOM     76  O   UNL A   1      39.523  33.404  41.689  1.00  0.00    -0.744 OA
ENDBRANCH  70  73
ENDBRANCH  52  66
BRANCH  53  77
ATOM     77  C   UNL A   1      40.973  27.671  29.154  1.00  0.00     0.023 A 
ATOM     78  C   UNL A   1      40.085  26.581  29.054  1.00  0.00     0.012 A 
ATOM     79  C   UNL A   1      41.850  27.942  28.086  1.00  0.00     0.148 A 
ATOM     80  C   UNL A   1      40.099  25.753  27.931  1.00  0.00     0.002 A 
ATOM     81  C   UNL A   1      41.816  27.150  26.945  1.00  0.00     0.091 A 
ATOM     82  F   UNL A   1      42.692  28.978  28.204  1.00  0.00    -0.205 F 
ATOM     83  C   UNL A   1      40.956  26.043  26.873  1.00  0.00     0.022 A 
BRANCH  81  84
ATOM     84  S   UNL A   1      42.785  27.527  25.481  1.00  0.00     0.127 S 
ATOM     85  O   UNL A   1      42.567  26.338  24.663  1.00  0.00    -0.237 OA
ATOM     86  O   UNL A   1      42.133  28.742  24.994  1.00  0.00    -0.237 OA
ATOM     87  O   UNL A   1      44.150  27.727  25.955  1.00  0.00    -0.744 OA
ENDBRANCH  81  84
ENDBRANCH  53  77
BRANCH  65  88
ATOM     88  C   UNL A   1      44.780  27.759  34.994  1.00  0.00     0.023 A 
ATOM     89  C   UNL A   1      46.121  28.151  34.803  1.00  0.00     0.012 A 
ATOM     90  C   UNL A   1      44.506  26.554  35.672  1.00  0.00     0.148 A 
ATOM     91  C   UNL A   1      47.168  27.332  35.226  1.00  0.00     0.002 A 
ATOM     92  C   UNL A   1      45.554  25.771  36.141  1.00  0.00     0.091 A 
ATOM     93  F   UNL A   1      43.227  26.184  35.831  1.00  0.00    -0.205 F 
ATOM     94  C   UNL A   1      46.885  26.149  35.903  1.00  0.00     0.022 A 
BRANCH  92  95
ATOM     95  S   UNL A   1      45.280  24.283  37.108  1.00  0.00     0.127 S 
ATOM     96  O   UNL A   1      44.533  24.803  38.251  1.00  0.00    -0.237 OA
ATOM     97  O   UNL A   1      44.495  23.455  36.192  1.00  0.00    -0.237 OA
ATOM     98  O   UNL A   1      46.604  23.754  37.410  1.00  0.00    -0.744 OA
ENDBRANCH  92  95
ENDBRANCH  65  88
ENDBRANCH  39  40
ENDBRANCH  31  34
ENDBRANCH  29  30
ENDBRANCH  28  29
ENDBRANCH   1  28
TORSDOF 17
ENDMDL
MODEL 3
REMARK VINA RESULT:     -11.9      2.187      7.671
REMARK SMILES O=C(CSc1ccc(NC(=O)c2cccc3ccccc23)cc1)NCCCNC(=O)c1ccc(-c2c3nc(c(-c4cccc(S(=O)(=O)[O-])c4F)c4ccc([nH]4)c(-c4cccc(S(=O)(=O)[O-])c4F)c4nc(c(-c5cccc(S(=O)(=O)[O-])c5F)c5ccc2[nH]5)C=C4)C=C3)cc1
REMARK SMILES IDX 25 1 24 2 1 3 2 4 3 6 4 7 5 8 6 9 23 10 7 11 22 12 8 13 9 14
REMARK SMILES IDX 10 15 11 17 12 18 13 19 21 20 14 21 16 22 20 23 15 24 17 25
REMARK SMILES IDX 19 26 18 27 26 28 27 29 28 30 29 31 30 33 31 34 32 35 93 36
REMARK SMILES IDX 33 37 92 38 34 39 35 40 36 41 86 42 37 43 91 44 85 45 87 46
REMARK SMILES IDX 38 47 90 48 84 49 83 50 39 52 71 53 51 54 70 55 52 56 55 57
REMARK SMILES IDX 69 58 88 59 53 60 54 61 68 63 89 64 56 65 40 66 41 67 49 68
REMARK SMILES IDX 42 69 44 70 50 71 43 72 45 73 46 74 47 75 48 76 72 77 73 78
REMARK SMILES IDX 81 79 74 80 76 81 82 82 75 83 77 84 78 85 79 86 80 87 57 88
REMARK SMILES IDX 58 89 66 90 59 91 61 92 67 93 60 94 62 95 63 96 64 97 65 98
REMARK H PARENT 24 5 9 16 28 32 87 51 55 62
REMARK Flexibility Score: inf
ROOT
ATOM      1  C   UNL A   1      40.772  20.609  26.250  1.00  0.00     0.117 C 
ENDROOT
BRANCH   1   2
ATOM      2  N   UNL A   1      39.389  20.680  25.835  1.00  0.00    -0.355 N 
ATOM      3  O   UNL A   1      39.096  22.918  26.270  1.00  0.00    -0.274 OA
ATOM      4  C   UNL A   1      38.661  21.850  25.849  1.00  0.00     0.230 C 
ATOM      5  H   UNL A   1      38.948  19.854  25.528  1.00  0.00     0.163 HD
BRANCH   4   6
ATOM      6  C   UNL A   1      37.236  21.715  25.343  1.00  0.00     0.174 C 
BRANCH   6   7
ATOM      7  S   UNL A   1      36.864  22.900  24.007  1.00  0.00    -0.116 SA
BRANCH   7   8
ATOM      8  C   UNL A   1      35.220  23.437  24.449  1.00  0.00     0.008 A 
ATOM      9  C   UNL A   1      34.137  22.801  23.834  1.00  0.00     0.017 A 
ATOM     10  C   UNL A   1      34.971  24.416  25.411  1.00  0.00     0.017 A 
ATOM     11  C   UNL A   1      32.828  23.076  24.237  1.00  0.00     0.027 A 
ATOM     12  C   UNL A   1      33.663  24.679  25.824  1.00  0.00     0.027 A 
ATOM     13  C   UNL A   1      32.598  23.934  25.306  1.00  0.00     0.041 A 
BRANCH  13  14
ATOM     14  N   UNL A   1      31.382  24.032  25.994  1.00  0.00    -0.322 N 
ATOM     15  C   UNL A   1      30.419  25.009  26.064  1.00  0.00     0.256 C 
ATOM     16  H   UNL A   1      31.175  23.238  26.539  1.00  0.00     0.170 HD
ATOM     17  O   UNL A   1      29.435  24.796  26.780  1.00  0.00    -0.269 OA
BRANCH  15  18
ATOM     18  C   UNL A   1      30.458  26.305  25.342  1.00  0.00     0.048 A 
ATOM     19  C   UNL A   1      29.853  26.258  24.072  1.00  0.00     0.014 A 
ATOM     20  C   UNL A   1      31.120  27.491  25.787  1.00  0.00    -0.006 A 
ATOM     21  C   UNL A   1      29.899  27.355  23.223  1.00  0.00     0.001 A 
ATOM     22  C   UNL A   1      31.148  28.600  24.899  1.00  0.00    -0.018 A 
ATOM     23  C   UNL A   1      31.735  27.674  27.053  1.00  0.00     0.009 A 
ATOM     24  C   UNL A   1      30.557  28.509  23.629  1.00  0.00     0.009 A 
ATOM     25  C   UNL A   1      31.745  29.811  25.287  1.00  0.00     0.009 A 
ATOM     26  C   UNL A   1      32.238  28.914  27.459  1.00  0.00     0.001 A 
ATOM     27  C   UNL A   1      32.254  29.979  26.571  1.00  0.00     0.001 A 
ENDBRANCH  15  18
ENDBRANCH  13  14
ENDBRANCH   7   8
ENDBRANCH   6   7
ENDBRANCH   4   6
ENDBRANCH   1   2
BRANCH   1  28
ATOM     28  C   UNL A   1      41.378  19.237  25.986  1.00  0.00     0.042 C 
BRANCH  28  29
ATOM     29  C   UNL A   1      42.869  19.134  26.296  1.00  0.00     0.118 C 
BRANCH  29  30
ATOM     30  N   UNL A   1      43.702  19.099  25.103  1.00  0.00    -0.352 N 
ATOM     31  C   UNL A   1      44.367  20.109  24.451  1.00  0.00     0.251 C 
ATOM     32  H   UNL A   1      43.807  18.208  24.697  1.00  0.00     0.163 HD
ATOM     33  O   UNL A   1      44.904  19.864  23.372  1.00  0.00    -0.269 OA
BRANCH  31  34
ATOM     34  C   UNL A   1      44.426  21.481  25.009  1.00  0.00     0.039 A 
ATOM     35  C   UNL A   1      45.042  21.665  26.250  1.00  0.00     0.014 A 
ATOM     36  C   UNL A   1      43.857  22.576  24.354  1.00  0.00     0.014 A 
ATOM     37  C   UNL A   1      45.134  22.946  26.803  1.00  0.00     0.010 A 
ATOM     38  C   UNL A   1      44.023  23.865  24.866  1.00  0.00     0.010 A 
ATOM     39  C   UNL A   1      44.656  24.065  26.101  1.00  0.00    -0.014 A 
BRANCH  39  40
ATOM     40  C   UNL A   1      44.850  25.436  26.647  1.00  0.00     0.031 A 
ATOM     41  C   UNL A   1      46.202  26.102  26.632  1.00  0.00     0.074 A 
ATOM     42  C   UNL A   1      43.800  26.076  27.202  1.00  0.00     0.049 A 
ATOM     43  N   UNL A   1      46.529  27.310  27.017  1.00  0.00    -0.248 NA
ATOM     44  C   UNL A   1      47.339  25.305  26.145  1.00  0.00     0.031 C 
ATOM     45  C   UNL A   1      42.460  25.510  27.371  1.00  0.00     0.029 A 
ATOM     46  N   UNL A   1      43.696  27.337  27.735  1.00  0.00    -0.354 N 
ATOM     47  C   UNL A   1      47.904  27.410  26.843  1.00  0.00     0.074 A 
ATOM     48  C   UNL A   1      48.359  26.126  26.357  1.00  0.00     0.031 C 
ATOM     49  C   UNL A   1      41.662  26.427  27.940  1.00  0.00     0.029 A 
ATOM     50  C   UNL A   1      42.437  27.635  28.203  1.00  0.00     0.049 A 
ATOM     51  H   UNL A   1      44.449  27.969  27.777  1.00  0.00     0.167 HD
ATOM     52  C   UNL A   1      48.713  28.479  27.043  1.00  0.00     0.034 A 
ATOM     53  C   UNL A   1      41.956  28.755  28.777  1.00  0.00     0.034 A 
ATOM     54  C   UNL A   1      48.257  29.765  27.502  1.00  0.00     0.049 A 
ATOM     55  C   UNL A   1      42.862  29.945  28.934  1.00  0.00     0.074 A 
ATOM     56  C   UNL A   1      48.985  30.933  27.656  1.00  0.00     0.029 A 
ATOM     57  N   UNL A   1      46.959  30.052  27.896  1.00  0.00    -0.354 N 
ATOM     58  N   UNL A   1      44.125  30.071  28.605  1.00  0.00    -0.248 NA
ATOM     59  C   UNL A   1      42.264  31.162  29.499  1.00  0.00     0.031 C 
ATOM     60  C   UNL A   1      48.135  31.916  28.174  1.00  0.00     0.029 A 
ATOM     61  C   UNL A   1      46.867  31.374  28.301  1.00  0.00     0.049 A 
ATOM     62  H   UNL A   1      46.213  29.411  27.889  1.00  0.00     0.167 HD
ATOM     63  C   UNL A   1      44.461  31.389  28.889  1.00  0.00     0.074 A 
ATOM     64  C   UNL A   1      43.260  32.028  29.386  1.00  0.00     0.031 C 
ATOM     65  C   UNL A   1      45.660  32.013  28.760  1.00  0.00     0.034 A 
BRANCH  52  66
ATOM     66  C   UNL A   1      50.179  28.320  26.719  1.00  0.00     0.023 A 
ATOM     67  C   UNL A   1      50.633  28.550  25.402  1.00  0.00     0.012 A 
ATOM     68  C   UNL A   1      51.116  28.008  27.724  1.00  0.00     0.148 A 
ATOM     69  C   UNL A   1      51.985  28.433  25.084  1.00  0.00     0.002 A 
ATOM     70  C   UNL A   1      52.469  27.942  27.409  1.00  0.00     0.091 A 
ATOM     71  F   UNL A   1      50.668  27.776  28.965  1.00  0.00    -0.205 F 
ATOM     72  C   UNL A   1      52.903  28.142  26.087  1.00  0.00     0.022 A 
BRANCH  70  73
ATOM     73  S   UNL A   1      53.742  27.655  28.643  1.00  0.00     0.127 S 
ATOM     74  O   UNL A   1      53.512  28.764  29.567  1.00  0.00    -0.237 OA
ATOM     75  O   UNL A   1      53.373  26.339  29.165  1.00  0.00    -0.237 OA
ATOM     76  O   UNL A   1      55.011  27.693  27.928  1.00  0.00    -0.744 OA
ENDBRANCH  70  73
ENDBRANCH  52  66
BRANCH  53  77
ATOM     77  C   UNL A   1      40.522  28.830  29.179  1.00  0.00     0.023 A 
ATOM     78  C   UNL A   1      39.528  28.980  28.192  1.00  0.00     0.012 A 
ATOM     79  C   UNL A   1      40.139  28.733  30.530  1.00  0.00     0.148 A 
ATOM     80  C   UNL A   1      38.181  29.072  28.547  1.00  0.00     0.002 A 
ATOM     81  C   UNL A   1      38.793  28.765  30.872  1.00  0.00     0.091 A 
ATOM     82  F   UNL A   1      41.101  28.599  31.454  1.00  0.00    -0.205 F 
ATOM     83  C   UNL A   1      37.813  28.954  29.884  1.00  0.00     0.022 A 
BRANCH  81  84
ATOM     84  S   UNL A   1      38.218  28.486  32.549  1.00  0.00     0.127 S 
ATOM     85  O   UNL A   1      39.168  29.275  33.327  1.00  0.00    -0.237 OA
ATOM     86  O   UNL A   1      36.860  29.026  32.496  1.00  0.00    -0.237 OA
ATOM     87  O   UNL A   1      38.281  27.042  32.750  1.00  0.00    -0.744 OA
ENDBRANCH  81  84
ENDBRANCH  53  77
BRANCH  65  88
ATOM     88  C   UNL A   1      45.721  33.475  29.125  1.00  0.00     0.023 A 
ATOM     89  C   UNL A   1      46.069  33.865  30.434  1.00  0.00     0.012 A 
ATOM     90  C   UNL A   1      45.456  34.467  28.159  1.00  0.00     0.148 A 
ATOM     91  C   UNL A   1      46.095  35.214  30.791  1.00  0.00     0.002 A 
ATOM     92  C   UNL A   1      45.540  35.809  28.508  1.00  0.00     0.091 A 
ATOM     93  F   UNL A   1      45.109  34.082  26.923  1.00  0.00    -0.205 F 
ATOM     94  C   UNL A   1      45.841  36.185  29.827  1.00  0.00     0.022 A 
BRANCH  92  95
ATOM     95  S   UNL A   1      45.325  37.126  27.305  1.00  0.00     0.127 S 
ATOM     96  O   UNL A   1      43.910  36.990  26.963  1.00  0.00    -0.237 OA
ATOM     97  O   UNL A   1      45.652  38.319  28.086  1.00  0.00    -0.237 OA
ATOM     98  O   UNL A   1      46.262  36.839  26.227  1.00  0.00    -0.744 OA
ENDBRANCH  92  95
ENDBRANCH  65  88
ENDBRANCH  39  40
ENDBRANCH  31  34
ENDBRANCH  29  30
ENDBRANCH  28  29
ENDBRANCH   1  28
TORSDOF 17
ENDMDL
