MODEL 1
REMARK VINA RESULT:     -12.1      0.000      0.000
REMARK SMILES O=C(Cc1ccccc1Nc1c(Cl)cccc1Cl)NCCCNC(=O)c1ccc(-c2c3nc(c(-c4cccc(S(=O)(=O)[O-])c4F)c4ccc([nH]4)c(-c4cccc(S(=O)(=O)[O-])c4F)c4nc(c(-c5cccc(S(=O)(=O)[O-])c5F)c5ccc2[nH]5)C=C4)C=C3)cc1
REMARK SMILES IDX 21 1 20 2 19 3 1 4 2 5 3 7 4 8 5 9 9 10 6 11 8 12 7 13 10 14
REMARK SMILES IDX 11 16 12 17 17 18 13 19 14 20 16 21 18 22 15 23 22 24 23 25
REMARK SMILES IDX 24 26 25 28 26 29 27 30 88 31 28 32 87 33 29 34 30 35 31 36
REMARK SMILES IDX 81 37 32 38 86 39 80 40 82 41 33 42 85 43 79 44 78 45 34 47
REMARK SMILES IDX 66 48 46 49 65 50 47 51 50 52 64 53 83 54 48 55 49 56 63 58
REMARK SMILES IDX 84 59 51 60 35 61 36 62 44 63 37 64 39 65 45 66 38 67 40 68
REMARK SMILES IDX 41 69 42 70 43 71 67 72 68 73 76 74 69 75 71 76 77 77 70 78
REMARK SMILES IDX 72 79 73 80 74 81 75 82 52 83 53 84 61 85 54 86 56 87 62 88
REMARK SMILES IDX 55 89 57 90 58 91 59 92 60 93
REMARK H PARENT 19 6 10 15 23 27 82 46 50 57
REMARK Flexibility Score: inf
ROOT
ATOM      1  C   UNL A   1      31.403  29.102  26.471  1.00  0.00     0.042 C 
ENDROOT
BRANCH   1   2
ATOM      2  C   UNL A   1      31.785  27.830  27.213  1.00  0.00     0.117 C 
BRANCH   2   3
ATOM      3  N   UNL A   1      31.067  26.650  26.773  1.00  0.00    -0.356 N 
ATOM      4  O   UNL A   1      32.944  25.501  26.128  1.00  0.00    -0.275 OA
ATOM      5  C   UNL A   1      31.726  25.544  26.285  1.00  0.00     0.224 C 
ATOM      6  H   UNL A   1      30.083  26.639  26.825  1.00  0.00     0.163 HD
BRANCH   5   7
ATOM      7  C   UNL A   1      30.856  24.336  26.036  1.00  0.00     0.137 C 
BRANCH   7   8
ATOM      8  C   UNL A   1      31.346  23.289  25.045  1.00  0.00    -0.015 A 
ATOM      9  C   UNL A   1      31.870  22.121  25.648  1.00  0.00     0.006 A 
ATOM     10  C   UNL A   1      31.295  23.358  23.632  1.00  0.00     0.042 A 
ATOM     11  C   UNL A   1      32.395  21.078  24.890  1.00  0.00     0.000 A 
ATOM     12  C   UNL A   1      31.895  22.320  22.893  1.00  0.00     0.026 A 
ATOM     13  C   UNL A   1      32.428  21.189  23.510  1.00  0.00     0.002 A 
BRANCH  10  14
ATOM     14  N   UNL A   1      30.739  24.458  22.948  1.00  0.00    -0.353 N 
ATOM     15  H   UNL A   1      30.022  24.235  22.310  1.00  0.00     0.167 HD
BRANCH  14  16
ATOM     16  C   UNL A   1      31.056  25.837  23.041  1.00  0.00     0.076 A 
ATOM     17  C   UNL A   1      30.054  26.794  23.288  1.00  0.00     0.066 A 
ATOM     18  C   UNL A   1      32.335  26.313  22.700  1.00  0.00     0.066 A 
ATOM     19  Cl  UNL A   1      28.505  26.329  23.876  1.00  0.00    -0.082 Cl
ATOM     20  C   UNL A   1      30.293  28.162  23.117  1.00  0.00     0.023 A 
ATOM     21  C   UNL A   1      32.588  27.684  22.576  1.00  0.00     0.023 A 
ATOM     22  Cl  UNL A   1      33.652  25.226  22.416  1.00  0.00    -0.082 Cl
ATOM     23  C   UNL A   1      31.559  28.607  22.752  1.00  0.00     0.003 A 
ENDBRANCH  14  16
ENDBRANCH  10  14
ENDBRANCH   7   8
ENDBRANCH   5   7
ENDBRANCH   2   3
ENDBRANCH   1   2
BRANCH   1  24
ATOM     24  C   UNL A   1      32.553  30.008  26.051  1.00  0.00     0.118 C 
BRANCH  24  25
ATOM     25  N   UNL A   1      32.418  31.388  26.490  1.00  0.00    -0.352 N 
ATOM     26  C   UNL A   1      33.218  32.147  27.315  1.00  0.00     0.251 C 
ATOM     27  H   UNL A   1      31.627  31.855  26.140  1.00  0.00     0.163 HD
ATOM     28  O   UNL A   1      32.872  33.281  27.626  1.00  0.00    -0.269 OA
BRANCH  26  29
ATOM     29  C   UNL A   1      34.474  31.590  27.866  1.00  0.00     0.039 A 
ATOM     30  C   UNL A   1      35.567  32.447  28.026  1.00  0.00     0.014 A 
ATOM     31  C   UNL A   1      34.583  30.247  28.230  1.00  0.00     0.014 A 
ATOM     32  C   UNL A   1      36.736  31.975  28.626  1.00  0.00     0.010 A 
ATOM     33  C   UNL A   1      35.709  29.805  28.920  1.00  0.00     0.010 A 
ATOM     34  C   UNL A   1      36.800  30.661  29.121  1.00  0.00    -0.014 A 
BRANCH  34  35
ATOM     35  C   UNL A   1      37.992  30.185  29.869  1.00  0.00     0.031 A 
ATOM     36  C   UNL A   1      38.255  30.658  31.273  1.00  0.00     0.074 A 
ATOM     37  C   UNL A   1      38.876  29.375  29.253  1.00  0.00     0.049 A 
ATOM     38  N   UNL A   1      39.245  30.354  32.071  1.00  0.00    -0.248 NA
ATOM     39  C   UNL A   1      37.300  31.621  31.847  1.00  0.00     0.031 C 
ATOM     40  C   UNL A   1      38.783  28.922  27.862  1.00  0.00     0.029 A 
ATOM     41  N   UNL A   1      40.038  28.803  29.708  1.00  0.00    -0.354 N 
ATOM     42  C   UNL A   1      39.052  31.108  33.223  1.00  0.00     0.074 A 
ATOM     43  C   UNL A   1      37.875  31.917  33.005  1.00  0.00     0.031 C 
ATOM     44  C   UNL A   1      39.830  28.127  27.586  1.00  0.00     0.029 A 
ATOM     45  C   UNL A   1      40.685  28.038  28.763  1.00  0.00     0.049 A 
ATOM     46  H   UNL A   1      40.378  28.927  30.624  1.00  0.00     0.167 HD
ATOM     47  C   UNL A   1      39.769  31.104  34.372  1.00  0.00     0.034 A 
ATOM     48  C   UNL A   1      41.838  27.346  28.837  1.00  0.00     0.034 A 
ATOM     49  C   UNL A   1      40.919  30.271  34.597  1.00  0.00     0.049 A 
ATOM     50  C   UNL A   1      42.589  27.321  30.140  1.00  0.00     0.074 A 
ATOM     51  C   UNL A   1      41.664  30.128  35.755  1.00  0.00     0.029 A 
ATOM     52  N   UNL A   1      41.499  29.447  33.644  1.00  0.00    -0.354 N 
ATOM     53  N   UNL A   1      42.297  27.914  31.272  1.00  0.00    -0.248 NA
ATOM     54  C   UNL A   1      43.807  26.499  30.187  1.00  0.00     0.031 C 
ATOM     55  C   UNL A   1      42.714  29.242  35.491  1.00  0.00     0.029 A 
ATOM     56  C   UNL A   1      42.600  28.801  34.182  1.00  0.00     0.049 A 
ATOM     57  H   UNL A   1      41.177  29.338  32.721  1.00  0.00     0.167 HD
ATOM     58  C   UNL A   1      43.272  27.508  32.177  1.00  0.00     0.074 A 
ATOM     59  C   UNL A   1      44.146  26.599  31.466  1.00  0.00     0.031 C 
ATOM     60  C   UNL A   1      43.435  27.865  33.475  1.00  0.00     0.034 A 
BRANCH  47  61
ATOM     61  C   UNL A   1      39.302  31.998  35.493  1.00  0.00     0.023 A 
ATOM     62  C   UNL A   1      38.381  31.506  36.440  1.00  0.00     0.012 A 
ATOM     63  C   UNL A   1      39.814  33.301  35.642  1.00  0.00     0.148 A 
ATOM     64  C   UNL A   1      37.945  32.309  37.494  1.00  0.00     0.002 A 
ATOM     65  C   UNL A   1      39.414  34.078  36.724  1.00  0.00     0.091 A 
ATOM     66  F   UNL A   1      40.675  33.760  34.722  1.00  0.00    -0.205 F 
ATOM     67  C   UNL A   1      38.470  33.589  37.642  1.00  0.00     0.022 A 
BRANCH  65  68
ATOM     68  S   UNL A   1      40.093  35.709  37.052  1.00  0.00     0.127 S 
ATOM     69  O   UNL A   1      39.653  36.453  35.872  1.00  0.00    -0.237 OA
ATOM     70  O   UNL A   1      39.412  36.079  38.294  1.00  0.00    -0.237 OA
ATOM     71  O   UNL A   1      41.532  35.530  37.176  1.00  0.00    -0.744 OA
ENDBRANCH  65  68
ENDBRANCH  47  61
BRANCH  48  72
ATOM     72  C   UNL A   1      42.316  26.564  27.661  1.00  0.00     0.023 A 
ATOM     73  C   UNL A   1      43.111  27.196  26.684  1.00  0.00     0.012 A 
ATOM     74  C   UNL A   1      42.005  25.200  27.516  1.00  0.00     0.148 A 
ATOM     75  C   UNL A   1      43.556  26.490  25.564  1.00  0.00     0.002 A 
ATOM     76  C   UNL A   1      42.500  24.489  26.429  1.00  0.00     0.091 A 
ATOM     77  F   UNL A   1      41.240  24.619  28.451  1.00  0.00    -0.205 F 
ATOM     78  C   UNL A   1      43.259  25.136  25.442  1.00  0.00     0.022 A 
BRANCH  76  79
ATOM     79  S   UNL A   1      42.279  22.715  26.256  1.00  0.00     0.127 S 
ATOM     80  O   UNL A   1      42.926  22.212  27.465  1.00  0.00    -0.237 OA
ATOM     81  O   UNL A   1      40.821  22.593  26.240  1.00  0.00    -0.237 OA
ATOM     82  O   UNL A   1      42.924  22.358  24.998  1.00  0.00    -0.744 OA
ENDBRANCH  76  79
ENDBRANCH  48  72
BRANCH  60  83
ATOM     83  C   UNL A   1      44.580  27.238  34.228  1.00  0.00     0.023 A 
ATOM     84  C   UNL A   1      45.848  27.852  34.226  1.00  0.00     0.012 A 
ATOM     85  C   UNL A   1      44.382  26.066  34.985  1.00  0.00     0.148 A 
ATOM     86  C   UNL A   1      46.912  27.286  34.926  1.00  0.00     0.002 A 
ATOM     87  C   UNL A   1      45.433  25.538  35.725  1.00  0.00     0.091 A 
ATOM     88  F   UNL A   1      43.174  25.486  34.962  1.00  0.00    -0.205 F 
ATOM     89  C   UNL A   1      46.701  26.136  35.685  1.00  0.00     0.022 A 
BRANCH  87  90
ATOM     90  S   UNL A   1      45.226  24.120  36.808  1.00  0.00     0.127 S 
ATOM     91  O   UNL A   1      44.811  23.083  35.865  1.00  0.00    -0.237 OA
ATOM     92  O   UNL A   1      46.574  23.946  37.351  1.00  0.00    -0.237 OA
ATOM     93  O   UNL A   1      44.226  24.508  37.792  1.00  0.00    -0.744 OA
ENDBRANCH  87  90
ENDBRANCH  60  83
ENDBRANCH  34  35
ENDBRANCH  26  29
ENDBRANCH  24  25
ENDBRANCH   1  24
TORSDOF 16
ENDMDL
MODEL 2
REMARK VINA RESULT:     -12.0      2.816      4.145
REMARK SMILES O=C(Cc1ccccc1Nc1c(Cl)cccc1Cl)NCCCNC(=O)c1ccc(-c2c3nc(c(-c4cccc(S(=O)(=O)[O-])c4F)c4ccc([nH]4)c(-c4cccc(S(=O)(=O)[O-])c4F)c4nc(c(-c5cccc(S(=O)(=O)[O-])c5F)c5ccc2[nH]5)C=C4)C=C3)cc1
REMARK SMILES IDX 21 1 20 2 19 3 1 4 2 5 3 7 4 8 5 9 9 10 6 11 8 12 7 13 10 14
REMARK SMILES IDX 11 16 12 17 17 18 13 19 14 20 16 21 18 22 15 23 22 24 23 25
REMARK SMILES IDX 24 26 25 28 26 29 27 30 88 31 28 32 87 33 29 34 30 35 31 36
REMARK SMILES IDX 81 37 32 38 86 39 80 40 82 41 33 42 85 43 79 44 78 45 34 47
REMARK SMILES IDX 66 48 46 49 65 50 47 51 50 52 64 53 83 54 48 55 49 56 63 58
REMARK SMILES IDX 84 59 51 60 35 61 36 62 44 63 37 64 39 65 45 66 38 67 40 68
REMARK SMILES IDX 41 69 42 70 43 71 67 72 68 73 76 74 69 75 71 76 77 77 70 78
REMARK SMILES IDX 72 79 73 80 74 81 75 82 52 83 53 84 61 85 54 86 56 87 62 88
REMARK SMILES IDX 55 89 57 90 58 91 59 92 60 93
REMARK H PARENT 19 6 10 15 23 27 82 46 50 57
REMARK Flexibility Score: inf
ROOT
ATOM      1  C   UNL A   1      33.796  28.097  26.186  1.00  0.00     0.042 C 
ENDROOT
BRANCH   1   2
ATOM      2  C   UNL A   1      32.970  26.962  25.601  1.00  0.00     0.117 C 
BRANCH   2   3
ATOM      3  N   UNL A   1      33.246  25.666  26.188  1.00  0.00    -0.356 N 
ATOM      4  O   UNL A   1      33.209  24.533  24.194  1.00  0.00    -0.275 OA
ATOM      5  C   UNL A   1      33.378  24.536  25.411  1.00  0.00     0.224 C 
ATOM      6  H   UNL A   1      33.343  25.591  27.165  1.00  0.00     0.163 HD
BRANCH   5   7
ATOM      7  C   UNL A   1      33.838  23.301  26.146  1.00  0.00     0.137 C 
BRANCH   7   8
ATOM      8  C   UNL A   1      35.192  22.709  25.780  1.00  0.00    -0.015 A 
ATOM      9  C   UNL A   1      36.247  23.652  25.743  1.00  0.00     0.006 A 
ATOM     10  C   UNL A   1      35.489  21.349  25.518  1.00  0.00     0.042 A 
ATOM     11  C   UNL A   1      37.543  23.288  25.390  1.00  0.00     0.000 A 
ATOM     12  C   UNL A   1      36.793  21.022  25.098  1.00  0.00     0.026 A 
ATOM     13  C   UNL A   1      37.811  21.973  25.044  1.00  0.00     0.002 A 
BRANCH  10  14
ATOM     14  N   UNL A   1      34.512  20.335  25.588  1.00  0.00    -0.353 N 
ATOM     15  H   UNL A   1      34.108  20.205  26.477  1.00  0.00     0.167 HD
BRANCH  14  16
ATOM     16  C   UNL A   1      34.025  19.475  24.571  1.00  0.00     0.076 A 
ATOM     17  C   UNL A   1      32.841  19.779  23.874  1.00  0.00     0.066 A 
ATOM     18  C   UNL A   1      34.592  18.205  24.361  1.00  0.00     0.066 A 
ATOM     19  Cl  UNL A   1      32.158  21.359  23.925  1.00  0.00    -0.082 Cl
ATOM     20  C   UNL A   1      32.203  18.829  23.070  1.00  0.00     0.023 A 
ATOM     21  C   UNL A   1      33.980  17.270  23.519  1.00  0.00     0.023 A 
ATOM     22  Cl  UNL A   1      36.069  17.741  25.136  1.00  0.00    -0.082 Cl
ATOM     23  C   UNL A   1      32.769  17.570  22.898  1.00  0.00     0.003 A 
ENDBRANCH  14  16
ENDBRANCH  10  14
ENDBRANCH   7   8
ENDBRANCH   5   7
ENDBRANCH   2   3
ENDBRANCH   1   2
BRANCH   1  24
ATOM     24  C   UNL A   1      33.228  28.773  27.428  1.00  0.00     0.118 C 
BRANCH  24  25
ATOM     25  N   UNL A   1      33.436  30.211  27.474  1.00  0.00    -0.352 N 
ATOM     26  C   UNL A   1      34.535  30.944  27.864  1.00  0.00     0.251 C 
ATOM     27  H   UNL A   1      32.667  30.748  27.178  1.00  0.00     0.163 HD
ATOM     28  O   UNL A   1      34.469  32.168  27.905  1.00  0.00    -0.269 OA
BRANCH  26  29
ATOM     29  C   UNL A   1      35.785  30.267  28.277  1.00  0.00     0.039 A 
ATOM     30  C   UNL A   1      36.868  30.273  27.393  1.00  0.00     0.014 A 
ATOM     31  C   UNL A   1      35.902  29.637  29.518  1.00  0.00     0.014 A 
ATOM     32  C   UNL A   1      38.088  29.722  27.789  1.00  0.00     0.010 A 
ATOM     33  C   UNL A   1      37.145  29.180  29.948  1.00  0.00     0.010 A 
ATOM     34  C   UNL A   1      38.250  29.213  29.088  1.00  0.00    -0.014 A 
BRANCH  34  35
ATOM     35  C   UNL A   1      39.576  28.735  29.560  1.00  0.00     0.031 A 
ATOM     36  C   UNL A   1      40.298  29.452  30.670  1.00  0.00     0.074 A 
ATOM     37  C   UNL A   1      40.159  27.691  28.939  1.00  0.00     0.049 A 
ATOM     38  N   UNL A   1      41.460  29.181  31.203  1.00  0.00    -0.248 NA
ATOM     39  C   UNL A   1      39.645  30.645  31.233  1.00  0.00     0.031 C 
ATOM     40  C   UNL A   1      39.604  26.971  27.789  1.00  0.00     0.029 A 
ATOM     41  N   UNL A   1      41.358  27.063  29.172  1.00  0.00    -0.354 N 
ATOM     42  C   UNL A   1      41.692  30.182  32.138  1.00  0.00     0.074 A 
ATOM     43  C   UNL A   1      40.571  31.093  32.070  1.00  0.00     0.031 C 
ATOM     44  C   UNL A   1      40.449  25.990  27.433  1.00  0.00     0.029 A 
ATOM     45  C   UNL A   1      41.618  26.028  28.303  1.00  0.00     0.049 A 
ATOM     46  H   UNL A   1      41.973  27.327  29.894  1.00  0.00     0.167 HD
ATOM     47  C   UNL A   1      42.729  30.317  33.000  1.00  0.00     0.034 A 
ATOM     48  C   UNL A   1      42.680  25.204  28.216  1.00  0.00     0.034 A 
ATOM     49  C   UNL A   1      43.824  29.390  33.089  1.00  0.00     0.049 A 
ATOM     50  C   UNL A   1      43.794  25.346  29.216  1.00  0.00     0.074 A 
ATOM     51  C   UNL A   1      44.878  29.387  33.986  1.00  0.00     0.029 A 
ATOM     52  N   UNL A   1      44.014  28.305  32.245  1.00  0.00    -0.354 N 
ATOM     53  N   UNL A   1      43.915  26.202  30.201  1.00  0.00    -0.248 NA
ATOM     54  C   UNL A   1      44.900  24.382  29.118  1.00  0.00     0.031 C 
ATOM     55  C   UNL A   1      45.723  28.320  33.663  1.00  0.00     0.029 A 
ATOM     56  C   UNL A   1      45.174  27.633  32.592  1.00  0.00     0.049 A 
ATOM     57  H   UNL A   1      43.413  28.052  31.509  1.00  0.00     0.167 HD
ATOM     58  C   UNL A   1      45.088  25.858  30.863  1.00  0.00     0.074 A 
ATOM     59  C   UNL A   1      45.626  24.699  30.182  1.00  0.00     0.031 C 
ATOM     60  C   UNL A   1      45.674  26.454  31.931  1.00  0.00     0.034 A 
BRANCH  47  61
ATOM     61  C   UNL A   1      42.703  31.488  33.950  1.00  0.00     0.023 A 
ATOM     62  C   UNL A   1      43.273  32.717  33.560  1.00  0.00     0.012 A 
ATOM     63  C   UNL A   1      42.069  31.390  35.204  1.00  0.00     0.148 A 
ATOM     64  C   UNL A   1      43.248  33.818  34.415  1.00  0.00     0.002 A 
ATOM     65  C   UNL A   1      42.003  32.506  36.031  1.00  0.00     0.091 A 
ATOM     66  F   UNL A   1      41.549  30.209  35.568  1.00  0.00    -0.205 F 
ATOM     67  C   UNL A   1      42.604  33.715  35.645  1.00  0.00     0.022 A 
BRANCH  65  68
ATOM     68  S   UNL A   1      41.125  32.503  37.598  1.00  0.00     0.127 S 
ATOM     69  O   UNL A   1      41.992  31.659  38.419  1.00  0.00    -0.237 OA
ATOM     70  O   UNL A   1      41.138  33.922  37.959  1.00  0.00    -0.237 OA
ATOM     71  O   UNL A   1      39.805  31.957  37.320  1.00  0.00    -0.744 OA
ENDBRANCH  65  68
ENDBRANCH  47  61
BRANCH  48  72
ATOM     72  C   UNL A   1      42.708  24.128  27.184  1.00  0.00     0.023 A 
ATOM     73  C   UNL A   1      43.350  24.363  25.952  1.00  0.00     0.012 A 
ATOM     74  C   UNL A   1      42.121  22.871  27.424  1.00  0.00     0.148 A 
ATOM     75  C   UNL A   1      43.373  23.378  24.964  1.00  0.00     0.002 A 
ATOM     76  C   UNL A   1      42.199  21.876  26.457  1.00  0.00     0.091 A 
ATOM     77  F   UNL A   1      41.507  22.670  28.598  1.00  0.00    -0.205 F 
ATOM     78  C   UNL A   1      42.807  22.133  25.219  1.00  0.00     0.022 A 
BRANCH  76  79
ATOM     79  S   UNL A   1      41.614  20.203  26.748  1.00  0.00     0.127 S 
ATOM     80  O   UNL A   1      40.194  20.422  27.008  1.00  0.00    -0.237 OA
ATOM     81  O   UNL A   1      41.915  19.553  25.472  1.00  0.00    -0.237 OA
ATOM     82  O   UNL A   1      42.394  19.703  27.874  1.00  0.00    -0.744 OA
ENDBRANCH  76  79
ENDBRANCH  48  72
BRANCH  60  83
ATOM     83  C   UNL A   1      46.944  25.840  32.460  1.00  0.00     0.023 A 
ATOM     84  C   UNL A   1      48.195  26.290  31.992  1.00  0.00     0.012 A 
ATOM     85  C   UNL A   1      46.897  24.852  33.463  1.00  0.00     0.148 A 
ATOM     86  C   UNL A   1      49.376  25.734  32.480  1.00  0.00     0.002 A 
ATOM     87  C   UNL A   1      48.080  24.342  33.984  1.00  0.00     0.091 A 
ATOM     88  F   UNL A   1      45.699  24.423  33.884  1.00  0.00    -0.205 F 
ATOM     89  C   UNL A   1      49.319  24.769  33.484  1.00  0.00     0.022 A 
BRANCH  87  90
ATOM     90  S   UNL A   1      48.103  23.172  35.347  1.00  0.00     0.127 S 
ATOM     91  O   UNL A   1      47.382  22.036  34.776  1.00  0.00    -0.237 OA
ATOM     92  O   UNL A   1      49.536  22.950  35.541  1.00  0.00    -0.237 OA
ATOM     93  O   UNL A   1      47.441  23.838  36.460  1.00  0.00    -0.744 OA
ENDBRANCH  87  90
ENDBRANCH  60  83
ENDBRANCH  34  35
ENDBRANCH  26  29
ENDBRANCH  24  25
ENDBRANCH   1  24
TORSDOF 16
ENDMDL
MODEL 3
REMARK VINA RESULT:     -11.9      1.257      1.593
REMARK SMILES O=C(Cc1ccccc1Nc1c(Cl)cccc1Cl)NCCCNC(=O)c1ccc(-c2c3nc(c(-c4cccc(S(=O)(=O)[O-])c4F)c4ccc([nH]4)c(-c4cccc(S(=O)(=O)[O-])c4F)c4nc(c(-c5cccc(S(=O)(=O)[O-])c5F)c5ccc2[nH]5)C=C4)C=C3)cc1
REMARK SMILES IDX 21 1 20 2 19 3 1 4 2 5 3 7 4 8 5 9 9 10 6 11 8 12 7 13 10 14
REMARK SMILES IDX 11 16 12 17 17 18 13 19 14 20 16 21 18 22 15 23 22 24 23 25
REMARK SMILES IDX 24 26 25 28 26 29 27 30 88 31 28 32 87 33 29 34 30 35 31 36
REMARK SMILES IDX 81 37 32 38 86 39 80 40 82 41 33 42 85 43 79 44 78 45 34 47
REMARK SMILES IDX 66 48 46 49 65 50 47 51 50 52 64 53 83 54 48 55 49 56 63 58
REMARK SMILES IDX 84 59 51 60 35 61 36 62 44 63 37 64 39 65 45 66 38 67 40 68
REMARK SMILES IDX 41 69 42 70 43 71 67 72 68 73 76 74 69 75 71 76 77 77 70 78
REMARK SMILES IDX 72 79 73 80 74 81 75 82 52 83 53 84 61 85 54 86 56 87 62 88
REMARK SMILES IDX 55 89 57 90 58 91 59 92 60 93
REMARK H PARENT 19 6 10 15 23 27 82 46 50 57
REMARK Flexibility Score: inf
ROOT
ATOM      1  C   UNL A   1      31.782  29.301  26.643  1.00  0.00     0.042 C 
ENDROOT
BRANCH   1   2
ATOM      2  C   UNL A   1      31.876  28.041  27.490  1.00  0.00     0.117 C 
BRANCH   2   3
ATOM      3  N   UNL A   1      31.093  26.930  26.987  1.00  0.00    -0.356 N 
ATOM      4  O   UNL A   1      32.880  25.822  26.072  1.00  0.00    -0.275 OA
ATOM      5  C   UNL A   1      31.680  25.871  26.331  1.00  0.00     0.224 C 
ATOM      6  H   UNL A   1      30.116  26.932  27.117  1.00  0.00     0.163 HD
BRANCH   5   7
ATOM      7  C   UNL A   1      30.761  24.715  26.025  1.00  0.00     0.137 C 
BRANCH   7   8
ATOM      8  C   UNL A   1      31.270  23.614  25.104  1.00  0.00    -0.015 A 
ATOM      9  C   UNL A   1      31.735  22.461  25.780  1.00  0.00     0.006 A 
ATOM     10  C   UNL A   1      31.287  23.623  23.688  1.00  0.00     0.042 A 
ATOM     11  C   UNL A   1      32.269  21.374  25.094  1.00  0.00     0.000 A 
ATOM     12  C   UNL A   1      31.895  22.539  23.024  1.00  0.00     0.026 A 
ATOM     13  C   UNL A   1      32.370  21.424  23.713  1.00  0.00     0.002 A 
BRANCH  10  14
ATOM     14  N   UNL A   1      30.791  24.705  22.933  1.00  0.00    -0.353 N 
ATOM     15  H   UNL A   1      30.176  24.459  22.204  1.00  0.00     0.167 HD
BRANCH  14  16
ATOM     16  C   UNL A   1      31.046  26.093  23.064  1.00  0.00     0.076 A 
ATOM     17  C   UNL A   1      30.000  26.999  23.321  1.00  0.00     0.066 A 
ATOM     18  C   UNL A   1      32.307  26.633  22.752  1.00  0.00     0.066 A 
ATOM     19  Cl  UNL A   1      28.465  26.451  23.877  1.00  0.00    -0.082 Cl
ATOM     20  C   UNL A   1      30.180  28.379  23.187  1.00  0.00     0.023 A 
ATOM     21  C   UNL A   1      32.500  28.016  22.665  1.00  0.00     0.023 A 
ATOM     22  Cl  UNL A   1      33.674  25.612  22.459  1.00  0.00    -0.082 Cl
ATOM     23  C   UNL A   1      31.430  28.889  22.851  1.00  0.00     0.003 A 
ENDBRANCH  14  16
ENDBRANCH  10  14
ENDBRANCH   7   8
ENDBRANCH   5   7
ENDBRANCH   2   3
ENDBRANCH   1   2
BRANCH   1  24
ATOM     24  C   UNL A   1      33.077  30.078  26.444  1.00  0.00     0.118 C 
BRANCH  24  25
ATOM     25  N   UNL A   1      33.027  31.454  26.911  1.00  0.00    -0.352 N 
ATOM     26  C   UNL A   1      33.883  32.152  27.734  1.00  0.00     0.251 C 
ATOM     27  H   UNL A   1      32.256  31.971  26.585  1.00  0.00     0.163 HD
ATOM     28  O   UNL A   1      33.606  33.297  28.072  1.00  0.00    -0.269 OA
BRANCH  26  29
ATOM     29  C   UNL A   1      35.116  31.516  28.249  1.00  0.00     0.039 A 
ATOM     30  C   UNL A   1      36.324  32.207  28.119  1.00  0.00     0.014 A 
ATOM     31  C   UNL A   1      35.094  30.262  28.861  1.00  0.00     0.014 A 
ATOM     32  C   UNL A   1      37.490  31.677  28.675  1.00  0.00     0.010 A 
ATOM     33  C   UNL A   1      36.233  29.784  29.503  1.00  0.00     0.010 A 
ATOM     34  C   UNL A   1      37.445  30.482  29.414  1.00  0.00    -0.014 A 
BRANCH  34  35
ATOM     35  C   UNL A   1      38.653  29.971  30.112  1.00  0.00     0.031 A 
ATOM     36  C   UNL A   1      39.028  30.490  31.474  1.00  0.00     0.074 A 
ATOM     37  C   UNL A   1      39.451  29.084  29.484  1.00  0.00     0.049 A 
ATOM     38  N   UNL A   1      40.046  30.164  32.226  1.00  0.00    -0.248 NA
ATOM     39  C   UNL A   1      38.165  31.531  32.056  1.00  0.00     0.031 C 
ATOM     40  C   UNL A   1      39.247  28.575  28.124  1.00  0.00     0.029 A 
ATOM     41  N   UNL A   1      40.605  28.466  29.896  1.00  0.00    -0.354 N 
ATOM     42  C   UNL A   1      39.966  30.978  33.349  1.00  0.00     0.074 A 
ATOM     43  C   UNL A   1      38.825  31.845  33.162  1.00  0.00     0.031 C 
ATOM     44  C   UNL A   1      40.229  27.710  27.825  1.00  0.00     0.029 A 
ATOM     45  C   UNL A   1      41.149  27.624  28.953  1.00  0.00     0.049 A 
ATOM     46  H   UNL A   1      41.006  28.611  30.784  1.00  0.00     0.167 HD
ATOM     47  C   UNL A   1      40.752  30.984  34.453  1.00  0.00     0.034 A 
ATOM     48  C   UNL A   1      42.264  26.870  28.992  1.00  0.00     0.034 A 
ATOM     49  C   UNL A   1      41.865  30.096  34.650  1.00  0.00     0.049 A 
ATOM     50  C   UNL A   1      43.091  26.859  30.249  1.00  0.00     0.074 A 
ATOM     51  C   UNL A   1      42.671  29.961  35.767  1.00  0.00     0.029 A 
ATOM     52  N   UNL A   1      42.338  29.198  33.704  1.00  0.00    -0.354 N 
ATOM     53  N   UNL A   1      42.903  27.517  31.366  1.00  0.00    -0.248 NA
ATOM     54  C   UNL A   1      44.262  25.970  30.264  1.00  0.00     0.031 C 
ATOM     55  C   UNL A   1      43.652  29.004  35.485  1.00  0.00     0.029 A 
ATOM     56  C   UNL A   1      43.433  28.514  34.208  1.00  0.00     0.049 A 
ATOM     57  H   UNL A   1      41.954  29.067  32.809  1.00  0.00     0.167 HD
ATOM     58  C   UNL A   1      43.907  27.096  32.230  1.00  0.00     0.074 A 
ATOM     59  C   UNL A   1      44.684  26.106  31.513  1.00  0.00     0.031 C 
ATOM     60  C   UNL A   1      44.170  27.500  33.498  1.00  0.00     0.034 A 
BRANCH  47  61
ATOM     61  C   UNL A   1      40.405  31.952  35.555  1.00  0.00     0.023 A 
ATOM     62  C   UNL A   1      41.132  33.153  35.684  1.00  0.00     0.012 A 
ATOM     63  C   UNL A   1      39.328  31.702  36.428  1.00  0.00     0.148 A 
ATOM     64  C   UNL A   1      40.819  34.071  36.687  1.00  0.00     0.002 A 
ATOM     65  C   UNL A   1      38.990  32.645  37.392  1.00  0.00     0.091 A 
ATOM     66  F   UNL A   1      38.660  30.547  36.304  1.00  0.00    -0.205 F 
ATOM     67  C   UNL A   1      39.743  33.822  37.533  1.00  0.00     0.022 A 
BRANCH  65  68
ATOM     68  S   UNL A   1      37.570  32.458  38.477  1.00  0.00     0.127 S 
ATOM     69  O   UNL A   1      37.879  33.419  39.534  1.00  0.00    -0.237 OA
ATOM     70  O   UNL A   1      36.463  32.848  37.602  1.00  0.00    -0.237 OA
ATOM     71  O   UNL A   1      37.558  31.062  38.888  1.00  0.00    -0.744 OA
ENDBRANCH  65  68
ENDBRANCH  47  61
BRANCH  48  72
ATOM     72  C   UNL A   1      42.625  26.009  27.829  1.00  0.00     0.023 A 
ATOM     73  C   UNL A   1      43.564  26.473  26.887  1.00  0.00     0.012 A 
ATOM     74  C   UNL A   1      42.059  24.731  27.662  1.00  0.00     0.148 A 
ATOM     75  C   UNL A   1      43.905  25.695  25.780  1.00  0.00     0.002 A 
ATOM     76  C   UNL A   1      42.447  23.938  26.589  1.00  0.00     0.091 A 
ATOM     77  F   UNL A   1      41.161  24.312  28.564  1.00  0.00    -0.205 F 
ATOM     78  C   UNL A   1      43.354  24.425  25.636  1.00  0.00     0.022 A 
BRANCH  76  79
ATOM     79  S   UNL A   1      41.891  22.241  26.395  1.00  0.00     0.127 S 
ATOM     80  O   UNL A   1      42.621  21.821  25.202  1.00  0.00    -0.237 OA
ATOM     81  O   UNL A   1      42.345  21.631  27.644  1.00  0.00    -0.237 OA
ATOM     82  O   UNL A   1      40.442  22.315  26.255  1.00  0.00    -0.744 OA
ENDBRANCH  76  79
ENDBRANCH  48  72
BRANCH  60  83
ATOM     83  C   UNL A   1      45.322  26.841  34.212  1.00  0.00     0.023 A 
ATOM     84  C   UNL A   1      46.602  27.430  34.181  1.00  0.00     0.012 A 
ATOM     85  C   UNL A   1      45.121  25.664  34.960  1.00  0.00     0.148 A 
ATOM     86  C   UNL A   1      47.673  26.834  34.845  1.00  0.00     0.002 A 
ATOM     87  C   UNL A   1      46.181  25.106  35.664  1.00  0.00     0.091 A 
ATOM     88  F   UNL A   1      43.902  25.108  34.963  1.00  0.00    -0.205 F 
ATOM     89  C   UNL A   1      47.460  25.679  35.596  1.00  0.00     0.022 A 
BRANCH  87  90
ATOM     90  S   UNL A   1      45.976  23.679  36.735  1.00  0.00     0.127 S 
ATOM     91  O   UNL A   1      47.339  23.471  37.219  1.00  0.00    -0.237 OA
ATOM     92  O   UNL A   1      45.041  24.181  37.744  1.00  0.00    -0.237 OA
ATOM     93  O   UNL A   1      45.441  22.618  35.893  1.00  0.00    -0.744 OA
ENDBRANCH  87  90
ENDBRANCH  60  83
ENDBRANCH  34  35
ENDBRANCH  26  29
ENDBRANCH  24  25
ENDBRANCH   1  24
TORSDOF 16
ENDMDL
