MODEL 1
REMARK VINA RESULT:     -11.3      0.000      0.000
REMARK SMILES CC(C)(C)OC(=O)N1[C@@H](C(=O)NCCCNC(=O)c2ccc(-c3c4nc(c(-c5cccc(S(=O)(=O)[O-])c5F)c5ccc([nH]5)c(-c5cccc(S(=O)(=O)[O-])c5F)c5nc(c(-c6cccc(S(=O)(=O)[O-])c6F)c6ccc3[nH]6)C=C5)C=C4)cc2)C[C@H]2CCCC[C@@H]21
REMARK SMILES IDX 14 1 13 2 12 3 10 4 11 5 9 7 8 8 88 9 82 10 83 11 87 12
REMARK SMILES IDX 84 13 86 14 85 15 6 16 7 17 5 18 2 19 1 20 3 21 4 22 15 23
REMARK SMILES IDX 16 24 17 25 18 27 19 28 20 29 81 30 21 31 80 32 22 33 23 34
REMARK SMILES IDX 24 35 74 36 25 37 79 38 73 39 75 40 26 41 78 42 72 43 71 44
REMARK SMILES IDX 27 46 59 47 39 48 58 49 40 50 43 51 57 52 76 53 41 54 42 55
REMARK SMILES IDX 56 57 77 58 44 59 28 60 29 61 37 62 30 63 32 64 38 65 31 66
REMARK SMILES IDX 33 67 34 68 35 69 36 70 60 71 61 72 69 73 62 74 64 75 70 76
REMARK SMILES IDX 63 77 65 78 66 79 67 80 68 81 45 82 46 83 54 84 47 85 49 86
REMARK SMILES IDX 55 87 48 88 50 89 51 90 52 91 53 92
REMARK H PARENT 12 6 16 26 75 45 43 56
REMARK Flexibility Score: inf
ROOT
ATOM      1  C   UNL A   1      33.900  28.072  25.962  1.00  0.00     0.042 C 
ENDROOT
BRANCH   1   2
ATOM      2  C   UNL A   1      33.409  26.665  25.669  1.00  0.00     0.117 C 
BRANCH   2   3
ATOM      3  N   UNL A   1      33.806  26.209  24.349  1.00  0.00    -0.354 N 
ATOM      4  C   UNL A   1      33.552  25.015  23.730  1.00  0.00     0.242 C 
ATOM      5  O   UNL A   1      34.011  24.858  22.596  1.00  0.00    -0.273 OA
ATOM      6  H   UNL A   1      34.334  26.852  23.823  1.00  0.00     0.163 HD
BRANCH   4   7
ATOM      7  C   UNL A   1      32.677  23.960  24.449  1.00  0.00     0.178 C 
ATOM      8  N   UNL A   1      33.516  22.902  25.038  1.00  0.00    -0.293 N 
ATOM      9  C   UNL A   1      33.508  21.724  24.202  1.00  0.00     0.092 C 
ATOM     10  C   UNL A   1      31.841  23.225  23.373  1.00  0.00     0.041 C 
ATOM     11  C   UNL A   1      32.078  21.758  23.665  1.00  0.00     0.014 C 
ATOM     12  C   UNL A   1      33.727  20.354  24.842  1.00  0.00     0.025 C 
ATOM     13  C   UNL A   1      31.917  20.786  22.514  1.00  0.00     0.006 C 
ATOM     14  C   UNL A   1      33.493  19.243  23.806  1.00  0.00     0.002 C 
ATOM     15  C   UNL A   1      32.170  19.371  23.039  1.00  0.00     0.000 C 
BRANCH   8  16
ATOM     16  C   UNL A   1      34.337  23.058  26.125  1.00  0.00     0.411 C 
ATOM     17  O   UNL A   1      34.025  22.703  27.258  1.00  0.00    -0.224 OA
BRANCH  16  18
ATOM     18  O   UNL A   1      35.462  23.754  25.819  1.00  0.00    -0.444 OA
BRANCH  18  19
ATOM     19  C   UNL A   1      36.664  23.056  25.383  1.00  0.00     0.106 C 
ATOM     20  C   UNL A   1      37.831  23.793  26.060  1.00  0.00     0.056 C 
ATOM     21  C   UNL A   1      36.800  23.179  23.865  1.00  0.00     0.056 C 
ATOM     22  C   UNL A   1      36.731  21.586  25.837  1.00  0.00     0.056 C 
ENDBRANCH  18  19
ENDBRANCH  16  18
ENDBRANCH   8  16
ENDBRANCH   4   7
ENDBRANCH   2   3
ENDBRANCH   1   2
BRANCH   1  23
ATOM     23  C   UNL A   1      33.419  28.633  27.291  1.00  0.00     0.118 C 
BRANCH  23  24
ATOM     24  N   UNL A   1      33.574  30.080  27.390  1.00  0.00    -0.352 N 
ATOM     25  C   UNL A   1      34.628  30.816  27.880  1.00  0.00     0.251 C 
ATOM     26  H   UNL A   1      32.812  30.608  27.059  1.00  0.00     0.163 HD
ATOM     27  O   UNL A   1      34.509  32.030  28.026  1.00  0.00    -0.269 OA
BRANCH  25  28
ATOM     28  C   UNL A   1      35.890  30.141  28.258  1.00  0.00     0.039 A 
ATOM     29  C   UNL A   1      36.943  30.105  27.340  1.00  0.00     0.014 A 
ATOM     30  C   UNL A   1      36.043  29.564  29.520  1.00  0.00     0.014 A 
ATOM     31  C   UNL A   1      38.175  29.567  27.722  1.00  0.00     0.010 A 
ATOM     32  C   UNL A   1      37.295  29.118  29.930  1.00  0.00     0.010 A 
ATOM     33  C   UNL A   1      38.375  29.111  29.036  1.00  0.00    -0.014 A 
BRANCH  33  34
ATOM     34  C   UNL A   1      39.702  28.632  29.502  1.00  0.00     0.031 A 
ATOM     35  C   UNL A   1      40.434  29.377  30.588  1.00  0.00     0.074 A 
ATOM     36  C   UNL A   1      40.292  27.587  28.887  1.00  0.00     0.049 A 
ATOM     37  N   UNL A   1      41.635  29.172  31.064  1.00  0.00    -0.248 NA
ATOM     38  C   UNL A   1      39.735  30.521  31.199  1.00  0.00     0.031 C 
ATOM     39  C   UNL A   1      39.718  26.822  27.778  1.00  0.00     0.029 A 
ATOM     40  N   UNL A   1      41.519  27.004  29.089  1.00  0.00    -0.354 N 
ATOM     41  C   UNL A   1      41.847  30.175  32.002  1.00  0.00     0.074 A 
ATOM     42  C   UNL A   1      40.670  31.013  31.999  1.00  0.00     0.031 C 
ATOM     43  C   UNL A   1      40.587  25.869  27.402  1.00  0.00     0.029 A 
ATOM     44  C   UNL A   1      41.794  25.978  28.214  1.00  0.00     0.049 A 
ATOM     45  H   UNL A   1      42.143  27.292  29.793  1.00  0.00     0.167 HD
ATOM     46  C   UNL A   1      42.912  30.364  32.817  1.00  0.00     0.034 A 
ATOM     47  C   UNL A   1      42.900  25.220  28.071  1.00  0.00     0.034 A 
ATOM     48  C   UNL A   1      44.068  29.509  32.843  1.00  0.00     0.049 A 
ATOM     49  C   UNL A   1      44.068  25.449  28.994  1.00  0.00     0.074 A 
ATOM     50  C   UNL A   1      45.168  29.576  33.679  1.00  0.00     0.029 A 
ATOM     51  N   UNL A   1      44.278  28.437  31.991  1.00  0.00    -0.354 N 
ATOM     52  N   UNL A   1      44.190  26.315  29.971  1.00  0.00    -0.248 NA
ATOM     53  C   UNL A   1      45.236  24.574  28.817  1.00  0.00     0.031 C 
ATOM     54  C   UNL A   1      46.057  28.561  33.314  1.00  0.00     0.029 A 
ATOM     55  C   UNL A   1      45.493  27.839  32.274  1.00  0.00     0.049 A 
ATOM     56  H   UNL A   1      43.655  28.145  31.287  1.00  0.00     0.167 HD
ATOM     57  C   UNL A   1      45.427  26.059  30.553  1.00  0.00     0.074 A 
ATOM     58  C   UNL A   1      46.008  24.947  29.829  1.00  0.00     0.031 C 
ATOM     59  C   UNL A   1      46.032  26.695  31.586  1.00  0.00     0.034 A 
BRANCH  46  60
ATOM     60  C   UNL A   1      42.855  31.515  33.789  1.00  0.00     0.023 A 
ATOM     61  C   UNL A   1      43.343  32.780  33.400  1.00  0.00     0.012 A 
ATOM     62  C   UNL A   1      42.267  31.364  35.061  1.00  0.00     0.148 A 
ATOM     63  C   UNL A   1      43.284  33.865  34.273  1.00  0.00     0.002 A 
ATOM     64  C   UNL A   1      42.167  32.462  35.907  1.00  0.00     0.091 A 
ATOM     65  F   UNL A   1      41.825  30.151  35.420  1.00  0.00    -0.205 F 
ATOM     66  C   UNL A   1      42.686  33.709  35.520  1.00  0.00     0.022 A 
BRANCH  64  67
ATOM     67  S   UNL A   1      41.342  32.389  37.501  1.00  0.00     0.127 S 
ATOM     68  O   UNL A   1      40.047  31.816  37.137  1.00  0.00    -0.237 OA
ATOM     69  O   UNL A   1      42.216  31.490  38.256  1.00  0.00    -0.237 OA
ATOM     70  O   UNL A   1      41.301  33.757  37.997  1.00  0.00    -0.744 OA
ENDBRANCH  64  67
ENDBRANCH  46  60
BRANCH  47  71
ATOM     71  C   UNL A   1      42.942  24.135  27.048  1.00  0.00     0.023 A 
ATOM     72  C   UNL A   1      43.667  24.337  25.857  1.00  0.00     0.012 A 
ATOM     73  C   UNL A   1      42.275  22.911  27.245  1.00  0.00     0.148 A 
ATOM     74  C   UNL A   1      43.691  23.358  24.863  1.00  0.00     0.002 A 
ATOM     75  C   UNL A   1      42.351  21.918  26.276  1.00  0.00     0.091 A 
ATOM     76  F   UNL A   1      41.583  22.740  28.380  1.00  0.00    -0.205 F 
ATOM     77  C   UNL A   1      43.042  22.146  25.076  1.00  0.00     0.022 A 
BRANCH  75  78
ATOM     78  S   UNL A   1      41.655  20.279  26.518  1.00  0.00     0.127 S 
ATOM     79  O   UNL A   1      42.132  19.573  25.333  1.00  0.00    -0.237 OA
ATOM     80  O   UNL A   1      42.281  19.869  27.776  1.00  0.00    -0.237 OA
ATOM     81  O   UNL A   1      40.214  20.474  26.603  1.00  0.00    -0.744 OA
ENDBRANCH  75  78
ENDBRANCH  47  71
BRANCH  59  82
ATOM     82  C   UNL A   1      47.370  26.175  32.043  1.00  0.00     0.023 A 
ATOM     83  C   UNL A   1      48.558  26.696  31.494  1.00  0.00     0.012 A 
ATOM     84  C   UNL A   1      47.448  25.224  33.082  1.00  0.00     0.148 A 
ATOM     85  C   UNL A   1      49.801  26.256  31.948  1.00  0.00     0.002 A 
ATOM     86  C   UNL A   1      48.688  24.831  33.565  1.00  0.00     0.091 A 
ATOM     87  F   UNL A   1      46.305  24.729  33.580  1.00  0.00    -0.205 F 
ATOM     88  C   UNL A   1      49.866  25.335  32.990  1.00  0.00     0.022 A 
BRANCH  86  89
ATOM     89  S   UNL A   1      48.872  23.726  34.970  1.00  0.00     0.127 S 
ATOM     90  O   UNL A   1      48.268  24.509  36.046  1.00  0.00    -0.237 OA
ATOM     91  O   UNL A   1      48.091  22.561  34.550  1.00  0.00    -0.237 OA
ATOM     92  O   UNL A   1      50.301  23.480  35.105  1.00  0.00    -0.744 OA
ENDBRANCH  86  89
ENDBRANCH  59  82
ENDBRANCH  33  34
ENDBRANCH  25  28
ENDBRANCH  23  24
ENDBRANCH   1  23
TORSDOF 16
ENDMDL
MODEL 2
REMARK VINA RESULT:     -11.3      2.424      3.561
REMARK SMILES CC(C)(C)OC(=O)N1[C@@H](C(=O)NCCCNC(=O)c2ccc(-c3c4nc(c(-c5cccc(S(=O)(=O)[O-])c5F)c5ccc([nH]5)c(-c5cccc(S(=O)(=O)[O-])c5F)c5nc(c(-c6cccc(S(=O)(=O)[O-])c6F)c6ccc3[nH]6)C=C5)C=C4)cc2)C[C@H]2CCCC[C@@H]21
REMARK SMILES IDX 14 1 13 2 12 3 10 4 11 5 9 7 8 8 88 9 82 10 83 11 87 12
REMARK SMILES IDX 84 13 86 14 85 15 6 16 7 17 5 18 2 19 1 20 3 21 4 22 15 23
REMARK SMILES IDX 16 24 17 25 18 27 19 28 20 29 81 30 21 31 80 32 22 33 23 34
REMARK SMILES IDX 24 35 74 36 25 37 79 38 73 39 75 40 26 41 78 42 72 43 71 44
REMARK SMILES IDX 27 46 59 47 39 48 58 49 40 50 43 51 57 52 76 53 41 54 42 55
REMARK SMILES IDX 56 57 77 58 44 59 28 60 29 61 37 62 30 63 32 64 38 65 31 66
REMARK SMILES IDX 33 67 34 68 35 69 36 70 60 71 61 72 69 73 62 74 64 75 70 76
REMARK SMILES IDX 63 77 65 78 66 79 67 80 68 81 45 82 46 83 54 84 47 85 49 86
REMARK SMILES IDX 55 87 48 88 50 89 51 90 52 91 53 92
REMARK H PARENT 12 6 16 26 75 45 43 56
REMARK Flexibility Score: inf
ROOT
ATOM      1  C   UNL A   1      31.766  28.890  26.326  1.00  0.00     0.042 C 
ENDROOT
BRANCH   1   2
ATOM      2  C   UNL A   1      31.756  27.564  25.586  1.00  0.00     0.117 C 
BRANCH   2   3
ATOM      3  N   UNL A   1      31.278  26.475  26.420  1.00  0.00    -0.354 N 
ATOM      4  C   UNL A   1      31.668  25.163  26.443  1.00  0.00     0.242 C 
ATOM      5  O   UNL A   1      31.098  24.419  27.244  1.00  0.00    -0.273 OA
ATOM      6  H   UNL A   1      30.572  26.716  27.063  1.00  0.00     0.163 HD
BRANCH   4   7
ATOM      7  C   UNL A   1      32.815  24.698  25.514  1.00  0.00     0.178 C 
ATOM      8  N   UNL A   1      32.313  23.755  24.499  1.00  0.00    -0.293 N 
ATOM      9  C   UNL A   1      32.628  22.395  24.870  1.00  0.00     0.092 C 
ATOM     10  C   UNL A   1      33.798  23.854  26.361  1.00  0.00     0.041 C 
ATOM     11  C   UNL A   1      33.981  22.585  25.553  1.00  0.00     0.014 C 
ATOM     12  C   UNL A   1      32.809  21.346  23.775  1.00  0.00     0.025 C 
ATOM     13  C   UNL A   1      34.379  21.333  26.308  1.00  0.00     0.006 C 
ATOM     14  C   UNL A   1      33.317  20.029  24.382  1.00  0.00     0.002 C 
ATOM     15  C   UNL A   1      34.537  20.193  25.300  1.00  0.00     0.000 C 
BRANCH   8  16
ATOM     16  C   UNL A   1      31.505  24.088  23.443  1.00  0.00     0.411 C 
ATOM     17  O   UNL A   1      30.279  24.087  23.509  1.00  0.00    -0.224 OA
BRANCH  16  18
ATOM     18  O   UNL A   1      32.214  24.292  22.303  1.00  0.00    -0.444 OA
BRANCH  18  19
ATOM     19  C   UNL A   1      32.358  25.634  21.756  1.00  0.00     0.106 C 
ATOM     20  C   UNL A   1      33.656  26.186  22.367  1.00  0.00     0.056 C 
ATOM     21  C   UNL A   1      31.179  26.497  22.209  1.00  0.00     0.056 C 
ATOM     22  C   UNL A   1      32.526  25.670  20.226  1.00  0.00     0.056 C 
ENDBRANCH  18  19
ENDBRANCH  16  18
ENDBRANCH   8  16
ENDBRANCH   4   7
ENDBRANCH   2   3
ENDBRANCH   1   2
BRANCH   1  23
ATOM     23  C   UNL A   1      32.744  29.908  25.761  1.00  0.00     0.118 C 
BRANCH  23  24
ATOM     24  N   UNL A   1      32.511  31.260  26.254  1.00  0.00    -0.352 N 
ATOM     25  C   UNL A   1      33.198  31.976  27.207  1.00  0.00     0.251 C 
ATOM     26  H   UNL A   1      31.748  31.731  25.846  1.00  0.00     0.163 HD
ATOM     27  O   UNL A   1      32.753  33.050  27.603  1.00  0.00    -0.269 OA
BRANCH  25  28
ATOM     28  C   UNL A   1      34.454  31.436  27.775  1.00  0.00     0.039 A 
ATOM     29  C   UNL A   1      35.522  32.305  28.012  1.00  0.00     0.014 A 
ATOM     30  C   UNL A   1      34.571  30.081  28.094  1.00  0.00     0.014 A 
ATOM     31  C   UNL A   1      36.673  31.829  28.647  1.00  0.00     0.010 A 
ATOM     32  C   UNL A   1      35.674  29.632  28.811  1.00  0.00     0.010 A 
ATOM     33  C   UNL A   1      36.740  30.499  29.093  1.00  0.00    -0.014 A 
BRANCH  33  34
ATOM     34  C   UNL A   1      37.905  29.992  29.864  1.00  0.00     0.031 A 
ATOM     35  C   UNL A   1      38.172  30.508  31.254  1.00  0.00     0.074 A 
ATOM     36  C   UNL A   1      38.776  29.143  29.282  1.00  0.00     0.049 A 
ATOM     37  N   UNL A   1      39.182  30.260  32.046  1.00  0.00    -0.248 NA
ATOM     38  C   UNL A   1      37.188  31.450  31.816  1.00  0.00     0.031 C 
ATOM     39  C   UNL A   1      38.668  28.621  27.918  1.00  0.00     0.029 A 
ATOM     40  N   UNL A   1      39.941  28.590  29.755  1.00  0.00    -0.354 N 
ATOM     41  C   UNL A   1      38.974  31.035  33.181  1.00  0.00     0.074 A 
ATOM     42  C   UNL A   1      37.764  31.794  32.959  1.00  0.00     0.031 C 
ATOM     43  C   UNL A   1      39.717  27.820  27.667  1.00  0.00     0.029 A 
ATOM     44  C   UNL A   1      40.592  27.802  28.834  1.00  0.00     0.049 A 
ATOM     45  H   UNL A   1      40.278  28.742  30.667  1.00  0.00     0.167 HD
ATOM     46  C   UNL A   1      39.705  31.087  34.320  1.00  0.00     0.034 A 
ATOM     47  C   UNL A   1      41.770  27.151  28.914  1.00  0.00     0.034 A 
ATOM     48  C   UNL A   1      40.889  30.305  34.554  1.00  0.00     0.049 A 
ATOM     49  C   UNL A   1      42.560  27.222  30.194  1.00  0.00     0.074 A 
ATOM     50  C   UNL A   1      41.660  30.235  35.699  1.00  0.00     0.029 A 
ATOM     51  N   UNL A   1      41.477  29.464  33.623  1.00  0.00    -0.354 N 
ATOM     52  N   UNL A   1      42.271  27.850  31.308  1.00  0.00    -0.248 NA
ATOM     53  C   UNL A   1      43.821  26.467  30.241  1.00  0.00     0.031 C 
ATOM     54  C   UNL A   1      42.733  29.373  35.452  1.00  0.00     0.029 A 
ATOM     55  C   UNL A   1      42.608  28.877  34.164  1.00  0.00     0.049 A 
ATOM     56  H   UNL A   1      41.142  29.308  32.711  1.00  0.00     0.167 HD
ATOM     57  C   UNL A   1      43.289  27.530  32.200  1.00  0.00     0.074 A 
ATOM     58  C   UNL A   1      44.192  26.640  31.502  1.00  0.00     0.031 C 
ATOM     59  C   UNL A   1      43.465  27.945  33.479  1.00  0.00     0.034 A 
BRANCH  46  60
ATOM     60  C   UNL A   1      39.214  31.985  35.427  1.00  0.00     0.023 A 
ATOM     61  C   UNL A   1      38.244  31.506  36.333  1.00  0.00     0.012 A 
ATOM     62  C   UNL A   1      39.750  33.275  35.610  1.00  0.00     0.148 A 
ATOM     63  C   UNL A   1      37.787  32.309  37.377  1.00  0.00     0.002 A 
ATOM     64  C   UNL A   1      39.326  34.051  36.682  1.00  0.00     0.091 A 
ATOM     65  F   UNL A   1      40.658  33.720  34.729  1.00  0.00    -0.205 F 
ATOM     66  C   UNL A   1      38.336  33.575  37.558  1.00  0.00     0.022 A 
BRANCH  64  67
ATOM     67  S   UNL A   1      40.028  35.662  37.053  1.00  0.00     0.127 S 
ATOM     68  O   UNL A   1      39.659  36.425  35.862  1.00  0.00    -0.237 OA
ATOM     69  O   UNL A   1      39.303  36.039  38.267  1.00  0.00    -0.237 OA
ATOM     70  O   UNL A   1      41.456  35.447  37.238  1.00  0.00    -0.744 OA
ENDBRANCH  64  67
ENDBRANCH  46  60
BRANCH  47  71
ATOM     71  C   UNL A   1      42.255  26.327  27.768  1.00  0.00     0.023 A 
ATOM     72  C   UNL A   1      43.151  26.895  26.841  1.00  0.00     0.012 A 
ATOM     73  C   UNL A   1      41.838  24.994  27.591  1.00  0.00     0.148 A 
ATOM     74  C   UNL A   1      43.590  26.165  25.736  1.00  0.00     0.002 A 
ATOM     75  C   UNL A   1      42.325  24.254  26.520  1.00  0.00     0.091 A 
ATOM     76  F   UNL A   1      40.979  24.474  28.478  1.00  0.00    -0.205 F 
ATOM     77  C   UNL A   1      43.184  24.843  25.580  1.00  0.00     0.022 A 
BRANCH  75  78
ATOM     78  S   UNL A   1      41.960  22.507  26.311  1.00  0.00     0.127 S 
ATOM     79  O   UNL A   1      42.671  22.198  25.074  1.00  0.00    -0.237 OA
ATOM     80  O   UNL A   1      42.547  21.930  27.521  1.00  0.00    -0.237 OA
ATOM     81  O   UNL A   1      40.508  22.414  26.247  1.00  0.00    -0.744 OA
ENDBRANCH  75  78
ENDBRANCH  47  71
BRANCH  59  82
ATOM     82  C   UNL A   1      44.647  27.402  34.237  1.00  0.00     0.023 A 
ATOM     83  C   UNL A   1      45.868  28.104  34.243  1.00  0.00     0.012 A 
ATOM     84  C   UNL A   1      44.520  26.231  35.012  1.00  0.00     0.148 A 
ATOM     85  C   UNL A   1      46.953  27.633  34.983  1.00  0.00     0.002 A 
ATOM     86  C   UNL A   1      45.586  25.798  35.788  1.00  0.00     0.091 A 
ATOM     87  F   UNL A   1      43.354  25.568  34.979  1.00  0.00    -0.205 F 
ATOM     88  C   UNL A   1      46.808  26.489  35.764  1.00  0.00     0.022 A 
BRANCH  86  89
ATOM     89  S   UNL A   1      45.463  24.393  36.901  1.00  0.00     0.127 S 
ATOM     90  O   UNL A   1      46.810  24.342  37.467  1.00  0.00    -0.237 OA
ATOM     91  O   UNL A   1      44.425  24.830  37.835  1.00  0.00    -0.237 OA
ATOM     92  O   UNL A   1      45.092  23.254  36.073  1.00  0.00    -0.744 OA
ENDBRANCH  86  89
ENDBRANCH  59  82
ENDBRANCH  33  34
ENDBRANCH  25  28
ENDBRANCH  23  24
ENDBRANCH   1  23
TORSDOF 16
ENDMDL
MODEL 3
REMARK VINA RESULT:     -11.2      5.127      7.671
REMARK SMILES CC(C)(C)OC(=O)N1[C@@H](C(=O)NCCCNC(=O)c2ccc(-c3c4nc(c(-c5cccc(S(=O)(=O)[O-])c5F)c5ccc([nH]5)c(-c5cccc(S(=O)(=O)[O-])c5F)c5nc(c(-c6cccc(S(=O)(=O)[O-])c6F)c6ccc3[nH]6)C=C5)C=C4)cc2)C[C@H]2CCCC[C@@H]21
REMARK SMILES IDX 14 1 13 2 12 3 10 4 11 5 9 7 8 8 88 9 82 10 83 11 87 12
REMARK SMILES IDX 84 13 86 14 85 15 6 16 7 17 5 18 2 19 1 20 3 21 4 22 15 23
REMARK SMILES IDX 16 24 17 25 18 27 19 28 20 29 81 30 21 31 80 32 22 33 23 34
REMARK SMILES IDX 24 35 74 36 25 37 79 38 73 39 75 40 26 41 78 42 72 43 71 44
REMARK SMILES IDX 27 46 59 47 39 48 58 49 40 50 43 51 57 52 76 53 41 54 42 55
REMARK SMILES IDX 56 57 77 58 44 59 28 60 29 61 37 62 30 63 32 64 38 65 31 66
REMARK SMILES IDX 33 67 34 68 35 69 36 70 60 71 61 72 69 73 62 74 64 75 70 76
REMARK SMILES IDX 63 77 65 78 66 79 67 80 68 81 45 82 46 83 54 84 47 85 49 86
REMARK SMILES IDX 55 87 48 88 50 89 51 90 52 91 53 92
REMARK H PARENT 12 6 16 26 75 45 43 56
REMARK Flexibility Score: inf
ROOT
ATOM      1  C   UNL A   1      35.580  22.793  23.783  1.00  0.00     0.042 C 
ENDROOT
BRANCH   1   2
ATOM      2  C   UNL A   1      34.093  22.772  23.473  1.00  0.00     0.117 C 
BRANCH   2   3
ATOM      3  N   UNL A   1      33.651  23.991  22.821  1.00  0.00    -0.354 N 
ATOM      4  C   UNL A   1      33.230  25.170  23.375  1.00  0.00     0.242 C 
ATOM      5  O   UNL A   1      32.892  26.069  22.602  1.00  0.00    -0.273 OA
ATOM      6  H   UNL A   1      33.658  23.968  21.836  1.00  0.00     0.163 HD
BRANCH   4   7
ATOM      7  C   UNL A   1      33.242  25.329  24.914  1.00  0.00     0.178 C 
ATOM      8  N   UNL A   1      32.012  25.994  25.379  1.00  0.00    -0.293 N 
ATOM      9  C   UNL A   1      32.261  27.389  25.654  1.00  0.00     0.092 C 
ATOM     10  C   UNL A   1      34.370  26.325  25.279  1.00  0.00     0.041 C 
ATOM     11  C   UNL A   1      33.691  27.329  26.187  1.00  0.00     0.014 C 
ATOM     12  C   UNL A   1      31.410  28.108  26.700  1.00  0.00     0.025 C 
ATOM     13  C   UNL A   1      34.293  28.719  26.258  1.00  0.00     0.006 C 
ATOM     14  C   UNL A   1      31.968  29.515  26.959  1.00  0.00     0.002 C 
ATOM     15  C   UNL A   1      33.475  29.548  27.250  1.00  0.00     0.000 C 
BRANCH   8  16
ATOM     16  C   UNL A   1      30.762  25.429  25.382  1.00  0.00     0.411 C 
ATOM     17  O   UNL A   1      29.935  25.624  24.496  1.00  0.00    -0.224 OA
BRANCH  16  18
ATOM     18  O   UNL A   1      30.515  24.743  26.527  1.00  0.00    -0.444 OA
BRANCH  18  19
ATOM     19  C   UNL A   1      30.639  23.292  26.558  1.00  0.00     0.106 C 
ATOM     20  C   UNL A   1      31.896  23.008  27.397  1.00  0.00     0.056 C 
ATOM     21  C   UNL A   1      30.850  22.770  25.136  1.00  0.00     0.056 C 
ATOM     22  C   UNL A   1      29.462  22.580  27.250  1.00  0.00     0.056 C 
ENDBRANCH  18  19
ENDBRANCH  16  18
ENDBRANCH   8  16
ENDBRANCH   4   7
ENDBRANCH   2   3
ENDBRANCH   1   2
BRANCH   1  23
ATOM     23  C   UNL A   1      35.929  22.312  25.183  1.00  0.00     0.118 C 
BRANCH  23  24
ATOM     24  N   UNL A   1      36.849  21.182  25.186  1.00  0.00    -0.352 N 
ATOM     25  C   UNL A   1      38.181  21.137  25.530  1.00  0.00     0.251 C 
ATOM     26  H   UNL A   1      36.462  20.323  24.899  1.00  0.00     0.163 HD
ATOM     27  O   UNL A   1      38.833  20.118  25.317  1.00  0.00    -0.269 OA
BRANCH  25  28
ATOM     28  C   UNL A   1      38.831  22.325  26.126  1.00  0.00     0.039 A 
ATOM     29  C   UNL A   1      39.956  22.150  26.937  1.00  0.00     0.014 A 
ATOM     30  C   UNL A   1      38.347  23.610  25.870  1.00  0.00     0.014 A 
ATOM     31  C   UNL A   1      40.643  23.269  27.418  1.00  0.00     0.010 A 
ATOM     32  C   UNL A   1      39.086  24.719  26.268  1.00  0.00     0.010 A 
ATOM     33  C   UNL A   1      40.240  24.563  27.049  1.00  0.00    -0.014 A 
BRANCH  33  34
ATOM     34  C   UNL A   1      41.011  25.766  27.457  1.00  0.00     0.031 A 
ATOM     35  C   UNL A   1      40.339  26.863  28.241  1.00  0.00     0.074 A 
ATOM     36  C   UNL A   1      42.285  25.918  27.041  1.00  0.00     0.049 A 
ATOM     37  N   UNL A   1      40.814  28.025  28.607  1.00  0.00    -0.248 NA
ATOM     38  C   UNL A   1      38.940  26.635  28.642  1.00  0.00     0.031 C 
ATOM     39  C   UNL A   1      43.029  24.961  26.220  1.00  0.00     0.029 A 
ATOM     40  N   UNL A   1      43.172  26.949  27.230  1.00  0.00    -0.354 N 
ATOM     41  C   UNL A   1      39.769  28.677  29.250  1.00  0.00     0.074 A 
ATOM     42  C   UNL A   1      38.622  27.800  29.187  1.00  0.00     0.031 C 
ATOM     43  C   UNL A   1      44.259  25.444  25.982  1.00  0.00     0.029 A 
ATOM     44  C   UNL A   1      44.380  26.762  26.597  1.00  0.00     0.049 A 
ATOM     45  H   UNL A   1      42.965  27.747  27.768  1.00  0.00     0.167 HD
ATOM     46  C   UNL A   1      39.770  29.883  29.866  1.00  0.00     0.034 A 
ATOM     47  C   UNL A   1      45.458  27.567  26.508  1.00  0.00     0.034 A 
ATOM     48  C   UNL A   1      40.922  30.739  29.958  1.00  0.00     0.049 A 
ATOM     49  C   UNL A   1      45.434  28.901  27.206  1.00  0.00     0.074 A 
ATOM     50  C   UNL A   1      41.044  31.948  30.619  1.00  0.00     0.029 A 
ATOM     51  N   UNL A   1      42.148  30.482  29.365  1.00  0.00    -0.354 N 
ATOM     52  N   UNL A   1      44.480  29.437  27.930  1.00  0.00    -0.248 NA
ATOM     53  C   UNL A   1      46.646  29.726  27.106  1.00  0.00     0.031 C 
ATOM     54  C   UNL A   1      42.336  32.436  30.402  1.00  0.00     0.029 A 
ATOM     55  C   UNL A   1      43.030  31.512  29.637  1.00  0.00     0.049 A 
ATOM     56  H   UNL A   1      42.359  29.684  28.829  1.00  0.00     0.167 HD
ATOM     57  C   UNL A   1      44.994  30.638  28.406  1.00  0.00     0.074 A 
ATOM     58  C   UNL A   1      46.347  30.743  27.903  1.00  0.00     0.031 C 
ATOM     59  C   UNL A   1      44.394  31.575  29.181  1.00  0.00     0.034 A 
BRANCH  46  60
ATOM     60  C   UNL A   1      38.496  30.328  30.538  1.00  0.00     0.023 A 
ATOM     61  C   UNL A   1      38.208  29.886  31.846  1.00  0.00     0.012 A 
ATOM     62  C   UNL A   1      37.614  31.227  29.904  1.00  0.00     0.148 A 
ATOM     63  C   UNL A   1      37.047  30.298  32.497  1.00  0.00     0.002 A 
ATOM     64  C   UNL A   1      36.484  31.672  30.578  1.00  0.00     0.091 A 
ATOM     65  F   UNL A   1      37.896  31.622  28.654  1.00  0.00    -0.205 F 
ATOM     66  C   UNL A   1      36.192  31.199  31.869  1.00  0.00     0.022 A 
BRANCH  64  67
ATOM     67  S   UNL A   1      35.362  32.895  29.891  1.00  0.00     0.127 S 
ATOM     68  O   UNL A   1      34.831  32.186  28.728  1.00  0.00    -0.237 OA
ATOM     69  O   UNL A   1      34.405  33.078  30.983  1.00  0.00    -0.237 OA
ATOM     70  O   UNL A   1      36.175  34.065  29.591  1.00  0.00    -0.744 OA
ENDBRANCH  64  67
ENDBRANCH  46  60
BRANCH  47  71
ATOM     71  C   UNL A   1      46.676  27.116  25.773  1.00  0.00     0.023 A 
ATOM     72  C   UNL A   1      47.566  26.221  26.398  1.00  0.00     0.012 A 
ATOM     73  C   UNL A   1      46.956  27.564  24.468  1.00  0.00     0.148 A 
ATOM     74  C   UNL A   1      48.736  25.814  25.754  1.00  0.00     0.002 A 
ATOM     75  C   UNL A   1      48.092  27.108  23.810  1.00  0.00     0.091 A 
ATOM     76  F   UNL A   1      46.101  28.421  23.893  1.00  0.00    -0.205 F 
ATOM     77  C   UNL A   1      48.994  26.250  24.458  1.00  0.00     0.022 A 
BRANCH  75  78
ATOM     78  S   UNL A   1      48.439  27.513  22.094  1.00  0.00     0.127 S 
ATOM     79  O   UNL A   1      49.640  28.334  22.218  1.00  0.00    -0.237 OA
ATOM     80  O   UNL A   1      48.653  26.189  21.509  1.00  0.00    -0.237 OA
ATOM     81  O   UNL A   1      47.251  28.199  21.604  1.00  0.00    -0.744 OA
ENDBRANCH  75  78
ENDBRANCH  47  71
BRANCH  59  82
ATOM     82  C   UNL A   1      45.209  32.775  29.588  1.00  0.00     0.023 A 
ATOM     83  C   UNL A   1      46.011  32.727  30.745  1.00  0.00     0.012 A 
ATOM     84  C   UNL A   1      45.240  33.925  28.772  1.00  0.00     0.148 A 
ATOM     85  C   UNL A   1      46.806  33.816  31.101  1.00  0.00     0.002 A 
ATOM     86  C   UNL A   1      46.075  34.983  29.104  1.00  0.00     0.091 A 
ATOM     87  F   UNL A   1      44.457  33.956  27.684  1.00  0.00    -0.205 F 
ATOM     88  C   UNL A   1      46.848  34.937  30.275  1.00  0.00     0.022 A 
BRANCH  86  89
ATOM     89  S   UNL A   1      46.271  36.426  28.051  1.00  0.00     0.127 S 
ATOM     90  O   UNL A   1      46.853  37.395  28.978  1.00  0.00    -0.237 OA
ATOM     91  O   UNL A   1      47.190  35.935  27.024  1.00  0.00    -0.237 OA
ATOM     92  O   UNL A   1      44.938  36.753  27.564  1.00  0.00    -0.744 OA
ENDBRANCH  86  89
ENDBRANCH  59  82
ENDBRANCH  33  34
ENDBRANCH  25  28
ENDBRANCH  23  24
ENDBRANCH   1  23
TORSDOF 16
ENDMDL
