MODEL 1
REMARK VINA RESULT:     -12.3      0.000      0.000
REMARK SMILES O=C(C[C@@H]1COCCN1C(=O)c1csc(Cc2ccccc2)n1)NCCCNC(=O)c1ccc(-c2c3nc(c(-c4cccc(S(=O)(=O)[O-])c4F)c4ccc([nH]4)c(-c4cccc(S(=O)(=O)[O-])c4F)c4nc(c(-c5cccc(S(=O)(=O)[O-])c5F)c5ccc2[nH]5)C=C4)C=C3)cc1
REMARK SMILES IDX 25 1 24 2 1 3 2 4 3 6 4 7 5 8 9 9 6 10 8 11 7 12 10 13 11 14
REMARK SMILES IDX 12 15 13 16 23 17 14 18 15 19 16 20 17 21 18 22 22 23 19 24
REMARK SMILES IDX 21 25 20 26 26 27 27 28 28 29 29 30 30 32 31 33 32 34 93 35
REMARK SMILES IDX 33 36 92 37 34 38 35 39 36 40 86 41 37 42 91 43 85 44 87 45
REMARK SMILES IDX 38 46 90 47 84 48 83 49 39 51 71 52 51 53 70 54 52 55 55 56
REMARK SMILES IDX 69 57 88 58 53 59 54 60 68 62 89 63 56 64 40 65 41 66 49 67
REMARK SMILES IDX 42 68 44 69 50 70 43 71 45 72 46 73 47 74 48 75 72 76 73 77
REMARK SMILES IDX 81 78 74 79 76 80 82 81 75 82 77 83 78 84 79 85 80 86 57 87
REMARK SMILES IDX 58 88 66 89 59 90 61 91 67 92 60 93 62 94 63 95 64 96 65 97
REMARK H PARENT 24 5 28 31 87 50 55 61
REMARK Flexibility Score: inf
ROOT
ATOM      1  C   UNL A   1      31.788  28.163  27.271  1.00  0.00     0.117 C 
ENDROOT
BRANCH   1   2
ATOM      2  N   UNL A   1      32.147  27.531  26.018  1.00  0.00    -0.356 N 
ATOM      3  O   UNL A   1      34.372  27.405  25.618  1.00  0.00    -0.275 OA
ATOM      4  C   UNL A   1      33.321  26.831  25.902  1.00  0.00     0.222 C 
ATOM      5  H   UNL A   1      31.543  27.604  25.243  1.00  0.00     0.163 HD
BRANCH   4   6
ATOM      6  C   UNL A   1      33.276  25.311  26.044  1.00  0.00     0.127 C 
BRANCH   6   7
ATOM      7  C   UNL A   1      32.213  24.504  25.282  1.00  0.00     0.120 C 
ATOM      8  C   UNL A   1      31.801  23.325  26.228  1.00  0.00     0.185 C 
ATOM      9  N   UNL A   1      32.471  24.113  23.861  1.00  0.00    -0.329 N 
ATOM     10  O   UNL A   1      31.071  22.276  25.598  1.00  0.00    -0.377 OA
ATOM     11  C   UNL A   1      31.905  22.823  23.428  1.00  0.00     0.148 C 
ATOM     12  C   UNL A   1      31.835  21.760  24.511  1.00  0.00     0.181 C 
BRANCH   9  13
ATOM     13  C   UNL A   1      32.627  25.023  22.771  1.00  0.00     0.273 C 
ATOM     14  O   UNL A   1      33.481  24.775  21.911  1.00  0.00    -0.267 OA
BRANCH  13  15
ATOM     15  C   UNL A   1      31.909  26.321  22.682  1.00  0.00     0.139 A 
ATOM     16  C   UNL A   1      32.577  27.501  22.389  1.00  0.00     0.101 A 
ATOM     17  N   UNL A   1      30.581  26.543  23.038  1.00  0.00    -0.236 NA
ATOM     18  S   UNL A   1      31.549  28.861  22.551  1.00  0.00    -0.126 S 
ATOM     19  C   UNL A   1      30.254  27.826  23.010  1.00  0.00     0.098 A 
BRANCH  19  20
ATOM     20  C   UNL A   1      28.838  28.352  23.127  1.00  0.00     0.103 C 
BRANCH  20  21
ATOM     21  C   UNL A   1      28.520  29.787  22.738  1.00  0.00    -0.041 A 
ATOM     22  C   UNL A   1      28.103  30.077  21.424  1.00  0.00     0.004 A 
ATOM     23  C   UNL A   1      28.831  30.864  23.581  1.00  0.00     0.004 A 
ATOM     24  C   UNL A   1      28.044  31.394  20.957  1.00  0.00     0.000 A 
ATOM     25  C   UNL A   1      28.770  32.184  23.112  1.00  0.00     0.000 A 
ATOM     26  C   UNL A   1      28.391  32.447  21.798  1.00  0.00     0.000 A 
ENDBRANCH  20  21
ENDBRANCH  19  20
ENDBRANCH  13  15
ENDBRANCH   9  13
ENDBRANCH   6   7
ENDBRANCH   4   6
ENDBRANCH   1   2
BRANCH   1  27
ATOM     27  C   UNL A   1      31.408  29.627  27.209  1.00  0.00     0.042 C 
BRANCH  27  28
ATOM     28  C   UNL A   1      32.480  30.442  26.530  1.00  0.00     0.118 C 
BRANCH  28  29
ATOM     29  N   UNL A   1      32.407  31.869  26.857  1.00  0.00    -0.352 N 
ATOM     30  C   UNL A   1      33.355  32.651  27.475  1.00  0.00     0.251 C 
ATOM     31  H   UNL A   1      31.572  32.325  26.601  1.00  0.00     0.163 HD
ATOM     32  O   UNL A   1      33.136  33.824  27.718  1.00  0.00    -0.269 OA
BRANCH  30  33
ATOM     33  C   UNL A   1      34.607  31.999  27.902  1.00  0.00     0.039 A 
ATOM     34  C   UNL A   1      35.726  32.798  28.142  1.00  0.00     0.014 A 
ATOM     35  C   UNL A   1      34.619  30.638  28.200  1.00  0.00     0.014 A 
ATOM     36  C   UNL A   1      36.840  32.237  28.762  1.00  0.00     0.010 A 
ATOM     37  C   UNL A   1      35.673  30.116  28.926  1.00  0.00     0.010 A 
ATOM     38  C   UNL A   1      36.801  30.905  29.201  1.00  0.00    -0.014 A 
BRANCH  38  39
ATOM     39  C   UNL A   1      37.930  30.280  29.926  1.00  0.00     0.031 A 
ATOM     40  C   UNL A   1      38.194  30.688  31.350  1.00  0.00     0.074 A 
ATOM     41  C   UNL A   1      38.779  29.462  29.273  1.00  0.00     0.049 A 
ATOM     42  N   UNL A   1      39.211  30.400  32.116  1.00  0.00    -0.248 NA
ATOM     43  C   UNL A   1      37.206  31.585  31.978  1.00  0.00     0.031 C 
ATOM     44  C   UNL A   1      38.669  29.070  27.865  1.00  0.00     0.029 A 
ATOM     45  N   UNL A   1      39.923  28.839  29.701  1.00  0.00    -0.354 N 
ATOM     46  C   UNL A   1      39.019  31.130  33.283  1.00  0.00     0.074 A 
ATOM     47  C   UNL A   1      37.813  31.906  33.110  1.00  0.00     0.031 C 
ATOM     48  C   UNL A   1      39.699  28.268  27.549  1.00  0.00     0.029 A 
ATOM     49  C   UNL A   1      40.560  28.118  28.718  1.00  0.00     0.049 A 
ATOM     50  H   UNL A   1      40.258  28.902  30.625  1.00  0.00     0.167 HD
ATOM     51  C   UNL A   1      39.761  31.126  34.413  1.00  0.00     0.034 A 
ATOM     52  C   UNL A   1      41.713  27.423  28.757  1.00  0.00     0.034 A 
ATOM     53  C   UNL A   1      40.909  30.285  34.601  1.00  0.00     0.049 A 
ATOM     54  C   UNL A   1      42.474  27.364  30.055  1.00  0.00     0.074 A 
ATOM     55  C   UNL A   1      41.671  30.111  35.740  1.00  0.00     0.029 A 
ATOM     56  N   UNL A   1      41.451  29.466  33.622  1.00  0.00    -0.354 N 
ATOM     57  N   UNL A   1      42.196  27.941  31.200  1.00  0.00    -0.248 NA
ATOM     58  C   UNL A   1      43.685  26.533  30.081  1.00  0.00     0.031 C 
ATOM     59  C   UNL A   1      42.685  29.194  35.446  1.00  0.00     0.029 A 
ATOM     60  C   UNL A   1      42.538  28.781  34.130  1.00  0.00     0.049 A 
ATOM     61  H   UNL A   1      41.112  29.384  32.701  1.00  0.00     0.167 HD
ATOM     62  C   UNL A   1      43.172  27.512  32.091  1.00  0.00     0.074 A 
ATOM     63  C   UNL A   1      44.042  26.616  31.357  1.00  0.00     0.031 C 
ATOM     64  C   UNL A   1      43.344  27.841  33.395  1.00  0.00     0.034 A 
BRANCH  51  65
ATOM     65  C   UNL A   1      39.311  32.004  35.550  1.00  0.00     0.023 A 
ATOM     66  C   UNL A   1      38.418  31.493  36.514  1.00  0.00     0.012 A 
ATOM     67  C   UNL A   1      39.801  33.317  35.689  1.00  0.00     0.148 A 
ATOM     68  C   UNL A   1      37.984  32.287  37.574  1.00  0.00     0.002 A 
ATOM     69  C   UNL A   1      39.402  34.086  36.777  1.00  0.00     0.091 A 
ATOM     70  F   UNL A   1      40.630  33.795  34.752  1.00  0.00    -0.205 F 
ATOM     71  C   UNL A   1      38.484  33.578  37.711  1.00  0.00     0.022 A 
BRANCH  69  72
ATOM     72  S   UNL A   1      40.050  35.732  37.090  1.00  0.00     0.127 S 
ATOM     73  O   UNL A   1      41.485  35.469  37.193  1.00  0.00    -0.237 OA
ATOM     74  O   UNL A   1      39.649  36.456  35.883  1.00  0.00    -0.237 OA
ATOM     75  O   UNL A   1      39.408  36.190  38.314  1.00  0.00    -0.744 OA
ENDBRANCH  69  72
ENDBRANCH  51  65
BRANCH  52  76
ATOM     76  C   UNL A   1      42.170  26.664  27.558  1.00  0.00     0.023 A 
ATOM     77  C   UNL A   1      42.888  27.339  26.552  1.00  0.00     0.012 A 
ATOM     78  C   UNL A   1      41.934  25.281  27.422  1.00  0.00     0.148 A 
ATOM     79  C   UNL A   1      43.335  26.660  25.417  1.00  0.00     0.002 A 
ATOM     80  C   UNL A   1      42.426  24.601  26.313  1.00  0.00     0.091 A 
ATOM     81  F   UNL A   1      41.245  24.657  28.387  1.00  0.00    -0.205 F 
ATOM     82  C   UNL A   1      43.112  25.292  25.302  1.00  0.00     0.022 A 
BRANCH  80  83
ATOM     83  S   UNL A   1      42.290  22.819  26.135  1.00  0.00     0.127 S 
ATOM     84  O   UNL A   1      40.843  22.627  26.125  1.00  0.00    -0.237 OA
ATOM     85  O   UNL A   1      42.951  22.592  24.848  1.00  0.00    -0.237 OA
ATOM     86  O   UNL A   1      42.996  22.253  27.277  1.00  0.00    -0.744 OA
ENDBRANCH  80  83
ENDBRANCH  52  76
BRANCH  64  87
ATOM     87  C   UNL A   1      44.481  27.195  34.138  1.00  0.00     0.023 A 
ATOM     88  C   UNL A   1      45.716  27.862  34.244  1.00  0.00     0.012 A 
ATOM     89  C   UNL A   1      44.281  25.985  34.831  1.00  0.00     0.148 A 
ATOM     90  C   UNL A   1      46.744  27.322  35.014  1.00  0.00     0.002 A 
ATOM     91  C   UNL A   1      45.293  25.479  35.635  1.00  0.00     0.091 A 
ATOM     92  F   UNL A   1      43.099  25.362  34.700  1.00  0.00    -0.205 F 
ATOM     93  C   UNL A   1      46.528  26.141  35.720  1.00  0.00     0.022 A 
BRANCH  91  94
ATOM     94  S   UNL A   1      45.069  24.021  36.661  1.00  0.00     0.127 S 
ATOM     95  O   UNL A   1      44.174  23.212  35.836  1.00  0.00    -0.237 OA
ATOM     96  O   UNL A   1      46.434  23.505  36.766  1.00  0.00    -0.237 OA
ATOM     97  O   UNL A   1      44.502  24.494  37.917  1.00  0.00    -0.744 OA
ENDBRANCH  91  94
ENDBRANCH  64  87
ENDBRANCH  38  39
ENDBRANCH  30  33
ENDBRANCH  28  29
ENDBRANCH  27  28
ENDBRANCH   1  27
TORSDOF 18
ENDMDL
MODEL 2
REMARK VINA RESULT:     -12.2      2.210      7.749
REMARK SMILES O=C(C[C@@H]1COCCN1C(=O)c1csc(Cc2ccccc2)n1)NCCCNC(=O)c1ccc(-c2c3nc(c(-c4cccc(S(=O)(=O)[O-])c4F)c4ccc([nH]4)c(-c4cccc(S(=O)(=O)[O-])c4F)c4nc(c(-c5cccc(S(=O)(=O)[O-])c5F)c5ccc2[nH]5)C=C4)C=C3)cc1
REMARK SMILES IDX 25 1 24 2 1 3 2 4 3 6 4 7 5 8 9 9 6 10 8 11 7 12 10 13 11 14
REMARK SMILES IDX 12 15 13 16 23 17 14 18 15 19 16 20 17 21 18 22 22 23 19 24
REMARK SMILES IDX 21 25 20 26 26 27 27 28 28 29 29 30 30 32 31 33 32 34 93 35
REMARK SMILES IDX 33 36 92 37 34 38 35 39 36 40 86 41 37 42 91 43 85 44 87 45
REMARK SMILES IDX 38 46 90 47 84 48 83 49 39 51 71 52 51 53 70 54 52 55 55 56
REMARK SMILES IDX 69 57 88 58 53 59 54 60 68 62 89 63 56 64 40 65 41 66 49 67
REMARK SMILES IDX 42 68 44 69 50 70 43 71 45 72 46 73 47 74 48 75 72 76 73 77
REMARK SMILES IDX 81 78 74 79 76 80 82 81 75 82 77 83 78 84 79 85 80 86 57 87
REMARK SMILES IDX 58 88 66 89 59 90 61 91 67 92 60 93 62 94 63 95 64 96 65 97
REMARK H PARENT 24 5 28 31 87 50 55 61
REMARK Flexibility Score: inf
ROOT
ATOM      1  C   UNL A   1      33.189  29.755  26.003  1.00  0.00     0.117 C 
ENDROOT
BRANCH   1   2
ATOM      2  N   UNL A   1      33.521  28.590  26.798  1.00  0.00    -0.356 N 
ATOM      3  O   UNL A   1      31.898  27.014  26.902  1.00  0.00    -0.275 OA
ATOM      4  C   UNL A   1      33.002  27.361  26.482  1.00  0.00     0.222 C 
ATOM      5  H   UNL A   1      34.123  28.682  27.572  1.00  0.00     0.163 HD
BRANCH   4   6
ATOM      6  C   UNL A   1      33.866  26.396  25.673  1.00  0.00     0.127 C 
BRANCH   6   7
ATOM      7  C   UNL A   1      33.551  24.891  25.690  1.00  0.00     0.120 C 
ATOM      8  C   UNL A   1      34.921  24.163  25.916  1.00  0.00     0.185 C 
ATOM      9  N   UNL A   1      32.697  24.309  24.608  1.00  0.00    -0.329 N 
ATOM     10  O   UNL A   1      34.909  22.765  25.644  1.00  0.00    -0.377 OA
ATOM     11  C   UNL A   1      33.012  22.927  24.203  1.00  0.00     0.148 C 
ATOM     12  C   UNL A   1      34.481  22.551  24.302  1.00  0.00     0.181 C 
BRANCH   9  13
ATOM     13  C   UNL A   1      31.327  24.639  24.371  1.00  0.00     0.273 C 
ATOM     14  O   UNL A   1      30.460  23.805  24.658  1.00  0.00    -0.267 OA
BRANCH  13  15
ATOM     15  C   UNL A   1      30.895  25.879  23.676  1.00  0.00     0.139 A 
ATOM     16  C   UNL A   1      31.755  26.583  22.848  1.00  0.00     0.101 A 
ATOM     17  N   UNL A   1      29.699  26.559  23.893  1.00  0.00    -0.236 NA
ATOM     18  S   UNL A   1      31.067  28.069  22.345  1.00  0.00    -0.126 S 
ATOM     19  C   UNL A   1      29.650  27.719  23.255  1.00  0.00     0.098 A 
BRANCH  19  20
ATOM     20  C   UNL A   1      28.404  28.569  23.117  1.00  0.00     0.103 C 
BRANCH  20  21
ATOM     21  C   UNL A   1      28.504  29.998  22.609  1.00  0.00    -0.041 A 
ATOM     22  C   UNL A   1      28.724  31.049  23.521  1.00  0.00     0.004 A 
ATOM     23  C   UNL A   1      28.174  30.333  21.287  1.00  0.00     0.004 A 
ATOM     24  C   UNL A   1      28.572  32.385  23.135  1.00  0.00     0.000 A 
ATOM     25  C   UNL A   1      28.025  31.672  20.902  1.00  0.00     0.000 A 
ATOM     26  C   UNL A   1      28.209  32.696  21.829  1.00  0.00     0.000 A 
ENDBRANCH  20  21
ENDBRANCH  19  20
ENDBRANCH  13  15
ENDBRANCH   9  13
ENDBRANCH   6   7
ENDBRANCH   4   6
ENDBRANCH   1   2
BRANCH   1  27
ATOM     27  C   UNL A   1      32.400  30.847  26.693  1.00  0.00     0.042 C 
BRANCH  27  28
ATOM     28  C   UNL A   1      33.308  31.769  27.471  1.00  0.00     0.118 C 
BRANCH  28  29
ATOM     29  N   UNL A   1      32.775  33.129  27.589  1.00  0.00    -0.352 N 
ATOM     30  C   UNL A   1      33.216  34.149  28.399  1.00  0.00     0.251 C 
ATOM     31  H   UNL A   1      32.003  33.339  27.014  1.00  0.00     0.163 HD
ATOM     32  O   UNL A   1      32.644  35.224  28.419  1.00  0.00    -0.269 OA
BRANCH  30  33
ATOM     33  C   UNL A   1      34.350  33.866  29.299  1.00  0.00     0.039 A 
ATOM     34  C   UNL A   1      34.116  33.103  30.445  1.00  0.00     0.014 A 
ATOM     35  C   UNL A   1      35.643  34.229  28.929  1.00  0.00     0.014 A 
ATOM     36  C   UNL A   1      35.202  32.634  31.180  1.00  0.00     0.010 A 
ATOM     37  C   UNL A   1      36.717  33.658  29.586  1.00  0.00     0.010 A 
ATOM     38  C   UNL A   1      36.510  32.868  30.727  1.00  0.00    -0.014 A 
BRANCH  38  39
ATOM     39  C   UNL A   1      37.696  32.333  31.431  1.00  0.00     0.031 A 
ATOM     40  C   UNL A   1      38.483  31.223  30.790  1.00  0.00     0.074 A 
ATOM     41  C   UNL A   1      37.980  32.748  32.682  1.00  0.00     0.049 A 
ATOM     42  N   UNL A   1      39.445  30.497  31.291  1.00  0.00    -0.248 NA
ATOM     43  C   UNL A   1      38.097  30.841  29.419  1.00  0.00     0.031 C 
ATOM     44  C   UNL A   1      37.228  33.756  33.435  1.00  0.00     0.029 A 
ATOM     45  N   UNL A   1      38.960  32.346  33.554  1.00  0.00    -0.354 N 
ATOM     46  C   UNL A   1      39.731  29.537  30.327  1.00  0.00     0.074 A 
ATOM     47  C   UNL A   1      38.814  29.744  29.231  1.00  0.00     0.031 C 
ATOM     48  C   UNL A   1      37.780  33.898  34.651  1.00  0.00     0.029 A 
ATOM     49  C   UNL A   1      38.898  32.969  34.779  1.00  0.00     0.049 A 
ATOM     50  H   UNL A   1      39.643  31.675  33.325  1.00  0.00     0.167 HD
ATOM     51  C   UNL A   1      40.697  28.592  30.338  1.00  0.00     0.034 A 
ATOM     52  C   UNL A   1      39.654  32.800  35.879  1.00  0.00     0.034 A 
ATOM     53  C   UNL A   1      41.656  28.454  31.397  1.00  0.00     0.049 A 
ATOM     54  C   UNL A   1      40.780  31.800  35.834  1.00  0.00     0.074 A 
ATOM     55  C   UNL A   1      42.747  27.609  31.465  1.00  0.00     0.029 A 
ATOM     56  N   UNL A   1      41.642  29.193  32.570  1.00  0.00    -0.354 N 
ATOM     57  N   UNL A   1      41.133  31.003  34.853  1.00  0.00    -0.248 NA
ATOM     58  C   UNL A   1      41.632  31.699  37.026  1.00  0.00     0.031 C 
ATOM     59  C   UNL A   1      43.388  27.829  32.689  1.00  0.00     0.029 A 
ATOM     60  C   UNL A   1      42.706  28.827  33.371  1.00  0.00     0.049 A 
ATOM     61  H   UNL A   1      40.972  29.878  32.799  1.00  0.00     0.167 HD
ATOM     62  C   UNL A   1      42.270  30.337  35.294  1.00  0.00     0.074 A 
ATOM     63  C   UNL A   1      42.554  30.833  36.625  1.00  0.00     0.031 C 
ATOM     64  C   UNL A   1      43.005  29.389  34.663  1.00  0.00     0.034 A 
BRANCH  51  65
ATOM     65  C   UNL A   1      40.804  27.685  29.141  1.00  0.00     0.023 A 
ATOM     66  C   UNL A   1      40.023  26.513  29.083  1.00  0.00     0.012 A 
ATOM     67  C   UNL A   1      41.643  28.010  28.058  1.00  0.00     0.148 A 
ATOM     68  C   UNL A   1      40.106  25.655  27.987  1.00  0.00     0.002 A 
ATOM     69  C   UNL A   1      41.684  27.175  26.947  1.00  0.00     0.091 A 
ATOM     70  F   UNL A   1      42.397  29.115  28.139  1.00  0.00    -0.205 F 
ATOM     71  C   UNL A   1      40.928  25.992  26.916  1.00  0.00     0.022 A 
BRANCH  69  72
ATOM     72  S   UNL A   1      42.647  27.560  25.480  1.00  0.00     0.127 S 
ATOM     73  O   UNL A   1      44.007  27.584  26.017  1.00  0.00    -0.237 OA
ATOM     74  O   UNL A   1      42.355  26.419  24.611  1.00  0.00    -0.237 OA
ATOM     75  O   UNL A   1      42.144  28.838  24.993  1.00  0.00    -0.744 OA
ENDBRANCH  69  72
ENDBRANCH  51  65
BRANCH  52  76
ATOM     76  C   UNL A   1      39.426  33.650  37.082  1.00  0.00     0.023 A 
ATOM     77  C   UNL A   1      39.886  34.982  37.078  1.00  0.00     0.012 A 
ATOM     78  C   UNL A   1      38.731  33.169  38.210  1.00  0.00     0.148 A 
ATOM     79  C   UNL A   1      39.688  35.809  38.185  1.00  0.00     0.002 A 
ATOM     80  C   UNL A   1      38.493  34.014  39.289  1.00  0.00     0.091 A 
ATOM     81  F   UNL A   1      38.305  31.899  38.198  1.00  0.00    -0.205 F 
ATOM     82  C   UNL A   1      38.985  35.329  39.285  1.00  0.00     0.022 A 
BRANCH  80  83
ATOM     83  S   UNL A   1      37.496  33.521  40.699  1.00  0.00     0.127 S 
ATOM     84  O   UNL A   1      36.293  33.008  40.051  1.00  0.00    -0.237 OA
ATOM     85  O   UNL A   1      38.340  32.503  41.327  1.00  0.00    -0.237 OA
ATOM     86  O   UNL A   1      37.319  34.727  41.498  1.00  0.00    -0.744 OA
ENDBRANCH  80  83
ENDBRANCH  52  76
BRANCH  64  87
ATOM     87  C   UNL A   1      44.220  28.855  35.370  1.00  0.00     0.023 A 
ATOM     88  C   UNL A   1      45.470  29.473  35.177  1.00  0.00     0.012 A 
ATOM     89  C   UNL A   1      44.094  27.819  36.316  1.00  0.00     0.148 A 
ATOM     90  C   UNL A   1      46.583  29.054  35.903  1.00  0.00     0.002 A 
ATOM     91  C   UNL A   1      45.196  27.440  37.070  1.00  0.00     0.091 A 
ATOM     92  F   UNL A   1      42.895  27.236  36.470  1.00  0.00    -0.205 F 
ATOM     93  C   UNL A   1      46.443  28.050  36.858  1.00  0.00     0.022 A 
BRANCH  91  94
ATOM     94  S   UNL A   1      45.087  26.230  38.394  1.00  0.00     0.127 S 
ATOM     95  O   UNL A   1      46.351  26.443  39.095  1.00  0.00    -0.237 OA
ATOM     96  O   UNL A   1      43.901  26.677  39.124  1.00  0.00    -0.237 OA
ATOM     97  O   UNL A   1      44.946  24.933  37.745  1.00  0.00    -0.744 OA
ENDBRANCH  91  94
ENDBRANCH  64  87
ENDBRANCH  38  39
ENDBRANCH  30  33
ENDBRANCH  28  29
ENDBRANCH  27  28
ENDBRANCH   1  27
TORSDOF 18
ENDMDL
MODEL 3
REMARK VINA RESULT:     -12.2      5.552      8.555
REMARK SMILES O=C(C[C@@H]1COCCN1C(=O)c1csc(Cc2ccccc2)n1)NCCCNC(=O)c1ccc(-c2c3nc(c(-c4cccc(S(=O)(=O)[O-])c4F)c4ccc([nH]4)c(-c4cccc(S(=O)(=O)[O-])c4F)c4nc(c(-c5cccc(S(=O)(=O)[O-])c5F)c5ccc2[nH]5)C=C4)C=C3)cc1
REMARK SMILES IDX 25 1 24 2 1 3 2 4 3 6 4 7 5 8 9 9 6 10 8 11 7 12 10 13 11 14
REMARK SMILES IDX 12 15 13 16 23 17 14 18 15 19 16 20 17 21 18 22 22 23 19 24
REMARK SMILES IDX 21 25 20 26 26 27 27 28 28 29 29 30 30 32 31 33 32 34 93 35
REMARK SMILES IDX 33 36 92 37 34 38 35 39 36 40 86 41 37 42 91 43 85 44 87 45
REMARK SMILES IDX 38 46 90 47 84 48 83 49 39 51 71 52 51 53 70 54 52 55 55 56
REMARK SMILES IDX 69 57 88 58 53 59 54 60 68 62 89 63 56 64 40 65 41 66 49 67
REMARK SMILES IDX 42 68 44 69 50 70 43 71 45 72 46 73 47 74 48 75 72 76 73 77
REMARK SMILES IDX 81 78 74 79 76 80 82 81 75 82 77 83 78 84 79 85 80 86 57 87
REMARK SMILES IDX 58 88 66 89 59 90 61 91 67 92 60 93 62 94 63 95 64 96 65 97
REMARK H PARENT 24 5 28 31 87 50 55 61
REMARK Flexibility Score: inf
ROOT
ATOM      1  C   UNL A   1      37.402  22.096  24.577  1.00  0.00     0.117 C 
ENDROOT
BRANCH   1   2
ATOM      2  N   UNL A   1      35.970  22.291  24.472  1.00  0.00    -0.356 N 
ATOM      3  O   UNL A   1      34.728  20.984  25.842  1.00  0.00    -0.275 OA
ATOM      4  C   UNL A   1      35.160  22.101  25.562  1.00  0.00     0.222 C 
ATOM      5  H   UNL A   1      35.575  22.561  23.611  1.00  0.00     0.163 HD
BRANCH   4   6
ATOM      6  C   UNL A   1      34.732  23.326  26.368  1.00  0.00     0.127 C 
BRANCH   6   7
ATOM      7  C   UNL A   1      33.304  23.876  26.223  1.00  0.00     0.120 C 
ATOM      8  C   UNL A   1      32.480  23.263  27.407  1.00  0.00     0.185 C 
ATOM      9  N   UNL A   1      32.630  23.820  24.889  1.00  0.00    -0.329 N 
ATOM     10  O   UNL A   1      31.066  23.381  27.279  1.00  0.00    -0.377 OA
ATOM     11  C   UNL A   1      31.170  23.620  24.906  1.00  0.00     0.148 C 
ATOM     12  C   UNL A   1      30.653  22.775  26.057  1.00  0.00     0.181 C 
BRANCH   9  13
ATOM     13  C   UNL A   1      33.064  24.511  23.716  1.00  0.00     0.273 C 
ATOM     14  O   UNL A   1      33.756  23.901  22.892  1.00  0.00    -0.267 OA
BRANCH  13  15
ATOM     15  C   UNL A   1      32.838  25.963  23.495  1.00  0.00     0.139 A 
ATOM     16  C   UNL A   1      33.535  26.665  22.523  1.00  0.00     0.101 A 
ATOM     17  N   UNL A   1      32.078  26.802  24.305  1.00  0.00    -0.236 NA
ATOM     18  S   UNL A   1      33.229  28.347  22.623  1.00  0.00    -0.126 S 
ATOM     19  C   UNL A   1      32.184  28.076  23.962  1.00  0.00     0.098 A 
BRANCH  19  20
ATOM     20  C   UNL A   1      31.310  29.187  24.507  1.00  0.00     0.103 C 
BRANCH  20  21
ATOM     21  C   UNL A   1      30.037  29.586  23.779  1.00  0.00    -0.041 A 
ATOM     22  C   UNL A   1      29.575  30.914  23.859  1.00  0.00     0.004 A 
ATOM     23  C   UNL A   1      29.188  28.628  23.203  1.00  0.00     0.004 A 
ATOM     24  C   UNL A   1      28.292  31.262  23.422  1.00  0.00     0.000 A 
ATOM     25  C   UNL A   1      27.904  28.979  22.764  1.00  0.00     0.000 A 
ATOM     26  C   UNL A   1      27.452  30.291  22.887  1.00  0.00     0.000 A 
ENDBRANCH  20  21
ENDBRANCH  19  20
ENDBRANCH  13  15
ENDBRANCH   9  13
ENDBRANCH   6   7
ENDBRANCH   4   6
ENDBRANCH   1   2
BRANCH   1  27
ATOM     27  C   UNL A   1      37.868  20.864  25.324  1.00  0.00     0.042 C 
BRANCH  27  28
ATOM     28  C   UNL A   1      39.277  21.036  25.834  1.00  0.00     0.118 C 
BRANCH  28  29
ATOM     29  N   UNL A   1      40.039  19.784  25.841  1.00  0.00    -0.352 N 
ATOM     30  C   UNL A   1      41.378  19.602  26.097  1.00  0.00     0.251 C 
ATOM     31  H   UNL A   1      39.525  18.968  25.637  1.00  0.00     0.163 HD
ATOM     32  O   UNL A   1      41.884  18.497  26.027  1.00  0.00    -0.269 OA
BRANCH  30  33
ATOM     33  C   UNL A   1      42.189  20.802  26.375  1.00  0.00     0.039 A 
ATOM     34  C   UNL A   1      42.544  21.629  25.307  1.00  0.00     0.014 A 
ATOM     35  C   UNL A   1      42.464  21.171  27.690  1.00  0.00     0.014 A 
ATOM     36  C   UNL A   1      43.106  22.876  25.572  1.00  0.00     0.010 A 
ATOM     37  C   UNL A   1      42.904  22.455  27.953  1.00  0.00     0.010 A 
ATOM     38  C   UNL A   1      43.244  23.315  26.898  1.00  0.00    -0.014 A 
BRANCH  38  39
ATOM     39  C   UNL A   1      43.771  24.657  27.233  1.00  0.00     0.031 A 
ATOM     40  C   UNL A   1      42.824  25.697  27.764  1.00  0.00     0.074 A 
ATOM     41  C   UNL A   1      45.049  24.970  26.940  1.00  0.00     0.049 A 
ATOM     42  N   UNL A   1      43.026  26.971  27.966  1.00  0.00    -0.248 NA
ATOM     43  C   UNL A   1      41.447  25.256  28.055  1.00  0.00     0.031 C 
ATOM     44  C   UNL A   1      46.031  24.064  26.338  1.00  0.00     0.029 A 
ATOM     45  N   UNL A   1      45.731  26.152  27.078  1.00  0.00    -0.354 N 
ATOM     46  C   UNL A   1      41.792  27.491  28.341  1.00  0.00     0.074 A 
ATOM     47  C   UNL A   1      40.840  26.407  28.298  1.00  0.00     0.031 C 
ATOM     48  C   UNL A   1      47.190  24.721  26.168  1.00  0.00     0.029 A 
ATOM     49  C   UNL A   1      47.024  26.101  26.611  1.00  0.00     0.049 A 
ATOM     50  H   UNL A   1      45.333  26.961  27.473  1.00  0.00     0.167 HD
ATOM     51  C   UNL A   1      41.489  28.751  28.724  1.00  0.00     0.034 A 
ATOM     52  C   UNL A   1      47.962  27.064  26.543  1.00  0.00     0.034 A 
ATOM     53  C   UNL A   1      42.465  29.797  28.844  1.00  0.00     0.049 A 
ATOM     54  C   UNL A   1      47.624  28.439  27.058  1.00  0.00     0.074 A 
ATOM     55  C   UNL A   1      42.296  31.080  29.329  1.00  0.00     0.029 A 
ATOM     56  N   UNL A   1      43.798  29.672  28.484  1.00  0.00    -0.354 N 
ATOM     57  N   UNL A   1      46.490  28.875  27.553  1.00  0.00    -0.248 NA
ATOM     58  C   UNL A   1      48.697  29.441  27.039  1.00  0.00     0.031 C 
ATOM     59  C   UNL A   1      43.529  31.737  29.251  1.00  0.00     0.029 A 
ATOM     60  C   UNL A   1      44.467  30.854  28.737  1.00  0.00     0.049 A 
ATOM     61  H   UNL A   1      44.208  28.861  28.104  1.00  0.00     0.167 HD
ATOM     62  C   UNL A   1      46.724  30.189  27.942  1.00  0.00     0.074 A 
ATOM     63  C   UNL A   1      48.112  30.473  27.636  1.00  0.00     0.031 C 
ATOM     64  C   UNL A   1      45.867  31.085  28.488  1.00  0.00     0.034 A 
BRANCH  51  65
ATOM     65  C   UNL A   1      40.062  29.044  29.106  1.00  0.00     0.023 A 
ATOM     66  C   UNL A   1      39.108  29.288  28.098  1.00  0.00     0.012 A 
ATOM     67  C   UNL A   1      39.657  29.038  30.454  1.00  0.00     0.148 A 
ATOM     68  C   UNL A   1      37.781  29.564  28.425  1.00  0.00     0.002 A 
ATOM     69  C   UNL A   1      38.322  29.266  30.770  1.00  0.00     0.091 A 
ATOM     70  F   UNL A   1      40.581  28.829  31.401  1.00  0.00    -0.205 F 
ATOM     71  C   UNL A   1      37.388  29.542  29.760  1.00  0.00     0.022 A 
BRANCH  69  72
ATOM     72  S   UNL A   1      37.696  29.178  32.452  1.00  0.00     0.127 S 
ATOM     73  O   UNL A   1      38.598  30.093  33.152  1.00  0.00    -0.237 OA
ATOM     74  O   UNL A   1      36.328  29.672  32.297  1.00  0.00    -0.237 OA
ATOM     75  O   UNL A   1      37.795  27.779  32.845  1.00  0.00    -0.744 OA
ENDBRANCH  69  72
ENDBRANCH  51  65
BRANCH  52  76
ATOM     76  C   UNL A   1      49.330  26.742  26.045  1.00  0.00     0.023 A 
ATOM     77  C   UNL A   1      50.192  25.976  26.854  1.00  0.00     0.012 A 
ATOM     78  C   UNL A   1      49.771  27.153  24.771  1.00  0.00     0.148 A 
ATOM     79  C   UNL A   1      51.478  25.653  26.420  1.00  0.00     0.002 A 
ATOM     80  C   UNL A   1      51.036  26.785  24.324  1.00  0.00     0.091 A 
ATOM     81  F   UNL A   1      48.940  27.885  24.017  1.00  0.00    -0.205 F 
ATOM     82  C   UNL A   1      51.896  26.049  25.154  1.00  0.00     0.022 A 
BRANCH  80  83
ATOM     83  S   UNL A   1      51.617  27.148  22.664  1.00  0.00     0.127 S 
ATOM     84  O   UNL A   1      51.861  28.585  22.739  1.00  0.00    -0.237 OA
ATOM     85  O   UNL A   1      52.822  26.321  22.577  1.00  0.00    -0.237 OA
ATOM     86  O   UNL A   1      50.542  26.735  21.771  1.00  0.00    -0.744 OA
ENDBRANCH  80  83
ENDBRANCH  52  76
BRANCH  64  87
ATOM     87  C   UNL A   1      46.404  32.444  28.844  1.00  0.00     0.023 A 
ATOM     88  C   UNL A   1      47.049  32.640  30.079  1.00  0.00     0.012 A 
ATOM     89  C   UNL A   1      46.373  33.490  27.900  1.00  0.00     0.148 A 
ATOM     90  C   UNL A   1      47.641  33.866  30.379  1.00  0.00     0.002 A 
ATOM     91  C   UNL A   1      47.006  34.692  28.187  1.00  0.00     0.091 A 
ATOM     92  F   UNL A   1      45.738  33.283  26.737  1.00  0.00    -0.205 F 
ATOM     93  C   UNL A   1      47.632  34.884  29.429  1.00  0.00     0.022 A 
BRANCH  91  94
ATOM     94  S   UNL A   1      47.136  36.022  26.986  1.00  0.00     0.127 S 
ATOM     95  O   UNL A   1      47.871  37.034  27.742  1.00  0.00    -0.237 OA
ATOM     96  O   UNL A   1      47.899  35.392  25.909  1.00  0.00    -0.237 OA
ATOM     97  O   UNL A   1      45.769  36.380  26.631  1.00  0.00    -0.744 OA
ENDBRANCH  91  94
ENDBRANCH  64  87
ENDBRANCH  38  39
ENDBRANCH  30  33
ENDBRANCH  28  29
ENDBRANCH  27  28
ENDBRANCH   1  27
TORSDOF 18
ENDMDL
