MODEL 1
REMARK VINA RESULT:     -12.0      0.000      0.000
REMARK SMILES CC(=O)c1cn(CC(=O)NCC(=O)NCC(=O)NCCCNC(=O)c2ccc(-c3c4nc(c(-c5cccc(S(=O)(=O)[O-])c5F)c5ccc([nH]5)c(-c5cccc(S(=O)(=O)[O-])c5F)c5nc(c(-c6cccc(S(=O)(=O)[O-])c6F)c6ccc3[nH]6)C=C5)C=C4)cc2)c2ccccc12
REMARK SMILES IDX 16 1 17 2 18 3 15 5 14 6 12 7 13 8 11 10 10 11 8 12 9 13
REMARK SMILES IDX 7 15 6 16 4 17 5 18 93 19 88 20 92 21 89 22 91 23 90 24 2 25
REMARK SMILES IDX 1 26 3 27 19 28 20 29 21 30 22 31 23 32 24 34 25 35 26 36
REMARK SMILES IDX 87 37 27 38 86 39 28 40 29 41 30 42 80 43 31 44 85 45 79 46
REMARK SMILES IDX 81 47 32 48 84 49 78 50 77 51 33 53 65 54 45 55 64 56 46 57
REMARK SMILES IDX 49 58 63 59 82 60 47 61 48 62 62 64 83 65 50 66 34 67 35 68
REMARK SMILES IDX 43 69 36 70 38 71 44 72 37 73 39 74 40 75 41 76 42 77 66 78
REMARK SMILES IDX 67 79 75 80 68 81 70 82 76 83 69 84 71 85 72 86 73 87 74 88
REMARK SMILES IDX 51 89 52 90 60 91 53 92 55 93 61 94 54 95 56 96 57 97 58 98
REMARK SMILES IDX 59 99
REMARK H PARENT 18 4 14 9 10 14 22 33 81 52 49 63
REMARK Flexibility Score: inf
ROOT
ATOM      1  C   UNL A   1      36.073  22.725  24.259  1.00  0.00     0.239 C 
ATOM      2  O   UNL A   1      35.682  23.323  23.254  1.00  0.00    -0.273 OA
ATOM      3  N   UNL A   1      37.369  22.303  24.296  1.00  0.00    -0.355 N 
ATOM      4  H   UNL A   1      37.943  22.600  23.553  1.00  0.00     0.163 HD
ENDROOT
BRANCH   1   5
ATOM      5  C   UNL A   1      35.194  22.578  25.505  1.00  0.00     0.216 C 
BRANCH   5   6
ATOM      6  N   UNL A   1      34.421  21.362  25.653  1.00  0.00    -0.346 N 
ATOM      7  C   UNL A   1      33.170  21.072  25.191  1.00  0.00     0.239 C 
ATOM      8  O   UNL A   1      32.883  19.875  25.102  1.00  0.00    -0.273 OA
ATOM      9  H   UNL A   1      34.860  20.642  26.160  1.00  0.00     0.164 HD
BRANCH   7  10
ATOM     10  C   UNL A   1      32.194  22.145  24.644  1.00  0.00     0.216 C 
BRANCH  10  11
ATOM     11  N   UNL A   1      31.195  22.648  25.579  1.00  0.00    -0.345 N 
ATOM     12  C   UNL A   1      31.165  23.745  26.387  1.00  0.00     0.240 C 
ATOM     13  O   UNL A   1      30.258  23.806  27.222  1.00  0.00    -0.273 OA
ATOM     14  H   UNL A   1      30.387  22.089  25.637  1.00  0.00     0.164 HD
BRANCH  12  15
ATOM     15  C   UNL A   1      32.140  24.895  26.227  1.00  0.00     0.222 C 
BRANCH  15  16
ATOM     16  N   UNL A   1      31.557  26.122  25.707  1.00  0.00    -0.337 N 
ATOM     17  C   UNL A   1      30.508  27.438  24.247  1.00  0.00     0.043 A 
ATOM     18  C   UNL A   1      30.604  26.145  24.722  1.00  0.00     0.099 A 
ATOM     19  C   UNL A   1      31.255  28.263  25.147  1.00  0.00     0.010 A 
ATOM     20  C   UNL A   1      31.890  27.413  26.065  1.00  0.00     0.049 A 
ATOM     21  C   UNL A   1      31.491  29.652  25.245  1.00  0.00     0.011 A 
ATOM     22  C   UNL A   1      32.762  27.901  27.054  1.00  0.00     0.027 A 
ATOM     23  C   UNL A   1      32.366  30.144  26.217  1.00  0.00     0.001 A 
ATOM     24  C   UNL A   1      32.995  29.278  27.105  1.00  0.00     0.002 A 
BRANCH  17  25
ATOM     25  C   UNL A   1      29.801  27.781  23.019  1.00  0.00     0.161 C 
ATOM     26  C   UNL A   1      28.337  28.134  23.130  1.00  0.00     0.093 C 
ATOM     27  O   UNL A   1      30.398  27.906  21.949  1.00  0.00    -0.294 OA
ENDBRANCH  17  25
ENDBRANCH  15  16
ENDBRANCH  12  15
ENDBRANCH  10  11
ENDBRANCH   7  10
ENDBRANCH   5   6
ENDBRANCH   1   5
BRANCH   3  28
ATOM     28  C   UNL A   1      38.005  21.473  25.293  1.00  0.00     0.117 C 
BRANCH  28  29
ATOM     29  C   UNL A   1      38.959  22.281  26.164  1.00  0.00     0.042 C 
BRANCH  29  30
ATOM     30  C   UNL A   1      40.236  21.512  26.492  1.00  0.00     0.118 C 
BRANCH  30  31
ATOM     31  N   UNL A   1      41.359  21.921  25.673  1.00  0.00    -0.352 N 
ATOM     32  C   UNL A   1      42.155  23.029  25.606  1.00  0.00     0.251 C 
ATOM     33  H   UNL A   1      41.606  21.240  25.006  1.00  0.00     0.163 HD
ATOM     34  O   UNL A   1      43.047  22.985  24.754  1.00  0.00    -0.269 OA
BRANCH  32  35
ATOM     35  C   UNL A   1      42.013  24.256  26.442  1.00  0.00     0.039 A 
ATOM     36  C   UNL A   1      42.603  24.472  27.686  1.00  0.00     0.014 A 
ATOM     37  C   UNL A   1      41.180  25.263  25.916  1.00  0.00     0.014 A 
ATOM     38  C   UNL A   1      42.337  25.640  28.399  1.00  0.00     0.010 A 
ATOM     39  C   UNL A   1      40.925  26.441  26.616  1.00  0.00     0.010 A 
ATOM     40  C   UNL A   1      41.491  26.623  27.871  1.00  0.00    -0.014 A 
BRANCH  40  41
ATOM     41  C   UNL A   1      41.369  27.885  28.602  1.00  0.00     0.031 A 
ATOM     42  C   UNL A   1      42.396  28.897  28.235  1.00  0.00     0.074 A 
ATOM     43  C   UNL A   1      40.397  28.202  29.484  1.00  0.00     0.049 A 
ATOM     44  N   UNL A   1      43.428  29.244  28.932  1.00  0.00    -0.248 NA
ATOM     45  C   UNL A   1      42.354  29.484  26.889  1.00  0.00     0.031 C 
ATOM     46  C   UNL A   1      39.168  27.456  29.766  1.00  0.00     0.029 A 
ATOM     47  N   UNL A   1      40.259  29.327  30.253  1.00  0.00    -0.354 N 
ATOM     48  C   UNL A   1      44.019  30.286  28.223  1.00  0.00     0.074 A 
ATOM     49  C   UNL A   1      43.436  30.267  26.906  1.00  0.00     0.031 C 
ATOM     50  C   UNL A   1      38.312  28.247  30.456  1.00  0.00     0.029 A 
ATOM     51  C   UNL A   1      38.989  29.485  30.804  1.00  0.00     0.049 A 
ATOM     52  H   UNL A   1      40.991  29.968  30.403  1.00  0.00     0.167 HD
ATOM     53  C   UNL A   1      44.727  31.255  28.866  1.00  0.00     0.034 A 
ATOM     54  C   UNL A   1      38.526  30.564  31.482  1.00  0.00     0.034 A 
ATOM     55  C   UNL A   1      44.969  30.912  30.241  1.00  0.00     0.049 A 
ATOM     56  C   UNL A   1      39.698  31.236  32.083  1.00  0.00     0.074 A 
ATOM     57  C   UNL A   1      45.809  30.098  30.963  1.00  0.00     0.029 A 
ATOM     58  N   UNL A   1      43.956  31.308  31.069  1.00  0.00    -0.354 N 
ATOM     59  N   UNL A   1      40.413  30.714  33.040  1.00  0.00    -0.248 NA
ATOM     60  C   UNL A   1      40.244  32.442  31.469  1.00  0.00     0.031 C 
ATOM     61  C   UNL A   1      45.172  29.894  32.223  1.00  0.00     0.029 A 
ATOM     62  C   UNL A   1      43.971  30.600  32.235  1.00  0.00     0.049 A 
ATOM     63  H   UNL A   1      43.301  32.011  30.853  1.00  0.00     0.167 HD
ATOM     64  C   UNL A   1      41.667  31.254  32.842  1.00  0.00     0.074 A 
ATOM     65  C   UNL A   1      41.461  32.434  32.016  1.00  0.00     0.031 C 
ATOM     66  C   UNL A   1      42.783  30.507  33.051  1.00  0.00     0.034 A 
BRANCH  53  67
ATOM     67  C   UNL A   1      44.784  32.713  28.463  1.00  0.00     0.023 A 
ATOM     68  C   UNL A   1      43.568  33.435  28.472  1.00  0.00     0.012 A 
ATOM     69  C   UNL A   1      45.868  33.291  27.765  1.00  0.00     0.148 A 
ATOM     70  C   UNL A   1      43.428  34.650  27.792  1.00  0.00     0.002 A 
ATOM     71  C   UNL A   1      45.743  34.531  27.148  1.00  0.00     0.091 A 
ATOM     72  F   UNL A   1      46.982  32.580  27.563  1.00  0.00    -0.205 F 
ATOM     73  C   UNL A   1      44.519  35.204  27.136  1.00  0.00     0.022 A 
BRANCH  71  74
ATOM     74  S   UNL A   1      47.124  35.295  26.291  1.00  0.00     0.127 S 
ATOM     75  O   UNL A   1      47.237  34.449  25.109  1.00  0.00    -0.237 OA
ATOM     76  O   UNL A   1      46.616  36.645  26.046  1.00  0.00    -0.237 OA
ATOM     77  O   UNL A   1      48.238  35.239  27.232  1.00  0.00    -0.744 OA
ENDBRANCH  71  74
ENDBRANCH  53  67
BRANCH  54  78
ATOM     78  C   UNL A   1      37.174  31.157  31.625  1.00  0.00     0.023 A 
ATOM     79  C   UNL A   1      36.699  31.464  32.919  1.00  0.00     0.012 A 
ATOM     80  C   UNL A   1      36.501  31.722  30.521  1.00  0.00     0.148 A 
ATOM     81  C   UNL A   1      35.652  32.371  33.116  1.00  0.00     0.002 A 
ATOM     82  C   UNL A   1      35.453  32.619  30.722  1.00  0.00     0.091 A 
ATOM     83  F   UNL A   1      36.950  31.461  29.286  1.00  0.00    -0.205 F 
ATOM     84  C   UNL A   1      35.042  32.964  32.018  1.00  0.00     0.022 A 
BRANCH  82  85
ATOM     85  S   UNL A   1      34.617  33.434  29.354  1.00  0.00     0.127 S 
ATOM     86  O   UNL A   1      33.570  34.193  30.039  1.00  0.00    -0.237 OA
ATOM     87  O   UNL A   1      35.687  34.245  28.784  1.00  0.00    -0.237 OA
ATOM     88  O   UNL A   1      34.114  32.356  28.510  1.00  0.00    -0.744 OA
ENDBRANCH  82  85
ENDBRANCH  54  78
BRANCH  66  89
ATOM     89  C   UNL A   1      42.706  29.386  34.034  1.00  0.00     0.023 A 
ATOM     90  C   UNL A   1      42.065  28.165  33.754  1.00  0.00     0.012 A 
ATOM     91  C   UNL A   1      43.433  29.535  35.225  1.00  0.00     0.148 A 
ATOM     92  C   UNL A   1      42.158  27.103  34.657  1.00  0.00     0.002 A 
ATOM     93  C   UNL A   1      43.558  28.466  36.096  1.00  0.00     0.091 A 
ATOM     94  F   UNL A   1      44.025  30.716  35.459  1.00  0.00    -0.205 F 
ATOM     95  C   UNL A   1      42.917  27.248  35.818  1.00  0.00     0.022 A 
BRANCH  93  96
ATOM     96  S   UNL A   1      44.612  28.551  37.545  1.00  0.00     0.127 S 
ATOM     97  O   UNL A   1      44.279  27.307  38.238  1.00  0.00    -0.237 OA
ATOM     98  O   UNL A   1      45.948  28.583  36.949  1.00  0.00    -0.237 OA
ATOM     99  O   UNL A   1      44.237  29.771  38.249  1.00  0.00    -0.744 OA
ENDBRANCH  93  96
ENDBRANCH  66  89
ENDBRANCH  40  41
ENDBRANCH  32  35
ENDBRANCH  30  31
ENDBRANCH  29  30
ENDBRANCH  28  29
ENDBRANCH   3  28
TORSDOF 19
ENDMDL
MODEL 2
REMARK VINA RESULT:     -11.9      3.106      9.400
REMARK SMILES CC(=O)c1cn(CC(=O)NCC(=O)NCC(=O)NCCCNC(=O)c2ccc(-c3c4nc(c(-c5cccc(S(=O)(=O)[O-])c5F)c5ccc([nH]5)c(-c5cccc(S(=O)(=O)[O-])c5F)c5nc(c(-c6cccc(S(=O)(=O)[O-])c6F)c6ccc3[nH]6)C=C5)C=C4)cc2)c2ccccc12
REMARK SMILES IDX 16 1 17 2 18 3 15 5 14 6 12 7 13 8 11 10 10 11 8 12 9 13
REMARK SMILES IDX 7 15 6 16 4 17 5 18 93 19 88 20 92 21 89 22 91 23 90 24 2 25
REMARK SMILES IDX 1 26 3 27 19 28 20 29 21 30 22 31 23 32 24 34 25 35 26 36
REMARK SMILES IDX 87 37 27 38 86 39 28 40 29 41 30 42 80 43 31 44 85 45 79 46
REMARK SMILES IDX 81 47 32 48 84 49 78 50 77 51 33 53 65 54 45 55 64 56 46 57
REMARK SMILES IDX 49 58 63 59 82 60 47 61 48 62 62 64 83 65 50 66 34 67 35 68
REMARK SMILES IDX 43 69 36 70 38 71 44 72 37 73 39 74 40 75 41 76 42 77 66 78
REMARK SMILES IDX 67 79 75 80 68 81 70 82 76 83 69 84 71 85 72 86 73 87 74 88
REMARK SMILES IDX 51 89 52 90 60 91 53 92 55 93 61 94 54 95 56 96 57 97 58 98
REMARK SMILES IDX 59 99
REMARK H PARENT 18 4 14 9 10 14 22 33 81 52 49 63
REMARK Flexibility Score: inf
ROOT
ATOM      1  C   UNL A   1      31.803  28.270  26.931  1.00  0.00     0.239 C 
ATOM      2  O   UNL A   1      31.228  27.435  27.632  1.00  0.00    -0.273 OA
ATOM      3  N   UNL A   1      32.251  29.413  27.524  1.00  0.00    -0.355 N 
ATOM      4  H   UNL A   1      32.178  29.450  28.505  1.00  0.00     0.163 HD
ENDROOT
BRANCH   1   5
ATOM      5  C   UNL A   1      32.151  27.993  25.465  1.00  0.00     0.216 C 
BRANCH   5   6
ATOM      6  N   UNL A   1      31.148  28.281  24.460  1.00  0.00    -0.346 N 
ATOM      7  C   UNL A   1      30.366  27.418  23.749  1.00  0.00     0.239 C 
ATOM      8  O   UNL A   1      29.340  27.892  23.253  1.00  0.00    -0.273 OA
ATOM      9  H   UNL A   1      31.011  29.235  24.263  1.00  0.00     0.164 HD
BRANCH   7  10
ATOM     10  C   UNL A   1      30.625  25.892  23.680  1.00  0.00     0.216 C 
BRANCH  10  11
ATOM     11  N   UNL A   1      31.639  25.450  22.731  1.00  0.00    -0.345 N 
ATOM     12  C   UNL A   1      32.907  24.977  22.896  1.00  0.00     0.240 C 
ATOM     13  O   UNL A   1      33.604  24.867  21.883  1.00  0.00    -0.273 OA
ATOM     14  H   UNL A   1      31.354  25.502  21.790  1.00  0.00     0.164 HD
BRANCH  12  15
ATOM     15  C   UNL A   1      33.431  24.518  24.243  1.00  0.00     0.222 C 
BRANCH  15  16
ATOM     16  N   UNL A   1      33.918  23.148  24.274  1.00  0.00    -0.337 N 
ATOM     17  C   UNL A   1      33.806  20.934  24.495  1.00  0.00     0.043 A 
ATOM     18  C   UNL A   1      33.110  22.057  24.090  1.00  0.00     0.099 A 
ATOM     19  C   UNL A   1      35.162  21.342  24.697  1.00  0.00     0.010 A 
ATOM     20  C   UNL A   1      35.209  22.736  24.535  1.00  0.00     0.049 A 
ATOM     21  C   UNL A   1      36.353  20.668  25.047  1.00  0.00     0.011 A 
ATOM     22  C   UNL A   1      36.392  23.470  24.732  1.00  0.00     0.027 A 
ATOM     23  C   UNL A   1      37.530  21.392  25.257  1.00  0.00     0.001 A 
ATOM     24  C   UNL A   1      37.545  22.774  25.105  1.00  0.00     0.002 A 
BRANCH  17  25
ATOM     25  C   UNL A   1      33.170  19.639  24.700  1.00  0.00     0.161 C 
ATOM     26  C   UNL A   1      33.887  18.417  24.178  1.00  0.00     0.093 C 
ATOM     27  O   UNL A   1      32.153  19.525  25.384  1.00  0.00    -0.294 OA
ENDBRANCH  17  25
ENDBRANCH  15  16
ENDBRANCH  12  15
ENDBRANCH  10  11
ENDBRANCH   7  10
ENDBRANCH   5   6
ENDBRANCH   1   5
BRANCH   3  28
ATOM     28  C   UNL A   1      32.821  30.579  26.888  1.00  0.00     0.117 C 
BRANCH  28  29
ATOM     29  C   UNL A   1      34.294  30.742  27.242  1.00  0.00     0.042 C 
BRANCH  29  30
ATOM     30  C   UNL A   1      34.493  31.323  28.639  1.00  0.00     0.118 C 
BRANCH  30  31
ATOM     31  N   UNL A   1      35.362  32.482  28.642  1.00  0.00    -0.352 N 
ATOM     32  C   UNL A   1      36.702  32.687  28.808  1.00  0.00     0.251 C 
ATOM     33  H   UNL A   1      34.870  33.321  28.488  1.00  0.00     0.163 HD
ATOM     34  O   UNL A   1      37.070  33.862  28.718  1.00  0.00    -0.269 OA
BRANCH  32  35
ATOM     35  C   UNL A   1      37.715  31.633  29.106  1.00  0.00     0.039 A 
ATOM     36  C   UNL A   1      37.624  30.288  28.755  1.00  0.00     0.014 A 
ATOM     37  C   UNL A   1      38.845  32.057  29.833  1.00  0.00     0.014 A 
ATOM     38  C   UNL A   1      38.611  29.388  29.151  1.00  0.00     0.010 A 
ATOM     39  C   UNL A   1      39.845  31.165  30.216  1.00  0.00     0.010 A 
ATOM     40  C   UNL A   1      39.719  29.821  29.891  1.00  0.00    -0.014 A 
BRANCH  40  41
ATOM     41  C   UNL A   1      40.789  28.856  30.150  1.00  0.00     0.031 A 
ATOM     42  C   UNL A   1      41.149  28.728  31.588  1.00  0.00     0.074 A 
ATOM     43  C   UNL A   1      41.385  28.064  29.233  1.00  0.00     0.049 A 
ATOM     44  N   UNL A   1      42.203  29.200  32.169  1.00  0.00    -0.248 NA
ATOM     45  C   UNL A   1      40.169  28.136  32.509  1.00  0.00     0.031 C 
ATOM     46  C   UNL A   1      40.986  27.853  27.841  1.00  0.00     0.029 A 
ATOM     47  N   UNL A   1      42.432  27.195  29.390  1.00  0.00    -0.354 N 
ATOM     48  C   UNL A   1      42.142  28.734  33.480  1.00  0.00     0.074 A 
ATOM     49  C   UNL A   1      40.800  28.251  33.680  1.00  0.00     0.031 C 
ATOM     50  C   UNL A   1      41.622  26.762  27.352  1.00  0.00     0.029 A 
ATOM     51  C   UNL A   1      42.588  26.299  28.334  1.00  0.00     0.049 A 
ATOM     52  H   UNL A   1      43.021  27.201  30.178  1.00  0.00     0.167 HD
ATOM     53  C   UNL A   1      43.278  28.522  34.199  1.00  0.00     0.034 A 
ATOM     54  C   UNL A   1      43.439  25.246  28.283  1.00  0.00     0.034 A 
ATOM     55  C   UNL A   1      44.434  29.061  33.538  1.00  0.00     0.049 A 
ATOM     56  C   UNL A   1      44.571  25.555  29.183  1.00  0.00     0.074 A 
ATOM     57  C   UNL A   1      45.026  30.286  33.342  1.00  0.00     0.029 A 
ATOM     58  N   UNL A   1      44.999  28.178  32.660  1.00  0.00    -0.354 N 
ATOM     59  N   UNL A   1      45.437  26.499  28.949  1.00  0.00    -0.248 NA
ATOM     60  C   UNL A   1      44.639  24.945  30.507  1.00  0.00     0.031 C 
ATOM     61  C   UNL A   1      45.866  30.139  32.198  1.00  0.00     0.029 A 
ATOM     62  C   UNL A   1      45.770  28.827  31.741  1.00  0.00     0.049 A 
ATOM     63  H   UNL A   1      44.869  27.203  32.689  1.00  0.00     0.167 HD
ATOM     64  C   UNL A   1      45.843  26.889  30.208  1.00  0.00     0.074 A 
ATOM     65  C   UNL A   1      45.487  25.792  31.094  1.00  0.00     0.031 C 
ATOM     66  C   UNL A   1      46.092  28.198  30.481  1.00  0.00     0.034 A 
BRANCH  53  67
ATOM     67  C   UNL A   1      43.476  27.423  35.222  1.00  0.00     0.023 A 
ATOM     68  C   UNL A   1      43.829  27.815  36.534  1.00  0.00     0.012 A 
ATOM     69  C   UNL A   1      43.673  26.065  34.884  1.00  0.00     0.148 A 
ATOM     70  C   UNL A   1      44.381  26.913  37.450  1.00  0.00     0.002 A 
ATOM     71  C   UNL A   1      44.158  25.158  35.820  1.00  0.00     0.091 A 
ATOM     72  F   UNL A   1      43.535  25.670  33.615  1.00  0.00    -0.205 F 
ATOM     73  C   UNL A   1      44.538  25.580  37.096  1.00  0.00     0.022 A 
BRANCH  71  74
ATOM     74  S   UNL A   1      44.375  23.421  35.416  1.00  0.00     0.127 S 
ATOM     75  O   UNL A   1      44.896  22.893  36.672  1.00  0.00    -0.237 OA
ATOM     76  O   UNL A   1      43.009  23.016  35.087  1.00  0.00    -0.237 OA
ATOM     77  O   UNL A   1      45.292  23.402  34.281  1.00  0.00    -0.744 OA
ENDBRANCH  71  74
ENDBRANCH  53  67
BRANCH  54  78
ATOM     78  C   UNL A   1      43.371  23.932  27.598  1.00  0.00     0.023 A 
ATOM     79  C   UNL A   1      42.166  23.196  27.655  1.00  0.00     0.012 A 
ATOM     80  C   UNL A   1      44.330  23.557  26.634  1.00  0.00     0.148 A 
ATOM     81  C   UNL A   1      41.884  22.185  26.731  1.00  0.00     0.002 A 
ATOM     82  C   UNL A   1      44.047  22.542  25.720  1.00  0.00     0.091 A 
ATOM     83  F   UNL A   1      45.470  24.255  26.548  1.00  0.00    -0.205 F 
ATOM     84  C   UNL A   1      42.817  21.871  25.751  1.00  0.00     0.022 A 
BRANCH  82  85
ATOM     85  S   UNL A   1      45.199  22.081  24.418  1.00  0.00     0.127 S 
ATOM     86  O   UNL A   1      44.470  21.020  23.721  1.00  0.00    -0.237 OA
ATOM     87  O   UNL A   1      45.326  23.328  23.670  1.00  0.00    -0.237 OA
ATOM     88  O   UNL A   1      46.400  21.623  25.106  1.00  0.00    -0.744 OA
ENDBRANCH  82  85
ENDBRANCH  54  78
BRANCH  66  89
ATOM     89  C   UNL A   1      46.521  29.082  29.357  1.00  0.00     0.023 A 
ATOM     90  C   UNL A   1      47.813  29.046  28.805  1.00  0.00     0.012 A 
ATOM     91  C   UNL A   1      45.527  29.870  28.756  1.00  0.00     0.148 A 
ATOM     92  C   UNL A   1      48.106  29.789  27.659  1.00  0.00     0.002 A 
ATOM     93  C   UNL A   1      45.810  30.571  27.595  1.00  0.00     0.091 A 
ATOM     94  F   UNL A   1      44.308  29.883  29.315  1.00  0.00    -0.205 F 
ATOM     95  C   UNL A   1      47.101  30.537  27.045  1.00  0.00     0.022 A 
BRANCH  93  96
ATOM     96  S   UNL A   1      44.535  31.457  26.697  1.00  0.00     0.127 S 
ATOM     97  O   UNL A   1      45.273  31.965  25.542  1.00  0.00    -0.237 OA
ATOM     98  O   UNL A   1      43.579  30.392  26.394  1.00  0.00    -0.237 OA
ATOM     99  O   UNL A   1      44.031  32.478  27.607  1.00  0.00    -0.744 OA
ENDBRANCH  93  96
ENDBRANCH  66  89
ENDBRANCH  40  41
ENDBRANCH  32  35
ENDBRANCH  30  31
ENDBRANCH  29  30
ENDBRANCH  28  29
ENDBRANCH   3  28
TORSDOF 19
ENDMDL
MODEL 3
REMARK VINA RESULT:     -11.8      2.931      8.933
REMARK SMILES CC(=O)c1cn(CC(=O)NCC(=O)NCC(=O)NCCCNC(=O)c2ccc(-c3c4nc(c(-c5cccc(S(=O)(=O)[O-])c5F)c5ccc([nH]5)c(-c5cccc(S(=O)(=O)[O-])c5F)c5nc(c(-c6cccc(S(=O)(=O)[O-])c6F)c6ccc3[nH]6)C=C5)C=C4)cc2)c2ccccc12
REMARK SMILES IDX 16 1 17 2 18 3 15 5 14 6 12 7 13 8 11 10 10 11 8 12 9 13
REMARK SMILES IDX 7 15 6 16 4 17 5 18 93 19 88 20 92 21 89 22 91 23 90 24 2 25
REMARK SMILES IDX 1 26 3 27 19 28 20 29 21 30 22 31 23 32 24 34 25 35 26 36
REMARK SMILES IDX 87 37 27 38 86 39 28 40 29 41 30 42 80 43 31 44 85 45 79 46
REMARK SMILES IDX 81 47 32 48 84 49 78 50 77 51 33 53 65 54 45 55 64 56 46 57
REMARK SMILES IDX 49 58 63 59 82 60 47 61 48 62 62 64 83 65 50 66 34 67 35 68
REMARK SMILES IDX 43 69 36 70 38 71 44 72 37 73 39 74 40 75 41 76 42 77 66 78
REMARK SMILES IDX 67 79 75 80 68 81 70 82 76 83 69 84 71 85 72 86 73 87 74 88
REMARK SMILES IDX 51 89 52 90 60 91 53 92 55 93 61 94 54 95 56 96 57 97 58 98
REMARK SMILES IDX 59 99
REMARK H PARENT 18 4 14 9 10 14 22 33 81 52 49 63
REMARK Flexibility Score: inf
ROOT
ATOM      1  C   UNL A   1      33.342  28.175  25.578  1.00  0.00     0.239 C 
ATOM      2  O   UNL A   1      33.991  27.342  24.941  1.00  0.00    -0.273 OA
ATOM      3  N   UNL A   1      33.953  29.345  25.920  1.00  0.00    -0.355 N 
ATOM      4  H   UNL A   1      34.849  29.493  25.541  1.00  0.00     0.163 HD
ENDROOT
BRANCH   1   5
ATOM      5  C   UNL A   1      31.848  27.991  25.860  1.00  0.00     0.216 C 
BRANCH   5   6
ATOM      6  N   UNL A   1      30.923  28.129  24.754  1.00  0.00    -0.346 N 
ATOM      7  C   UNL A   1      30.210  27.168  24.098  1.00  0.00     0.239 C 
ATOM      8  O   UNL A   1      29.221  27.553  23.471  1.00  0.00    -0.273 OA
ATOM      9  H   UNL A   1      30.789  29.048  24.429  1.00  0.00     0.164 HD
BRANCH   7  10
ATOM     10  C   UNL A   1      30.495  25.651  24.240  1.00  0.00     0.216 C 
BRANCH  10  11
ATOM     11  N   UNL A   1      30.074  25.027  25.489  1.00  0.00    -0.345 N 
ATOM     12  C   UNL A   1      30.744  24.285  26.415  1.00  0.00     0.240 C 
ATOM     13  O   UNL A   1      30.068  23.721  27.281  1.00  0.00    -0.273 OA
ATOM     14  H   UNL A   1      29.125  25.170  25.705  1.00  0.00     0.164 HD
BRANCH  12  15
ATOM     15  C   UNL A   1      32.258  24.210  26.452  1.00  0.00     0.222 C 
BRANCH  15  16
ATOM     16  N   UNL A   1      32.831  23.071  25.752  1.00  0.00    -0.337 N 
ATOM     17  C   UNL A   1      32.939  20.990  24.962  1.00  0.00     0.043 A 
ATOM     18  C   UNL A   1      32.082  22.029  25.270  1.00  0.00     0.099 A 
ATOM     19  C   UNL A   1      34.267  21.519  25.033  1.00  0.00     0.010 A 
ATOM     20  C   UNL A   1      34.169  22.834  25.515  1.00  0.00     0.049 A 
ATOM     21  C   UNL A   1      35.552  20.993  24.776  1.00  0.00     0.011 A 
ATOM     22  C   UNL A   1      35.306  23.622  25.766  1.00  0.00     0.027 A 
ATOM     23  C   UNL A   1      36.687  21.765  25.035  1.00  0.00     0.001 A 
ATOM     24  C   UNL A   1      36.563  23.060  25.527  1.00  0.00     0.002 A 
BRANCH  17  25
ATOM     25  C   UNL A   1      32.476  19.636  24.687  1.00  0.00     0.161 C 
ATOM     26  C   UNL A   1      32.547  19.150  23.259  1.00  0.00     0.093 C 
ATOM     27  O   UNL A   1      32.160  18.869  25.596  1.00  0.00    -0.294 OA
ENDBRANCH  17  25
ENDBRANCH  15  16
ENDBRANCH  12  15
ENDBRANCH  10  11
ENDBRANCH   7  10
ENDBRANCH   5   6
ENDBRANCH   1   5
BRANCH   3  28
ATOM     28  C   UNL A   1      33.445  30.395  26.773  1.00  0.00     0.117 C 
BRANCH  28  29
ATOM     29  C   UNL A   1      34.551  31.004  27.625  1.00  0.00     0.042 C 
BRANCH  29  30
ATOM     30  C   UNL A   1      34.297  32.477  27.937  1.00  0.00     0.118 C 
BRANCH  30  31
ATOM     31  N   UNL A   1      34.260  32.746  29.360  1.00  0.00    -0.352 N 
ATOM     32  C   UNL A   1      35.048  32.419  30.427  1.00  0.00     0.251 C 
ATOM     33  H   UNL A   1      33.484  33.293  29.619  1.00  0.00     0.163 HD
ATOM     34  O   UNL A   1      34.675  32.873  31.514  1.00  0.00    -0.269 OA
BRANCH  32  35
ATOM     35  C   UNL A   1      36.268  31.564  30.381  1.00  0.00     0.039 A 
ATOM     36  C   UNL A   1      36.333  30.211  30.709  1.00  0.00     0.014 A 
ATOM     37  C   UNL A   1      37.458  32.213  29.993  1.00  0.00     0.014 A 
ATOM     38  C   UNL A   1      37.553  29.538  30.688  1.00  0.00     0.010 A 
ATOM     39  C   UNL A   1      38.677  31.540  29.952  1.00  0.00     0.010 A 
ATOM     40  C   UNL A   1      38.730  30.203  30.319  1.00  0.00    -0.014 A 
BRANCH  40  41
ATOM     41  C   UNL A   1      39.950  29.406  30.178  1.00  0.00     0.031 A 
ATOM     42  C   UNL A   1      40.664  29.165  31.461  1.00  0.00     0.074 A 
ATOM     43  C   UNL A   1      40.405  28.843  29.038  1.00  0.00     0.049 A 
ATOM     44  N   UNL A   1      41.755  29.732  31.860  1.00  0.00    -0.248 NA
ATOM     45  C   UNL A   1      40.026  28.309  32.470  1.00  0.00     0.031 C 
ATOM     46  C   UNL A   1      39.710  28.741  27.753  1.00  0.00     0.029 A 
ATOM     47  N   UNL A   1      41.565  28.149  28.818  1.00  0.00    -0.354 N 
ATOM     48  C   UNL A   1      42.078  29.106  33.061  1.00  0.00     0.074 A 
ATOM     49  C   UNL A   1      40.903  28.383  33.475  1.00  0.00     0.031 C 
ATOM     50  C   UNL A   1      40.349  27.840  26.969  1.00  0.00     0.029 A 
ATOM     51  C   UNL A   1      41.578  27.429  27.626  1.00  0.00     0.049 A 
ATOM     52  H   UNL A   1      42.323  28.158  29.446  1.00  0.00     0.167 HD
ATOM     53  C   UNL A   1      43.374  29.000  33.467  1.00  0.00     0.034 A 
ATOM     54  C   UNL A   1      42.524  26.547  27.220  1.00  0.00     0.034 A 
ATOM     55  C   UNL A   1      44.250  29.803  32.659  1.00  0.00     0.049 A 
ATOM     56  C   UNL A   1      43.789  26.929  27.883  1.00  0.00     0.074 A 
ATOM     57  C   UNL A   1      44.607  31.124  32.533  1.00  0.00     0.029 A 
ATOM     58  N   UNL A   1      44.697  29.141  31.549  1.00  0.00    -0.354 N 
ATOM     59  N   UNL A   1      44.438  28.027  27.616  1.00  0.00    -0.248 NA
ATOM     60  C   UNL A   1      44.259  26.182  29.046  1.00  0.00     0.031 C 
ATOM     61  C   UNL A   1      45.154  31.261  31.222  1.00  0.00     0.029 A 
ATOM     62  C   UNL A   1      45.127  30.018  30.596  1.00  0.00     0.049 A 
ATOM     63  H   UNL A   1      44.709  28.162  31.451  1.00  0.00     0.167 HD
ATOM     64  C   UNL A   1      45.082  28.322  28.798  1.00  0.00     0.074 A 
ATOM     65  C   UNL A   1      45.103  27.080  29.556  1.00  0.00     0.031 C 
ATOM     66  C   UNL A   1      45.212  29.611  29.213  1.00  0.00     0.034 A 
BRANCH  53  67
ATOM     67  C   UNL A   1      43.961  27.833  34.232  1.00  0.00     0.023 A 
ATOM     68  C   UNL A   1      44.715  28.133  35.390  1.00  0.00     0.012 A 
ATOM     69  C   UNL A   1      44.100  26.534  33.694  1.00  0.00     0.148 A 
ATOM     70  C   UNL A   1      45.589  27.201  35.961  1.00  0.00     0.002 A 
ATOM     71  C   UNL A   1      44.918  25.590  34.305  1.00  0.00     0.091 A 
ATOM     72  F   UNL A   1      43.561  26.247  32.505  1.00  0.00    -0.205 F 
ATOM     73  C   UNL A   1      45.684  25.924  35.424  1.00  0.00     0.022 A 
BRANCH  71  74
ATOM     74  S   UNL A   1      45.073  23.923  33.655  1.00  0.00     0.127 S 
ATOM     75  O   UNL A   1      45.446  24.184  32.270  1.00  0.00    -0.237 OA
ATOM     76  O   UNL A   1      46.136  23.371  34.495  1.00  0.00    -0.237 OA
ATOM     77  O   UNL A   1      43.766  23.307  33.865  1.00  0.00    -0.744 OA
ENDBRANCH  71  74
ENDBRANCH  53  67
BRANCH  54  78
ATOM     78  C   UNL A   1      42.467  25.334  26.368  1.00  0.00     0.023 A 
ATOM     79  C   UNL A   1      43.391  25.204  25.306  1.00  0.00     0.012 A 
ATOM     80  C   UNL A   1      41.764  24.183  26.777  1.00  0.00     0.148 A 
ATOM     81  C   UNL A   1      43.675  23.960  24.734  1.00  0.00     0.002 A 
ATOM     82  C   UNL A   1      42.043  22.946  26.197  1.00  0.00     0.091 A 
ATOM     83  F   UNL A   1      40.899  24.280  27.796  1.00  0.00    -0.205 F 
ATOM     84  C   UNL A   1      43.015  22.827  25.194  1.00  0.00     0.022 A 
BRANCH  82  85
ATOM     85  S   UNL A   1      41.237  21.433  26.740  1.00  0.00     0.127 S 
ATOM     86  O   UNL A   1      39.855  21.645  26.308  1.00  0.00    -0.237 OA
ATOM     87  O   UNL A   1      41.963  20.415  25.987  1.00  0.00    -0.237 OA
ATOM     88  O   UNL A   1      41.409  21.400  28.188  1.00  0.00    -0.744 OA
ENDBRANCH  82  85
ENDBRANCH  54  78
BRANCH  66  89
ATOM     89  C   UNL A   1      45.231  30.685  28.176  1.00  0.00     0.023 A 
ATOM     90  C   UNL A   1      44.062  31.252  27.640  1.00  0.00     0.012 A 
ATOM     91  C   UNL A   1      46.484  31.226  27.848  1.00  0.00     0.148 A 
ATOM     92  C   UNL A   1      44.147  32.355  26.786  1.00  0.00     0.002 A 
ATOM     93  C   UNL A   1      46.560  32.346  27.036  1.00  0.00     0.091 A 
ATOM     94  F   UNL A   1      47.577  30.654  28.375  1.00  0.00    -0.205 F 
ATOM     95  C   UNL A   1      45.393  32.911  26.498  1.00  0.00     0.022 A 
BRANCH  93  96
ATOM     96  S   UNL A   1      48.119  33.175  26.722  1.00  0.00     0.127 S 
ATOM     97  O   UNL A   1      48.387  33.820  28.007  1.00  0.00    -0.237 OA
ATOM     98  O   UNL A   1      49.003  32.054  26.402  1.00  0.00    -0.237 OA
ATOM     99  O   UNL A   1      47.879  34.088  25.611  1.00  0.00    -0.744 OA
ENDBRANCH  93  96
ENDBRANCH  66  89
ENDBRANCH  40  41
ENDBRANCH  32  35
ENDBRANCH  30  31
ENDBRANCH  29  30
ENDBRANCH  28  29
ENDBRANCH   3  28
TORSDOF 19
ENDMDL
