MODEL 1
REMARK VINA RESULT:     -10.9      0.000      0.000
REMARK SMILES N#Cc1cccc(NCCCC(=O)NCCCNC(=O)c2ccc(-c3c4nc(c(-c5cccc(S(=O)(=O)[O-])c5F)c5ccc([nH]5)c(-c5cccc(S(=O)(=O)[O-])c5F)c5nc(c(-c6cccc(S(=O)(=O)[O-])c6F)c6ccc3[nH]6)C=C5)C=C4)cc2)c1
REMARK SMILES IDX 15 1 14 2 12 3 13 4 11 6 10 7 9 8 8 9 7 11 3 12 4 13 84 14
REMARK SMILES IDX 5 15 6 16 2 17 1 18 16 19 17 20 18 21 19 22 20 24 21 25
REMARK SMILES IDX 22 26 83 27 23 28 82 29 24 30 25 31 26 32 76 33 27 34 81 35
REMARK SMILES IDX 75 36 77 37 28 38 80 39 74 40 73 41 29 43 61 44 41 45 60 46
REMARK SMILES IDX 42 47 45 48 59 49 78 50 43 51 44 52 58 54 79 55 46 56 30 57
REMARK SMILES IDX 31 58 39 59 32 60 34 61 40 62 33 63 35 64 36 65 37 66 38 67
REMARK SMILES IDX 62 68 63 69 71 70 64 71 66 72 72 73 65 74 67 75 68 76 69 77
REMARK SMILES IDX 70 78 47 79 48 80 56 81 49 82 51 83 57 84 50 85 52 86 53 87
REMARK SMILES IDX 54 88 55 89
REMARK H PARENT 14 5 8 10 18 23 77 42 45 53
REMARK Flexibility Score: inf
ROOT
ATOM      1  C   UNL A   1      36.672  20.841  25.241  1.00  0.00     0.117 C 
ENDROOT
BRANCH   1   2
ATOM      2  N   UNL A   1      36.653  21.813  24.163  1.00  0.00    -0.356 N 
ATOM      3  C   UNL A   1      35.659  22.645  23.757  1.00  0.00     0.220 C 
ATOM      4  O   UNL A   1      35.852  23.347  22.762  1.00  0.00    -0.275 OA
ATOM      5  H   UNL A   1      37.489  21.878  23.647  1.00  0.00     0.163 HD
BRANCH   3   6
ATOM      6  C   UNL A   1      34.368  22.749  24.540  1.00  0.00     0.102 C 
BRANCH   6   7
ATOM      7  C   UNL A   1      33.090  22.601  23.711  1.00  0.00     0.031 C 
BRANCH   7   8
ATOM      8  C   UNL A   1      31.930  21.805  24.313  1.00  0.00     0.113 C 
BRANCH   8   9
ATOM      9  N   UNL A   1      32.378  20.572  24.936  1.00  0.00    -0.385 N 
ATOM     10  H   UNL A   1      32.408  20.544  25.920  1.00  0.00     0.160 HD
BRANCH   9  11
ATOM     11  C   UNL A   1      32.764  19.436  24.252  1.00  0.00     0.035 A 
ATOM     12  C   UNL A   1      34.072  17.367  24.258  1.00  0.00     0.054 A 
ATOM     13  C   UNL A   1      33.529  17.006  23.025  1.00  0.00     0.019 A 
ATOM     14  C   UNL A   1      33.698  18.579  24.853  1.00  0.00     0.045 A 
ATOM     15  C   UNL A   1      32.644  17.871  22.386  1.00  0.00     0.003 A 
ATOM     16  C   UNL A   1      32.277  19.080  22.991  1.00  0.00     0.026 A 
BRANCH  12  17
ATOM     17  C   UNL A   1      34.984  16.495  24.934  1.00  0.00     0.099 C 
ATOM     18  N   UNL A   1      35.724  15.802  25.505  1.00  0.00    -0.192 NA
ENDBRANCH  12  17
ENDBRANCH   9  11
ENDBRANCH   8   9
ENDBRANCH   7   8
ENDBRANCH   6   7
ENDBRANCH   3   6
ENDBRANCH   1   2
BRANCH   1  19
ATOM     19  C   UNL A   1      37.844  19.882  25.093  1.00  0.00     0.042 C 
BRANCH  19  20
ATOM     20  C   UNL A   1      39.121  20.386  25.742  1.00  0.00     0.118 C 
BRANCH  20  21
ATOM     21  N   UNL A   1      40.102  19.328  25.922  1.00  0.00    -0.352 N 
ATOM     22  C   UNL A   1      41.460  19.423  26.104  1.00  0.00     0.251 C 
ATOM     23  H   UNL A   1      39.741  18.412  25.914  1.00  0.00     0.163 HD
ATOM     24  O   UNL A   1      42.154  18.414  26.021  1.00  0.00    -0.269 OA
BRANCH  22  25
ATOM     25  C   UNL A   1      42.083  20.738  26.380  1.00  0.00     0.039 A 
ATOM     26  C   UNL A   1      42.380  21.586  25.310  1.00  0.00     0.014 A 
ATOM     27  C   UNL A   1      42.382  21.133  27.686  1.00  0.00     0.014 A 
ATOM     28  C   UNL A   1      42.930  22.845  25.558  1.00  0.00     0.010 A 
ATOM     29  C   UNL A   1      42.823  22.428  27.937  1.00  0.00     0.010 A 
ATOM     30  C   UNL A   1      43.127  23.291  26.876  1.00  0.00    -0.014 A 
BRANCH  30  31
ATOM     31  C   UNL A   1      43.686  24.635  27.168  1.00  0.00     0.031 A 
ATOM     32  C   UNL A   1      42.786  25.720  27.704  1.00  0.00     0.074 A 
ATOM     33  C   UNL A   1      44.981  24.900  26.899  1.00  0.00     0.049 A 
ATOM     34  N   UNL A   1      43.059  26.977  27.941  1.00  0.00    -0.248 NA
ATOM     35  C   UNL A   1      41.386  25.352  27.987  1.00  0.00     0.031 C 
ATOM     36  C   UNL A   1      45.942  23.952  26.329  1.00  0.00     0.029 A 
ATOM     37  N   UNL A   1      45.709  26.056  27.048  1.00  0.00    -0.354 N 
ATOM     38  C   UNL A   1      41.870  27.549  28.378  1.00  0.00     0.074 A 
ATOM     39  C   UNL A   1      40.858  26.519  28.322  1.00  0.00     0.031 C 
ATOM     40  C   UNL A   1      47.131  24.558  26.186  1.00  0.00     0.029 A 
ATOM     41  C   UNL A   1      47.008  25.950  26.605  1.00  0.00     0.049 A 
ATOM     42  H   UNL A   1      45.337  26.881  27.434  1.00  0.00     0.167 HD
ATOM     43  C   UNL A   1      41.646  28.807  28.823  1.00  0.00     0.034 A 
ATOM     44  C   UNL A   1      47.982  26.879  26.525  1.00  0.00     0.034 A 
ATOM     45  C   UNL A   1      42.659  29.821  28.903  1.00  0.00     0.049 A 
ATOM     46  C   UNL A   1      47.693  28.278  27.003  1.00  0.00     0.074 A 
ATOM     47  C   UNL A   1      42.543  31.115  29.379  1.00  0.00     0.029 A 
ATOM     48  N   UNL A   1      43.972  29.660  28.496  1.00  0.00    -0.354 N 
ATOM     49  N   UNL A   1      46.590  28.766  27.517  1.00  0.00    -0.248 NA
ATOM     50  C   UNL A   1      48.794  29.250  26.922  1.00  0.00     0.031 C 
ATOM     51  C   UNL A   1      43.779  31.748  29.225  1.00  0.00     0.029 A 
ATOM     52  C   UNL A   1      44.677  30.831  28.706  1.00  0.00     0.049 A 
ATOM     53  H   UNL A   1      44.349  28.835  28.112  1.00  0.00     0.167 HD
ATOM     54  C   UNL A   1      46.883  30.079  27.871  1.00  0.00     0.074 A 
ATOM     55  C   UNL A   1      48.270  30.305  27.528  1.00  0.00     0.031 C 
ATOM     56  C   UNL A   1      46.076  31.016  28.422  1.00  0.00     0.034 A 
BRANCH  43  57
ATOM     57  C   UNL A   1      40.262  29.146  29.314  1.00  0.00     0.023 A 
ATOM     58  C   UNL A   1      39.287  29.585  28.395  1.00  0.00     0.012 A 
ATOM     59  C   UNL A   1      39.903  28.949  30.662  1.00  0.00     0.148 A 
ATOM     60  C   UNL A   1      37.985  29.851  28.813  1.00  0.00     0.002 A 
ATOM     61  C   UNL A   1      38.590  29.168  31.061  1.00  0.00     0.091 A 
ATOM     62  F   UNL A   1      40.847  28.543  31.521  1.00  0.00    -0.205 F 
ATOM     63  C   UNL A   1      37.634  29.631  30.142  1.00  0.00     0.022 A 
BRANCH  61  64
ATOM     64  S   UNL A   1      38.013  28.839  32.730  1.00  0.00     0.127 S 
ATOM     65  O   UNL A   1      36.629  29.309  32.660  1.00  0.00    -0.237 OA
ATOM     66  O   UNL A   1      38.160  27.387  32.822  1.00  0.00    -0.237 OA
ATOM     67  O   UNL A   1      38.879  29.602  33.616  1.00  0.00    -0.744 OA
ENDBRANCH  61  64
ENDBRANCH  43  57
BRANCH  44  68
ATOM     68  C   UNL A   1      49.331  26.532  25.990  1.00  0.00     0.023 A 
ATOM     69  C   UNL A   1      50.224  25.778  26.780  1.00  0.00     0.012 A 
ATOM     70  C   UNL A   1      49.753  26.985  24.726  1.00  0.00     0.148 A 
ATOM     71  C   UNL A   1      51.532  25.545  26.351  1.00  0.00     0.002 A 
ATOM     72  C   UNL A   1      51.035  26.693  24.277  1.00  0.00     0.091 A 
ATOM     73  F   UNL A   1      48.894  27.702  23.988  1.00  0.00    -0.205 F 
ATOM     74  C   UNL A   1      51.936  25.999  25.099  1.00  0.00     0.022 A 
BRANCH  72  75
ATOM     75  S   UNL A   1      51.597  27.126  22.628  1.00  0.00     0.127 S 
ATOM     76  O   UNL A   1      50.461  26.715  21.807  1.00  0.00    -0.237 OA
ATOM     77  O   UNL A   1      51.785  28.572  22.743  1.00  0.00    -0.237 OA
ATOM     78  O   UNL A   1      52.830  26.377  22.423  1.00  0.00    -0.744 OA
ENDBRANCH  72  75
ENDBRANCH  44  68
BRANCH  56  79
ATOM     79  C   UNL A   1      46.684  32.348  28.778  1.00  0.00     0.023 A 
ATOM     80  C   UNL A   1      47.285  32.548  30.035  1.00  0.00     0.012 A 
ATOM     81  C   UNL A   1      46.722  33.380  27.819  1.00  0.00     0.148 A 
ATOM     82  C   UNL A   1      47.880  33.769  30.348  1.00  0.00     0.002 A 
ATOM     83  C   UNL A   1      47.368  34.572  28.115  1.00  0.00     0.091 A 
ATOM     84  F   UNL A   1      46.132  33.173  26.633  1.00  0.00    -0.205 F 
ATOM     85  C   UNL A   1      47.934  34.775  29.384  1.00  0.00     0.022 A 
BRANCH  83  86
ATOM     86  S   UNL A   1      47.577  35.882  26.906  1.00  0.00     0.127 S 
ATOM     87  O   UNL A   1      48.342  35.204  25.862  1.00  0.00    -0.237 OA
ATOM     88  O   UNL A   1      46.192  36.191  26.546  1.00  0.00    -0.237 OA
ATOM     89  O   UNL A   1      48.281  36.958  27.591  1.00  0.00    -0.744 OA
ENDBRANCH  83  86
ENDBRANCH  56  79
ENDBRANCH  30  31
ENDBRANCH  22  25
ENDBRANCH  20  21
ENDBRANCH  19  20
ENDBRANCH   1  19
TORSDOF 18
ENDMDL
MODEL 2
REMARK VINA RESULT:     -10.5      5.699      8.285
REMARK SMILES N#Cc1cccc(NCCCC(=O)NCCCNC(=O)c2ccc(-c3c4nc(c(-c5cccc(S(=O)(=O)[O-])c5F)c5ccc([nH]5)c(-c5cccc(S(=O)(=O)[O-])c5F)c5nc(c(-c6cccc(S(=O)(=O)[O-])c6F)c6ccc3[nH]6)C=C5)C=C4)cc2)c1
REMARK SMILES IDX 15 1 14 2 12 3 13 4 11 6 10 7 9 8 8 9 7 11 3 12 4 13 84 14
REMARK SMILES IDX 5 15 6 16 2 17 1 18 16 19 17 20 18 21 19 22 20 24 21 25
REMARK SMILES IDX 22 26 83 27 23 28 82 29 24 30 25 31 26 32 76 33 27 34 81 35
REMARK SMILES IDX 75 36 77 37 28 38 80 39 74 40 73 41 29 43 61 44 41 45 60 46
REMARK SMILES IDX 42 47 45 48 59 49 78 50 43 51 44 52 58 54 79 55 46 56 30 57
REMARK SMILES IDX 31 58 39 59 32 60 34 61 40 62 33 63 35 64 36 65 37 66 38 67
REMARK SMILES IDX 62 68 63 69 71 70 64 71 66 72 72 73 65 74 67 75 68 76 69 77
REMARK SMILES IDX 70 78 47 79 48 80 56 81 49 82 51 83 57 84 50 85 52 86 53 87
REMARK SMILES IDX 54 88 55 89
REMARK H PARENT 14 5 8 10 18 23 77 42 45 53
REMARK Flexibility Score: inf
ROOT
ATOM      1  C   UNL A   1      32.093  26.901  26.091  1.00  0.00     0.117 C 
ENDROOT
BRANCH   1   2
ATOM      2  N   UNL A   1      31.515  25.784  26.816  1.00  0.00    -0.356 N 
ATOM      3  C   UNL A   1      31.860  24.470  26.811  1.00  0.00     0.220 C 
ATOM      4  O   UNL A   1      31.174  23.682  27.467  1.00  0.00    -0.275 OA
ATOM      5  H   UNL A   1      30.758  26.015  27.401  1.00  0.00     0.163 HD
BRANCH   3   6
ATOM      6  C   UNL A   1      33.086  23.995  26.063  1.00  0.00     0.102 C 
BRANCH   6   7
ATOM      7  C   UNL A   1      33.977  23.014  26.830  1.00  0.00     0.031 C 
BRANCH   7   8
ATOM      8  C   UNL A   1      35.228  22.480  26.130  1.00  0.00     0.113 C 
BRANCH   8   9
ATOM      9  N   UNL A   1      35.151  21.050  25.887  1.00  0.00    -0.385 N 
ATOM     10  H   UNL A   1      35.752  20.467  26.406  1.00  0.00     0.160 HD
BRANCH   9  11
ATOM     11  C   UNL A   1      34.298  20.447  24.983  1.00  0.00     0.035 A 
ATOM     12  C   UNL A   1      33.596  18.384  23.867  1.00  0.00     0.054 A 
ATOM     13  C   UNL A   1      32.533  19.058  23.266  1.00  0.00     0.019 A 
ATOM     14  C   UNL A   1      34.474  19.082  24.706  1.00  0.00     0.045 A 
ATOM     15  C   UNL A   1      32.376  20.424  23.484  1.00  0.00     0.003 A 
ATOM     16  C   UNL A   1      33.260  21.111  24.326  1.00  0.00     0.026 A 
BRANCH  12  17
ATOM     17  C   UNL A   1      33.778  16.980  23.659  1.00  0.00     0.099 C 
ATOM     18  N   UNL A   1      33.931  15.835  23.515  1.00  0.00    -0.192 NA
ENDBRANCH  12  17
ENDBRANCH   9  11
ENDBRANCH   8   9
ENDBRANCH   7   8
ENDBRANCH   6   7
ENDBRANCH   3   6
ENDBRANCH   1   2
BRANCH   1  19
ATOM     19  C   UNL A   1      32.667  27.936  27.047  1.00  0.00     0.042 C 
BRANCH  19  20
ATOM     20  C   UNL A   1      33.806  28.743  26.449  1.00  0.00     0.118 C 
BRANCH  20  21
ATOM     21  N   UNL A   1      33.740  30.148  26.818  1.00  0.00    -0.352 N 
ATOM     22  C   UNL A   1      34.570  30.871  27.640  1.00  0.00     0.251 C 
ATOM     23  H   UNL A   1      32.994  30.653  26.421  1.00  0.00     0.163 HD
ATOM     24  O   UNL A   1      34.232  31.993  28.005  1.00  0.00    -0.269 OA
BRANCH  22  25
ATOM     25  C   UNL A   1      35.854  30.292  28.095  1.00  0.00     0.039 A 
ATOM     26  C   UNL A   1      36.984  30.423  27.283  1.00  0.00     0.014 A 
ATOM     27  C   UNL A   1      35.947  29.614  29.313  1.00  0.00     0.014 A 
ATOM     28  C   UNL A   1      38.210  29.917  27.717  1.00  0.00     0.010 A 
ATOM     29  C   UNL A   1      37.189  29.212  29.792  1.00  0.00     0.010 A 
ATOM     30  C   UNL A   1      38.331  29.335  28.991  1.00  0.00    -0.014 A 
BRANCH  30  31
ATOM     31  C   UNL A   1      39.629  28.812  29.488  1.00  0.00     0.031 A 
ATOM     32  C   UNL A   1      40.357  29.541  30.589  1.00  0.00     0.074 A 
ATOM     33  C   UNL A   1      40.182  27.724  28.914  1.00  0.00     0.049 A 
ATOM     34  N   UNL A   1      41.536  29.297  31.101  1.00  0.00    -0.248 NA
ATOM     35  C   UNL A   1      39.684  30.715  31.177  1.00  0.00     0.031 C 
ATOM     36  C   UNL A   1      39.604  26.962  27.805  1.00  0.00     0.029 A 
ATOM     37  N   UNL A   1      41.369  27.081  29.171  1.00  0.00    -0.354 N 
ATOM     38  C   UNL A   1      41.752  30.291  32.049  1.00  0.00     0.074 A 
ATOM     39  C   UNL A   1      40.609  31.175  32.005  1.00  0.00     0.031 C 
ATOM     40  C   UNL A   1      40.428  25.953  27.483  1.00  0.00     0.029 A 
ATOM     41  C   UNL A   1      41.617  26.022  28.327  1.00  0.00     0.049 A 
ATOM     42  H   UNL A   1      41.984  27.352  29.890  1.00  0.00     0.167 HD
ATOM     43  C   UNL A   1      42.788  30.436  32.907  1.00  0.00     0.034 A 
ATOM     44  C   UNL A   1      42.692  25.215  28.230  1.00  0.00     0.034 A 
ATOM     45  C   UNL A   1      43.910  29.542  32.967  1.00  0.00     0.049 A 
ATOM     46  C   UNL A   1      43.842  25.420  29.181  1.00  0.00     0.074 A 
ATOM     47  C   UNL A   1      44.991  29.578  33.830  1.00  0.00     0.029 A 
ATOM     48  N   UNL A   1      44.098  28.453  32.133  1.00  0.00    -0.354 N 
ATOM     49  N   UNL A   1      43.973  26.299  30.144  1.00  0.00    -0.248 NA
ATOM     50  C   UNL A   1      44.981  24.498  29.056  1.00  0.00     0.031 C 
ATOM     51  C   UNL A   1      45.852  28.531  33.492  1.00  0.00     0.029 A 
ATOM     52  C   UNL A   1      45.279  27.811  32.457  1.00  0.00     0.049 A 
ATOM     53  H   UNL A   1      43.483  28.177  31.415  1.00  0.00     0.167 HD
ATOM     54  C   UNL A   1      45.178  26.000  30.772  1.00  0.00     0.074 A 
ATOM     55  C   UNL A   1      45.729  24.849  30.091  1.00  0.00     0.031 C 
ATOM     56  C   UNL A   1      45.778  26.625  31.813  1.00  0.00     0.034 A 
BRANCH  43  57
ATOM     57  C   UNL A   1      42.734  31.574  33.894  1.00  0.00     0.023 A 
ATOM     58  C   UNL A   1      43.272  32.828  33.538  1.00  0.00     0.012 A 
ATOM     59  C   UNL A   1      42.078  31.429  35.132  1.00  0.00     0.148 A 
ATOM     60  C   UNL A   1      43.185  33.912  34.409  1.00  0.00     0.002 A 
ATOM     61  C   UNL A   1      41.951  32.528  35.973  1.00  0.00     0.091 A 
ATOM     62  F   UNL A   1      41.584  30.227  35.456  1.00  0.00    -0.205 F 
ATOM     63  C   UNL A   1      42.514  33.765  35.620  1.00  0.00     0.022 A 
BRANCH  61  64
ATOM     64  S   UNL A   1      41.038  32.468  37.519  1.00  0.00     0.127 S 
ATOM     65  O   UNL A   1      39.776  31.866  37.091  1.00  0.00    -0.237 OA
ATOM     66  O   UNL A   1      41.882  31.600  38.338  1.00  0.00    -0.237 OA
ATOM     67  O   UNL A   1      40.938  33.844  37.983  1.00  0.00    -0.744 OA
ENDBRANCH  61  64
ENDBRANCH  43  57
BRANCH  44  68
ATOM     68  C   UNL A   1      42.743  24.125  27.213  1.00  0.00     0.023 A 
ATOM     69  C   UNL A   1      43.400  24.344  25.984  1.00  0.00     0.012 A 
ATOM     70  C   UNL A   1      42.103  22.891  27.434  1.00  0.00     0.148 A 
ATOM     71  C   UNL A   1      43.355  23.385  24.971  1.00  0.00     0.002 A 
ATOM     72  C   UNL A   1      42.119  21.914  26.446  1.00  0.00     0.091 A 
ATOM     73  F   UNL A   1      41.481  22.698  28.606  1.00  0.00    -0.205 F 
ATOM     74  C   UNL A   1      42.719  22.168  25.203  1.00  0.00     0.022 A 
BRANCH  72  75
ATOM     75  S   UNL A   1      41.437  20.274  26.706  1.00  0.00     0.127 S 
ATOM     76  O   UNL A   1      41.769  19.608  25.449  1.00  0.00    -0.237 OA
ATOM     77  O   UNL A   1      42.196  19.812  27.869  1.00  0.00    -0.237 OA
ATOM     78  O   UNL A   1      40.017  20.474  26.961  1.00  0.00    -0.744 OA
ENDBRANCH  72  75
ENDBRANCH  44  68
BRANCH  56  79
ATOM     79  C   UNL A   1      47.056  26.033  32.347  1.00  0.00     0.023 A 
ATOM     80  C   UNL A   1      48.306  26.500  31.897  1.00  0.00     0.012 A 
ATOM     81  C   UNL A   1      47.006  25.056  33.362  1.00  0.00     0.148 A 
ATOM     82  C   UNL A   1      49.486  25.977  32.420  1.00  0.00     0.002 A 
ATOM     83  C   UNL A   1      48.185  24.582  33.920  1.00  0.00     0.091 A 
ATOM     84  F   UNL A   1      45.806  24.615  33.767  1.00  0.00    -0.205 F 
ATOM     85  C   UNL A   1      49.426  25.029  33.440  1.00  0.00     0.022 A 
BRANCH  83  86
ATOM     86  S   UNL A   1      48.205  23.440  35.305  1.00  0.00     0.127 S 
ATOM     87  O   UNL A   1      49.639  23.278  35.536  1.00  0.00    -0.237 OA
ATOM     88  O   UNL A   1      47.503  24.200  36.340  1.00  0.00    -0.237 OA
ATOM     89  O   UNL A   1      47.510  22.242  34.854  1.00  0.00    -0.744 OA
ENDBRANCH  83  86
ENDBRANCH  56  79
ENDBRANCH  30  31
ENDBRANCH  22  25
ENDBRANCH  20  21
ENDBRANCH  19  20
ENDBRANCH   1  19
TORSDOF 18
ENDMDL
MODEL 3
REMARK VINA RESULT:     -10.5      2.685      8.782
REMARK SMILES N#Cc1cccc(NCCCC(=O)NCCCNC(=O)c2ccc(-c3c4nc(c(-c5cccc(S(=O)(=O)[O-])c5F)c5ccc([nH]5)c(-c5cccc(S(=O)(=O)[O-])c5F)c5nc(c(-c6cccc(S(=O)(=O)[O-])c6F)c6ccc3[nH]6)C=C5)C=C4)cc2)c1
REMARK SMILES IDX 15 1 14 2 12 3 13 4 11 6 10 7 9 8 8 9 7 11 3 12 4 13 84 14
REMARK SMILES IDX 5 15 6 16 2 17 1 18 16 19 17 20 18 21 19 22 20 24 21 25
REMARK SMILES IDX 22 26 83 27 23 28 82 29 24 30 25 31 26 32 76 33 27 34 81 35
REMARK SMILES IDX 75 36 77 37 28 38 80 39 74 40 73 41 29 43 61 44 41 45 60 46
REMARK SMILES IDX 42 47 45 48 59 49 78 50 43 51 44 52 58 54 79 55 46 56 30 57
REMARK SMILES IDX 31 58 39 59 32 60 34 61 40 62 33 63 35 64 36 65 37 66 38 67
REMARK SMILES IDX 62 68 63 69 71 70 64 71 66 72 72 73 65 74 67 75 68 76 69 77
REMARK SMILES IDX 70 78 47 79 48 80 56 81 49 82 51 83 57 84 50 85 52 86 53 87
REMARK SMILES IDX 54 88 55 89
REMARK H PARENT 14 5 8 10 18 23 77 42 45 53
REMARK Flexibility Score: inf
ROOT
ATOM      1  C   UNL A   1      35.052  21.250  25.789  1.00  0.00     0.117 C 
ENDROOT
BRANCH   1   2
ATOM      2  N   UNL A   1      34.104  20.162  25.631  1.00  0.00    -0.356 N 
ATOM      3  C   UNL A   1      32.806  20.187  25.230  1.00  0.00     0.220 C 
ATOM      4  O   UNL A   1      32.171  19.130  25.235  1.00  0.00    -0.275 OA
ATOM      5  H   UNL A   1      34.456  19.268  25.847  1.00  0.00     0.163 HD
BRANCH   3   6
ATOM      6  C   UNL A   1      32.174  21.471  24.738  1.00  0.00     0.102 C 
BRANCH   6   7
ATOM      7  C   UNL A   1      32.238  21.690  23.225  1.00  0.00     0.031 C 
BRANCH   7   8
ATOM      8  C   UNL A   1      32.934  22.953  22.711  1.00  0.00     0.113 C 
BRANCH   8   9
ATOM      9  N   UNL A   1      33.083  23.957  23.750  1.00  0.00    -0.385 N 
ATOM     10  H   UNL A   1      33.846  23.866  24.365  1.00  0.00     0.160 HD
BRANCH   9  11
ATOM     11  C   UNL A   1      32.233  25.030  23.939  1.00  0.00     0.035 A 
ATOM     12  C   UNL A   1      31.393  26.755  25.460  1.00  0.00     0.054 A 
ATOM     13  C   UNL A   1      30.648  27.320  24.426  1.00  0.00     0.019 A 
ATOM     14  C   UNL A   1      32.167  25.612  25.215  1.00  0.00     0.045 A 
ATOM     15  C   UNL A   1      30.657  26.722  23.168  1.00  0.00     0.003 A 
ATOM     16  C   UNL A   1      31.434  25.581  22.934  1.00  0.00     0.026 A 
BRANCH  12  17
ATOM     17  C   UNL A   1      31.400  27.351  26.762  1.00  0.00     0.099 C 
ATOM     18  N   UNL A   1      31.404  27.859  27.808  1.00  0.00    -0.192 NA
ENDBRANCH  12  17
ENDBRANCH   9  11
ENDBRANCH   8   9
ENDBRANCH   7   8
ENDBRANCH   6   7
ENDBRANCH   3   6
ENDBRANCH   1   2
BRANCH   1  19
ATOM     19  C   UNL A   1      35.771  21.543  24.481  1.00  0.00     0.042 C 
BRANCH  19  20
ATOM     20  C   UNL A   1      37.244  21.863  24.662  1.00  0.00     0.118 C 
BRANCH  20  21
ATOM     21  N   UNL A   1      37.954  20.809  25.369  1.00  0.00    -0.352 N 
ATOM     22  C   UNL A   1      39.099  20.888  26.125  1.00  0.00     0.251 C 
ATOM     23  H   UNL A   1      37.557  19.912  25.297  1.00  0.00     0.163 HD
ATOM     24  O   UNL A   1      39.671  19.857  26.466  1.00  0.00    -0.269 OA
BRANCH  22  25
ATOM     25  C   UNL A   1      39.646  22.209  26.510  1.00  0.00     0.039 A 
ATOM     26  C   UNL A   1      40.812  22.263  27.279  1.00  0.00     0.014 A 
ATOM     27  C   UNL A   1      39.011  23.392  26.123  1.00  0.00     0.014 A 
ATOM     28  C   UNL A   1      41.361  23.502  27.615  1.00  0.00     0.010 A 
ATOM     29  C   UNL A   1      39.620  24.619  26.362  1.00  0.00     0.010 A 
ATOM     30  C   UNL A   1      40.789  24.691  27.132  1.00  0.00    -0.014 A 
BRANCH  30  31
ATOM     31  C   UNL A   1      41.368  26.021  27.453  1.00  0.00     0.031 A 
ATOM     32  C   UNL A   1      42.789  26.334  27.056  1.00  0.00     0.074 A 
ATOM     33  C   UNL A   1      40.645  26.921  28.150  1.00  0.00     0.049 A 
ATOM     34  N   UNL A   1      43.503  27.397  27.318  1.00  0.00    -0.248 NA
ATOM     35  C   UNL A   1      43.512  25.306  26.285  1.00  0.00     0.031 C 
ATOM     36  C   UNL A   1      39.278  26.718  28.638  1.00  0.00     0.029 A 
ATOM     37  N   UNL A   1      40.966  28.182  28.589  1.00  0.00    -0.354 N 
ATOM     38  C   UNL A   1      44.756  27.159  26.765  1.00  0.00     0.074 A 
ATOM     39  C   UNL A   1      44.726  25.829  26.201  1.00  0.00     0.031 C 
ATOM     40  C   UNL A   1      38.877  27.815  29.299  1.00  0.00     0.029 A 
ATOM     41  C   UNL A   1      39.970  28.781  29.326  1.00  0.00     0.049 A 
ATOM     42  H   UNL A   1      41.828  28.616  28.395  1.00  0.00     0.167 HD
ATOM     43  C   UNL A   1      45.826  27.985  26.697  1.00  0.00     0.034 A 
ATOM     44  C   UNL A   1      39.951  29.966  29.970  1.00  0.00     0.034 A 
ATOM     45  C   UNL A   1      45.845  29.317  27.235  1.00  0.00     0.049 A 
ATOM     46  C   UNL A   1      41.168  30.851  29.899  1.00  0.00     0.074 A 
ATOM     47  C   UNL A   1      46.866  30.250  27.181  1.00  0.00     0.029 A 
ATOM     48  N   UNL A   1      44.800  29.905  27.926  1.00  0.00    -0.354 N 
ATOM     49  N   UNL A   1      42.302  30.649  29.275  1.00  0.00    -0.248 NA
ATOM     50  C   UNL A   1      41.090  32.145  30.594  1.00  0.00     0.031 C 
ATOM     51  C   UNL A   1      46.450  31.390  27.873  1.00  0.00     0.029 A 
ATOM     52  C   UNL A   1      45.151  31.187  28.308  1.00  0.00     0.049 A 
ATOM     53  H   UNL A   1      43.935  29.475  28.119  1.00  0.00     0.167 HD
ATOM     54  C   UNL A   1      43.047  31.811  29.454  1.00  0.00     0.074 A 
ATOM     55  C   UNL A   1      42.228  32.716  30.231  1.00  0.00     0.031 C 
ATOM     56  C   UNL A   1      44.297  32.100  29.022  1.00  0.00     0.034 A 
BRANCH  43  57
ATOM     57  C   UNL A   1      47.050  27.498  25.966  1.00  0.00     0.023 A 
ATOM     58  C   UNL A   1      47.974  26.669  26.635  1.00  0.00     0.012 A 
ATOM     59  C   UNL A   1      47.242  27.786  24.601  1.00  0.00     0.148 A 
ATOM     60  C   UNL A   1      49.085  26.158  25.966  1.00  0.00     0.002 A 
ATOM     61  C   UNL A   1      48.324  27.232  23.928  1.00  0.00     0.091 A 
ATOM     62  F   UNL A   1      46.359  28.585  23.987  1.00  0.00    -0.205 F 
ATOM     63  C   UNL A   1      49.252  26.429  24.611  1.00  0.00     0.022 A 
BRANCH  61  64
ATOM     64  S   UNL A   1      48.590  27.452  22.165  1.00  0.00     0.127 S 
ATOM     65  O   UNL A   1      49.864  28.169  22.148  1.00  0.00    -0.237 OA
ATOM     66  O   UNL A   1      48.660  26.069  21.693  1.00  0.00    -0.237 OA
ATOM     67  O   UNL A   1      47.449  28.211  21.675  1.00  0.00    -0.744 OA
ENDBRANCH  61  64
ENDBRANCH  43  57
BRANCH  44  68
ATOM     68  C   UNL A   1      38.744  30.406  30.728  1.00  0.00     0.023 A 
ATOM     69  C   UNL A   1      38.575  30.006  32.069  1.00  0.00     0.012 A 
ATOM     70  C   UNL A   1      37.738  31.177  30.113  1.00  0.00     0.148 A 
ATOM     71  C   UNL A   1      37.398  30.304  32.759  1.00  0.00     0.002 A 
ATOM     72  C   UNL A   1      36.598  31.526  30.826  1.00  0.00     0.091 A 
ATOM     73  F   UNL A   1      37.911  31.547  28.836  1.00  0.00    -0.205 F 
ATOM     74  C   UNL A   1      36.412  31.067  32.140  1.00  0.00     0.022 A 
BRANCH  72  75
ATOM     75  S   UNL A   1      35.338  32.611  30.152  1.00  0.00     0.127 S 
ATOM     76  O   UNL A   1      36.122  33.786  29.779  1.00  0.00    -0.237 OA
ATOM     77  O   UNL A   1      34.831  31.823  29.028  1.00  0.00    -0.237 OA
ATOM     78  O   UNL A   1      34.372  32.808  31.226  1.00  0.00    -0.744 OA
ENDBRANCH  72  75
ENDBRANCH  44  68
BRANCH  56  79
ATOM     79  C   UNL A   1      44.835  33.480  29.296  1.00  0.00     0.023 A 
ATOM     80  C   UNL A   1      45.509  33.761  30.499  1.00  0.00     0.012 A 
ATOM     81  C   UNL A   1      44.731  34.481  28.309  1.00  0.00     0.148 A 
ATOM     82  C   UNL A   1      46.037  35.029  30.734  1.00  0.00     0.002 A 
ATOM     83  C   UNL A   1      45.312  35.723  28.525  1.00  0.00     0.091 A 
ATOM     84  F   UNL A   1      44.074  34.197  27.175  1.00  0.00    -0.205 F 
ATOM     85  C   UNL A   1      45.952  36.005  29.742  1.00  0.00     0.022 A 
BRANCH  83  86
ATOM     86  S   UNL A   1      45.341  37.006  27.268  1.00  0.00     0.127 S 
ATOM     87  O   UNL A   1      43.916  37.249  27.059  1.00  0.00    -0.237 OA
ATOM     88  O   UNL A   1      46.052  38.088  27.951  1.00  0.00    -0.237 OA
ATOM     89  O   UNL A   1      46.048  36.440  26.128  1.00  0.00    -0.744 OA
ENDBRANCH  83  86
ENDBRANCH  56  79
ENDBRANCH  30  31
ENDBRANCH  22  25
ENDBRANCH  20  21
ENDBRANCH  19  20
ENDBRANCH   1  19
TORSDOF 18
ENDMDL
