MODEL 1
REMARK VINA RESULT:     -11.7      0.000      0.000
REMARK SMILES CC(C)N(C(=O)[C@@H]1CCCC[C@H]1C(=O)NCCCNC(=O)c1ccc(-c2c3nc(c(-c4cccc(S(=O)(=O)[O-])c4F)c4ccc([nH]4)c(-c4cccc(S(=O)(=O)[O-])c4F)c4nc(c(-c5cccc(S(=O)(=O)[O-])c5F)c5ccc2[nH]5)C=C4)C=C3)cc1)C(C)C
REMARK SMILES IDX 17 1 16 2 15 3 13 4 14 5 12 7 7 8 8 9 9 10 11 11 10 12 5 13
REMARK SMILES IDX 4 14 6 15 2 16 1 17 3 18 85 19 86 20 87 21 18 22 19 23 20 24
REMARK SMILES IDX 21 26 22 27 23 28 84 29 24 30 83 31 25 32 26 33 27 34 77 35
REMARK SMILES IDX 28 36 82 37 76 38 78 39 29 40 81 41 75 42 74 43 30 45 62 46
REMARK SMILES IDX 42 47 61 48 43 49 46 50 60 51 79 52 44 53 45 54 59 56 80 57
REMARK SMILES IDX 47 58 31 59 32 60 40 61 33 62 35 63 41 64 34 65 36 66 37 67
REMARK SMILES IDX 38 68 39 69 63 70 64 71 72 72 65 73 67 74 73 75 66 76 68 77
REMARK SMILES IDX 69 78 70 79 71 80 48 81 49 82 57 83 50 84 52 85 58 86 51 87
REMARK SMILES IDX 53 88 54 89 55 90 56 91
REMARK H PARENT 15 6 19 25 78 44 46 55
REMARK Flexibility Score: inf
ROOT
ATOM      1  C   UNL A   1      37.234  19.945  25.010  1.00  0.00     0.042 C 
ENDROOT
BRANCH   1   2
ATOM      2  C   UNL A   1      36.121  20.969  24.825  1.00  0.00     0.117 C 
BRANCH   2   3
ATOM      3  N   UNL A   1      35.418  21.315  26.052  1.00  0.00    -0.356 N 
ATOM      4  C   UNL A   1      34.119  21.200  26.439  1.00  0.00     0.223 C 
ATOM      5  O   UNL A   1      33.873  21.449  27.623  1.00  0.00    -0.275 OA
ATOM      6  H   UNL A   1      35.999  21.711  26.741  1.00  0.00     0.163 HD
BRANCH   4   7
ATOM      7  C   UNL A   1      32.996  20.800  25.485  1.00  0.00     0.091 C 
ATOM      8  C   UNL A   1      32.724  21.943  24.477  1.00  0.00     0.091 C 
ATOM      9  C   UNL A   1      31.839  21.485  23.306  1.00  0.00     0.014 C 
ATOM     10  C   UNL A   1      32.360  20.203  22.671  1.00  0.00     0.001 C 
ATOM     11  C   UNL A   1      33.236  19.398  24.898  1.00  0.00     0.014 C 
ATOM     12  C   UNL A   1      32.369  19.073  23.689  1.00  0.00     0.001 C 
BRANCH   8  13
ATOM     13  C   UNL A   1      31.975  23.086  25.202  1.00  0.00     0.226 C 
ATOM     14  N   UNL A   1      32.273  24.443  24.969  1.00  0.00    -0.338 N 
ATOM     15  O   UNL A   1      31.066  22.757  25.976  1.00  0.00    -0.275 OA
BRANCH  14  16
ATOM     16  C   UNL A   1      33.374  24.914  24.088  1.00  0.00     0.079 C 
ATOM     17  C   UNL A   1      34.772  24.425  24.459  1.00  0.00     0.031 C 
ATOM     18  C   UNL A   1      33.095  24.734  22.596  1.00  0.00     0.031 C 
ENDBRANCH  14  16
BRANCH  14  19
ATOM     19  C   UNL A   1      31.453  25.422  25.750  1.00  0.00     0.079 C 
ATOM     20  C   UNL A   1      32.285  26.510  26.433  1.00  0.00     0.031 C 
ATOM     21  C   UNL A   1      30.266  26.019  24.999  1.00  0.00     0.031 C 
ENDBRANCH  14  19
ENDBRANCH   8  13
ENDBRANCH   4   7
ENDBRANCH   2   3
ENDBRANCH   1   2
BRANCH   1  22
ATOM     22  C   UNL A   1      38.574  20.505  25.468  1.00  0.00     0.118 C 
BRANCH  22  23
ATOM     23  N   UNL A   1      39.541  19.462  25.767  1.00  0.00    -0.352 N 
ATOM     24  C   UNL A   1      40.860  19.585  26.132  1.00  0.00     0.251 C 
ATOM     25  H   UNL A   1      39.204  18.539  25.699  1.00  0.00     0.163 HD
ATOM     26  O   UNL A   1      41.581  18.590  26.143  1.00  0.00    -0.269 OA
BRANCH  24  27
ATOM     27  C   UNL A   1      41.424  20.911  26.486  1.00  0.00     0.039 A 
ATOM     28  C   UNL A   1      41.999  21.689  25.476  1.00  0.00     0.014 A 
ATOM     29  C   UNL A   1      41.405  21.384  27.802  1.00  0.00     0.014 A 
ATOM     30  C   UNL A   1      42.492  22.964  25.775  1.00  0.00     0.010 A 
ATOM     31  C   UNL A   1      41.837  22.682  28.084  1.00  0.00     0.010 A 
ATOM     32  C   UNL A   1      42.386  23.487  27.075  1.00  0.00    -0.014 A 
BRANCH  32  33
ATOM     33  C   UNL A   1      42.807  24.881  27.379  1.00  0.00     0.031 A 
ATOM     34  C   UNL A   1      41.844  25.864  27.992  1.00  0.00     0.074 A 
ATOM     35  C   UNL A   1      44.044  25.292  27.028  1.00  0.00     0.049 A 
ATOM     36  N   UNL A   1      42.034  27.124  28.292  1.00  0.00    -0.248 NA
ATOM     37  C   UNL A   1      40.487  25.377  28.291  1.00  0.00     0.031 C 
ATOM     38  C   UNL A   1      45.049  24.466  26.354  1.00  0.00     0.029 A 
ATOM     39  N   UNL A   1      44.657  26.514  27.162  1.00  0.00    -0.354 N 
ATOM     40  C   UNL A   1      40.818  27.590  28.780  1.00  0.00     0.074 A 
ATOM     41  C   UNL A   1      39.889  26.482  28.717  1.00  0.00     0.031 C 
ATOM     42  C   UNL A   1      46.147  25.204  26.131  1.00  0.00     0.029 A 
ATOM     43  C   UNL A   1      45.921  26.561  26.618  1.00  0.00     0.049 A 
ATOM     44  H   UNL A   1      44.232  27.284  27.605  1.00  0.00     0.167 HD
ATOM     45  C   UNL A   1      40.510  28.817  29.260  1.00  0.00     0.034 A 
ATOM     46  C   UNL A   1      46.796  27.581  26.513  1.00  0.00     0.034 A 
ATOM     47  C   UNL A   1      41.447  29.904  29.374  1.00  0.00     0.049 A 
ATOM     48  C   UNL A   1      46.436  28.924  27.090  1.00  0.00     0.074 A 
ATOM     49  C   UNL A   1      41.253  31.146  29.956  1.00  0.00     0.029 A 
ATOM     50  N   UNL A   1      42.743  29.890  28.887  1.00  0.00    -0.354 N 
ATOM     51  N   UNL A   1      45.345  29.284  27.722  1.00  0.00    -0.248 NA
ATOM     52  C   UNL A   1      47.440  29.992  26.969  1.00  0.00     0.031 C 
ATOM     53  C   UNL A   1      42.426  31.891  29.799  1.00  0.00     0.029 A 
ATOM     54  C   UNL A   1      43.354  31.106  29.136  1.00  0.00     0.049 A 
ATOM     55  H   UNL A   1      43.167  29.126  28.431  1.00  0.00     0.167 HD
ATOM     56  C   UNL A   1      45.543  30.609  28.097  1.00  0.00     0.074 A 
ATOM     57  C   UNL A   1      46.870  30.977  27.649  1.00  0.00     0.031 C 
ATOM     58  C   UNL A   1      44.693  31.451  28.735  1.00  0.00     0.034 A 
BRANCH  45  59
ATOM     59  C   UNL A   1      39.111  29.051  29.767  1.00  0.00     0.023 A 
ATOM     60  C   UNL A   1      38.779  28.668  31.081  1.00  0.00     0.012 A 
ATOM     61  C   UNL A   1      38.165  29.745  28.986  1.00  0.00     0.148 A 
ATOM     62  C   UNL A   1      37.520  28.955  31.607  1.00  0.00     0.002 A 
ATOM     63  C   UNL A   1      36.926  30.061  29.531  1.00  0.00     0.091 A 
ATOM     64  F   UNL A   1      38.497  30.085  27.733  1.00  0.00    -0.205 F 
ATOM     65  C   UNL A   1      36.600  29.661  30.837  1.00  0.00     0.022 A 
BRANCH  63  66
ATOM     66  S   UNL A   1      35.699  31.034  28.650  1.00  0.00     0.127 S 
ATOM     67  O   UNL A   1      34.896  31.563  29.755  1.00  0.00    -0.237 OA
ATOM     68  O   UNL A   1      36.530  32.032  27.972  1.00  0.00    -0.237 OA
ATOM     69  O   UNL A   1      35.009  30.112  27.766  1.00  0.00    -0.744 OA
ENDBRANCH  63  66
ENDBRANCH  45  59
BRANCH  46  70
ATOM     70  C   UNL A   1      48.125  27.364  25.872  1.00  0.00     0.023 A 
ATOM     71  C   UNL A   1      49.227  26.995  26.667  1.00  0.00     0.012 A 
ATOM     72  C   UNL A   1      48.301  27.513  24.483  1.00  0.00     0.148 A 
ATOM     73  C   UNL A   1      50.488  26.815  26.097  1.00  0.00     0.002 A 
ATOM     74  C   UNL A   1      49.546  27.274  23.913  1.00  0.00     0.091 A 
ATOM     75  F   UNL A   1      47.247  27.885  23.743  1.00  0.00    -0.205 F 
ATOM     76  C   UNL A   1      50.645  26.943  24.719  1.00  0.00     0.022 A 
BRANCH  74  77
ATOM     77  S   UNL A   1      49.787  27.275  22.133  1.00  0.00     0.127 S 
ATOM     78  O   UNL A   1      49.575  28.682  21.802  1.00  0.00    -0.237 OA
ATOM     79  O   UNL A   1      51.170  26.814  22.008  1.00  0.00    -0.237 OA
ATOM     80  O   UNL A   1      48.800  26.337  21.612  1.00  0.00    -0.744 OA
ENDBRANCH  74  77
ENDBRANCH  46  70
BRANCH  58  81
ATOM     81  C   UNL A   1      45.171  32.853  29.006  1.00  0.00     0.023 A 
ATOM     82  C   UNL A   1      45.876  33.130  30.193  1.00  0.00     0.012 A 
ATOM     83  C   UNL A   1      44.985  33.878  28.057  1.00  0.00     0.148 A 
ATOM     84  C   UNL A   1      46.362  34.412  30.447  1.00  0.00     0.002 A 
ATOM     85  C   UNL A   1      45.512  35.142  28.296  1.00  0.00     0.091 A 
ATOM     86  F   UNL A   1      44.295  33.599  26.941  1.00  0.00    -0.205 F 
ATOM     87  C   UNL A   1      46.191  35.414  29.495  1.00  0.00     0.022 A 
BRANCH  85  88
ATOM     88  S   UNL A   1      45.419  36.469  27.088  1.00  0.00     0.127 S 
ATOM     89  O   UNL A   1      46.084  35.868  25.934  1.00  0.00    -0.237 OA
ATOM     90  O   UNL A   1      43.975  36.650  26.935  1.00  0.00    -0.237 OA
ATOM     91  O   UNL A   1      46.109  37.604  27.687  1.00  0.00    -0.744 OA
ENDBRANCH  85  88
ENDBRANCH  58  81
ENDBRANCH  32  33
ENDBRANCH  24  27
ENDBRANCH  22  23
ENDBRANCH   1  22
TORSDOF 16
ENDMDL
MODEL 2
REMARK VINA RESULT:     -11.5      4.859      8.292
REMARK SMILES CC(C)N(C(=O)[C@@H]1CCCC[C@H]1C(=O)NCCCNC(=O)c1ccc(-c2c3nc(c(-c4cccc(S(=O)(=O)[O-])c4F)c4ccc([nH]4)c(-c4cccc(S(=O)(=O)[O-])c4F)c4nc(c(-c5cccc(S(=O)(=O)[O-])c5F)c5ccc2[nH]5)C=C4)C=C3)cc1)C(C)C
REMARK SMILES IDX 17 1 16 2 15 3 13 4 14 5 12 7 7 8 8 9 9 10 11 11 10 12 5 13
REMARK SMILES IDX 4 14 6 15 2 16 1 17 3 18 85 19 86 20 87 21 18 22 19 23 20 24
REMARK SMILES IDX 21 26 22 27 23 28 84 29 24 30 83 31 25 32 26 33 27 34 77 35
REMARK SMILES IDX 28 36 82 37 76 38 78 39 29 40 81 41 75 42 74 43 30 45 62 46
REMARK SMILES IDX 42 47 61 48 43 49 46 50 60 51 79 52 44 53 45 54 59 56 80 57
REMARK SMILES IDX 47 58 31 59 32 60 40 61 33 62 35 63 41 64 34 65 36 66 37 67
REMARK SMILES IDX 38 68 39 69 63 70 64 71 72 72 65 73 67 74 73 75 66 76 68 77
REMARK SMILES IDX 69 78 70 79 71 80 48 81 49 82 57 83 50 84 52 85 58 86 51 87
REMARK SMILES IDX 53 88 54 89 55 90 56 91
REMARK H PARENT 15 6 19 25 78 44 46 55
REMARK Flexibility Score: inf
ROOT
ATOM      1  C   UNL A   1      33.295  28.208  27.235  1.00  0.00     0.042 C 
ENDROOT
BRANCH   1   2
ATOM      2  C   UNL A   1      31.801  28.376  27.483  1.00  0.00     0.117 C 
BRANCH   2   3
ATOM      3  N   UNL A   1      31.013  27.180  27.220  1.00  0.00    -0.356 N 
ATOM      4  C   UNL A   1      30.876  26.383  26.126  1.00  0.00     0.223 C 
ATOM      5  O   UNL A   1      30.237  25.339  26.283  1.00  0.00    -0.275 OA
ATOM      6  H   UNL A   1      30.472  26.889  27.989  1.00  0.00     0.163 HD
BRANCH   4   7
ATOM      7  C   UNL A   1      31.457  26.735  24.759  1.00  0.00     0.091 C 
ATOM      8  C   UNL A   1      31.985  25.456  24.062  1.00  0.00     0.091 C 
ATOM      9  C   UNL A   1      32.287  25.690  22.574  1.00  0.00     0.014 C 
ATOM     10  C   UNL A   1      31.119  26.355  21.857  1.00  0.00     0.001 C 
ATOM     11  C   UNL A   1      30.490  27.617  23.951  1.00  0.00     0.014 C 
ATOM     12  C   UNL A   1      30.828  27.717  22.469  1.00  0.00     0.001 C 
BRANCH   8  13
ATOM     13  C   UNL A   1      33.307  25.023  24.739  1.00  0.00     0.226 C 
ATOM     14  N   UNL A   1      33.642  23.668  24.930  1.00  0.00    -0.338 N 
ATOM     15  O   UNL A   1      34.085  25.926  25.076  1.00  0.00    -0.275 OA
BRANCH  14  16
ATOM     16  C   UNL A   1      32.743  22.532  24.591  1.00  0.00     0.079 C 
ATOM     17  C   UNL A   1      31.378  22.544  25.274  1.00  0.00     0.031 C 
ATOM     18  C   UNL A   1      32.618  22.268  23.091  1.00  0.00     0.031 C 
ENDBRANCH  14  16
BRANCH  14  19
ATOM     19  C   UNL A   1      34.958  23.422  25.598  1.00  0.00     0.079 C 
ATOM     20  C   UNL A   1      34.935  22.254  26.587  1.00  0.00     0.031 C 
ATOM     21  C   UNL A   1      36.156  23.329  24.656  1.00  0.00     0.031 C 
ENDBRANCH  14  19
ENDBRANCH   8  13
ENDBRANCH   4   7
ENDBRANCH   2   3
ENDBRANCH   1   2
BRANCH   1  22
ATOM     22  C   UNL A   1      33.942  29.276  26.365  1.00  0.00     0.118 C 
BRANCH  22  23
ATOM     23  N   UNL A   1      33.873  30.598  26.962  1.00  0.00    -0.352 N 
ATOM     24  C   UNL A   1      34.676  31.152  27.931  1.00  0.00     0.251 C 
ATOM     25  H   UNL A   1      33.152  31.179  26.626  1.00  0.00     0.163 HD
ATOM     26  O   UNL A   1      34.341  32.208  28.464  1.00  0.00    -0.269 OA
BRANCH  24  27
ATOM     27  C   UNL A   1      35.923  30.473  28.357  1.00  0.00     0.039 A 
ATOM     28  C   UNL A   1      37.087  30.670  27.607  1.00  0.00     0.014 A 
ATOM     29  C   UNL A   1      35.952  29.634  29.476  1.00  0.00     0.014 A 
ATOM     30  C   UNL A   1      38.288  30.081  28.016  1.00  0.00     0.010 A 
ATOM     31  C   UNL A   1      37.165  29.103  29.919  1.00  0.00     0.010 A 
ATOM     32  C   UNL A   1      38.347  29.319  29.196  1.00  0.00    -0.014 A 
BRANCH  32  33
ATOM     33  C   UNL A   1      39.639  28.779  29.698  1.00  0.00     0.031 A 
ATOM     34  C   UNL A   1      40.382  29.466  30.815  1.00  0.00     0.074 A 
ATOM     35  C   UNL A   1      40.191  27.707  29.092  1.00  0.00     0.049 A 
ATOM     36  N   UNL A   1      41.534  29.151  31.352  1.00  0.00    -0.248 NA
ATOM     37  C   UNL A   1      39.764  30.671  31.392  1.00  0.00     0.031 C 
ATOM     38  C   UNL A   1      39.618  26.997  27.947  1.00  0.00     0.029 A 
ATOM     39  N   UNL A   1      41.371  27.046  29.334  1.00  0.00    -0.354 N 
ATOM     40  C   UNL A   1      41.795  30.132  32.301  1.00  0.00     0.074 A 
ATOM     41  C   UNL A   1      40.691  31.067  32.254  1.00  0.00     0.031 C 
ATOM     42  C   UNL A   1      40.446  26.004  27.585  1.00  0.00     0.029 A 
ATOM     43  C   UNL A   1      41.622  26.021  28.450  1.00  0.00     0.049 A 
ATOM     44  H   UNL A   1      41.979  27.283  30.070  1.00  0.00     0.167 HD
ATOM     45  C   UNL A   1      42.842  30.233  33.152  1.00  0.00     0.034 A 
ATOM     46  C   UNL A   1      42.680  25.194  28.339  1.00  0.00     0.034 A 
ATOM     47  C   UNL A   1      43.914  29.275  33.239  1.00  0.00     0.049 A 
ATOM     48  C   UNL A   1      43.812  25.310  29.324  1.00  0.00     0.074 A 
ATOM     49  C   UNL A   1      44.956  29.235  34.151  1.00  0.00     0.029 A 
ATOM     50  N   UNL A   1      44.093  28.203  32.381  1.00  0.00    -0.354 N 
ATOM     51  N   UNL A   1      43.942  26.129  30.339  1.00  0.00    -0.248 NA
ATOM     52  C   UNL A   1      44.929  24.363  29.171  1.00  0.00     0.031 C 
ATOM     53  C   UNL A   1      45.779  28.151  33.828  1.00  0.00     0.029 A 
ATOM     54  C   UNL A   1      45.238  27.508  32.727  1.00  0.00     0.049 A 
ATOM     55  H   UNL A   1      43.493  27.972  31.635  1.00  0.00     0.167 HD
ATOM     56  C   UNL A   1      45.138  25.781  30.959  1.00  0.00     0.074 A 
ATOM     57  C   UNL A   1      45.677  24.656  30.225  1.00  0.00     0.031 C 
ATOM     58  C   UNL A   1      45.744  26.356  32.026  1.00  0.00     0.034 A 
BRANCH  45  59
ATOM     59  C   UNL A   1      42.865  31.389  34.118  1.00  0.00     0.023 A 
ATOM     60  C   UNL A   1      43.521  32.582  33.752  1.00  0.00     0.012 A 
ATOM     61  C   UNL A   1      42.149  31.335  35.329  1.00  0.00     0.148 A 
ATOM     62  C   UNL A   1      43.481  33.698  34.585  1.00  0.00     0.002 A 
ATOM     63  C   UNL A   1      42.080  32.464  36.137  1.00  0.00     0.091 A 
ATOM     64  F   UNL A   1      41.547  30.186  35.665  1.00  0.00    -0.205 F 
ATOM     65  C   UNL A   1      42.751  33.643  35.770  1.00  0.00     0.022 A 
BRANCH  63  66
ATOM     66  S   UNL A   1      41.104  32.521  37.645  1.00  0.00     0.127 S 
ATOM     67  O   UNL A   1      41.921  31.711  38.552  1.00  0.00    -0.237 OA
ATOM     68  O   UNL A   1      41.098  33.954  37.950  1.00  0.00    -0.237 OA
ATOM     69  O   UNL A   1      39.807  31.963  37.309  1.00  0.00    -0.744 OA
ENDBRANCH  63  66
ENDBRANCH  45  59
BRANCH  46  70
ATOM     70  C   UNL A   1      42.704  24.146  27.278  1.00  0.00     0.023 A 
ATOM     71  C   UNL A   1      43.397  24.390  26.077  1.00  0.00     0.012 A 
ATOM     72  C   UNL A   1      42.051  22.911  27.456  1.00  0.00     0.148 A 
ATOM     73  C   UNL A   1      43.408  23.437  25.057  1.00  0.00     0.002 A 
ATOM     74  C   UNL A   1      42.118  21.943  26.460  1.00  0.00     0.091 A 
ATOM     75  F   UNL A   1      41.379  22.703  28.597  1.00  0.00    -0.205 F 
ATOM     76  C   UNL A   1      42.779  22.210  25.252  1.00  0.00     0.022 A 
BRANCH  74  77
ATOM     77  S   UNL A   1      41.458  20.290  26.703  1.00  0.00     0.127 S 
ATOM     78  O   UNL A   1      41.927  19.601  25.504  1.00  0.00    -0.237 OA
ATOM     79  O   UNL A   1      42.108  19.878  27.947  1.00  0.00    -0.237 OA
ATOM     80  O   UNL A   1      40.016  20.467  26.819  1.00  0.00    -0.744 OA
ENDBRANCH  74  77
ENDBRANCH  46  70
BRANCH  58  81
ATOM     81  C   UNL A   1      47.056  25.774  32.483  1.00  0.00     0.023 A 
ATOM     82  C   UNL A   1      47.076  24.866  33.559  1.00  0.00     0.012 A 
ATOM     83  C   UNL A   1      48.254  26.069  31.804  1.00  0.00     0.148 A 
ATOM     84  C   UNL A   1      48.273  24.284  33.975  1.00  0.00     0.002 A 
ATOM     85  C   UNL A   1      49.437  25.450  32.194  1.00  0.00     0.091 A 
ATOM     86  F   UNL A   1      48.218  26.949  30.793  1.00  0.00    -0.205 F 
ATOM     87  C   UNL A   1      49.450  24.566  33.285  1.00  0.00     0.022 A 
BRANCH  85  88
ATOM     88  S   UNL A   1      50.983  25.682  31.309  1.00  0.00     0.127 S 
ATOM     89  O   UNL A   1      51.224  27.110  31.501  1.00  0.00    -0.237 OA
ATOM     90  O   UNL A   1      51.896  24.804  32.042  1.00  0.00    -0.237 OA
ATOM     91  O   UNL A   1      50.723  25.271  29.936  1.00  0.00    -0.744 OA
ENDBRANCH  85  88
ENDBRANCH  58  81
ENDBRANCH  32  33
ENDBRANCH  24  27
ENDBRANCH  22  23
ENDBRANCH   1  22
TORSDOF 16
ENDMDL
MODEL 3
REMARK VINA RESULT:     -11.5      5.682      9.152
REMARK SMILES CC(C)N(C(=O)[C@@H]1CCCC[C@H]1C(=O)NCCCNC(=O)c1ccc(-c2c3nc(c(-c4cccc(S(=O)(=O)[O-])c4F)c4ccc([nH]4)c(-c4cccc(S(=O)(=O)[O-])c4F)c4nc(c(-c5cccc(S(=O)(=O)[O-])c5F)c5ccc2[nH]5)C=C4)C=C3)cc1)C(C)C
REMARK SMILES IDX 17 1 16 2 15 3 13 4 14 5 12 7 7 8 8 9 9 10 11 11 10 12 5 13
REMARK SMILES IDX 4 14 6 15 2 16 1 17 3 18 85 19 86 20 87 21 18 22 19 23 20 24
REMARK SMILES IDX 21 26 22 27 23 28 84 29 24 30 83 31 25 32 26 33 27 34 77 35
REMARK SMILES IDX 28 36 82 37 76 38 78 39 29 40 81 41 75 42 74 43 30 45 62 46
REMARK SMILES IDX 42 47 61 48 43 49 46 50 60 51 79 52 44 53 45 54 59 56 80 57
REMARK SMILES IDX 47 58 31 59 32 60 40 61 33 62 35 63 41 64 34 65 36 66 37 67
REMARK SMILES IDX 38 68 39 69 63 70 64 71 72 72 65 73 67 74 73 75 66 76 68 77
REMARK SMILES IDX 69 78 70 79 71 80 48 81 49 82 57 83 50 84 52 85 58 86 51 87
REMARK SMILES IDX 53 88 54 89 55 90 56 91
REMARK H PARENT 15 6 19 25 78 44 46 55
REMARK Flexibility Score: inf
ROOT
ATOM      1  C   UNL A   1      31.674  30.978  26.126  1.00  0.00     0.042 C 
ENDROOT
BRANCH   1   2
ATOM      2  C   UNL A   1      31.713  29.537  25.632  1.00  0.00     0.117 C 
BRANCH   2   3
ATOM      3  N   UNL A   1      32.548  29.330  24.457  1.00  0.00    -0.356 N 
ATOM      4  C   UNL A   1      32.295  28.835  23.216  1.00  0.00     0.223 C 
ATOM      5  O   UNL A   1      33.202  28.940  22.385  1.00  0.00    -0.275 OA
ATOM      6  H   UNL A   1      33.485  29.605  24.587  1.00  0.00     0.163 HD
BRANCH   4   7
ATOM      7  C   UNL A   1      30.974  28.167  22.837  1.00  0.00     0.091 C 
ATOM      8  C   UNL A   1      30.825  26.823  23.592  1.00  0.00     0.091 C 
ATOM      9  C   UNL A   1      29.396  26.264  23.501  1.00  0.00     0.014 C 
ATOM     10  C   UNL A   1      28.354  27.309  23.877  1.00  0.00     0.001 C 
ATOM     11  C   UNL A   1      29.799  29.155  22.940  1.00  0.00     0.014 C 
ATOM     12  C   UNL A   1      28.427  28.495  22.926  1.00  0.00     0.001 C 
BRANCH   8  13
ATOM     13  C   UNL A   1      31.771  25.779  22.952  1.00  0.00     0.226 C 
ATOM     14  N   UNL A   1      32.499  24.854  23.725  1.00  0.00    -0.338 N 
ATOM     15  O   UNL A   1      31.833  25.764  21.714  1.00  0.00    -0.275 OA
BRANCH  14  16
ATOM     16  C   UNL A   1      32.508  24.837  25.212  1.00  0.00     0.079 C 
ATOM     17  C   UNL A   1      33.043  26.100  25.884  1.00  0.00     0.031 C 
ATOM     18  C   UNL A   1      31.186  24.387  25.835  1.00  0.00     0.031 C 
ENDBRANCH  14  16
BRANCH  14  19
ATOM     19  C   UNL A   1      33.364  23.911  22.949  1.00  0.00     0.079 C 
ATOM     20  C   UNL A   1      34.786  23.788  23.504  1.00  0.00     0.031 C 
ATOM     21  C   UNL A   1      32.752  22.539  22.680  1.00  0.00     0.031 C 
ENDBRANCH  14  19
ENDBRANCH   8  13
ENDBRANCH   4   7
ENDBRANCH   2   3
ENDBRANCH   1   2
BRANCH   1  22
ATOM     22  C   UNL A   1      32.659  31.320  27.236  1.00  0.00     0.118 C 
BRANCH  22  23
ATOM     23  N   UNL A   1      32.955  32.741  27.300  1.00  0.00    -0.352 N 
ATOM     24  C   UNL A   1      34.002  33.379  27.921  1.00  0.00     0.251 C 
ATOM     25  H   UNL A   1      32.317  33.328  26.834  1.00  0.00     0.163 HD
ATOM     26  O   UNL A   1      33.977  34.600  28.048  1.00  0.00    -0.269 OA
BRANCH  24  27
ATOM     27  C   UNL A   1      35.144  32.602  28.463  1.00  0.00     0.039 A 
ATOM     28  C   UNL A   1      36.432  33.134  28.354  1.00  0.00     0.014 A 
ATOM     29  C   UNL A   1      34.957  31.351  29.061  1.00  0.00     0.014 A 
ATOM     30  C   UNL A   1      37.520  32.445  28.902  1.00  0.00     0.010 A 
ATOM     31  C   UNL A   1      36.034  30.698  29.664  1.00  0.00     0.010 A 
ATOM     32  C   UNL A   1      37.327  31.236  29.593  1.00  0.00    -0.014 A 
BRANCH  32  33
ATOM     33  C   UNL A   1      38.459  30.551  30.272  1.00  0.00     0.031 A 
ATOM     34  C   UNL A   1      38.862  30.927  31.674  1.00  0.00     0.074 A 
ATOM     35  C   UNL A   1      39.185  29.637  29.594  1.00  0.00     0.049 A 
ATOM     36  N   UNL A   1      39.842  30.456  32.403  1.00  0.00    -0.248 NA
ATOM     37  C   UNL A   1      38.076  31.979  32.340  1.00  0.00     0.031 C 
ATOM     38  C   UNL A   1      38.955  29.239  28.203  1.00  0.00     0.029 A 
ATOM     39  N   UNL A   1      40.281  28.899  29.971  1.00  0.00    -0.354 N 
ATOM     40  C   UNL A   1      39.814  31.173  33.593  1.00  0.00     0.074 A 
ATOM     41  C   UNL A   1      38.732  32.128  33.483  1.00  0.00     0.031 C 
ATOM     42  C   UNL A   1      39.880  28.335  27.845  1.00  0.00     0.029 A 
ATOM     43  C   UNL A   1      40.787  28.107  28.966  1.00  0.00     0.049 A 
ATOM     44  H   UNL A   1      40.667  28.934  30.876  1.00  0.00     0.167 HD
ATOM     45  C   UNL A   1      40.598  31.034  34.687  1.00  0.00     0.034 A 
ATOM     46  C   UNL A   1      41.864  27.297  28.942  1.00  0.00     0.034 A 
ATOM     47  C   UNL A   1      41.640  30.049  34.821  1.00  0.00     0.049 A 
ATOM     48  C   UNL A   1      42.694  27.137  30.187  1.00  0.00     0.074 A 
ATOM     49  C   UNL A   1      42.408  29.759  35.936  1.00  0.00     0.029 A 
ATOM     50  N   UNL A   1      42.072  29.208  33.809  1.00  0.00    -0.354 N 
ATOM     51  N   UNL A   1      42.527  27.687  31.365  1.00  0.00    -0.248 NA
ATOM     52  C   UNL A   1      43.842  26.219  30.110  1.00  0.00     0.031 C 
ATOM     53  C   UNL A   1      43.321  28.757  35.591  1.00  0.00     0.029 A 
ATOM     54  C   UNL A   1      43.108  28.413  34.267  1.00  0.00     0.049 A 
ATOM     55  H   UNL A   1      41.696  29.180  32.899  1.00  0.00     0.167 HD
ATOM     56  C   UNL A   1      43.530  27.162  32.175  1.00  0.00     0.074 A 
ATOM     57  C   UNL A   1      44.279  26.227  31.362  1.00  0.00     0.031 C 
ATOM     58  C   UNL A   1      43.816  27.446  33.469  1.00  0.00     0.034 A 
BRANCH  45  59
ATOM     59  C   UNL A   1      40.331  31.926  35.872  1.00  0.00     0.023 A 
ATOM     60  C   UNL A   1      41.177  33.025  36.114  1.00  0.00     0.012 A 
ATOM     61  C   UNL A   1      39.187  31.741  36.673  1.00  0.00     0.148 A 
ATOM     62  C   UNL A   1      40.901  33.920  37.148  1.00  0.00     0.002 A 
ATOM     63  C   UNL A   1      38.896  32.658  37.676  1.00  0.00     0.091 A 
ATOM     64  F   UNL A   1      38.404  30.679  36.435  1.00  0.00    -0.205 F 
ATOM     65  C   UNL A   1      39.755  33.743  37.919  1.00  0.00     0.022 A 
BRANCH  63  66
ATOM     66  S   UNL A   1      37.406  32.564  38.675  1.00  0.00     0.127 S 
ATOM     67  O   UNL A   1      37.735  33.470  39.778  1.00  0.00    -0.237 OA
ATOM     68  O   UNL A   1      36.388  33.074  37.754  1.00  0.00    -0.237 OA
ATOM     69  O   UNL A   1      37.252  31.168  39.043  1.00  0.00    -0.744 OA
ENDBRANCH  63  66
ENDBRANCH  45  59
BRANCH  46  70
ATOM     70  C   UNL A   1      42.198  26.532  27.706  1.00  0.00     0.023 A 
ATOM     71  C   UNL A   1      42.850  27.183  26.641  1.00  0.00     0.012 A 
ATOM     72  C   UNL A   1      41.880  25.166  27.583  1.00  0.00     0.148 A 
ATOM     73  C   UNL A   1      43.147  26.497  25.462  1.00  0.00     0.002 A 
ATOM     74  C   UNL A   1      42.233  24.474  26.430  1.00  0.00     0.091 A 
ATOM     75  F   UNL A   1      41.241  24.566  28.597  1.00  0.00    -0.205 F 
ATOM     76  C   UNL A   1      42.849  25.140  25.360  1.00  0.00     0.022 A 
BRANCH  74  77
ATOM     77  S   UNL A   1      42.013  22.696  26.289  1.00  0.00     0.127 S 
ATOM     78  O   UNL A   1      42.645  22.416  25.003  1.00  0.00    -0.237 OA
ATOM     79  O   UNL A   1      42.744  22.202  27.457  1.00  0.00    -0.237 OA
ATOM     80  O   UNL A   1      40.573  22.482  26.358  1.00  0.00    -0.744 OA
ENDBRANCH  74  77
ENDBRANCH  46  70
BRANCH  58  81
ATOM     81  C   UNL A   1      44.981  26.730  34.100  1.00  0.00     0.023 A 
ATOM     82  C   UNL A   1      46.275  27.274  33.989  1.00  0.00     0.012 A 
ATOM     83  C   UNL A   1      44.786  25.561  34.861  1.00  0.00     0.148 A 
ATOM     84  C   UNL A   1      47.363  26.650  34.598  1.00  0.00     0.002 A 
ATOM     85  C   UNL A   1      45.868  24.969  35.504  1.00  0.00     0.091 A 
ATOM     86  F   UNL A   1      43.549  25.048  34.941  1.00  0.00    -0.205 F 
ATOM     87  C   UNL A   1      47.158  25.505  35.365  1.00  0.00     0.022 A 
BRANCH  85  88
ATOM     88  S   UNL A   1      45.684  23.546  36.586  1.00  0.00     0.127 S 
ATOM     89  O   UNL A   1      44.860  24.093  37.661  1.00  0.00    -0.237 OA
ATOM     90  O   UNL A   1      45.001  22.584  35.721  1.00  0.00    -0.237 OA
ATOM     91  O   UNL A   1      47.036  23.159  36.970  1.00  0.00    -0.744 OA
ENDBRANCH  85  88
ENDBRANCH  58  81
ENDBRANCH  32  33
ENDBRANCH  24  27
ENDBRANCH  22  23
ENDBRANCH   1  22
TORSDOF 16
ENDMDL
