MODEL 1
REMARK VINA RESULT:     -14.0      0.000      0.000
REMARK SMILES O=C(NCCCNC(=O)[C@H](Cc1ccccn1)[C@H]1CCS(=O)(=O)C1)c1ccc(-c2c3nc(c(-c4cccc(S(=O)(=O)[O-])c4F)c4ccc([nH]4)c(-c4cccc(S(=O)(=O)[O-])c4F)c4nc(c(-c5cccc(S(=O)(=O)[O-])c5F)c5ccc2[nH]5)C=C4)C=C3)cc1
REMARK SMILES IDX 4 1 3 2 1 3 2 4 25 6 26 7 87 8 27 9 86 10 28 11 29 12 30 13
REMARK SMILES IDX 80 14 31 15 85 16 79 17 81 18 32 19 84 20 78 21 77 22 33 24
REMARK SMILES IDX 65 25 45 26 64 27 46 28 49 29 63 30 82 31 47 32 48 33 62 35
REMARK SMILES IDX 83 36 50 37 34 38 35 39 43 40 36 41 38 42 44 43 37 44 39 45
REMARK SMILES IDX 40 46 41 47 42 48 66 49 67 50 75 51 68 52 70 53 76 54 69 55
REMARK SMILES IDX 71 56 72 57 73 58 74 59 51 60 52 61 60 62 53 63 55 64 61 65
REMARK SMILES IDX 54 66 56 67 57 68 58 69 59 70 5 71 6 72 7 73 8 74 9 76 10 77
REMARK SMILES IDX 11 78 12 79 13 80 17 81 14 82 16 83 15 84 18 85 19 86 24 87
REMARK SMILES IDX 20 88 21 89 22 90 23 91
REMARK H PARENT 3 5 81 23 49 34 7 75
REMARK Flexibility Score: inf
ROOT
ATOM      1  C   UNL A   1      36.790  21.957  25.661  1.00  0.00     0.118 C 
ENDROOT
BRANCH   1   2
ATOM      2  N   UNL A   1      37.811  20.939  25.990  1.00  0.00    -0.352 N 
ATOM      3  O   UNL A   1      39.877  20.077  26.144  1.00  0.00    -0.269 OA
ATOM      4  C   UNL A   1      39.150  21.061  26.235  1.00  0.00     0.251 C 
ATOM      5  H   UNL A   1      37.467  20.017  26.040  1.00  0.00     0.163 HD
BRANCH   4   6
ATOM      6  C   UNL A   1      39.682  22.363  26.652  1.00  0.00     0.039 A 
ATOM      7  C   UNL A   1      40.760  22.395  27.539  1.00  0.00     0.014 A 
ATOM      8  C   UNL A   1      39.152  23.541  26.121  1.00  0.00     0.014 A 
ATOM      9  C   UNL A   1      41.221  23.606  28.009  1.00  0.00     0.010 A 
ATOM     10  C   UNL A   1      39.692  24.765  26.513  1.00  0.00     0.010 A 
ATOM     11  C   UNL A   1      40.719  24.798  27.465  1.00  0.00    -0.014 A 
BRANCH  11  12
ATOM     12  C   UNL A   1      41.409  26.049  27.833  1.00  0.00     0.031 A 
ATOM     13  C   UNL A   1      42.786  26.343  27.338  1.00  0.00     0.074 A 
ATOM     14  C   UNL A   1      40.707  26.936  28.566  1.00  0.00     0.049 A 
ATOM     15  N   UNL A   1      43.489  27.432  27.492  1.00  0.00    -0.248 NA
ATOM     16  C   UNL A   1      43.471  25.284  26.579  1.00  0.00     0.031 C 
ATOM     17  C   UNL A   1      39.365  26.693  29.112  1.00  0.00     0.029 A 
ATOM     18  N   UNL A   1      40.992  28.215  28.948  1.00  0.00    -0.354 N 
ATOM     19  C   UNL A   1      44.711  27.183  26.882  1.00  0.00     0.074 A 
ATOM     20  C   UNL A   1      44.657  25.836  26.356  1.00  0.00     0.031 C 
ATOM     21  C   UNL A   1      38.922  27.808  29.705  1.00  0.00     0.029 A 
ATOM     22  C   UNL A   1      39.967  28.818  29.642  1.00  0.00     0.049 A 
ATOM     23  H   UNL A   1      41.846  28.663  28.749  1.00  0.00     0.167 HD
ATOM     24  C   UNL A   1      45.771  28.018  26.769  1.00  0.00     0.034 A 
ATOM     25  C   UNL A   1      39.887  30.051  30.173  1.00  0.00     0.034 A 
ATOM     26  C   UNL A   1      45.779  29.359  27.289  1.00  0.00     0.049 A 
ATOM     27  C   UNL A   1      41.057  30.968  29.979  1.00  0.00     0.074 A 
ATOM     28  C   UNL A   1      46.795  30.297  27.244  1.00  0.00     0.029 A 
ATOM     29  N   UNL A   1      44.713  29.956  27.951  1.00  0.00    -0.354 N 
ATOM     30  N   UNL A   1      42.179  30.740  29.338  1.00  0.00    -0.248 NA
ATOM     31  C   UNL A   1      40.950  32.310  30.559  1.00  0.00     0.031 C 
ATOM     32  C   UNL A   1      46.343  31.459  27.881  1.00  0.00     0.029 A 
ATOM     33  C   UNL A   1      45.041  31.251  28.311  1.00  0.00     0.049 A 
ATOM     34  H   UNL A   1      43.849  29.521  28.137  1.00  0.00     0.167 HD
ATOM     35  C   UNL A   1      42.915  31.911  29.433  1.00  0.00     0.074 A 
ATOM     36  C   UNL A   1      42.086  32.861  30.154  1.00  0.00     0.031 C 
ATOM     37  C   UNL A   1      44.172  32.173  28.999  1.00  0.00     0.034 A 
BRANCH  24  38
ATOM     38  C   UNL A   1      46.983  27.513  26.034  1.00  0.00     0.023 A 
ATOM     39  C   UNL A   1      47.939  26.739  26.722  1.00  0.00     0.012 A 
ATOM     40  C   UNL A   1      47.159  27.763  24.658  1.00  0.00     0.148 A 
ATOM     41  C   UNL A   1      49.062  26.242  26.061  1.00  0.00     0.002 A 
ATOM     42  C   UNL A   1      48.263  27.235  23.997  1.00  0.00     0.091 A 
ATOM     43  F   UNL A   1      46.253  28.523  24.027  1.00  0.00    -0.205 F 
ATOM     44  C   UNL A   1      49.219  26.482  24.699  1.00  0.00     0.022 A 
BRANCH  42  45
ATOM     45  S   UNL A   1      48.529  27.437  22.232  1.00  0.00     0.127 S 
ATOM     46  O   UNL A   1      49.776  28.201  22.207  1.00  0.00    -0.237 OA
ATOM     47  O   UNL A   1      48.654  26.052  21.780  1.00  0.00    -0.237 OA
ATOM     48  O   UNL A   1      47.357  28.139  21.727  1.00  0.00    -0.744 OA
ENDBRANCH  42  45
ENDBRANCH  24  38
BRANCH  25  49
ATOM     49  C   UNL A   1      38.650  30.469  30.889  1.00  0.00     0.023 A 
ATOM     50  C   UNL A   1      38.553  30.302  32.283  1.00  0.00     0.012 A 
ATOM     51  C   UNL A   1      37.597  31.109  30.203  1.00  0.00     0.148 A 
ATOM     52  C   UNL A   1      37.424  30.745  32.975  1.00  0.00     0.002 A 
ATOM     53  C   UNL A   1      36.509  31.608  30.908  1.00  0.00     0.091 A 
ATOM     54  F   UNL A   1      37.690  31.243  28.872  1.00  0.00    -0.205 F 
ATOM     55  C   UNL A   1      36.410  31.413  32.292  1.00  0.00     0.022 A 
BRANCH  53  56
ATOM     56  S   UNL A   1      35.264  32.627  30.104  1.00  0.00     0.127 S 
ATOM     57  O   UNL A   1      36.056  33.759  29.638  1.00  0.00    -0.237 OA
ATOM     58  O   UNL A   1      34.770  31.743  29.047  1.00  0.00    -0.237 OA
ATOM     59  O   UNL A   1      34.282  32.908  31.144  1.00  0.00    -0.744 OA
ENDBRANCH  53  56
ENDBRANCH  25  49
BRANCH  37  60
ATOM     60  C   UNL A   1      44.713  33.541  29.302  1.00  0.00     0.023 A 
ATOM     61  C   UNL A   1      45.364  33.771  30.530  1.00  0.00     0.012 A 
ATOM     62  C   UNL A   1      44.617  34.580  28.358  1.00  0.00     0.148 A 
ATOM     63  C   UNL A   1      45.881  35.030  30.830  1.00  0.00     0.002 A 
ATOM     64  C   UNL A   1      45.174  35.819  28.646  1.00  0.00     0.091 A 
ATOM     65  F   UNL A   1      43.971  34.343  27.207  1.00  0.00    -0.205 F 
ATOM     66  C   UNL A   1      45.795  36.049  29.885  1.00  0.00     0.022 A 
BRANCH  64  67
ATOM     67  S   UNL A   1      45.185  37.157  27.449  1.00  0.00     0.127 S 
ATOM     68  O   UNL A   1      45.824  38.230  28.210  1.00  0.00    -0.237 OA
ATOM     69  O   UNL A   1      46.002  36.605  26.369  1.00  0.00    -0.237 OA
ATOM     70  O   UNL A   1      43.790  37.381  27.093  1.00  0.00    -0.744 OA
ENDBRANCH  64  67
ENDBRANCH  37  60
ENDBRANCH  11  12
ENDBRANCH   4   6
ENDBRANCH   1   2
BRANCH   1  71
ATOM     71  C   UNL A   1      35.166  21.586  26.105  1.00  0.00     0.042 C 
BRANCH  71  72
ATOM     72  C   UNL A   1      33.760  22.415  27.566  1.00  0.00     0.117 C 
BRANCH  72  73
ATOM     73  N   UNL A   1      32.182  22.301  27.650  1.00  0.00    -0.356 N 
ATOM     74  C   UNL A   1      31.211  23.134  27.189  1.00  0.00     0.223 C 
ATOM     75  H   UNL A   1      31.851  21.496  28.111  1.00  0.00     0.163 HD
ATOM     76  O   UNL A   1      30.077  22.953  27.627  1.00  0.00    -0.275 OA
BRANCH  74  77
ATOM     77  C   UNL A   1      31.574  24.169  26.108  1.00  0.00     0.088 C 
BRANCH  77  78
ATOM     78  C   UNL A   1      30.335  24.955  25.596  1.00  0.00     0.070 C 
BRANCH  78  79
ATOM     79  C   UNL A   1      30.569  26.432  25.724  1.00  0.00     0.041 A 
ATOM     80  C   UNL A   1      30.703  27.451  24.257  1.00  0.00     0.024 A 
ATOM     81  N   UNL A   1      31.339  26.930  27.235  1.00  0.00    -0.261 NA
ATOM     82  C   UNL A   1      31.758  28.901  24.303  1.00  0.00     0.003 A 
ATOM     83  C   UNL A   1      32.406  28.346  27.256  1.00  0.00     0.111 A 
ATOM     84  C   UNL A   1      32.574  29.393  25.825  1.00  0.00     0.020 A 
ENDBRANCH  78  79
ENDBRANCH  77  78
BRANCH  77  85
ATOM     85  C   UNL A   1      32.401  23.632  24.896  1.00  0.00     0.018 C 
ATOM     86  C   UNL A   1      31.498  22.923  23.865  1.00  0.00     0.021 C 
ATOM     87  C   UNL A   1      33.196  24.632  24.038  1.00  0.00     0.141 C 
ATOM     88  C   UNL A   1      32.400  22.483  22.711  1.00  0.00     0.137 C 
ATOM     89  S   UNL A   1      33.655  23.741  22.564  1.00  0.00     0.150 S 
ATOM     90  O   UNL A   1      34.949  23.123  22.768  1.00  0.00    -0.229 OA
ATOM     91  O   UNL A   1      33.364  24.554  21.401  1.00  0.00    -0.229 OA
ENDBRANCH  77  85
ENDBRANCH  74  77
ENDBRANCH  72  73
ENDBRANCH  71  72
ENDBRANCH   1  71
TORSDOF 16
ENDMDL
MODEL 2
REMARK VINA RESULT:     -13.9      2.005      2.458
REMARK SMILES O=C(NCCCNC(=O)[C@H](Cc1ccccn1)[C@H]1CCS(=O)(=O)C1)c1ccc(-c2c3nc(c(-c4cccc(S(=O)(=O)[O-])c4F)c4ccc([nH]4)c(-c4cccc(S(=O)(=O)[O-])c4F)c4nc(c(-c5cccc(S(=O)(=O)[O-])c5F)c5ccc2[nH]5)C=C4)C=C3)cc1
REMARK SMILES IDX 4 1 3 2 1 3 2 4 25 6 26 7 87 8 27 9 86 10 28 11 29 12 30 13
REMARK SMILES IDX 80 14 31 15 85 16 79 17 81 18 32 19 84 20 78 21 77 22 33 24
REMARK SMILES IDX 65 25 45 26 64 27 46 28 49 29 63 30 82 31 47 32 48 33 62 35
REMARK SMILES IDX 83 36 50 37 34 38 35 39 43 40 36 41 38 42 44 43 37 44 39 45
REMARK SMILES IDX 40 46 41 47 42 48 66 49 67 50 75 51 68 52 70 53 76 54 69 55
REMARK SMILES IDX 71 56 72 57 73 58 74 59 51 60 52 61 60 62 53 63 55 64 61 65
REMARK SMILES IDX 54 66 56 67 57 68 58 69 59 70 5 71 6 72 7 73 8 74 9 76 10 77
REMARK SMILES IDX 11 78 12 79 13 80 17 81 14 82 16 83 15 84 18 85 19 86 24 87
REMARK SMILES IDX 20 88 21 89 22 90 23 91
REMARK H PARENT 3 5 81 23 49 34 7 75
REMARK Flexibility Score: inf
ROOT
ATOM      1  C   UNL A   1      37.585  21.733  24.519  1.00  0.00     0.118 C 
ENDROOT
BRANCH   1   2
ATOM      2  N   UNL A   1      38.194  20.713  25.401  1.00  0.00    -0.352 N 
ATOM      3  O   UNL A   1      39.833  19.725  26.572  1.00  0.00    -0.269 OA
ATOM      4  C   UNL A   1      39.303  20.766  26.197  1.00  0.00     0.251 C 
ATOM      5  H   UNL A   1      37.718  19.850  25.417  1.00  0.00     0.163 HD
BRANCH   4   6
ATOM      6  C   UNL A   1      39.809  22.074  26.628  1.00  0.00     0.039 A 
ATOM      7  C   UNL A   1      40.914  22.119  27.480  1.00  0.00     0.014 A 
ATOM      8  C   UNL A   1      39.226  23.247  26.143  1.00  0.00     0.014 A 
ATOM      9  C   UNL A   1      41.353  23.333  27.963  1.00  0.00     0.010 A 
ATOM     10  C   UNL A   1      39.741  24.478  26.546  1.00  0.00     0.010 A 
ATOM     11  C   UNL A   1      40.798  24.521  27.465  1.00  0.00    -0.014 A 
BRANCH  11  12
ATOM     12  C   UNL A   1      41.461  25.783  27.841  1.00  0.00     0.031 A 
ATOM     13  C   UNL A   1      42.848  26.092  27.381  1.00  0.00     0.074 A 
ATOM     14  C   UNL A   1      40.728  26.667  28.547  1.00  0.00     0.049 A 
ATOM     15  N   UNL A   1      43.532  27.192  27.544  1.00  0.00    -0.248 NA
ATOM     16  C   UNL A   1      43.566  25.036  26.650  1.00  0.00     0.031 C 
ATOM     17  C   UNL A   1      39.376  26.411  29.058  1.00  0.00     0.029 A 
ATOM     18  N   UNL A   1      40.986  27.954  28.926  1.00  0.00    -0.354 N 
ATOM     19  C   UNL A   1      44.773  26.953  26.970  1.00  0.00     0.074 A 
ATOM     20  C   UNL A   1      44.752  25.601  26.455  1.00  0.00     0.031 C 
ATOM     21  C   UNL A   1      38.902  27.525  29.629  1.00  0.00     0.029 A 
ATOM     22  C   UNL A   1      39.935  28.549  29.586  1.00  0.00     0.049 A 
ATOM     23  H   UNL A   1      41.840  28.411  28.746  1.00  0.00     0.167 HD
ATOM     24  C   UNL A   1      45.825  27.800  26.879  1.00  0.00     0.034 A 
ATOM     25  C   UNL A   1      39.825  29.785  30.104  1.00  0.00     0.034 A 
ATOM     26  C   UNL A   1      45.802  29.147  27.387  1.00  0.00     0.049 A 
ATOM     27  C   UNL A   1      40.988  30.715  29.934  1.00  0.00     0.074 A 
ATOM     28  C   UNL A   1      46.806  30.097  27.361  1.00  0.00     0.029 A 
ATOM     29  N   UNL A   1      44.711  29.735  28.015  1.00  0.00    -0.354 N 
ATOM     30  N   UNL A   1      42.130  30.497  29.326  1.00  0.00    -0.248 NA
ATOM     31  C   UNL A   1      40.848  32.061  30.499  1.00  0.00     0.031 C 
ATOM     32  C   UNL A   1      46.322  31.258  27.976  1.00  0.00     0.029 A 
ATOM     33  C   UNL A   1      45.012  31.037  28.372  1.00  0.00     0.049 A 
ATOM     34  H   UNL A   1      43.848  29.290  28.181  1.00  0.00     0.167 HD
ATOM     35  C   UNL A   1      42.848  31.679  29.430  1.00  0.00     0.074 A 
ATOM     36  C   UNL A   1      41.988  32.624  30.120  1.00  0.00     0.031 C 
ATOM     37  C   UNL A   1      44.113  31.953  29.028  1.00  0.00     0.034 A 
BRANCH  24  38
ATOM     38  C   UNL A   1      47.063  27.306  26.181  1.00  0.00     0.023 A 
ATOM     39  C   UNL A   1      47.222  27.541  24.800  1.00  0.00     0.012 A 
ATOM     40  C   UNL A   1      48.088  26.649  26.891  1.00  0.00     0.148 A 
ATOM     41  C   UNL A   1      48.369  27.112  24.132  1.00  0.00     0.002 A 
ATOM     42  C   UNL A   1      49.244  26.255  26.226  1.00  0.00     0.091 A 
ATOM     43  F   UNL A   1      47.908  26.411  28.198  1.00  0.00    -0.205 F 
ATOM     44  C   UNL A   1      49.382  26.478  24.846  1.00  0.00     0.022 A 
BRANCH  42  45
ATOM     45  S   UNL A   1      50.633  25.481  27.063  1.00  0.00     0.127 S 
ATOM     46  O   UNL A   1      49.998  24.312  27.670  1.00  0.00    -0.237 OA
ATOM     47  O   UNL A   1      51.532  25.178  25.950  1.00  0.00    -0.237 OA
ATOM     48  O   UNL A   1      51.139  26.474  28.001  1.00  0.00    -0.744 OA
ENDBRANCH  42  45
ENDBRANCH  24  38
BRANCH  25  49
ATOM     49  C   UNL A   1      38.563  30.193  30.782  1.00  0.00     0.023 A 
ATOM     50  C   UNL A   1      38.402  29.967  32.162  1.00  0.00     0.012 A 
ATOM     51  C   UNL A   1      37.552  30.879  30.080  1.00  0.00     0.148 A 
ATOM     52  C   UNL A   1      37.250  30.399  32.823  1.00  0.00     0.002 A 
ATOM     53  C   UNL A   1      36.441  31.367  30.757  1.00  0.00     0.091 A 
ATOM     54  F   UNL A   1      37.707  31.070  28.761  1.00  0.00    -0.205 F 
ATOM     55  C   UNL A   1      36.278  31.113  32.125  1.00  0.00     0.022 A 
BRANCH  53  56
ATOM     56  S   UNL A   1      35.249  32.440  29.945  1.00  0.00     0.127 S 
ATOM     57  O   UNL A   1      34.749  31.581  28.877  1.00  0.00    -0.237 OA
ATOM     58  O   UNL A   1      34.290  32.711  31.018  1.00  0.00    -0.237 OA
ATOM     59  O   UNL A   1      36.017  33.607  29.530  1.00  0.00    -0.744 OA
ENDBRANCH  53  56
ENDBRANCH  25  49
BRANCH  37  60
ATOM     60  C   UNL A   1      44.628  33.331  29.334  1.00  0.00     0.023 A 
ATOM     61  C   UNL A   1      45.241  33.580  30.578  1.00  0.00     0.012 A 
ATOM     62  C   UNL A   1      44.546  34.360  28.378  1.00  0.00     0.148 A 
ATOM     63  C   UNL A   1      45.732  34.848  30.881  1.00  0.00     0.002 A 
ATOM     64  C   UNL A   1      45.078  35.608  28.671  1.00  0.00     0.091 A 
ATOM     65  F   UNL A   1      43.936  34.104  27.211  1.00  0.00    -0.205 F 
ATOM     66  C   UNL A   1      45.661  35.857  29.925  1.00  0.00     0.022 A 
BRANCH  64  67
ATOM     67  S   UNL A   1      45.107  36.936  27.462  1.00  0.00     0.127 S 
ATOM     68  O   UNL A   1      45.711  38.024  28.231  1.00  0.00    -0.237 OA
ATOM     69  O   UNL A   1      45.962  36.384  26.410  1.00  0.00    -0.237 OA
ATOM     70  O   UNL A   1      43.720  37.139  27.064  1.00  0.00    -0.744 OA
ENDBRANCH  64  67
ENDBRANCH  37  60
ENDBRANCH  11  12
ENDBRANCH   4   6
ENDBRANCH   1   2
BRANCH   1  71
ATOM     71  C   UNL A   1      35.951  22.164  24.861  1.00  0.00     0.042 C 
BRANCH  71  72
ATOM     72  C   UNL A   1      34.981  23.314  26.454  1.00  0.00     0.117 C 
BRANCH  72  73
ATOM     73  N   UNL A   1      33.640  23.034  27.249  1.00  0.00    -0.356 N 
ATOM     74  C   UNL A   1      32.368  22.856  26.799  1.00  0.00     0.223 C 
ATOM     75  H   UNL A   1      33.742  22.982  28.226  1.00  0.00     0.163 HD
ATOM     76  O   UNL A   1      31.473  22.932  27.638  1.00  0.00    -0.275 OA
BRANCH  74  77
ATOM     77  C   UNL A   1      32.149  22.494  25.319  1.00  0.00     0.088 C 
BRANCH  77  78
ATOM     78  C   UNL A   1      30.900  23.191  24.713  1.00  0.00     0.070 C 
BRANCH  78  79
ATOM     79  C   UNL A   1      31.240  24.592  24.295  1.00  0.00     0.041 A 
ATOM     80  C   UNL A   1      30.356  25.980  25.001  1.00  0.00     0.024 A 
ATOM     81  N   UNL A   1      31.991  24.726  22.701  1.00  0.00    -0.261 NA
ATOM     82  C   UNL A   1      30.112  27.451  24.002  1.00  0.00     0.003 A 
ATOM     83  C   UNL A   1      31.713  26.171  21.713  1.00  0.00     0.111 A 
ATOM     84  C   UNL A   1      30.841  27.579  22.368  1.00  0.00     0.020 A 
ENDBRANCH  78  79
ENDBRANCH  77  78
BRANCH  77  85
ATOM     85  C   UNL A   1      32.119  20.967  24.985  1.00  0.00     0.018 C 
ATOM     86  C   UNL A   1      32.388  20.710  23.488  1.00  0.00     0.021 C 
ATOM     87  C   UNL A   1      33.120  20.034  25.688  1.00  0.00     0.141 C 
ATOM     88  C   UNL A   1      32.381  19.194  23.288  1.00  0.00     0.137 C 
ATOM     89  S   UNL A   1      33.064  18.500  24.782  1.00  0.00     0.150 S 
ATOM     90  O   UNL A   1      32.071  17.632  25.380  1.00  0.00    -0.229 OA
ATOM     91  O   UNL A   1      34.416  18.053  24.510  1.00  0.00    -0.229 OA
ENDBRANCH  77  85
ENDBRANCH  74  77
ENDBRANCH  72  73
ENDBRANCH  71  72
ENDBRANCH   1  71
TORSDOF 16
ENDMDL
MODEL 3
REMARK VINA RESULT:     -13.7      1.423      1.668
REMARK SMILES O=C(NCCCNC(=O)[C@H](Cc1ccccn1)[C@H]1CCS(=O)(=O)C1)c1ccc(-c2c3nc(c(-c4cccc(S(=O)(=O)[O-])c4F)c4ccc([nH]4)c(-c4cccc(S(=O)(=O)[O-])c4F)c4nc(c(-c5cccc(S(=O)(=O)[O-])c5F)c5ccc2[nH]5)C=C4)C=C3)cc1
REMARK SMILES IDX 4 1 3 2 1 3 2 4 25 6 26 7 87 8 27 9 86 10 28 11 29 12 30 13
REMARK SMILES IDX 80 14 31 15 85 16 79 17 81 18 32 19 84 20 78 21 77 22 33 24
REMARK SMILES IDX 65 25 45 26 64 27 46 28 49 29 63 30 82 31 47 32 48 33 62 35
REMARK SMILES IDX 83 36 50 37 34 38 35 39 43 40 36 41 38 42 44 43 37 44 39 45
REMARK SMILES IDX 40 46 41 47 42 48 66 49 67 50 75 51 68 52 70 53 76 54 69 55
REMARK SMILES IDX 71 56 72 57 73 58 74 59 51 60 52 61 60 62 53 63 55 64 61 65
REMARK SMILES IDX 54 66 56 67 57 68 58 69 59 70 5 71 6 72 7 73 8 74 9 76 10 77
REMARK SMILES IDX 11 78 12 79 13 80 17 81 14 82 16 83 15 84 18 85 19 86 24 87
REMARK SMILES IDX 20 88 21 89 22 90 23 91
REMARK H PARENT 3 5 81 23 49 34 7 75
REMARK Flexibility Score: inf
ROOT
ATOM      1  C   UNL A   1      36.906  21.917  25.167  1.00  0.00     0.118 C 
ENDROOT
BRANCH   1   2
ATOM      2  N   UNL A   1      37.836  20.866  25.631  1.00  0.00    -0.352 N 
ATOM      3  O   UNL A   1      39.831  19.929  26.053  1.00  0.00    -0.269 OA
ATOM      4  C   UNL A   1      39.137  20.941  26.043  1.00  0.00     0.251 C 
ATOM      5  H   UNL A   1      37.453  19.958  25.647  1.00  0.00     0.163 HD
BRANCH   4   6
ATOM      6  C   UNL A   1      39.663  22.228  26.511  1.00  0.00     0.039 A 
ATOM      7  C   UNL A   1      40.751  22.230  27.386  1.00  0.00     0.014 A 
ATOM      8  C   UNL A   1      39.116  23.423  26.040  1.00  0.00     0.014 A 
ATOM      9  C   UNL A   1      41.208  23.423  27.904  1.00  0.00     0.010 A 
ATOM     10  C   UNL A   1      39.650  24.634  26.480  1.00  0.00     0.010 A 
ATOM     11  C   UNL A   1      40.689  24.633  27.420  1.00  0.00    -0.014 A 
BRANCH  11  12
ATOM     12  C   UNL A   1      41.372  25.873  27.835  1.00  0.00     0.031 A 
ATOM     13  C   UNL A   1      42.769  26.167  27.397  1.00  0.00     0.074 A 
ATOM     14  C   UNL A   1      40.649  26.751  28.558  1.00  0.00     0.049 A 
ATOM     15  N   UNL A   1      43.472  27.249  27.596  1.00  0.00    -0.248 NA
ATOM     16  C   UNL A   1      43.474  25.117  26.644  1.00  0.00     0.031 C 
ATOM     17  C   UNL A   1      39.287  26.508  29.050  1.00  0.00     0.029 A 
ATOM     18  N   UNL A   1      40.928  28.022  28.974  1.00  0.00    -0.354 N 
ATOM     19  C   UNL A   1      44.714  27.002  27.027  1.00  0.00     0.074 A 
ATOM     20  C   UNL A   1      44.672  25.665  26.475  1.00  0.00     0.031 C 
ATOM     21  C   UNL A   1      38.829  27.615  29.647  1.00  0.00     0.029 A 
ATOM     22  C   UNL A   1      39.882  28.619  29.641  1.00  0.00     0.049 A 
ATOM     23  H   UNL A   1      41.792  28.467  28.814  1.00  0.00     0.167 HD
ATOM     24  C   UNL A   1      45.782  27.831  26.968  1.00  0.00     0.034 A 
ATOM     25  C   UNL A   1      39.790  29.842  30.191  1.00  0.00     0.034 A 
ATOM     26  C   UNL A   1      45.779  29.163  27.512  1.00  0.00     0.049 A 
ATOM     27  C   UNL A   1      40.972  30.755  30.057  1.00  0.00     0.074 A 
ATOM     28  C   UNL A   1      46.802  30.095  27.521  1.00  0.00     0.029 A 
ATOM     29  N   UNL A   1      44.694  29.756  28.145  1.00  0.00    -0.354 N 
ATOM     30  N   UNL A   1      42.115  30.531  29.453  1.00  0.00    -0.248 NA
ATOM     31  C   UNL A   1      40.852  32.088  30.656  1.00  0.00     0.031 C 
ATOM     32  C   UNL A   1      46.334  31.248  28.162  1.00  0.00     0.029 A 
ATOM     33  C   UNL A   1      45.016  31.041  28.540  1.00  0.00     0.049 A 
ATOM     34  H   UNL A   1      43.821  29.322  28.291  1.00  0.00     0.167 HD
ATOM     35  C   UNL A   1      42.854  31.696  29.596  1.00  0.00     0.074 A 
ATOM     36  C   UNL A   1      42.006  32.638  30.303  1.00  0.00     0.031 C 
ATOM     37  C   UNL A   1      44.128  31.957  29.213  1.00  0.00     0.034 A 
BRANCH  24  38
ATOM     38  C   UNL A   1      47.018  27.332  26.268  1.00  0.00     0.023 A 
ATOM     39  C   UNL A   1      47.182  27.580  24.890  1.00  0.00     0.012 A 
ATOM     40  C   UNL A   1      48.034  26.658  26.975  1.00  0.00     0.148 A 
ATOM     41  C   UNL A   1      48.326  27.146  24.221  1.00  0.00     0.002 A 
ATOM     42  C   UNL A   1      49.188  26.259  26.308  1.00  0.00     0.091 A 
ATOM     43  F   UNL A   1      47.848  26.409  28.278  1.00  0.00    -0.205 F 
ATOM     44  C   UNL A   1      49.332  26.495  24.930  1.00  0.00     0.022 A 
BRANCH  42  45
ATOM     45  S   UNL A   1      50.567  25.464  27.141  1.00  0.00     0.127 S 
ATOM     46  O   UNL A   1      49.931  24.266  27.686  1.00  0.00    -0.237 OA
ATOM     47  O   UNL A   1      51.491  25.215  26.035  1.00  0.00    -0.237 OA
ATOM     48  O   UNL A   1      51.046  26.422  28.129  1.00  0.00    -0.744 OA
ENDBRANCH  42  45
ENDBRANCH  24  38
BRANCH  25  49
ATOM     49  C   UNL A   1      38.530  30.256  30.869  1.00  0.00     0.023 A 
ATOM     50  C   UNL A   1      38.372  30.043  32.250  1.00  0.00     0.012 A 
ATOM     51  C   UNL A   1      37.517  30.936  30.162  1.00  0.00     0.148 A 
ATOM     52  C   UNL A   1      37.221  30.481  32.910  1.00  0.00     0.002 A 
ATOM     53  C   UNL A   1      36.407  31.429  30.837  1.00  0.00     0.091 A 
ATOM     54  F   UNL A   1      37.668  31.114  28.841  1.00  0.00    -0.205 F 
ATOM     55  C   UNL A   1      36.247  31.188  32.209  1.00  0.00     0.022 A 
BRANCH  53  56
ATOM     56  S   UNL A   1      35.212  32.494  30.018  1.00  0.00     0.127 S 
ATOM     57  O   UNL A   1      34.263  32.763  31.093  1.00  0.00    -0.237 OA
ATOM     58  O   UNL A   1      36.034  33.639  29.621  1.00  0.00    -0.237 OA
ATOM     59  O   UNL A   1      34.715  31.706  28.897  1.00  0.00    -0.744 OA
ENDBRANCH  53  56
ENDBRANCH  25  49
BRANCH  37  60
ATOM     60  C   UNL A   1      44.666  33.315  29.560  1.00  0.00     0.023 A 
ATOM     61  C   UNL A   1      45.288  33.515  30.808  1.00  0.00     0.012 A 
ATOM     62  C   UNL A   1      44.596  34.376  28.638  1.00  0.00     0.148 A 
ATOM     63  C   UNL A   1      45.800  34.764  31.150  1.00  0.00     0.002 A 
ATOM     64  C   UNL A   1      45.149  35.606  28.968  1.00  0.00     0.091 A 
ATOM     65  F   UNL A   1      43.977  34.168  27.466  1.00  0.00    -0.205 F 
ATOM     66  C   UNL A   1      45.741  35.805  30.227  1.00  0.00     0.022 A 
BRANCH  64  67
ATOM     67  S   UNL A   1      45.194  36.971  27.803  1.00  0.00     0.127 S 
ATOM     68  O   UNL A   1      46.274  37.792  28.348  1.00  0.00    -0.237 OA
ATOM     69  O   UNL A   1      45.515  36.298  26.544  1.00  0.00    -0.237 OA
ATOM     70  O   UNL A   1      43.866  37.569  27.843  1.00  0.00    -0.744 OA
ENDBRANCH  64  67
ENDBRANCH  37  60
ENDBRANCH  11  12
ENDBRANCH   4   6
ENDBRANCH   1   2
BRANCH   1  71
ATOM     71  C   UNL A   1      35.245  21.709  25.582  1.00  0.00     0.042 C 
BRANCH  71  72
ATOM     72  C   UNL A   1      33.954  22.533  27.149  1.00  0.00     0.117 C 
BRANCH  72  73
ATOM     73  N   UNL A   1      32.390  22.396  27.365  1.00  0.00    -0.356 N 
ATOM     74  C   UNL A   1      31.383  23.274  27.106  1.00  0.00     0.223 C 
ATOM     75  H   UNL A   1      32.100  21.538  27.750  1.00  0.00     0.163 HD
ATOM     76  O   UNL A   1      30.295  23.030  27.622  1.00  0.00    -0.275 OA
BRANCH  74  77
ATOM     77  C   UNL A   1      31.647  24.439  26.135  1.00  0.00     0.088 C 
BRANCH  77  78
ATOM     78  C   UNL A   1      30.350  25.207  25.759  1.00  0.00     0.070 C 
BRANCH  78  79
ATOM     79  C   UNL A   1      30.584  26.688  25.835  1.00  0.00     0.041 A 
ATOM     80  C   UNL A   1      30.865  27.631  24.338  1.00  0.00     0.024 A 
ATOM     81  N   UNL A   1      31.214  27.259  27.385  1.00  0.00    -0.261 NA
ATOM     82  C   UNL A   1      31.925  29.077  24.411  1.00  0.00     0.003 A 
ATOM     83  C   UNL A   1      32.287  28.669  27.435  1.00  0.00     0.111 A 
ATOM     84  C   UNL A   1      32.598  29.641  25.976  1.00  0.00     0.020 A 
ENDBRANCH  78  79
ENDBRANCH  77  78
BRANCH  77  85
ATOM     85  C   UNL A   1      32.447  24.083  24.840  1.00  0.00     0.018 C 
ATOM     86  C   UNL A   1      31.509  23.885  23.632  1.00  0.00     0.021 C 
ATOM     87  C   UNL A   1      33.491  25.084  24.315  1.00  0.00     0.141 C 
ATOM     88  C   UNL A   1      32.396  23.590  22.422  1.00  0.00     0.137 C 
ATOM     89  S   UNL A   1      33.884  24.544  22.661  1.00  0.00     0.150 S 
ATOM     90  O   UNL A   1      35.009  23.634  22.715  1.00  0.00    -0.229 OA
ATOM     91  O   UNL A   1      33.854  25.683  21.765  1.00  0.00    -0.229 OA
ENDBRANCH  77  85
ENDBRANCH  74  77
ENDBRANCH  72  73
ENDBRANCH  71  72
ENDBRANCH   1  71
TORSDOF 16
ENDMDL
