MODEL 1
REMARK VINA RESULT:     -13.4      0.000      0.000
REMARK SMILES Cc1cccc(CC(=O)N2CCC3(CCC(=O)N([C@H](C)C(=O)NCCCNC(=O)c4ccc(-c5c6nc(c(-c7cccc(S(=O)(=O)[O-])c7F)c7ccc([nH]7)c(-c7cccc(S(=O)(=O)[O-])c7F)c7nc(c(-c8cccc(S(=O)(=O)[O-])c8F)c8ccc5[nH]8)C=C7)C=C6)cc4)C3)CC2)c1
REMARK SMILES IDX 25 1 24 2 23 3 21 4 22 5 19 7 20 8 18 9 8 10 9 11 10 12
REMARK SMILES IDX 11 13 95 14 12 15 94 16 13 17 14 18 93 19 15 20 16 21 17 22
REMARK SMILES IDX 7 23 6 24 1 25 2 26 3 27 96 28 4 29 5 30 26 31 27 32 28 33
REMARK SMILES IDX 29 35 30 36 31 37 92 38 32 39 91 40 33 41 34 42 35 43 85 44
REMARK SMILES IDX 36 45 90 46 84 47 86 48 37 49 89 50 83 51 82 52 38 54 70 55
REMARK SMILES IDX 50 56 69 57 51 58 54 59 68 60 87 61 52 62 53 63 67 65 88 66
REMARK SMILES IDX 55 67 39 68 40 69 48 70 41 71 43 72 49 73 42 74 44 75 45 76
REMARK SMILES IDX 46 77 47 78 71 79 72 80 80 81 73 82 75 83 81 84 74 85 76 86
REMARK SMILES IDX 77 87 78 88 79 89 56 90 57 91 65 92 58 93 60 94 66 95 59 96
REMARK SMILES IDX 61 97 62 98 63 99 64 100
REMARK H PARENT 23 6 27 34 86 53 54 64
REMARK Flexibility Score: inf
ROOT
ATOM      1  C   UNL A   1      35.638  30.026  27.584  1.00  0.00     0.042 C 
ENDROOT
BRANCH   1   2
ATOM      2  C   UNL A   1      34.565  29.321  26.787  1.00  0.00     0.117 C 
BRANCH   2   3
ATOM      3  N   UNL A   1      33.531  28.702  27.597  1.00  0.00    -0.354 N 
ATOM      4  C   UNL A   1      32.193  28.571  27.334  1.00  0.00     0.242 C 
ATOM      5  O   UNL A   1      31.512  27.845  28.066  1.00  0.00    -0.273 OA
ATOM      6  H   UNL A   1      33.834  28.323  28.454  1.00  0.00     0.163 HD
BRANCH   4   7
ATOM      7  C   UNL A   1      31.512  29.378  26.196  1.00  0.00     0.171 C 
ATOM      8  C   UNL A   1      31.881  30.863  26.270  1.00  0.00     0.042 C 
BRANCH   7   9
ATOM      9  N   UNL A   1      31.565  28.847  24.817  1.00  0.00    -0.330 N 
ATOM     10  C   UNL A   1      34.122  22.903  23.910  1.00  0.00     0.226 C 
ATOM     11  O   UNL A   1      33.808  21.991  24.686  1.00  0.00    -0.275 OA
ATOM     12  N   UNL A   1      33.221  23.913  23.607  1.00  0.00    -0.342 N 
ATOM     13  C   UNL A   1      32.105  24.186  24.510  1.00  0.00     0.120 C 
ATOM     14  C   UNL A   1      33.247  24.777  22.440  1.00  0.00     0.120 C 
ATOM     15  C   UNL A   1      32.143  25.658  24.960  1.00  0.00     0.030 C 
ATOM     16  C   UNL A   1      33.481  26.208  22.887  1.00  0.00     0.030 C 
ATOM     17  C   UNL A   1      32.321  26.681  23.797  1.00  0.00    -0.008 C 
ATOM     18  C   UNL A   1      31.046  26.785  22.913  1.00  0.00     0.019 C 
ATOM     19  C   UNL A   1      32.701  28.069  24.369  1.00  0.00     0.127 C 
ATOM     20  C   UNL A   1      29.958  27.633  23.525  1.00  0.00     0.101 C 
ATOM     21  C   UNL A   1      30.517  28.972  23.928  1.00  0.00     0.223 C 
ATOM     22  O   UNL A   1      29.993  30.028  23.606  1.00  0.00    -0.275 OA
BRANCH  10  23
ATOM     23  C   UNL A   1      35.587  23.018  23.485  1.00  0.00     0.135 C 
BRANCH  23  24
ATOM     24  C   UNL A   1      36.667  22.730  24.494  1.00  0.00    -0.038 A 
ATOM     25  C   UNL A   1      38.676  24.678  27.092  1.00  0.00     0.044 C 
ATOM     26  C   UNL A   1      38.183  23.562  26.219  1.00  0.00    -0.051 A 
ATOM     27  C   UNL A   1      38.863  22.340  26.188  1.00  0.00     0.003 A 
ATOM     28  C   UNL A   1      37.070  23.740  25.389  1.00  0.00     0.007 A 
ATOM     29  C   UNL A   1      38.436  21.312  25.344  1.00  0.00     0.001 A 
ATOM     30  C   UNL A   1      37.339  21.501  24.502  1.00  0.00     0.004 A 
ENDBRANCH  23  24
ENDBRANCH  10  23
ENDBRANCH   7   9
ENDBRANCH   4   7
ENDBRANCH   2   3
ENDBRANCH   1   2
BRANCH   1  31
ATOM     31  C   UNL A   1      35.115  30.506  28.919  1.00  0.00     0.118 C 
BRANCH  31  32
ATOM     32  N   UNL A   1      34.425  31.794  28.854  1.00  0.00    -0.352 N 
ATOM     33  C   UNL A   1      34.799  33.001  29.423  1.00  0.00     0.251 C 
ATOM     34  H   UNL A   1      33.585  31.805  28.339  1.00  0.00     0.163 HD
ATOM     35  O   UNL A   1      34.055  33.975  29.336  1.00  0.00    -0.269 OA
BRANCH  33  36
ATOM     36  C   UNL A   1      36.154  33.112  30.011  1.00  0.00     0.039 A 
ATOM     37  C   UNL A   1      37.200  33.510  29.170  1.00  0.00     0.014 A 
ATOM     38  C   UNL A   1      36.421  32.506  31.233  1.00  0.00     0.014 A 
ATOM     39  C   UNL A   1      38.485  33.038  29.417  1.00  0.00     0.010 A 
ATOM     40  C   UNL A   1      37.659  31.932  31.412  1.00  0.00     0.010 A 
ATOM     41  C   UNL A   1      38.668  32.144  30.465  1.00  0.00    -0.014 A 
BRANCH  41  42
ATOM     42  C   UNL A   1      39.845  31.314  30.649  1.00  0.00     0.031 A 
ATOM     43  C   UNL A   1      39.860  29.942  30.115  1.00  0.00     0.074 A 
ATOM     44  C   UNL A   1      40.997  31.880  31.078  1.00  0.00     0.049 A 
ATOM     45  N   UNL A   1      40.809  29.108  30.364  1.00  0.00    -0.248 NA
ATOM     46  C   UNL A   1      38.799  29.383  29.280  1.00  0.00     0.031 C 
ATOM     47  C   UNL A   1      42.357  31.381  30.880  1.00  0.00     0.029 A 
ATOM     48  N   UNL A   1      41.155  32.921  31.997  1.00  0.00    -0.354 N 
ATOM     49  C   UNL A   1      40.685  28.098  29.448  1.00  0.00     0.074 A 
ATOM     50  C   UNL A   1      39.350  28.218  28.920  1.00  0.00     0.031 C 
ATOM     51  C   UNL A   1      43.145  31.881  31.843  1.00  0.00     0.029 A 
ATOM     52  C   UNL A   1      42.283  32.584  32.774  1.00  0.00     0.049 A 
ATOM     53  H   UNL A   1      40.595  33.726  32.085  1.00  0.00     0.167 HD
ATOM     54  C   UNL A   1      41.791  27.378  29.126  1.00  0.00     0.034 A 
ATOM     55  C   UNL A   1      42.232  32.373  34.122  1.00  0.00     0.034 A 
ATOM     56  C   UNL A   1      42.886  27.588  30.080  1.00  0.00     0.049 A 
ATOM     57  C   UNL A   1      42.660  30.967  34.534  1.00  0.00     0.074 A 
ATOM     58  C   UNL A   1      44.161  28.122  30.046  1.00  0.00     0.029 A 
ATOM     59  N   UNL A   1      42.609  27.369  31.418  1.00  0.00    -0.354 N 
ATOM     60  N   UNL A   1      43.220  30.085  33.748  1.00  0.00    -0.248 NA
ATOM     61  C   UNL A   1      42.380  30.414  35.861  1.00  0.00     0.031 C 
ATOM     62  C   UNL A   1      44.612  28.273  31.399  1.00  0.00     0.029 A 
ATOM     63  C   UNL A   1      43.632  27.784  32.245  1.00  0.00     0.049 A 
ATOM     64  H   UNL A   1      41.775  26.962  31.744  1.00  0.00     0.167 HD
ATOM     65  C   UNL A   1      43.167  28.847  34.347  1.00  0.00     0.074 A 
ATOM     66  C   UNL A   1      42.688  29.118  35.691  1.00  0.00     0.031 C 
ATOM     67  C   UNL A   1      43.417  27.673  33.684  1.00  0.00     0.034 A 
BRANCH  54  68
ATOM     68  C   UNL A   1      41.905  26.527  27.889  1.00  0.00     0.023 A 
ATOM     69  C   UNL A   1      41.598  27.128  26.652  1.00  0.00     0.012 A 
ATOM     70  C   UNL A   1      42.215  25.144  27.866  1.00  0.00     0.148 A 
ATOM     71  C   UNL A   1      41.621  26.404  25.455  1.00  0.00     0.002 A 
ATOM     72  C   UNL A   1      42.324  24.447  26.663  1.00  0.00     0.091 A 
ATOM     73  F   UNL A   1      42.305  24.457  29.012  1.00  0.00    -0.205 F 
ATOM     74  C   UNL A   1      42.012  25.071  25.454  1.00  0.00     0.022 A 
BRANCH  72  75
ATOM     75  S   UNL A   1      42.920  22.749  26.612  1.00  0.00     0.127 S 
ATOM     76  O   UNL A   1      42.820  22.425  25.191  1.00  0.00    -0.237 OA
ATOM     77  O   UNL A   1      44.292  22.873  27.111  1.00  0.00    -0.237 OA
ATOM     78  O   UNL A   1      42.035  21.997  27.495  1.00  0.00    -0.744 OA
ENDBRANCH  72  75
ENDBRANCH  54  68
BRANCH  55  79
ATOM     79  C   UNL A   1      41.189  33.204  34.795  1.00  0.00     0.023 A 
ATOM     80  C   UNL A   1      41.457  34.589  34.906  1.00  0.00     0.012 A 
ATOM     81  C   UNL A   1      39.865  32.756  34.939  1.00  0.00     0.148 A 
ATOM     82  C   UNL A   1      40.418  35.514  35.021  1.00  0.00     0.002 A 
ATOM     83  C   UNL A   1      38.834  33.684  35.068  1.00  0.00     0.091 A 
ATOM     84  F   UNL A   1      39.617  31.444  34.852  1.00  0.00    -0.205 F 
ATOM     85  C   UNL A   1      39.104  35.062  35.070  1.00  0.00     0.022 A 
BRANCH  83  86
ATOM     86  S   UNL A   1      37.110  33.174  35.092  1.00  0.00     0.127 S 
ATOM     87  O   UNL A   1      36.778  33.334  36.504  1.00  0.00    -0.237 OA
ATOM     88  O   UNL A   1      36.484  34.145  34.196  1.00  0.00    -0.237 OA
ATOM     89  O   UNL A   1      37.117  31.811  34.582  1.00  0.00    -0.744 OA
ENDBRANCH  83  86
ENDBRANCH  55  79
BRANCH  67  90
ATOM     90  C   UNL A   1      43.396  26.303  34.350  1.00  0.00     0.023 A 
ATOM     91  C   UNL A   1      42.229  25.834  34.987  1.00  0.00     0.012 A 
ATOM     92  C   UNL A   1      44.558  25.492  34.483  1.00  0.00     0.148 A 
ATOM     93  C   UNL A   1      42.190  24.602  35.652  1.00  0.00     0.002 A 
ATOM     94  C   UNL A   1      44.537  24.308  35.215  1.00  0.00     0.091 A 
ATOM     95  F   UNL A   1      45.693  25.848  33.876  1.00  0.00    -0.205 F 
ATOM     96  C   UNL A   1      43.346  23.844  35.776  1.00  0.00     0.022 A 
BRANCH  94  97
ATOM     97  S   UNL A   1      46.026  23.356  35.566  1.00  0.00     0.127 S 
ATOM     98  O   UNL A   1      47.034  24.413  35.668  1.00  0.00    -0.237 OA
ATOM     99  O   UNL A   1      45.683  22.716  36.835  1.00  0.00    -0.237 OA
ATOM    100  O   UNL A   1      46.210  22.451  34.440  1.00  0.00    -0.744 OA
ENDBRANCH  94  97
ENDBRANCH  67  90
ENDBRANCH  41  42
ENDBRANCH  33  36
ENDBRANCH  31  32
ENDBRANCH   1  31
TORSDOF 16
ENDMDL
MODEL 2
REMARK VINA RESULT:     -12.6      1.602      2.057
REMARK SMILES Cc1cccc(CC(=O)N2CCC3(CCC(=O)N([C@H](C)C(=O)NCCCNC(=O)c4ccc(-c5c6nc(c(-c7cccc(S(=O)(=O)[O-])c7F)c7ccc([nH]7)c(-c7cccc(S(=O)(=O)[O-])c7F)c7nc(c(-c8cccc(S(=O)(=O)[O-])c8F)c8ccc5[nH]8)C=C7)C=C6)cc4)C3)CC2)c1
REMARK SMILES IDX 25 1 24 2 23 3 21 4 22 5 19 7 20 8 18 9 8 10 9 11 10 12
REMARK SMILES IDX 11 13 95 14 12 15 94 16 13 17 14 18 93 19 15 20 16 21 17 22
REMARK SMILES IDX 7 23 6 24 1 25 2 26 3 27 96 28 4 29 5 30 26 31 27 32 28 33
REMARK SMILES IDX 29 35 30 36 31 37 92 38 32 39 91 40 33 41 34 42 35 43 85 44
REMARK SMILES IDX 36 45 90 46 84 47 86 48 37 49 89 50 83 51 82 52 38 54 70 55
REMARK SMILES IDX 50 56 69 57 51 58 54 59 68 60 87 61 52 62 53 63 67 65 88 66
REMARK SMILES IDX 55 67 39 68 40 69 48 70 41 71 43 72 49 73 42 74 44 75 45 76
REMARK SMILES IDX 46 77 47 78 71 79 72 80 80 81 73 82 75 83 81 84 74 85 76 86
REMARK SMILES IDX 77 87 78 88 79 89 56 90 57 91 65 92 58 93 60 94 66 95 59 96
REMARK SMILES IDX 61 97 62 98 63 99 64 100
REMARK H PARENT 23 6 27 34 86 53 54 64
REMARK Flexibility Score: inf
ROOT
ATOM      1  C   UNL A   1      35.702  30.566  27.660  1.00  0.00     0.042 C 
ENDROOT
BRANCH   1   2
ATOM      2  C   UNL A   1      34.870  29.585  26.866  1.00  0.00     0.117 C 
BRANCH   2   3
ATOM      3  N   UNL A   1      33.743  30.183  26.174  1.00  0.00    -0.354 N 
ATOM      4  C   UNL A   1      32.479  29.686  25.994  1.00  0.00     0.242 C 
ATOM      5  O   UNL A   1      31.607  30.432  25.537  1.00  0.00    -0.273 OA
ATOM      6  H   UNL A   1      33.909  31.069  25.779  1.00  0.00     0.163 HD
BRANCH   4   7
ATOM      7  C   UNL A   1      32.152  28.194  26.273  1.00  0.00     0.171 C 
ATOM      8  C   UNL A   1      31.142  28.051  27.416  1.00  0.00     0.042 C 
BRANCH   7   9
ATOM      9  N   UNL A   1      31.847  27.306  25.131  1.00  0.00    -0.330 N 
ATOM     10  C   UNL A   1      33.713  21.057  25.512  1.00  0.00     0.226 C 
ATOM     11  O   UNL A   1      33.527  20.439  26.569  1.00  0.00    -0.275 OA
ATOM     12  N   UNL A   1      32.838  22.056  25.115  1.00  0.00    -0.342 N 
ATOM     13  C   UNL A   1      31.983  22.709  26.104  1.00  0.00     0.120 C 
ATOM     14  C   UNL A   1      32.652  22.559  23.766  1.00  0.00     0.120 C 
ATOM     15  C   UNL A   1      32.224  24.229  26.084  1.00  0.00     0.030 C 
ATOM     16  C   UNL A   1      33.079  24.014  23.715  1.00  0.00     0.030 C 
ATOM     17  C   UNL A   1      32.196  24.864  24.661  1.00  0.00    -0.008 C 
ATOM     18  C   UNL A   1      30.762  24.893  24.063  1.00  0.00     0.019 C 
ATOM     19  C   UNL A   1      32.793  26.294  24.710  1.00  0.00     0.127 C 
ATOM     20  C   UNL A   1      29.906  26.010  24.606  1.00  0.00     0.101 C 
ATOM     21  C   UNL A   1      30.633  27.322  24.475  1.00  0.00     0.223 C 
ATOM     22  O   UNL A   1      30.122  28.311  23.971  1.00  0.00    -0.275 OA
BRANCH  10  23
ATOM     23  C   UNL A   1      35.045  20.858  24.785  1.00  0.00     0.135 C 
BRANCH  23  24
ATOM     24  C   UNL A   1      36.220  21.722  25.158  1.00  0.00    -0.038 A 
ATOM     25  C   UNL A   1      39.877  21.223  26.132  1.00  0.00     0.044 C 
ATOM     26  C   UNL A   1      38.558  21.877  25.844  1.00  0.00    -0.051 A 
ATOM     27  C   UNL A   1      38.368  23.232  26.131  1.00  0.00     0.003 A 
ATOM     28  C   UNL A   1      37.488  21.135  25.333  1.00  0.00     0.007 A 
ATOM     29  C   UNL A   1      37.128  23.837  25.907  1.00  0.00     0.001 A 
ATOM     30  C   UNL A   1      36.057  23.089  25.418  1.00  0.00     0.004 A 
ENDBRANCH  23  24
ENDBRANCH  10  23
ENDBRANCH   7   9
ENDBRANCH   4   7
ENDBRANCH   2   3
ENDBRANCH   1   2
BRANCH   1  31
ATOM     31  C   UNL A   1      35.061  30.890  28.991  1.00  0.00     0.118 C 
BRANCH  31  32
ATOM     32  N   UNL A   1      34.301  32.139  28.991  1.00  0.00    -0.352 N 
ATOM     33  C   UNL A   1      34.626  33.345  29.593  1.00  0.00     0.251 C 
ATOM     34  H   UNL A   1      33.447  32.121  28.501  1.00  0.00     0.163 HD
ATOM     35  O   UNL A   1      33.828  34.278  29.562  1.00  0.00    -0.269 OA
BRANCH  33  36
ATOM     36  C   UNL A   1      35.990  33.510  30.147  1.00  0.00     0.039 A 
ATOM     37  C   UNL A   1      37.017  33.850  29.260  1.00  0.00     0.014 A 
ATOM     38  C   UNL A   1      36.283  33.000  31.407  1.00  0.00     0.014 A 
ATOM     39  C   UNL A   1      38.311  33.408  29.518  1.00  0.00     0.010 A 
ATOM     40  C   UNL A   1      37.529  32.450  31.606  1.00  0.00     0.010 A 
ATOM     41  C   UNL A   1      38.520  32.596  30.628  1.00  0.00    -0.014 A 
BRANCH  41  42
ATOM     42  C   UNL A   1      39.707  31.792  30.853  1.00  0.00     0.031 A 
ATOM     43  C   UNL A   1      39.850  30.497  30.167  1.00  0.00     0.074 A 
ATOM     44  C   UNL A   1      40.772  32.340  31.482  1.00  0.00     0.049 A 
ATOM     45  N   UNL A   1      40.804  29.672  30.428  1.00  0.00    -0.248 NA
ATOM     46  C   UNL A   1      38.921  30.008  29.150  1.00  0.00     0.031 C 
ATOM     47  C   UNL A   1      42.168  31.917  31.391  1.00  0.00     0.029 A 
ATOM     48  N   UNL A   1      40.772  33.266  32.529  1.00  0.00    -0.354 N 
ATOM     49  C   UNL A   1      40.836  28.778  29.392  1.00  0.00     0.074 A 
ATOM     50  C   UNL A   1      39.566  28.916  28.725  1.00  0.00     0.031 C 
ATOM     51  C   UNL A   1      42.815  32.322  32.494  1.00  0.00     0.029 A 
ATOM     52  C   UNL A   1      41.818  32.874  33.390  1.00  0.00     0.049 A 
ATOM     53  H   UNL A   1      40.167  34.033  32.643  1.00  0.00     0.167 HD
ATOM     54  C   UNL A   1      42.005  28.142  29.122  1.00  0.00     0.034 A 
ATOM     55  C   UNL A   1      41.623  32.499  34.688  1.00  0.00     0.034 A 
ATOM     56  C   UNL A   1      42.971  28.271  30.219  1.00  0.00     0.049 A 
ATOM     57  C   UNL A   1      42.068  31.068  34.981  1.00  0.00     0.074 A 
ATOM     58  C   UNL A   1      44.214  28.849  30.402  1.00  0.00     0.029 A 
ATOM     59  N   UNL A   1      42.553  27.880  31.480  1.00  0.00    -0.354 N 
ATOM     60  N   UNL A   1      42.758  30.309  34.170  1.00  0.00    -0.248 NA
ATOM     61  C   UNL A   1      41.664  30.347  36.190  1.00  0.00     0.031 C 
ATOM     62  C   UNL A   1      44.498  28.849  31.808  1.00  0.00     0.029 A 
ATOM     63  C   UNL A   1      43.452  28.226  32.466  1.00  0.00     0.049 A 
ATOM     64  H   UNL A   1      41.708  27.407  31.653  1.00  0.00     0.167 HD
ATOM     65  C   UNL A   1      42.696  29.006  34.608  1.00  0.00     0.074 A 
ATOM     66  C   UNL A   1      42.053  29.093  35.907  1.00  0.00     0.031 C 
ATOM     67  C   UNL A   1      43.079  27.932  33.846  1.00  0.00     0.034 A 
BRANCH  54  68
ATOM     68  C   UNL A   1      42.302  27.454  27.817  1.00  0.00     0.023 A 
ATOM     69  C   UNL A   1      42.157  28.205  26.634  1.00  0.00     0.012 A 
ATOM     70  C   UNL A   1      42.637  26.085  27.664  1.00  0.00     0.148 A 
ATOM     71  C   UNL A   1      42.356  27.639  25.370  1.00  0.00     0.002 A 
ATOM     72  C   UNL A   1      42.922  25.545  26.410  1.00  0.00     0.091 A 
ATOM     73  F   UNL A   1      42.582  25.259  28.717  1.00  0.00    -0.205 F 
ATOM     74  C   UNL A   1      42.767  26.316  25.257  1.00  0.00     0.022 A 
BRANCH  72  75
ATOM     75  S   UNL A   1      43.551  23.867  26.231  1.00  0.00     0.127 S 
ATOM     76  O   UNL A   1      42.603  23.092  27.028  1.00  0.00    -0.237 OA
ATOM     77  O   UNL A   1      43.457  23.640  24.787  1.00  0.00    -0.237 OA
ATOM     78  O   UNL A   1      44.919  23.907  26.736  1.00  0.00    -0.744 OA
ENDBRANCH  72  75
ENDBRANCH  54  68
BRANCH  55  79
ATOM     79  C   UNL A   1      40.470  33.203  35.324  1.00  0.00     0.023 A 
ATOM     80  C   UNL A   1      39.211  32.561  35.242  1.00  0.00     0.012 A 
ATOM     81  C   UNL A   1      40.657  34.207  36.290  1.00  0.00     0.148 A 
ATOM     82  C   UNL A   1      38.213  32.815  36.184  1.00  0.00     0.002 A 
ATOM     83  C   UNL A   1      39.650  34.466  37.219  1.00  0.00     0.091 A 
ATOM     84  F   UNL A   1      41.841  34.826  36.354  1.00  0.00    -0.205 F 
ATOM     85  C   UNL A   1      38.446  33.745  37.191  1.00  0.00     0.022 A 
BRANCH  83  86
ATOM     86  S   UNL A   1      39.898  35.621  38.573  1.00  0.00     0.127 S 
ATOM     87  O   UNL A   1      38.770  35.300  39.442  1.00  0.00    -0.237 OA
ATOM     88  O   UNL A   1      41.208  35.223  39.088  1.00  0.00    -0.237 OA
ATOM     89  O   UNL A   1      39.878  36.937  37.951  1.00  0.00    -0.744 OA
ENDBRANCH  83  86
ENDBRANCH  55  79
BRANCH  67  90
ATOM     90  C   UNL A   1      43.048  26.490  34.339  1.00  0.00     0.023 A 
ATOM     91  C   UNL A   1      41.904  25.978  34.986  1.00  0.00     0.012 A 
ATOM     92  C   UNL A   1      44.185  25.637  34.297  1.00  0.00     0.148 A 
ATOM     93  C   UNL A   1      41.861  24.675  35.495  1.00  0.00     0.002 A 
ATOM     94  C   UNL A   1      44.166  24.371  34.878  1.00  0.00     0.091 A 
ATOM     95  F   UNL A   1      45.295  26.033  33.668  1.00  0.00    -0.205 F 
ATOM     96  C   UNL A   1      42.994  23.875  35.452  1.00  0.00     0.022 A 
BRANCH  94  97
ATOM     97  S   UNL A   1      45.638  23.341  35.015  1.00  0.00     0.127 S 
ATOM     98  O   UNL A   1      45.476  22.774  36.355  1.00  0.00    -0.237 OA
ATOM     99  O   UNL A   1      45.441  22.389  33.923  1.00  0.00    -0.237 OA
ATOM    100  O   UNL A   1      46.779  24.233  34.868  1.00  0.00    -0.744 OA
ENDBRANCH  94  97
ENDBRANCH  67  90
ENDBRANCH  41  42
ENDBRANCH  33  36
ENDBRANCH  31  32
ENDBRANCH   1  31
TORSDOF 16
ENDMDL
MODEL 3
REMARK VINA RESULT:     -11.8      4.962     10.172
REMARK SMILES Cc1cccc(CC(=O)N2CCC3(CCC(=O)N([C@H](C)C(=O)NCCCNC(=O)c4ccc(-c5c6nc(c(-c7cccc(S(=O)(=O)[O-])c7F)c7ccc([nH]7)c(-c7cccc(S(=O)(=O)[O-])c7F)c7nc(c(-c8cccc(S(=O)(=O)[O-])c8F)c8ccc5[nH]8)C=C7)C=C6)cc4)C3)CC2)c1
REMARK SMILES IDX 25 1 24 2 23 3 21 4 22 5 19 7 20 8 18 9 8 10 9 11 10 12
REMARK SMILES IDX 11 13 95 14 12 15 94 16 13 17 14 18 93 19 15 20 16 21 17 22
REMARK SMILES IDX 7 23 6 24 1 25 2 26 3 27 96 28 4 29 5 30 26 31 27 32 28 33
REMARK SMILES IDX 29 35 30 36 31 37 92 38 32 39 91 40 33 41 34 42 35 43 85 44
REMARK SMILES IDX 36 45 90 46 84 47 86 48 37 49 89 50 83 51 82 52 38 54 70 55
REMARK SMILES IDX 50 56 69 57 51 58 54 59 68 60 87 61 52 62 53 63 67 65 88 66
REMARK SMILES IDX 55 67 39 68 40 69 48 70 41 71 43 72 49 73 42 74 44 75 45 76
REMARK SMILES IDX 46 77 47 78 71 79 72 80 80 81 73 82 75 83 81 84 74 85 76 86
REMARK SMILES IDX 77 87 78 88 79 89 56 90 57 91 65 92 58 93 60 94 66 95 59 96
REMARK SMILES IDX 61 97 62 98 63 99 64 100
REMARK H PARENT 23 6 27 34 86 53 54 64
REMARK Flexibility Score: inf
ROOT
ATOM      1  C   UNL A   1      43.771  31.885  34.682  1.00  0.00     0.042 C 
ENDROOT
BRANCH   1   2
ATOM      2  C   UNL A   1      42.713  32.553  35.530  1.00  0.00     0.117 C 
BRANCH   2   3
ATOM      3  N   UNL A   1      41.913  33.535  34.822  1.00  0.00    -0.354 N 
ATOM      4  C   UNL A   1      40.597  33.870  35.005  1.00  0.00     0.242 C 
ATOM      5  O   UNL A   1      40.152  34.866  34.426  1.00  0.00    -0.273 OA
ATOM      6  H   UNL A   1      42.381  34.031  34.111  1.00  0.00     0.163 HD
BRANCH   4   7
ATOM      7  C   UNL A   1      39.649  32.979  35.852  1.00  0.00     0.171 C 
ATOM      8  C   UNL A   1      38.645  33.828  36.639  1.00  0.00     0.042 C 
BRANCH   7   9
ATOM      9  N   UNL A   1      39.023  31.801  35.216  1.00  0.00    -0.330 N 
ATOM     10  C   UNL A   1      36.298  32.573  29.328  1.00  0.00     0.226 C 
ATOM     11  O   UNL A   1      36.904  33.226  28.469  1.00  0.00    -0.275 OA
ATOM     12  N   UNL A   1      36.994  31.835  30.273  1.00  0.00    -0.342 N 
ATOM     13  C   UNL A   1      38.386  32.163  30.571  1.00  0.00     0.120 C 
ATOM     14  C   UNL A   1      36.485  30.713  31.042  1.00  0.00     0.120 C 
ATOM     15  C   UNL A   1      38.546  32.455  32.075  1.00  0.00     0.030 C 
ATOM     16  C   UNL A   1      36.465  31.086  32.512  1.00  0.00     0.030 C 
ATOM     17  C   UNL A   1      37.901  31.385  33.008  1.00  0.00    -0.008 C 
ATOM     18  C   UNL A   1      38.690  30.045  32.991  1.00  0.00     0.019 C 
ATOM     19  C   UNL A   1      37.800  31.938  34.452  1.00  0.00     0.127 C 
ATOM     20  C   UNL A   1      39.937  30.071  33.839  1.00  0.00     0.101 C 
ATOM     21  C   UNL A   1      39.603  30.549  35.227  1.00  0.00     0.223 C 
ATOM     22  O   UNL A   1      39.949  29.946  36.233  1.00  0.00    -0.275 OA
BRANCH  10  23
ATOM     23  C   UNL A   1      34.790  32.789  29.468  1.00  0.00     0.135 C 
BRANCH  23  24
ATOM     24  C   UNL A   1      34.287  34.054  30.112  1.00  0.00    -0.038 A 
ATOM     25  C   UNL A   1      34.531  35.761  33.518  1.00  0.00     0.044 C 
ATOM     26  C   UNL A   1      34.145  35.467  32.099  1.00  0.00    -0.051 A 
ATOM     27  C   UNL A   1      33.162  36.233  31.463  1.00  0.00     0.003 A 
ATOM     28  C   UNL A   1      34.721  34.395  31.407  1.00  0.00     0.007 A 
ATOM     29  C   UNL A   1      32.765  35.936  30.157  1.00  0.00     0.001 A 
ATOM     30  C   UNL A   1      33.327  34.854  29.479  1.00  0.00     0.004 A 
ENDBRANCH  23  24
ENDBRANCH  10  23
ENDBRANCH   7   9
ENDBRANCH   4   7
ENDBRANCH   2   3
ENDBRANCH   1   2
BRANCH   1  31
ATOM     31  C   UNL A   1      43.558  30.391  34.600  1.00  0.00     0.118 C 
BRANCH  31  32
ATOM     32  N   UNL A   1      43.489  29.732  35.904  1.00  0.00    -0.352 N 
ATOM     33  C   UNL A   1      43.293  28.388  36.180  1.00  0.00     0.251 C 
ATOM     34  H   UNL A   1      43.596  30.320  36.687  1.00  0.00     0.163 HD
ATOM     35  O   UNL A   1      43.180  28.014  37.345  1.00  0.00    -0.269 OA
BRANCH  33  36
ATOM     36  C   UNL A   1      43.355  27.422  35.059  1.00  0.00     0.039 A 
ATOM     37  C   UNL A   1      44.619  27.029  34.606  1.00  0.00     0.014 A 
ATOM     38  C   UNL A   1      42.225  27.209  34.277  1.00  0.00     0.014 A 
ATOM     39  C   UNL A   1      44.786  26.697  33.265  1.00  0.00     0.010 A 
ATOM     40  C   UNL A   1      42.403  27.008  32.928  1.00  0.00     0.010 A 
ATOM     41  C   UNL A   1      43.693  26.822  32.415  1.00  0.00    -0.014 A 
BRANCH  41  42
ATOM     42  C   UNL A   1      43.770  26.842  30.966  1.00  0.00     0.031 A 
ATOM     43  C   UNL A   1      44.087  25.603  30.236  1.00  0.00     0.074 A 
ATOM     44  C   UNL A   1      43.308  27.920  30.290  1.00  0.00     0.049 A 
ATOM     45  N   UNL A   1      44.309  25.579  28.968  1.00  0.00    -0.248 NA
ATOM     46  C   UNL A   1      44.207  24.292  30.873  1.00  0.00     0.031 C 
ATOM     47  C   UNL A   1      42.851  27.966  28.902  1.00  0.00     0.029 A 
ATOM     48  N   UNL A   1      43.377  29.265  30.662  1.00  0.00    -0.354 N 
ATOM     49  C   UNL A   1      44.213  24.268  28.584  1.00  0.00     0.074 A 
ATOM     50  C   UNL A   1      44.319  23.502  29.799  1.00  0.00     0.031 C 
ATOM     51  C   UNL A   1      42.972  29.222  28.449  1.00  0.00     0.029 A 
ATOM     52  C   UNL A   1      43.655  29.980  29.479  1.00  0.00     0.049 A 
ATOM     53  H   UNL A   1      43.256  29.637  31.566  1.00  0.00     0.167 HD
ATOM     54  C   UNL A   1      43.887  23.995  27.294  1.00  0.00     0.034 A 
ATOM     55  C   UNL A   1      44.786  30.724  29.299  1.00  0.00     0.034 A 
ATOM     56  C   UNL A   1      44.023  25.171  26.427  1.00  0.00     0.049 A 
ATOM     57  C   UNL A   1      45.648  30.246  28.133  1.00  0.00     0.074 A 
ATOM     58  C   UNL A   1      43.183  25.964  25.668  1.00  0.00     0.029 A 
ATOM     59  N   UNL A   1      45.246  25.820  26.430  1.00  0.00    -0.354 N 
ATOM     60  N   UNL A   1      45.293  29.357  27.243  1.00  0.00    -0.248 NA
ATOM     61  C   UNL A   1      47.039  30.670  27.955  1.00  0.00     0.031 C 
ATOM     62  C   UNL A   1      43.917  27.131  25.271  1.00  0.00     0.029 A 
ATOM     63  C   UNL A   1      45.211  27.017  25.747  1.00  0.00     0.049 A 
ATOM     64  H   UNL A   1      46.051  25.466  26.871  1.00  0.00     0.167 HD
ATOM     65  C   UNL A   1      46.408  28.935  26.554  1.00  0.00     0.074 A 
ATOM     66  C   UNL A   1      47.463  29.831  26.995  1.00  0.00     0.031 C 
ATOM     67  C   UNL A   1      46.426  27.826  25.750  1.00  0.00     0.034 A 
BRANCH  54  68
ATOM     68  C   UNL A   1      43.368  22.661  26.826  1.00  0.00     0.023 A 
ATOM     69  C   UNL A   1      42.035  22.331  27.142  1.00  0.00     0.012 A 
ATOM     70  C   UNL A   1      44.131  21.667  26.165  1.00  0.00     0.148 A 
ATOM     71  C   UNL A   1      41.481  21.093  26.799  1.00  0.00     0.002 A 
ATOM     72  C   UNL A   1      43.551  20.469  25.746  1.00  0.00     0.091 A 
ATOM     73  F   UNL A   1      45.454  21.817  26.024  1.00  0.00    -0.205 F 
ATOM     74  C   UNL A   1      42.228  20.172  26.075  1.00  0.00     0.022 A 
BRANCH  72  75
ATOM     75  S   UNL A   1      44.455  19.295  24.723  1.00  0.00     0.127 S 
ATOM     76  O   UNL A   1      45.767  19.268  25.365  1.00  0.00    -0.237 OA
ATOM     77  O   UNL A   1      43.676  18.064  24.880  1.00  0.00    -0.237 OA
ATOM     78  O   UNL A   1      44.423  19.847  23.373  1.00  0.00    -0.744 OA
ENDBRANCH  72  75
ENDBRANCH  54  68
BRANCH  55  79
ATOM     79  C   UNL A   1      45.287  31.326  30.570  1.00  0.00     0.023 A 
ATOM     80  C   UNL A   1      46.471  30.768  31.111  1.00  0.00     0.012 A 
ATOM     81  C   UNL A   1      44.886  32.605  30.993  1.00  0.00     0.148 A 
ATOM     82  C   UNL A   1      47.301  31.518  31.946  1.00  0.00     0.002 A 
ATOM     83  C   UNL A   1      45.713  33.343  31.838  1.00  0.00     0.091 A 
ATOM     84  F   UNL A   1      43.757  33.122  30.494  1.00  0.00    -0.205 F 
ATOM     85  C   UNL A   1      46.937  32.817  32.282  1.00  0.00     0.022 A 
BRANCH  83  86
ATOM     86  S   UNL A   1      45.327  35.042  32.278  1.00  0.00     0.127 S 
ATOM     87  O   UNL A   1      46.472  35.394  33.113  1.00  0.00    -0.237 OA
ATOM     88  O   UNL A   1      45.287  35.701  30.974  1.00  0.00    -0.237 OA
ATOM     89  O   UNL A   1      44.038  34.971  32.949  1.00  0.00    -0.744 OA
ENDBRANCH  83  86
ENDBRANCH  55  79
BRANCH  67  90
ATOM     90  C   UNL A   1      47.647  27.375  24.956  1.00  0.00     0.023 A 
ATOM     91  C   UNL A   1      48.747  26.782  25.610  1.00  0.00     0.012 A 
ATOM     92  C   UNL A   1      47.803  27.637  23.567  1.00  0.00     0.148 A 
ATOM     93  C   UNL A   1      49.904  26.403  24.918  1.00  0.00     0.002 A 
ATOM     94  C   UNL A   1      48.987  27.334  22.899  1.00  0.00     0.091 A 
ATOM     95  F   UNL A   1      46.792  28.161  22.868  1.00  0.00    -0.205 F 
ATOM     96  C   UNL A   1      50.029  26.688  23.565  1.00  0.00     0.022 A 
BRANCH  94  97
ATOM     97  S   UNL A   1      49.293  27.824  21.192  1.00  0.00     0.127 S 
ATOM     98  O   UNL A   1      48.755  29.186  21.176  1.00  0.00    -0.237 OA
ATOM     99  O   UNL A   1      50.750  27.743  21.113  1.00  0.00    -0.237 OA
ATOM    100  O   UNL A   1      48.569  26.877  20.357  1.00  0.00    -0.744 OA
ENDBRANCH  94  97
ENDBRANCH  67  90
ENDBRANCH  41  42
ENDBRANCH  33  36
ENDBRANCH  31  32
ENDBRANCH   1  31
TORSDOF 16
ENDMDL
