MODEL 1
REMARK VINA RESULT:     -12.3      0.000      0.000
REMARK SMILES COc1ccc(N2CC[C@H](C(=O)NCCCNC(=O)c3ccc(-c4c5nc(c(-c6cccc(S(=O)(=O)[O-])c6F)c6ccc([nH]6)c(-c6cccc(S(=O)(=O)[O-])c6F)c6nc(c(-c7cccc(S(=O)(=O)[O-])c7F)c7ccc4[nH]7)C=C6)C=C5)cc3)C2=O)cc1
REMARK SMILES IDX 15 1 14 2 13 3 11 4 12 5 10 7 7 8 8 9 83 10 9 11 84 12 6 13
REMARK SMILES IDX 3 14 4 15 86 16 5 17 85 18 2 19 1 20 16 21 17 22 18 23 19 25
REMARK SMILES IDX 20 26 21 27 82 28 22 29 81 30 23 31 24 32 25 33 75 34 26 35
REMARK SMILES IDX 80 36 74 37 76 38 27 39 79 40 73 41 72 42 28 44 60 45 40 46
REMARK SMILES IDX 59 47 41 48 44 49 58 50 77 51 42 52 43 53 57 55 78 56 45 57
REMARK SMILES IDX 29 58 30 59 38 60 31 61 33 62 39 63 32 64 34 65 35 66 36 67
REMARK SMILES IDX 37 68 61 69 62 70 70 71 63 72 65 73 71 74 64 75 66 76 67 77
REMARK SMILES IDX 68 78 69 79 46 80 47 81 55 82 48 83 50 84 56 85 49 86 51 87
REMARK SMILES IDX 52 88 53 89 54 90
REMARK H PARENT 13 6 17 24 76 43 44 54
REMARK Flexibility Score: inf
ROOT
ATOM      1  C   UNL A   1      33.136  29.181  23.832  1.00  0.00     0.042 C 
ENDROOT
BRANCH   1   2
ATOM      2  C   UNL A   1      32.011  28.494  23.063  1.00  0.00     0.117 C 
BRANCH   2   3
ATOM      3  N   UNL A   1      32.503  27.666  21.977  1.00  0.00    -0.355 N 
ATOM      4  C   UNL A   1      32.805  26.338  21.956  1.00  0.00     0.232 C 
ATOM      5  O   UNL A   1      33.253  25.883  20.902  1.00  0.00    -0.274 OA
ATOM      6  H   UNL A   1      32.640  28.136  21.124  1.00  0.00     0.163 HD
BRANCH   4   7
ATOM      7  C   UNL A   1      32.512  25.462  23.158  1.00  0.00     0.169 C 
ATOM      8  N   UNL A   1      32.411  23.129  23.519  1.00  0.00    -0.312 N 
ATOM      9  C   UNL A   1      31.092  23.628  23.802  1.00  0.00     0.127 C 
ATOM     10  C   UNL A   1      33.291  24.165  23.185  1.00  0.00     0.239 C 
ATOM     11  C   UNL A   1      31.054  24.990  23.153  1.00  0.00     0.045 C 
ATOM     12  O   UNL A   1      34.496  24.084  22.979  1.00  0.00    -0.274 OA
BRANCH   8  13
ATOM     13  C   UNL A   1      32.761  21.777  23.748  1.00  0.00     0.044 A 
ATOM     14  C   UNL A   1      33.356  19.066  24.254  1.00  0.00     0.119 A 
ATOM     15  C   UNL A   1      32.469  19.415  23.241  1.00  0.00     0.048 A 
ATOM     16  C   UNL A   1      33.986  20.070  24.986  1.00  0.00     0.048 A 
ATOM     17  C   UNL A   1      32.152  20.756  23.008  1.00  0.00     0.030 A 
ATOM     18  C   UNL A   1      33.702  21.419  24.721  1.00  0.00     0.030 A 
BRANCH  14  19
ATOM     19  O   UNL A   1      33.578  17.725  24.406  1.00  0.00    -0.497 OA
ATOM     20  C   UNL A   1      32.746  17.092  25.373  1.00  0.00     0.278 C 
ENDBRANCH  14  19
ENDBRANCH   8  13
ENDBRANCH   4   7
ENDBRANCH   2   3
ENDBRANCH   1   2
BRANCH   1  21
ATOM     21  C   UNL A   1      32.979  29.180  25.350  1.00  0.00     0.118 C 
BRANCH  21  22
ATOM     22  N   UNL A   1      32.512  30.452  25.886  1.00  0.00    -0.352 N 
ATOM     23  C   UNL A   1      33.032  31.235  26.889  1.00  0.00     0.251 C 
ATOM     24  H   UNL A   1      31.698  30.808  25.463  1.00  0.00     0.163 HD
ATOM     25  O   UNL A   1      32.399  32.215  27.276  1.00  0.00    -0.269 OA
BRANCH  23  26
ATOM     26  C   UNL A   1      34.328  30.898  27.524  1.00  0.00     0.039 A 
ATOM     27  C   UNL A   1      35.275  31.913  27.698  1.00  0.00     0.014 A 
ATOM     28  C   UNL A   1      34.625  29.595  27.930  1.00  0.00     0.014 A 
ATOM     29  C   UNL A   1      36.484  31.637  28.345  1.00  0.00     0.010 A 
ATOM     30  C   UNL A   1      35.798  29.337  28.638  1.00  0.00     0.010 A 
ATOM     31  C   UNL A   1      36.740  30.354  28.856  1.00  0.00    -0.014 A 
BRANCH  31  32
ATOM     32  C   UNL A   1      37.967  30.063  29.644  1.00  0.00     0.031 A 
ATOM     33  C   UNL A   1      39.005  29.109  29.118  1.00  0.00     0.074 A 
ATOM     34  C   UNL A   1      38.100  30.584  30.880  1.00  0.00     0.049 A 
ATOM     35  N   UNL A   1      40.099  28.680  29.695  1.00  0.00    -0.248 NA
ATOM     36  C   UNL A   1      38.773  28.544  27.779  1.00  0.00     0.031 C 
ATOM     37  C   UNL A   1      37.129  31.461  31.538  1.00  0.00     0.029 A 
ATOM     38  N   UNL A   1      39.091  30.427  31.818  1.00  0.00    -0.354 N 
ATOM     39  C   UNL A   1      40.664  27.769  28.809  1.00  0.00     0.074 A 
ATOM     40  C   UNL A   1      39.778  27.686  27.668  1.00  0.00     0.031 C 
ATOM     41  C   UNL A   1      37.573  31.766  32.768  1.00  0.00     0.029 A 
ATOM     42  C   UNL A   1      38.842  31.085  33.000  1.00  0.00     0.049 A 
ATOM     43  H   UNL A   1      39.904  29.894  31.659  1.00  0.00     0.167 HD
ATOM     44  C   UNL A   1      41.829  27.087  28.921  1.00  0.00     0.034 A 
ATOM     45  C   UNL A   1      39.553  31.132  34.145  1.00  0.00     0.034 A 
ATOM     46  C   UNL A   1      42.733  27.208  30.033  1.00  0.00     0.049 A 
ATOM     47  C   UNL A   1      40.863  30.397  34.226  1.00  0.00     0.074 A 
ATOM     48  C   UNL A   1      43.979  26.627  30.196  1.00  0.00     0.029 A 
ATOM     49  N   UNL A   1      42.490  27.956  31.174  1.00  0.00    -0.354 N 
ATOM     50  N   UNL A   1      41.459  29.670  33.312  1.00  0.00    -0.248 NA
ATOM     51  C   UNL A   1      41.617  30.517  35.482  1.00  0.00     0.031 C 
ATOM     52  C   UNL A   1      44.483  27.014  31.442  1.00  0.00     0.029 A 
ATOM     53  C   UNL A   1      43.558  27.849  32.048  1.00  0.00     0.049 A 
ATOM     54  H   UNL A   1      41.677  28.486  31.338  1.00  0.00     0.167 HD
ATOM     55  C   UNL A   1      42.671  29.275  33.869  1.00  0.00     0.074 A 
ATOM     56  C   UNL A   1      42.733  29.862  35.192  1.00  0.00     0.031 C 
ATOM     57  C   UNL A   1      43.637  28.485  33.338  1.00  0.00     0.034 A 
BRANCH  44  58
ATOM     58  C   UNL A   1      42.227  26.195  27.773  1.00  0.00     0.023 A 
ATOM     59  C   UNL A   1      43.058  26.709  26.756  1.00  0.00     0.012 A 
ATOM     60  C   UNL A   1      41.832  24.844  27.725  1.00  0.00     0.148 A 
ATOM     61  C   UNL A   1      43.461  25.904  25.692  1.00  0.00     0.002 A 
ATOM     62  C   UNL A   1      42.273  24.036  26.682  1.00  0.00     0.091 A 
ATOM     63  F   UNL A   1      41.025  24.377  28.688  1.00  0.00    -0.205 F 
ATOM     64  C   UNL A   1      43.077  24.566  25.660  1.00  0.00     0.022 A 
BRANCH  62  65
ATOM     65  S   UNL A   1      41.895  22.281  26.593  1.00  0.00     0.127 S 
ATOM     66  O   UNL A   1      40.438  22.297  26.482  1.00  0.00    -0.237 OA
ATOM     67  O   UNL A   1      42.594  21.874  25.373  1.00  0.00    -0.237 OA
ATOM     68  O   UNL A   1      42.427  21.697  27.817  1.00  0.00    -0.744 OA
ENDBRANCH  62  65
ENDBRANCH  44  58
BRANCH  45  69
ATOM     69  C   UNL A   1      39.077  31.974  35.279  1.00  0.00     0.023 A 
ATOM     70  C   UNL A   1      39.225  33.372  35.202  1.00  0.00     0.012 A 
ATOM     71  C   UNL A   1      38.454  31.411  36.409  1.00  0.00     0.148 A 
ATOM     72  C   UNL A   1      38.785  34.194  36.241  1.00  0.00     0.002 A 
ATOM     73  C   UNL A   1      37.971  32.238  37.418  1.00  0.00     0.091 A 
ATOM     74  F   UNL A   1      38.335  30.076  36.471  1.00  0.00    -0.205 F 
ATOM     75  C   UNL A   1      38.150  33.628  37.342  1.00  0.00     0.022 A 
BRANCH  73  76
ATOM     76  S   UNL A   1      37.028  31.609  38.811  1.00  0.00     0.127 S 
ATOM     77  O   UNL A   1      36.827  30.213  38.432  1.00  0.00    -0.237 OA
ATOM     78  O   UNL A   1      37.956  31.817  39.924  1.00  0.00    -0.237 OA
ATOM     79  O   UNL A   1      35.826  32.430  38.874  1.00  0.00    -0.744 OA
ENDBRANCH  73  76
ENDBRANCH  45  69
BRANCH  57  80
ATOM     80  C   UNL A   1      44.865  28.226  34.171  1.00  0.00     0.023 A 
ATOM     81  C   UNL A   1      45.950  29.123  34.110  1.00  0.00     0.012 A 
ATOM     82  C   UNL A   1      44.911  27.142  35.070  1.00  0.00     0.148 A 
ATOM     83  C   UNL A   1      47.075  28.929  34.911  1.00  0.00     0.002 A 
ATOM     84  C   UNL A   1      46.016  26.981  35.897  1.00  0.00     0.091 A 
ATOM     85  F   UNL A   1      43.878  26.289  35.098  1.00  0.00    -0.205 F 
ATOM     86  C   UNL A   1      47.103  27.866  35.812  1.00  0.00     0.022 A 
BRANCH  84  87
ATOM     87  S   UNL A   1      46.098  25.697  37.151  1.00  0.00     0.127 S 
ATOM     88  O   UNL A   1      47.320  26.058  37.868  1.00  0.00    -0.237 OA
ATOM     89  O   UNL A   1      44.863  25.915  37.904  1.00  0.00    -0.237 OA
ATOM     90  O   UNL A   1      46.147  24.434  36.427  1.00  0.00    -0.744 OA
ENDBRANCH  84  87
ENDBRANCH  57  80
ENDBRANCH  31  32
ENDBRANCH  23  26
ENDBRANCH  21  22
ENDBRANCH   1  21
TORSDOF 15
ENDMDL
MODEL 2
REMARK VINA RESULT:     -12.3      5.434      8.092
REMARK SMILES COc1ccc(N2CC[C@H](C(=O)NCCCNC(=O)c3ccc(-c4c5nc(c(-c6cccc(S(=O)(=O)[O-])c6F)c6ccc([nH]6)c(-c6cccc(S(=O)(=O)[O-])c6F)c6nc(c(-c7cccc(S(=O)(=O)[O-])c7F)c7ccc4[nH]7)C=C6)C=C5)cc3)C2=O)cc1
REMARK SMILES IDX 15 1 14 2 13 3 11 4 12 5 10 7 7 8 8 9 83 10 9 11 84 12 6 13
REMARK SMILES IDX 3 14 4 15 86 16 5 17 85 18 2 19 1 20 16 21 17 22 18 23 19 25
REMARK SMILES IDX 20 26 21 27 82 28 22 29 81 30 23 31 24 32 25 33 75 34 26 35
REMARK SMILES IDX 80 36 74 37 76 38 27 39 79 40 73 41 72 42 28 44 60 45 40 46
REMARK SMILES IDX 59 47 41 48 44 49 58 50 77 51 42 52 43 53 57 55 78 56 45 57
REMARK SMILES IDX 29 58 30 59 38 60 31 61 33 62 39 63 32 64 34 65 35 66 36 67
REMARK SMILES IDX 37 68 61 69 62 70 70 71 63 72 65 73 71 74 64 75 66 76 67 77
REMARK SMILES IDX 68 78 69 79 46 80 47 81 55 82 48 83 50 84 56 85 49 86 51 87
REMARK SMILES IDX 52 88 53 89 54 90
REMARK H PARENT 13 6 17 24 76 43 44 54
REMARK Flexibility Score: inf
ROOT
ATOM      1  C   UNL A   1      35.336  21.504  24.753  1.00  0.00     0.042 C 
ENDROOT
BRANCH   1   2
ATOM      2  C   UNL A   1      34.161  20.721  25.331  1.00  0.00     0.117 C 
BRANCH   2   3
ATOM      3  N   UNL A   1      33.854  21.104  26.697  1.00  0.00    -0.355 N 
ATOM      4  C   UNL A   1      33.061  22.106  27.168  1.00  0.00     0.232 C 
ATOM      5  O   UNL A   1      33.005  22.247  28.391  1.00  0.00    -0.274 OA
ATOM      6  H   UNL A   1      34.285  20.555  27.390  1.00  0.00     0.163 HD
BRANCH   4   7
ATOM      7  C   UNL A   1      32.227  22.941  26.217  1.00  0.00     0.169 C 
ATOM      8  N   UNL A   1      31.508  25.191  26.187  1.00  0.00    -0.312 N 
ATOM      9  C   UNL A   1      30.310  24.396  26.235  1.00  0.00     0.127 C 
ATOM     10  C   UNL A   1      32.654  24.390  26.126  1.00  0.00     0.239 C 
ATOM     11  C   UNL A   1      30.775  23.037  26.697  1.00  0.00     0.045 C 
ATOM     12  O   UNL A   1      33.815  24.756  25.986  1.00  0.00    -0.274 OA
BRANCH   8  13
ATOM     13  C   UNL A   1      31.463  26.598  26.033  1.00  0.00     0.044 A 
ATOM     14  C   UNL A   1      31.468  29.395  25.664  1.00  0.00     0.119 A 
ATOM     15  C   UNL A   1      31.093  28.548  24.625  1.00  0.00     0.048 A 
ATOM     16  C   UNL A   1      31.796  28.851  26.904  1.00  0.00     0.048 A 
ATOM     17  C   UNL A   1      31.117  27.161  24.799  1.00  0.00     0.030 A 
ATOM     18  C   UNL A   1      31.774  27.460  27.091  1.00  0.00     0.030 A 
BRANCH  14  19
ATOM     19  O   UNL A   1      31.427  30.731  25.378  1.00  0.00    -0.497 OA
ATOM     20  C   UNL A   1      31.409  31.582  26.520  1.00  0.00     0.278 C 
ENDBRANCH  14  19
ENDBRANCH   8  13
ENDBRANCH   4   7
ENDBRANCH   2   3
ENDBRANCH   1   2
BRANCH   1  21
ATOM     21  C   UNL A   1      36.430  21.864  25.754  1.00  0.00     0.118 C 
BRANCH  21  22
ATOM     22  N   UNL A   1      37.527  20.905  25.784  1.00  0.00    -0.352 N 
ATOM     23  C   UNL A   1      38.867  21.099  26.022  1.00  0.00     0.251 C 
ATOM     24  H   UNL A   1      37.269  19.973  25.606  1.00  0.00     0.163 HD
ATOM     25  O   UNL A   1      39.647  20.163  25.865  1.00  0.00    -0.269 OA
BRANCH  23  26
ATOM     26  C   UNL A   1      39.382  22.425  26.438  1.00  0.00     0.039 A 
ATOM     27  C   UNL A   1      40.433  22.478  27.361  1.00  0.00     0.014 A 
ATOM     28  C   UNL A   1      38.831  23.610  25.945  1.00  0.00     0.014 A 
ATOM     29  C   UNL A   1      40.978  23.713  27.728  1.00  0.00     0.010 A 
ATOM     30  C   UNL A   1      39.421  24.834  26.257  1.00  0.00     0.010 A 
ATOM     31  C   UNL A   1      40.501  24.901  27.150  1.00  0.00    -0.014 A 
BRANCH  31  32
ATOM     32  C   UNL A   1      41.136  26.214  27.440  1.00  0.00     0.031 A 
ATOM     33  C   UNL A   1      42.556  26.485  27.024  1.00  0.00     0.074 A 
ATOM     34  C   UNL A   1      40.463  27.129  28.166  1.00  0.00     0.049 A 
ATOM     35  N   UNL A   1      43.296  27.540  27.254  1.00  0.00    -0.248 NA
ATOM     36  C   UNL A   1      43.244  25.424  26.271  1.00  0.00     0.031 C 
ATOM     37  C   UNL A   1      39.109  26.959  28.697  1.00  0.00     0.029 A 
ATOM     38  N   UNL A   1      40.839  28.373  28.611  1.00  0.00    -0.354 N 
ATOM     39  C   UNL A   1      44.544  27.255  26.711  1.00  0.00     0.074 A 
ATOM     40  C   UNL A   1      44.470  25.918  26.164  1.00  0.00     0.031 C 
ATOM     41  C   UNL A   1      38.767  28.056  29.392  1.00  0.00     0.029 A 
ATOM     42  C   UNL A   1      39.884  28.995  29.383  1.00  0.00     0.049 A 
ATOM     43  H   UNL A   1      41.709  28.781  28.398  1.00  0.00     0.167 HD
ATOM     44  C   UNL A   1      45.642  28.046  26.646  1.00  0.00     0.034 A 
ATOM     45  C   UNL A   1      39.906  30.184  30.017  1.00  0.00     0.034 A 
ATOM     46  C   UNL A   1      45.699  29.394  27.146  1.00  0.00     0.049 A 
ATOM     47  C   UNL A   1      41.124  31.059  29.893  1.00  0.00     0.074 A 
ATOM     48  C   UNL A   1      46.736  30.305  27.047  1.00  0.00     0.029 A 
ATOM     49  N   UNL A   1      44.680  30.024  27.843  1.00  0.00    -0.354 N 
ATOM     50  N   UNL A   1      42.236  30.836  29.235  1.00  0.00    -0.248 NA
ATOM     51  C   UNL A   1      41.078  32.364  30.569  1.00  0.00     0.031 C 
ATOM     52  C   UNL A   1      46.348  31.482  27.695  1.00  0.00     0.029 A 
ATOM     53  C   UNL A   1      45.063  31.309  28.184  1.00  0.00     0.049 A 
ATOM     54  H   UNL A   1      43.811  29.617  28.061  1.00  0.00     0.167 HD
ATOM     55  C   UNL A   1      43.007  31.984  29.388  1.00  0.00     0.074 A 
ATOM     56  C   UNL A   1      42.225  32.908  30.184  1.00  0.00     0.031 C 
ATOM     57  C   UNL A   1      44.254  32.243  28.925  1.00  0.00     0.034 A 
BRANCH  44  58
ATOM     58  C   UNL A   1      46.857  27.495  25.946  1.00  0.00     0.023 A 
ATOM     59  C   UNL A   1      47.704  26.601  26.633  1.00  0.00     0.012 A 
ATOM     60  C   UNL A   1      47.134  27.812  24.601  1.00  0.00     0.148 A 
ATOM     61  C   UNL A   1      48.825  26.058  26.007  1.00  0.00     0.002 A 
ATOM     62  C   UNL A   1      48.231  27.233  23.970  1.00  0.00     0.091 A 
ATOM     63  F   UNL A   1      46.332  28.680  23.969  1.00  0.00    -0.205 F 
ATOM     64  C   UNL A   1      49.082  26.366  24.674  1.00  0.00     0.022 A 
BRANCH  62  65
ATOM     65  S   UNL A   1      48.602  27.508  22.234  1.00  0.00     0.127 S 
ATOM     66  O   UNL A   1      47.392  28.188  21.777  1.00  0.00    -0.237 OA
ATOM     67  O   UNL A   1      49.791  28.360  22.301  1.00  0.00    -0.237 OA
ATOM     68  O   UNL A   1      48.836  26.189  21.663  1.00  0.00    -0.744 OA
ENDBRANCH  62  65
ENDBRANCH  44  58
BRANCH  45  69
ATOM     69  C   UNL A   1      38.701  30.653  30.758  1.00  0.00     0.023 A 
ATOM     70  C   UNL A   1      38.636  30.457  32.151  1.00  0.00     0.012 A 
ATOM     71  C   UNL A   1      37.643  31.316  30.108  1.00  0.00     0.148 A 
ATOM     72  C   UNL A   1      37.528  30.888  32.881  1.00  0.00     0.002 A 
ATOM     73  C   UNL A   1      36.564  31.789  30.849  1.00  0.00     0.091 A 
ATOM     74  F   UNL A   1      37.715  31.480  28.779  1.00  0.00    -0.205 F 
ATOM     75  C   UNL A   1      36.498  31.562  32.232  1.00  0.00     0.022 A 
BRANCH  73  76
ATOM     76  S   UNL A   1      35.254  32.779  30.118  1.00  0.00     0.127 S 
ATOM     77  O   UNL A   1      34.701  31.860  29.127  1.00  0.00    -0.237 OA
ATOM     78  O   UNL A   1      34.389  33.035  31.271  1.00  0.00    -0.237 OA
ATOM     79  O   UNL A   1      35.911  33.967  29.588  1.00  0.00    -0.744 OA
ENDBRANCH  73  76
ENDBRANCH  45  69
BRANCH  57  80
ATOM     80  C   UNL A   1      44.851  33.590  29.237  1.00  0.00     0.023 A 
ATOM     81  C   UNL A   1      45.655  33.748  30.384  1.00  0.00     0.012 A 
ATOM     82  C   UNL A   1      44.682  34.676  28.356  1.00  0.00     0.148 A 
ATOM     83  C   UNL A   1      46.258  34.974  30.663  1.00  0.00     0.002 A 
ATOM     84  C   UNL A   1      45.322  35.881  28.617  1.00  0.00     0.091 A 
ATOM     85  F   UNL A   1      43.897  34.512  27.282  1.00  0.00    -0.205 F 
ATOM     86  C   UNL A   1      46.102  36.036  29.774  1.00  0.00     0.022 A 
BRANCH  84  87
ATOM     87  S   UNL A   1      45.252  37.272  27.481  1.00  0.00     0.127 S 
ATOM     88  O   UNL A   1      46.262  36.899  26.491  1.00  0.00    -0.237 OA
ATOM     89  O   UNL A   1      43.873  37.212  26.997  1.00  0.00    -0.237 OA
ATOM     90  O   UNL A   1      45.561  38.453  28.277  1.00  0.00    -0.744 OA
ENDBRANCH  84  87
ENDBRANCH  57  80
ENDBRANCH  31  32
ENDBRANCH  23  26
ENDBRANCH  21  22
ENDBRANCH   1  21
TORSDOF 15
ENDMDL
MODEL 3
REMARK VINA RESULT:     -12.2      2.499      3.268
REMARK SMILES COc1ccc(N2CC[C@H](C(=O)NCCCNC(=O)c3ccc(-c4c5nc(c(-c6cccc(S(=O)(=O)[O-])c6F)c6ccc([nH]6)c(-c6cccc(S(=O)(=O)[O-])c6F)c6nc(c(-c7cccc(S(=O)(=O)[O-])c7F)c7ccc4[nH]7)C=C6)C=C5)cc3)C2=O)cc1
REMARK SMILES IDX 15 1 14 2 13 3 11 4 12 5 10 7 7 8 8 9 83 10 9 11 84 12 6 13
REMARK SMILES IDX 3 14 4 15 86 16 5 17 85 18 2 19 1 20 16 21 17 22 18 23 19 25
REMARK SMILES IDX 20 26 21 27 82 28 22 29 81 30 23 31 24 32 25 33 75 34 26 35
REMARK SMILES IDX 80 36 74 37 76 38 27 39 79 40 73 41 72 42 28 44 60 45 40 46
REMARK SMILES IDX 59 47 41 48 44 49 58 50 77 51 42 52 43 53 57 55 78 56 45 57
REMARK SMILES IDX 29 58 30 59 38 60 31 61 33 62 39 63 32 64 34 65 35 66 36 67
REMARK SMILES IDX 37 68 61 69 62 70 70 71 63 72 65 73 71 74 64 75 66 76 67 77
REMARK SMILES IDX 68 78 69 79 46 80 47 81 55 82 48 83 50 84 56 85 49 86 51 87
REMARK SMILES IDX 52 88 53 89 54 90
REMARK H PARENT 13 6 17 24 76 43 44 54
REMARK Flexibility Score: inf
ROOT
ATOM      1  C   UNL A   1      31.408  32.143  26.737  1.00  0.00     0.042 C 
ENDROOT
BRANCH   1   2
ATOM      2  C   UNL A   1      31.623  30.688  26.331  1.00  0.00     0.117 C 
BRANCH   2   3
ATOM      3  N   UNL A   1      31.176  30.416  24.977  1.00  0.00    -0.355 N 
ATOM      4  C   UNL A   1      31.072  29.233  24.310  1.00  0.00     0.232 C 
ATOM      5  O   UNL A   1      30.700  29.284  23.135  1.00  0.00    -0.274 OA
ATOM      6  H   UNL A   1      30.905  31.209  24.460  1.00  0.00     0.163 HD
BRANCH   4   7
ATOM      7  C   UNL A   1      31.322  27.920  25.025  1.00  0.00     0.169 C 
ATOM      8  N   UNL A   1      32.669  26.029  24.590  1.00  0.00    -0.312 N 
ATOM      9  C   UNL A   1      31.312  25.552  24.592  1.00  0.00     0.127 C 
ATOM     10  C   UNL A   1      32.734  27.396  24.885  1.00  0.00     0.239 C 
ATOM     11  C   UNL A   1      30.473  26.795  24.423  1.00  0.00     0.045 C 
ATOM     12  O   UNL A   1      33.739  28.078  25.047  1.00  0.00    -0.274 OA
BRANCH   8  13
ATOM     13  C   UNL A   1      33.770  25.145  24.481  1.00  0.00     0.044 A 
ATOM     14  C   UNL A   1      35.888  23.295  24.268  1.00  0.00     0.119 A 
ATOM     15  C   UNL A   1      35.058  23.543  23.179  1.00  0.00     0.048 A 
ATOM     16  C   UNL A   1      35.693  24.003  25.452  1.00  0.00     0.048 A 
ATOM     17  C   UNL A   1      33.992  24.439  23.292  1.00  0.00     0.030 A 
ATOM     18  C   UNL A   1      34.650  24.937  25.549  1.00  0.00     0.030 A 
BRANCH  14  19
ATOM     19  O   UNL A   1      36.887  22.387  24.051  1.00  0.00    -0.497 OA
ATOM     20  C   UNL A   1      36.890  21.281  24.949  1.00  0.00     0.278 C 
ENDBRANCH  14  19
ENDBRANCH   8  13
ENDBRANCH   4   7
ENDBRANCH   2   3
ENDBRANCH   1   2
BRANCH   1  21
ATOM     21  C   UNL A   1      32.684  32.958  26.929  1.00  0.00     0.118 C 
BRANCH  21  22
ATOM     22  N   UNL A   1      32.474  34.200  27.663  1.00  0.00    -0.352 N 
ATOM     23  C   UNL A   1      33.106  34.684  28.784  1.00  0.00     0.251 C 
ATOM     24  H   UNL A   1      31.770  34.783  27.299  1.00  0.00     0.163 HD
ATOM     25  O   UNL A   1      32.677  35.702  29.323  1.00  0.00    -0.269 OA
BRANCH  23  26
ATOM     26  C   UNL A   1      34.275  33.981  29.362  1.00  0.00     0.039 A 
ATOM     27  C   UNL A   1      35.556  34.329  28.917  1.00  0.00     0.014 A 
ATOM     28  C   UNL A   1      34.123  32.975  30.319  1.00  0.00     0.014 A 
ATOM     29  C   UNL A   1      36.681  33.724  29.485  1.00  0.00     0.010 A 
ATOM     30  C   UNL A   1      35.247  32.425  30.934  1.00  0.00     0.010 A 
ATOM     31  C   UNL A   1      36.538  32.793  30.527  1.00  0.00    -0.014 A 
BRANCH  31  32
ATOM     32  C   UNL A   1      37.720  32.219  31.222  1.00  0.00     0.031 A 
ATOM     33  C   UNL A   1      38.481  31.072  30.615  1.00  0.00     0.074 A 
ATOM     34  C   UNL A   1      38.050  32.667  32.450  1.00  0.00     0.049 A 
ATOM     35  N   UNL A   1      39.489  30.397  31.108  1.00  0.00    -0.248 NA
ATOM     36  C   UNL A   1      38.038  30.605  29.291  1.00  0.00     0.031 C 
ATOM     37  C   UNL A   1      37.346  33.722  33.183  1.00  0.00     0.029 A 
ATOM     38  N   UNL A   1      39.043  32.272  33.312  1.00  0.00    -0.354 N 
ATOM     39  C   UNL A   1      39.775  29.405  30.177  1.00  0.00     0.074 A 
ATOM     40  C   UNL A   1      38.817  29.548  29.102  1.00  0.00     0.031 C 
ATOM     41  C   UNL A   1      37.929  33.891  34.381  1.00  0.00     0.029 A 
ATOM     42  C   UNL A   1      39.028  32.940  34.515  1.00  0.00     0.049 A 
ATOM     43  H   UNL A   1      39.703  31.577  33.091  1.00  0.00     0.167 HD
ATOM     44  C   UNL A   1      40.763  28.479  30.199  1.00  0.00     0.034 A 
ATOM     45  C   UNL A   1      39.807  32.801  35.606  1.00  0.00     0.034 A 
ATOM     46  C   UNL A   1      41.746  28.369  31.244  1.00  0.00     0.049 A 
ATOM     47  C   UNL A   1      40.923  31.792  35.587  1.00  0.00     0.074 A 
ATOM     48  C   UNL A   1      42.838  27.523  31.313  1.00  0.00     0.029 A 
ATOM     49  N   UNL A   1      41.753  29.125  32.406  1.00  0.00    -0.354 N 
ATOM     50  N   UNL A   1      41.278  30.973  34.627  1.00  0.00    -0.248 NA
ATOM     51  C   UNL A   1      41.769  31.711  36.787  1.00  0.00     0.031 C 
ATOM     52  C   UNL A   1      43.500  27.759  32.522  1.00  0.00     0.029 A 
ATOM     53  C   UNL A   1      42.828  28.763  33.200  1.00  0.00     0.049 A 
ATOM     54  H   UNL A   1      41.092  29.818  32.633  1.00  0.00     0.167 HD
ATOM     55  C   UNL A   1      42.407  30.306  35.091  1.00  0.00     0.074 A 
ATOM     56  C   UNL A   1      42.688  30.833  36.411  1.00  0.00     0.031 C 
ATOM     57  C   UNL A   1      43.134  29.335  34.486  1.00  0.00     0.034 A 
BRANCH  44  58
ATOM     58  C   UNL A   1      40.874  27.549  29.018  1.00  0.00     0.023 A 
ATOM     59  C   UNL A   1      40.029  26.423  28.944  1.00  0.00     0.012 A 
ATOM     60  C   UNL A   1      41.767  27.813  27.960  1.00  0.00     0.148 A 
ATOM     61  C   UNL A   1      40.093  25.555  27.855  1.00  0.00     0.002 A 
ATOM     62  C   UNL A   1      41.795  26.965  26.858  1.00  0.00     0.091 A 
ATOM     63  F   UNL A   1      42.579  28.875  28.056  1.00  0.00    -0.205 F 
ATOM     64  C   UNL A   1      40.968  25.831  26.809  1.00  0.00     0.022 A 
BRANCH  62  65
ATOM     65  S   UNL A   1      42.834  27.278  25.425  1.00  0.00     0.127 S 
ATOM     66  O   UNL A   1      42.167  28.431  24.823  1.00  0.00    -0.237 OA
ATOM     67  O   UNL A   1      44.129  27.576  26.040  1.00  0.00    -0.237 OA
ATOM     68  O   UNL A   1      42.807  26.053  24.638  1.00  0.00    -0.744 OA
ENDBRANCH  62  65
ENDBRANCH  44  58
BRANCH  45  69
ATOM     69  C   UNL A   1      39.610  33.699  36.779  1.00  0.00     0.023 A 
ATOM     70  C   UNL A   1      39.995  35.050  36.678  1.00  0.00     0.012 A 
ATOM     71  C   UNL A   1      39.016  33.242  37.971  1.00  0.00     0.148 A 
ATOM     72  C   UNL A   1      39.819  35.924  37.752  1.00  0.00     0.002 A 
ATOM     73  C   UNL A   1      38.796  34.130  39.019  1.00  0.00     0.091 A 
ATOM     74  F   UNL A   1      38.668  31.950  38.053  1.00  0.00    -0.205 F 
ATOM     75  C   UNL A   1      39.211  35.466  38.917  1.00  0.00     0.022 A 
BRANCH  73  76
ATOM     76  S   UNL A   1      37.905  33.661  40.507  1.00  0.00     0.127 S 
ATOM     77  O   UNL A   1      36.671  33.107  39.956  1.00  0.00    -0.237 OA
ATOM     78  O   UNL A   1      38.809  32.676  41.104  1.00  0.00    -0.237 OA
ATOM     79  O   UNL A   1      37.762  34.887  41.281  1.00  0.00    -0.744 OA
ENDBRANCH  73  76
ENDBRANCH  45  69
BRANCH  57  80
ATOM     80  C   UNL A   1      44.327  28.791  35.226  1.00  0.00     0.023 A 
ATOM     81  C   UNL A   1      45.594  29.377  35.034  1.00  0.00     0.012 A 
ATOM     82  C   UNL A   1      44.180  27.753  36.169  1.00  0.00     0.148 A 
ATOM     83  C   UNL A   1      46.702  28.920  35.748  1.00  0.00     0.002 A 
ATOM     84  C   UNL A   1      45.279  27.335  36.909  1.00  0.00     0.091 A 
ATOM     85  F   UNL A   1      42.971  27.195  36.322  1.00  0.00    -0.205 F 
ATOM     86  C   UNL A   1      46.542  27.909  36.693  1.00  0.00     0.022 A 
BRANCH  84  87
ATOM     87  S   UNL A   1      45.148  26.104  38.211  1.00  0.00     0.127 S 
ATOM     88  O   UNL A   1      44.178  26.725  39.112  1.00  0.00    -0.237 OA
ATOM     89  O   UNL A   1      44.645  24.935  37.488  1.00  0.00    -0.237 OA
ATOM     90  O   UNL A   1      46.492  25.946  38.749  1.00  0.00    -0.744 OA
ENDBRANCH  84  87
ENDBRANCH  57  80
ENDBRANCH  31  32
ENDBRANCH  23  26
ENDBRANCH  21  22
ENDBRANCH   1  21
TORSDOF 15
ENDMDL
