MODEL 1
REMARK VINA RESULT:     -10.3      0.000      0.000
REMARK SMILES COC(=O)[C@@H]1[C@@H](NC(=O)COCC(=O)NCCCNC(=O)c2ccc(-c3c4nc(c(-c5cccc(S(=O)(=O)[O-])c5F)c5ccc([nH]5)c(-c5cccc(S(=O)(=O)[O-])c5F)c5nc(c(-c6cccc(S(=O)(=O)[O-])c6F)c6ccc3[nH]6)C=C5)C=C4)cc2)CCN1C(C)=O
REMARK SMILES IDX 13 1 14 2 15 3 12 5 11 6 10 7 8 8 7 9 9 11 6 12 5 13 87 14
REMARK SMILES IDX 85 15 86 16 3 17 4 18 2 19 1 20 88 21 89 22 90 23 16 24
REMARK SMILES IDX 17 25 18 26 19 27 20 28 21 30 22 31 23 32 84 33 24 34 83 35
REMARK SMILES IDX 25 36 26 37 27 38 77 39 28 40 82 41 76 42 78 43 29 44 81 45
REMARK SMILES IDX 75 46 74 47 30 49 62 50 42 51 61 52 43 53 46 54 60 55 79 56
REMARK SMILES IDX 44 57 45 58 59 60 80 61 47 62 31 63 32 64 40 65 33 66 35 67
REMARK SMILES IDX 41 68 34 69 36 70 37 71 38 72 39 73 63 74 64 75 72 76 65 77
REMARK SMILES IDX 67 78 73 79 66 80 68 81 69 82 70 83 71 84 48 85 49 86 57 87
REMARK SMILES IDX 50 88 52 89 58 90 51 91 53 92 54 93 55 94 56 95
REMARK H PARENT 15 4 7 10 19 29 78 48 46 59
REMARK Flexibility Score: inf
ROOT
ATOM      1  C   UNL A   1      34.711  21.393  26.297  1.00  0.00     0.246 C 
ATOM      2  O   UNL A   1      33.630  20.926  26.660  1.00  0.00    -0.272 OA
ATOM      3  N   UNL A   1      35.480  20.676  25.423  1.00  0.00    -0.354 N 
ATOM      4  H   UNL A   1      35.118  19.799  25.160  1.00  0.00     0.163 HD
ENDROOT
BRANCH   1   5
ATOM      5  C   UNL A   1      35.173  22.778  26.742  1.00  0.00     0.260 C 
BRANCH   5   6
ATOM      6  O   UNL A   1      34.462  23.813  26.088  1.00  0.00    -0.362 OA
BRANCH   6   7
ATOM      7  C   UNL A   1      35.010  24.231  24.850  1.00  0.00     0.260 C 
BRANCH   7   8
ATOM      8  C   UNL A   1      34.021  24.174  23.690  1.00  0.00     0.246 C 
ATOM      9  N   UNL A   1      33.478  25.303  23.156  1.00  0.00    -0.349 N 
ATOM     10  H   UNL A   1      32.996  25.129  22.316  1.00  0.00     0.163 HD
ATOM     11  O   UNL A   1      33.705  23.093  23.183  1.00  0.00    -0.272 OA
BRANCH   9  12
ATOM     12  C   UNL A   1      33.444  26.717  23.544  1.00  0.00     0.118 C 
ATOM     13  C   UNL A   1      32.280  27.303  24.374  1.00  0.00     0.217 C 
ATOM     14  N   UNL A   1      32.311  28.744  24.060  1.00  0.00    -0.327 N 
ATOM     15  C   UNL A   1      33.512  27.638  22.332  1.00  0.00     0.049 C 
ATOM     16  C   UNL A   1      33.146  29.005  22.896  1.00  0.00     0.122 C 
BRANCH  13  17
ATOM     17  C   UNL A   1      32.423  26.838  25.840  1.00  0.00     0.330 C 
ATOM     18  O   UNL A   1      33.459  26.934  26.494  1.00  0.00    -0.250 OA
BRANCH  17  19
ATOM     19  O   UNL A   1      31.344  26.135  26.271  1.00  0.00    -0.467 OA
ATOM     20  C   UNL A   1      30.297  25.986  25.311  1.00  0.00     0.282 C 
ENDBRANCH  17  19
ENDBRANCH  13  17
BRANCH  14  21
ATOM     21  C   UNL A   1      31.298  29.594  24.467  1.00  0.00     0.220 C 
ATOM     22  C   UNL A   1      31.557  30.431  25.698  1.00  0.00     0.114 C 
ATOM     23  O   UNL A   1      30.199  29.624  23.915  1.00  0.00    -0.275 OA
ENDBRANCH  14  21
ENDBRANCH   9  12
ENDBRANCH   7   8
ENDBRANCH   6   7
ENDBRANCH   5   6
ENDBRANCH   1   5
BRANCH   3  24
ATOM     24  C   UNL A   1      36.759  21.030  24.828  1.00  0.00     0.117 C 
BRANCH  24  25
ATOM     25  C   UNL A   1      37.826  19.958  25.010  1.00  0.00     0.042 C 
BRANCH  25  26
ATOM     26  C   UNL A   1      39.045  20.405  25.810  1.00  0.00     0.118 C 
BRANCH  26  27
ATOM     27  N   UNL A   1      40.081  19.386  25.912  1.00  0.00    -0.352 N 
ATOM     28  C   UNL A   1      41.426  19.520  26.163  1.00  0.00     0.251 C 
ATOM     29  H   UNL A   1      39.771  18.461  25.784  1.00  0.00     0.163 HD
ATOM     30  O   UNL A   1      42.155  18.538  26.103  1.00  0.00    -0.269 OA
BRANCH  28  31
ATOM     31  C   UNL A   1      41.997  20.850  26.477  1.00  0.00     0.039 A 
ATOM     32  C   UNL A   1      42.265  21.728  25.424  1.00  0.00     0.014 A 
ATOM     33  C   UNL A   1      42.264  21.234  27.792  1.00  0.00     0.014 A 
ATOM     34  C   UNL A   1      42.739  23.013  25.696  1.00  0.00     0.010 A 
ATOM     35  C   UNL A   1      42.652  22.542  28.067  1.00  0.00     0.010 A 
ATOM     36  C   UNL A   1      42.898  23.446  27.022  1.00  0.00    -0.014 A 
BRANCH  36  37
ATOM     37  C   UNL A   1      43.305  24.840  27.336  1.00  0.00     0.031 A 
ATOM     38  C   UNL A   1      42.319  25.807  27.931  1.00  0.00     0.074 A 
ATOM     39  C   UNL A   1      44.538  25.264  26.995  1.00  0.00     0.049 A 
ATOM     40  N   UNL A   1      42.475  27.075  28.214  1.00  0.00    -0.248 NA
ATOM     41  C   UNL A   1      40.970  25.292  28.213  1.00  0.00     0.031 C 
ATOM     42  C   UNL A   1      45.556  24.450  26.330  1.00  0.00     0.029 A 
ATOM     43  N   UNL A   1      45.132  26.494  27.130  1.00  0.00    -0.354 N 
ATOM     44  C   UNL A   1      41.239  27.517  28.672  1.00  0.00     0.074 A 
ATOM     45  C   UNL A   1      40.333  26.392  28.587  1.00  0.00     0.031 C 
ATOM     46  C   UNL A   1      46.647  25.201  26.113  1.00  0.00     0.029 A 
ATOM     47  C   UNL A   1      46.394  26.557  26.590  1.00  0.00     0.049 A 
ATOM     48  H   UNL A   1      44.696  27.259  27.572  1.00  0.00     0.167 HD
ATOM     49  C   UNL A   1      40.894  28.737  29.148  1.00  0.00     0.034 A 
ATOM     50  C   UNL A   1      47.250  27.592  26.472  1.00  0.00     0.034 A 
ATOM     51  C   UNL A   1      41.804  29.846  29.252  1.00  0.00     0.049 A 
ATOM     52  C   UNL A   1      46.864  28.929  27.041  1.00  0.00     0.074 A 
ATOM     53  C   UNL A   1      41.581  31.094  29.805  1.00  0.00     0.029 A 
ATOM     54  N   UNL A   1      43.107  29.847  28.776  1.00  0.00    -0.354 N 
ATOM     55  N   UNL A   1      45.745  29.283  27.625  1.00  0.00    -0.248 NA
ATOM     56  C   UNL A   1      47.870  29.997  26.970  1.00  0.00     0.031 C 
ATOM     57  C   UNL A   1      42.738  31.864  29.628  1.00  0.00     0.029 A 
ATOM     58  C   UNL A   1      43.696  31.080  29.004  1.00  0.00     0.049 A 
ATOM     59  H   UNL A   1      43.550  29.084  28.341  1.00  0.00     0.167 HD
ATOM     60  C   UNL A   1      45.921  30.606  28.016  1.00  0.00     0.074 A 
ATOM     61  C   UNL A   1      47.263  30.981  27.622  1.00  0.00     0.031 C 
ATOM     62  C   UNL A   1      45.045  31.435  28.637  1.00  0.00     0.034 A 
BRANCH  49  63
ATOM     63  C   UNL A   1      39.472  28.919  29.621  1.00  0.00     0.023 A 
ATOM     64  C   UNL A   1      39.115  28.531  30.930  1.00  0.00     0.012 A 
ATOM     65  C   UNL A   1      38.496  29.487  28.782  1.00  0.00     0.148 A 
ATOM     66  C   UNL A   1      37.799  28.653  31.376  1.00  0.00     0.002 A 
ATOM     67  C   UNL A   1      37.196  29.654  29.252  1.00  0.00     0.091 A 
ATOM     68  F   UNL A   1      38.843  29.834  27.534  1.00  0.00    -0.205 F 
ATOM     69  C   UNL A   1      36.843  29.221  30.540  1.00  0.00     0.022 A 
BRANCH  67  70
ATOM     70  S   UNL A   1      35.914  30.456  28.282  1.00  0.00     0.127 S 
ATOM     71  O   UNL A   1      35.539  29.392  27.353  1.00  0.00    -0.237 OA
ATOM     72  O   UNL A   1      34.906  30.762  29.298  1.00  0.00    -0.237 OA
ATOM     73  O   UNL A   1      36.540  31.625  27.681  1.00  0.00    -0.744 OA
ENDBRANCH  67  70
ENDBRANCH  49  63
BRANCH  50  74
ATOM     74  C   UNL A   1      48.577  27.372  25.831  1.00  0.00     0.023 A 
ATOM     75  C   UNL A   1      49.652  26.890  26.602  1.00  0.00     0.012 A 
ATOM     76  C   UNL A   1      48.756  27.573  24.448  1.00  0.00     0.148 A 
ATOM     77  C   UNL A   1      50.889  26.631  26.009  1.00  0.00     0.002 A 
ATOM     78  C   UNL A   1      49.972  27.257  23.854  1.00  0.00     0.091 A 
ATOM     79  F   UNL A   1      47.719  28.037  23.735  1.00  0.00    -0.205 F 
ATOM     80  C   UNL A   1      51.044  26.802  24.635  1.00  0.00     0.022 A 
BRANCH  78  81
ATOM     81  S   UNL A   1      50.222  27.311  22.075  1.00  0.00     0.127 S 
ATOM     82  O   UNL A   1      50.368  28.745  21.837  1.00  0.00    -0.237 OA
ATOM     83  O   UNL A   1      51.451  26.533  21.921  1.00  0.00    -0.237 OA
ATOM     84  O   UNL A   1      49.042  26.694  21.485  1.00  0.00    -0.744 OA
ENDBRANCH  78  81
ENDBRANCH  50  74
BRANCH  62  85
ATOM     85  C   UNL A   1      45.513  32.831  28.961  1.00  0.00     0.023 A 
ATOM     86  C   UNL A   1      46.200  33.084  30.165  1.00  0.00     0.012 A 
ATOM     87  C   UNL A   1      45.334  33.879  28.036  1.00  0.00     0.148 A 
ATOM     88  C   UNL A   1      46.671  34.363  30.458  1.00  0.00     0.002 A 
ATOM     89  C   UNL A   1      45.851  35.139  28.311  1.00  0.00     0.091 A 
ATOM     90  F   UNL A   1      44.662  33.624  26.904  1.00  0.00    -0.205 F 
ATOM     91  C   UNL A   1      46.508  35.387  29.527  1.00  0.00     0.022 A 
BRANCH  89  92
ATOM     92  S   UNL A   1      45.775  36.492  27.132  1.00  0.00     0.127 S 
ATOM     93  O   UNL A   1      46.540  37.529  27.821  1.00  0.00    -0.237 OA
ATOM     94  O   UNL A   1      46.439  35.919  25.961  1.00  0.00    -0.237 OA
ATOM     95  O   UNL A   1      44.361  36.783  26.943  1.00  0.00    -0.744 OA
ENDBRANCH  89  92
ENDBRANCH  62  85
ENDBRANCH  36  37
ENDBRANCH  28  31
ENDBRANCH  26  27
ENDBRANCH  25  26
ENDBRANCH  24  25
ENDBRANCH   3  24
TORSDOF 20
ENDMDL
MODEL 2
REMARK VINA RESULT:     -10.3      5.017      8.942
REMARK SMILES COC(=O)[C@@H]1[C@@H](NC(=O)COCC(=O)NCCCNC(=O)c2ccc(-c3c4nc(c(-c5cccc(S(=O)(=O)[O-])c5F)c5ccc([nH]5)c(-c5cccc(S(=O)(=O)[O-])c5F)c5nc(c(-c6cccc(S(=O)(=O)[O-])c6F)c6ccc3[nH]6)C=C5)C=C4)cc2)CCN1C(C)=O
REMARK SMILES IDX 13 1 14 2 15 3 12 5 11 6 10 7 8 8 7 9 9 11 6 12 5 13 87 14
REMARK SMILES IDX 85 15 86 16 3 17 4 18 2 19 1 20 88 21 89 22 90 23 16 24
REMARK SMILES IDX 17 25 18 26 19 27 20 28 21 30 22 31 23 32 84 33 24 34 83 35
REMARK SMILES IDX 25 36 26 37 27 38 77 39 28 40 82 41 76 42 78 43 29 44 81 45
REMARK SMILES IDX 75 46 74 47 30 49 62 50 42 51 61 52 43 53 46 54 60 55 79 56
REMARK SMILES IDX 44 57 45 58 59 60 80 61 47 62 31 63 32 64 40 65 33 66 35 67
REMARK SMILES IDX 41 68 34 69 36 70 37 71 38 72 39 73 63 74 64 75 72 76 65 77
REMARK SMILES IDX 67 78 73 79 66 80 68 81 69 82 70 83 71 84 48 85 49 86 57 87
REMARK SMILES IDX 50 88 52 89 58 90 51 91 53 92 54 93 55 94 56 95
REMARK H PARENT 15 4 7 10 19 29 78 48 46 59
REMARK Flexibility Score: inf
ROOT
ATOM      1  C   UNL A   1      30.285  26.016  26.015  1.00  0.00     0.246 C 
ATOM      2  O   UNL A   1      29.624  25.123  26.549  1.00  0.00    -0.272 OA
ATOM      3  N   UNL A   1      30.930  26.923  26.809  1.00  0.00    -0.354 N 
ATOM      4  H   UNL A   1      30.795  26.812  27.778  1.00  0.00     0.163 HD
ENDROOT
BRANCH   1   5
ATOM      5  C   UNL A   1      30.456  26.087  24.501  1.00  0.00     0.260 C 
BRANCH   5   6
ATOM      6  O   UNL A   1      31.052  24.915  23.976  1.00  0.00    -0.362 OA
BRANCH   6   7
ATOM      7  C   UNL A   1      32.113  25.135  23.064  1.00  0.00     0.260 C 
BRANCH   7   8
ATOM      8  C   UNL A   1      33.158  26.126  23.566  1.00  0.00     0.246 C 
ATOM      9  N   UNL A   1      34.167  25.743  24.396  1.00  0.00    -0.349 N 
ATOM     10  H   UNL A   1      34.856  26.439  24.502  1.00  0.00     0.163 HD
ATOM     11  O   UNL A   1      33.131  27.307  23.208  1.00  0.00    -0.272 OA
BRANCH   9  12
ATOM     12  C   UNL A   1      34.466  24.534  25.171  1.00  0.00     0.118 C 
ATOM     13  C   UNL A   1      34.782  23.187  24.484  1.00  0.00     0.217 C 
ATOM     14  N   UNL A   1      34.453  22.180  25.510  1.00  0.00    -0.327 N 
ATOM     15  C   UNL A   1      33.338  24.184  26.133  1.00  0.00     0.049 C 
ATOM     16  C   UNL A   1      33.678  22.772  26.591  1.00  0.00     0.122 C 
BRANCH  13  17
ATOM     17  C   UNL A   1      36.209  23.242  23.898  1.00  0.00     0.330 C 
ATOM     18  O   UNL A   1      36.512  22.824  22.782  1.00  0.00    -0.250 OA
BRANCH  17  19
ATOM     19  O   UNL A   1      37.136  23.623  24.816  1.00  0.00    -0.467 OA
ATOM     20  C   UNL A   1      37.905  22.557  25.375  1.00  0.00     0.282 C 
ENDBRANCH  17  19
ENDBRANCH  13  17
BRANCH  14  21
ATOM     21  C   UNL A   1      34.424  20.828  25.212  1.00  0.00     0.220 C 
ATOM     22  C   UNL A   1      33.122  20.100  25.451  1.00  0.00     0.114 C 
ATOM     23  O   UNL A   1      35.423  20.211  24.845  1.00  0.00    -0.275 OA
ENDBRANCH  14  21
ENDBRANCH   9  12
ENDBRANCH   7   8
ENDBRANCH   6   7
ENDBRANCH   5   6
ENDBRANCH   1   5
BRANCH   3  24
ATOM     24  C   UNL A   1      31.790  28.029  26.419  1.00  0.00     0.117 C 
BRANCH  24  25
ATOM     25  C   UNL A   1      33.203  27.921  26.980  1.00  0.00     0.042 C 
BRANCH  25  26
ATOM     26  C   UNL A   1      34.198  28.913  26.389  1.00  0.00     0.118 C 
BRANCH  26  27
ATOM     27  N   UNL A   1      33.945  30.295  26.776  1.00  0.00    -0.352 N 
ATOM     28  C   UNL A   1      34.628  31.101  27.655  1.00  0.00     0.251 C 
ATOM     29  H   UNL A   1      33.169  30.715  26.341  1.00  0.00     0.163 HD
ATOM     30  O   UNL A   1      34.188  32.212  27.926  1.00  0.00    -0.269 OA
BRANCH  28  31
ATOM     31  C   UNL A   1      35.874  30.621  28.295  1.00  0.00     0.039 A 
ATOM     32  C   UNL A   1      35.775  29.769  29.397  1.00  0.00     0.014 A 
ATOM     33  C   UNL A   1      37.129  31.000  27.815  1.00  0.00     0.014 A 
ATOM     34  C   UNL A   1      36.933  29.245  29.976  1.00  0.00     0.010 A 
ATOM     35  C   UNL A   1      38.277  30.410  28.337  1.00  0.00     0.010 A 
ATOM     36  C   UNL A   1      38.193  29.530  29.426  1.00  0.00    -0.014 A 
BRANCH  36  37
ATOM     37  C   UNL A   1      39.429  28.905  29.963  1.00  0.00     0.031 A 
ATOM     38  C   UNL A   1      40.112  29.481  31.173  1.00  0.00     0.074 A 
ATOM     39  C   UNL A   1      39.993  27.875  29.303  1.00  0.00     0.049 A 
ATOM     40  N   UNL A   1      41.227  29.109  31.747  1.00  0.00    -0.248 NA
ATOM     41  C   UNL A   1      39.475  30.649  31.802  1.00  0.00     0.031 C 
ATOM     42  C   UNL A   1      39.480  27.283  28.066  1.00  0.00     0.029 A 
ATOM     43  N   UNL A   1      41.140  27.165  29.560  1.00  0.00    -0.354 N 
ATOM     44  C   UNL A   1      41.445  30.016  32.778  1.00  0.00     0.074 A 
ATOM     45  C   UNL A   1      40.368  30.981  32.723  1.00  0.00     0.031 C 
ATOM     46  C   UNL A   1      40.307  26.303  27.671  1.00  0.00     0.029 A 
ATOM     47  C   UNL A   1      41.427  26.220  28.604  1.00  0.00     0.049 A 
ATOM     48  H   UNL A   1      41.703  27.317  30.353  1.00  0.00     0.167 HD
ATOM     49  C   UNL A   1      42.433  30.030  33.705  1.00  0.00     0.034 A 
ATOM     50  C   UNL A   1      42.481  25.389  28.477  1.00  0.00     0.034 A 
ATOM     51  C   UNL A   1      43.488  29.054  33.770  1.00  0.00     0.049 A 
ATOM     52  C   UNL A   1      43.547  25.393  29.537  1.00  0.00     0.074 A 
ATOM     53  C   UNL A   1      44.482  28.924  34.722  1.00  0.00     0.029 A 
ATOM     54  N   UNL A   1      43.698  28.052  32.834  1.00  0.00    -0.354 N 
ATOM     55  N   UNL A   1      43.647  26.151  30.601  1.00  0.00    -0.248 NA
ATOM     56  C   UNL A   1      44.624  24.403  29.400  1.00  0.00     0.031 C 
ATOM     57  C   UNL A   1      45.317  27.866  34.341  1.00  0.00     0.029 A 
ATOM     58  C   UNL A   1      44.817  27.310  33.174  1.00  0.00     0.049 A 
ATOM     59  H   UNL A   1      43.134  27.891  32.044  1.00  0.00     0.167 HD
ATOM     60  C   UNL A   1      44.781  25.713  31.277  1.00  0.00     0.074 A 
ATOM     61  C   UNL A   1      45.320  24.608  30.512  1.00  0.00     0.031 C 
ATOM     62  C   UNL A   1      45.328  26.190  32.423  1.00  0.00     0.034 A 
BRANCH  49  63
ATOM     63  C   UNL A   1      42.391  31.124  34.743  1.00  0.00     0.023 A 
ATOM     64  C   UNL A   1      41.836  30.864  36.014  1.00  0.00     0.012 A 
ATOM     65  C   UNL A   1      42.916  32.402  34.471  1.00  0.00     0.148 A 
ATOM     66  C   UNL A   1      41.751  31.870  36.975  1.00  0.00     0.002 A 
ATOM     67  C   UNL A   1      42.876  33.386  35.455  1.00  0.00     0.091 A 
ATOM     68  F   UNL A   1      43.424  32.643  33.255  1.00  0.00    -0.205 F 
ATOM     69  C   UNL A   1      42.278  33.128  36.698  1.00  0.00     0.022 A 
BRANCH  67  70
ATOM     70  S   UNL A   1      43.606  35.011  35.224  1.00  0.00     0.127 S 
ATOM     71  O   UNL A   1      42.849  35.515  34.080  1.00  0.00    -0.237 OA
ATOM     72  O   UNL A   1      43.301  35.669  36.495  1.00  0.00    -0.237 OA
ATOM     73  O   UNL A   1      45.025  34.782  34.988  1.00  0.00    -0.744 OA
ENDBRANCH  67  70
ENDBRANCH  49  63
BRANCH  50  74
ATOM     74  C   UNL A   1      42.536  24.451  27.321  1.00  0.00     0.023 A 
ATOM     75  C   UNL A   1      43.168  24.850  26.128  1.00  0.00     0.012 A 
ATOM     76  C   UNL A   1      42.026  23.141  27.426  1.00  0.00     0.148 A 
ATOM     77  C   UNL A   1      43.274  23.967  25.052  1.00  0.00     0.002 A 
ATOM     78  C   UNL A   1      42.187  22.249  26.373  1.00  0.00     0.091 A 
ATOM     79  F   UNL A   1      41.423  22.785  28.570  1.00  0.00    -0.205 F 
ATOM     80  C   UNL A   1      42.796  22.665  25.179  1.00  0.00     0.022 A 
BRANCH  78  81
ATOM     81  S   UNL A   1      41.729  20.516  26.495  1.00  0.00     0.127 S 
ATOM     82  O   UNL A   1      42.438  19.937  25.357  1.00  0.00    -0.237 OA
ATOM     83  O   UNL A   1      42.270  20.154  27.806  1.00  0.00    -0.237 OA
ATOM     84  O   UNL A   1      40.275  20.478  26.413  1.00  0.00    -0.744 OA
ENDBRANCH  78  81
ENDBRANCH  50  74
BRANCH  62  85
ATOM     85  C   UNL A   1      46.566  25.506  32.944  1.00  0.00     0.023 A 
ATOM     86  C   UNL A   1      47.842  25.990  32.592  1.00  0.00     0.012 A 
ATOM     87  C   UNL A   1      46.462  24.425  33.842  1.00  0.00     0.148 A 
ATOM     88  C   UNL A   1      48.994  25.389  33.099  1.00  0.00     0.002 A 
ATOM     89  C   UNL A   1      47.613  23.863  34.383  1.00  0.00     0.091 A 
ATOM     90  F   UNL A   1      45.241  23.966  34.151  1.00  0.00    -0.205 F 
ATOM     91  C   UNL A   1      48.880  24.335  34.003  1.00  0.00     0.022 A 
BRANCH  89  92
ATOM     92  S   UNL A   1      47.562  22.568  35.627  1.00  0.00     0.127 S 
ATOM     93  O   UNL A   1      48.927  22.051  35.573  1.00  0.00    -0.237 OA
ATOM     94  O   UNL A   1      47.241  23.319  36.842  1.00  0.00    -0.237 OA
ATOM     95  O   UNL A   1      46.525  21.639  35.200  1.00  0.00    -0.744 OA
ENDBRANCH  89  92
ENDBRANCH  62  85
ENDBRANCH  36  37
ENDBRANCH  28  31
ENDBRANCH  26  27
ENDBRANCH  25  26
ENDBRANCH  24  25
ENDBRANCH   3  24
TORSDOF 20
ENDMDL
MODEL 3
REMARK VINA RESULT:     -10.2      5.467      9.071
REMARK SMILES COC(=O)[C@@H]1[C@@H](NC(=O)COCC(=O)NCCCNC(=O)c2ccc(-c3c4nc(c(-c5cccc(S(=O)(=O)[O-])c5F)c5ccc([nH]5)c(-c5cccc(S(=O)(=O)[O-])c5F)c5nc(c(-c6cccc(S(=O)(=O)[O-])c6F)c6ccc3[nH]6)C=C5)C=C4)cc2)CCN1C(C)=O
REMARK SMILES IDX 13 1 14 2 15 3 12 5 11 6 10 7 8 8 7 9 9 11 6 12 5 13 87 14
REMARK SMILES IDX 85 15 86 16 3 17 4 18 2 19 1 20 88 21 89 22 90 23 16 24
REMARK SMILES IDX 17 25 18 26 19 27 20 28 21 30 22 31 23 32 84 33 24 34 83 35
REMARK SMILES IDX 25 36 26 37 27 38 77 39 28 40 82 41 76 42 78 43 29 44 81 45
REMARK SMILES IDX 75 46 74 47 30 49 62 50 42 51 61 52 43 53 46 54 60 55 79 56
REMARK SMILES IDX 44 57 45 58 59 60 80 61 47 62 31 63 32 64 40 65 33 66 35 67
REMARK SMILES IDX 41 68 34 69 36 70 37 71 38 72 39 73 63 74 64 75 72 76 65 77
REMARK SMILES IDX 67 78 73 79 66 80 68 81 69 82 70 83 71 84 48 85 49 86 57 87
REMARK SMILES IDX 50 88 52 89 58 90 51 91 53 92 54 93 55 94 56 95
REMARK H PARENT 15 4 7 10 19 29 78 48 46 59
REMARK Flexibility Score: inf
ROOT
ATOM      1  C   UNL A   1      31.045  27.021  24.916  1.00  0.00     0.246 C 
ATOM      2  O   UNL A   1      30.282  26.197  25.425  1.00  0.00    -0.272 OA
ATOM      3  N   UNL A   1      32.206  27.335  25.567  1.00  0.00    -0.354 N 
ATOM      4  H   UNL A   1      32.341  26.888  26.434  1.00  0.00     0.163 HD
ENDROOT
BRANCH   1   5
ATOM      5  C   UNL A   1      30.757  27.640  23.552  1.00  0.00     0.260 C 
BRANCH   5   6
ATOM      6  O   UNL A   1      31.010  26.736  22.492  1.00  0.00    -0.362 OA
BRANCH   6   7
ATOM      7  C   UNL A   1      32.344  26.722  22.016  1.00  0.00     0.260 C 
BRANCH   7   8
ATOM      8  C   UNL A   1      32.694  25.477  21.208  1.00  0.00     0.246 C 
ATOM      9  N   UNL A   1      32.746  24.243  21.781  1.00  0.00    -0.349 N 
ATOM     10  H   UNL A   1      32.817  23.519  21.116  1.00  0.00     0.163 HD
ATOM     11  O   UNL A   1      32.918  25.553  19.996  1.00  0.00    -0.272 OA
BRANCH   9  12
ATOM     12  C   UNL A   1      32.722  23.740  23.158  1.00  0.00     0.118 C 
ATOM     13  C   UNL A   1      33.524  22.488  23.580  1.00  0.00     0.217 C 
ATOM     14  N   UNL A   1      32.817  22.002  24.780  1.00  0.00    -0.327 N 
ATOM     15  C   UNL A   1      31.305  23.426  23.623  1.00  0.00     0.049 C 
ATOM     16  C   UNL A   1      31.513  22.637  24.909  1.00  0.00     0.122 C 
BRANCH  13  17
ATOM     17  C   UNL A   1      35.021  22.854  23.671  1.00  0.00     0.330 C 
ATOM     18  O   UNL A   1      35.753  23.002  22.695  1.00  0.00    -0.250 OA
BRANCH  17  19
ATOM     19  O   UNL A   1      35.493  22.806  24.944  1.00  0.00    -0.467 OA
ATOM     20  C   UNL A   1      35.927  24.060  25.475  1.00  0.00     0.282 C 
ENDBRANCH  17  19
ENDBRANCH  13  17
BRANCH  14  21
ATOM     21  C   UNL A   1      33.120  20.779  25.351  1.00  0.00     0.220 C 
ATOM     22  C   UNL A   1      32.669  19.543  24.608  1.00  0.00     0.114 C 
ATOM     23  O   UNL A   1      33.661  20.679  26.451  1.00  0.00    -0.275 OA
ENDBRANCH  14  21
ENDBRANCH   9  12
ENDBRANCH   7   8
ENDBRANCH   6   7
ENDBRANCH   5   6
ENDBRANCH   1   5
BRANCH   3  24
ATOM     24  C   UNL A   1      33.269  28.238  25.154  1.00  0.00     0.117 C 
BRANCH  24  25
ATOM     25  C   UNL A   1      32.878  29.708  25.237  1.00  0.00     0.042 C 
BRANCH  25  26
ATOM     26  C   UNL A   1      32.324  30.141  26.590  1.00  0.00     0.118 C 
BRANCH  26  27
ATOM     27  N   UNL A   1      32.342  31.584  26.793  1.00  0.00    -0.352 N 
ATOM     28  C   UNL A   1      33.240  32.365  27.481  1.00  0.00     0.251 C 
ATOM     29  H   UNL A   1      31.599  32.073  26.373  1.00  0.00     0.163 HD
ATOM     30  O   UNL A   1      33.016  33.561  27.624  1.00  0.00    -0.269 OA
BRANCH  28  31
ATOM     31  C   UNL A   1      34.456  31.762  28.070  1.00  0.00     0.039 A 
ATOM     32  C   UNL A   1      35.598  32.555  28.206  1.00  0.00     0.014 A 
ATOM     33  C   UNL A   1      34.476  30.430  28.489  1.00  0.00     0.014 A 
ATOM     34  C   UNL A   1      36.737  32.032  28.822  1.00  0.00     0.010 A 
ATOM     35  C   UNL A   1      35.580  29.938  29.180  1.00  0.00     0.010 A 
ATOM     36  C   UNL A   1      36.725  30.731  29.351  1.00  0.00    -0.014 A 
BRANCH  36  37
ATOM     37  C   UNL A   1      37.890  30.190  30.097  1.00  0.00     0.031 A 
ATOM     38  C   UNL A   1      38.187  30.661  31.494  1.00  0.00     0.074 A 
ATOM     39  C   UNL A   1      38.738  29.344  29.480  1.00  0.00     0.049 A 
ATOM     40  N   UNL A   1      39.190  30.348  32.275  1.00  0.00    -0.248 NA
ATOM     41  C   UNL A   1      37.255  31.638  32.079  1.00  0.00     0.031 C 
ATOM     42  C   UNL A   1      38.612  28.882  28.097  1.00  0.00     0.029 A 
ATOM     43  N   UNL A   1      39.893  28.750  29.925  1.00  0.00    -0.354 N 
ATOM     44  C   UNL A   1      39.030  31.114  33.423  1.00  0.00     0.074 A 
ATOM     45  C   UNL A   1      37.858  31.938  33.219  1.00  0.00     0.031 C 
ATOM     46  C   UNL A   1      39.646  28.079  27.805  1.00  0.00     0.029 A 
ATOM     47  C   UNL A   1      40.528  27.997  28.965  1.00  0.00     0.049 A 
ATOM     48  H   UNL A   1      40.234  28.852  30.842  1.00  0.00     0.167 HD
ATOM     49  C   UNL A   1      39.770  31.112  34.558  1.00  0.00     0.034 A 
ATOM     50  C   UNL A   1      41.698  27.329  29.004  1.00  0.00     0.034 A 
ATOM     51  C   UNL A   1      40.921  30.274  34.765  1.00  0.00     0.049 A 
ATOM     52  C   UNL A   1      42.486  27.307  30.284  1.00  0.00     0.074 A 
ATOM     53  C   UNL A   1      41.685  30.128  35.909  1.00  0.00     0.029 A 
ATOM     54  N   UNL A   1      41.486  29.453  33.800  1.00  0.00    -0.354 N 
ATOM     55  N   UNL A   1      42.228  27.907  31.420  1.00  0.00    -0.248 NA
ATOM     56  C   UNL A   1      43.705  26.487  30.301  1.00  0.00     0.031 C 
ATOM     57  C   UNL A   1      42.736  29.247  35.623  1.00  0.00     0.029 A 
ATOM     58  C   UNL A   1      42.601  28.811  34.315  1.00  0.00     0.049 A 
ATOM     59  H   UNL A   1      41.145  29.342  32.884  1.00  0.00     0.167 HD
ATOM     60  C   UNL A   1      43.235  27.517  32.296  1.00  0.00     0.074 A 
ATOM     61  C   UNL A   1      44.095  26.611  31.563  1.00  0.00     0.031 C 
ATOM     62  C   UNL A   1      43.432  27.885  33.587  1.00  0.00     0.034 A 
BRANCH  49  63
ATOM     63  C   UNL A   1      39.331  32.029  35.673  1.00  0.00     0.023 A 
ATOM     64  C   UNL A   1      38.413  31.566  36.639  1.00  0.00     0.012 A 
ATOM     65  C   UNL A   1      39.836  33.339  35.777  1.00  0.00     0.148 A 
ATOM     66  C   UNL A   1      37.961  32.408  37.655  1.00  0.00     0.002 A 
ATOM     67  C   UNL A   1      39.422  34.156  36.824  1.00  0.00     0.091 A 
ATOM     68  F   UNL A   1      40.694  33.773  34.842  1.00  0.00    -0.205 F 
ATOM     69  C   UNL A   1      38.472  33.699  37.752  1.00  0.00     0.022 A 
BRANCH  67  70
ATOM     70  S   UNL A   1      40.087  35.804  37.084  1.00  0.00     0.127 S 
ATOM     71  O   UNL A   1      39.647  36.495  35.875  1.00  0.00    -0.237 OA
ATOM     72  O   UNL A   1      39.403  36.222  38.309  1.00  0.00    -0.237 OA
ATOM     73  O   UNL A   1      41.527  35.636  37.224  1.00  0.00    -0.744 OA
ENDBRANCH  67  70
ENDBRANCH  49  63
BRANCH  50  74
ATOM     74  C   UNL A   1      42.153  26.584  27.797  1.00  0.00     0.023 A 
ATOM     75  C   UNL A   1      42.810  27.272  26.759  1.00  0.00     0.012 A 
ATOM     76  C   UNL A   1      42.000  25.186  27.708  1.00  0.00     0.148 A 
ATOM     77  C   UNL A   1      43.288  26.584  25.643  1.00  0.00     0.002 A 
ATOM     78  C   UNL A   1      42.531  24.500  26.622  1.00  0.00     0.091 A 
ATOM     79  F   UNL A   1      41.367  24.552  28.706  1.00  0.00    -0.205 F 
ATOM     80  C   UNL A   1      43.160  25.198  25.581  1.00  0.00     0.022 A 
BRANCH  78  81
ATOM     81  S   UNL A   1      42.538  22.705  26.523  1.00  0.00     0.127 S 
ATOM     82  O   UNL A   1      43.745  22.368  27.273  1.00  0.00    -0.237 OA
ATOM     83  O   UNL A   1      41.282  22.362  27.190  1.00  0.00    -0.237 OA
ATOM     84  O   UNL A   1      42.571  22.382  25.102  1.00  0.00    -0.744 OA
ENDBRANCH  78  81
ENDBRANCH  50  74
BRANCH  62  85
ATOM     85  C   UNL A   1      44.612  27.287  34.311  1.00  0.00     0.023 A 
ATOM     86  C   UNL A   1      45.853  27.955  34.310  1.00  0.00     0.012 A 
ATOM     87  C   UNL A   1      44.469  26.098  35.054  1.00  0.00     0.148 A 
ATOM     88  C   UNL A   1      46.941  27.432  35.008  1.00  0.00     0.002 A 
ATOM     89  C   UNL A   1      45.543  25.609  35.789  1.00  0.00     0.091 A 
ATOM     90  F   UNL A   1      43.287  25.467  35.028  1.00  0.00    -0.205 F 
ATOM     91  C   UNL A   1      46.783  26.267  35.757  1.00  0.00     0.022 A 
BRANCH  89  92
ATOM     92  S   UNL A   1      45.406  24.172  36.858  1.00  0.00     0.127 S 
ATOM     93  O   UNL A   1      44.985  23.139  35.915  1.00  0.00    -0.237 OA
ATOM     94  O   UNL A   1      46.775  24.025  37.354  1.00  0.00    -0.237 OA
ATOM     95  O   UNL A   1      44.428  24.521  37.879  1.00  0.00    -0.744 OA
ENDBRANCH  89  92
ENDBRANCH  62  85
ENDBRANCH  36  37
ENDBRANCH  28  31
ENDBRANCH  26  27
ENDBRANCH  25  26
ENDBRANCH  24  25
ENDBRANCH   3  24
TORSDOF 20
ENDMDL
