MODEL 1
REMARK VINA RESULT:     -13.8      0.000      0.000
REMARK SMILES O=C1C[C@H](C(=O)NCCCNC(=O)c2ccc(-c3c4nc(c(-c5cccc(S(=O)(=O)[O-])c5F)c5ccc([nH]5)c(-c5cccc(S(=O)(=O)[O-])c5F)c5nc(c(-c6cccc(S(=O)(=O)[O-])c6F)c6ccc3[nH]6)C=C5)C=C4)cc2)c2c(nc(Nc3ccc(Oc4ccccc4)cc3)[nH]c2=O)N1
REMARK SMILES IDX 8 1 7 2 5 3 6 4 4 6 1 7 2 8 3 9 98 10 78 11 77 13 79 14
REMARK SMILES IDX 96 15 80 16 95 17 97 18 81 20 82 22 83 23 94 24 84 25 93 26
REMARK SMILES IDX 85 27 86 28 87 29 88 30 92 31 89 32 91 33 90 34 9 35 10 36
REMARK SMILES IDX 11 37 12 38 13 40 14 41 15 42 76 43 16 44 75 45 17 46 18 47
REMARK SMILES IDX 19 48 69 49 20 50 74 51 68 52 70 53 21 54 73 55 67 56 66 57
REMARK SMILES IDX 22 59 54 60 34 61 53 62 35 63 38 64 52 65 71 66 36 67 37 68
REMARK SMILES IDX 51 70 72 71 39 72 23 73 24 74 32 75 25 76 27 77 33 78 26 79
REMARK SMILES IDX 28 80 29 81 30 82 31 83 55 84 56 85 64 86 57 87 59 88 65 89
REMARK SMILES IDX 58 90 60 91 61 92 62 93 63 94 40 95 41 96 49 97 42 98 44 99
REMARK SMILES IDX 50 100 43 101 45 102 46 103 47 104 48 105
REMARK H PARENT 7 5 98 12 95 19 81 21 11 39 70 58 38 69
REMARK Flexibility Score: inf
ROOT
ATOM      1  C   UNL A   1      32.046  30.884  27.054  1.00  0.00     0.117 C 
ENDROOT
BRANCH   1   2
ATOM      2  N   UNL A   1      32.839  30.324  25.971  1.00  0.00    -0.355 N 
ATOM      3  C   UNL A   1      32.499  29.538  24.913  1.00  0.00     0.228 C 
ATOM      4  O   UNL A   1      33.415  29.104  24.208  1.00  0.00    -0.274 OA
ATOM      5  H   UNL A   1      33.796  30.554  26.012  1.00  0.00     0.163 HD
BRANCH   3   6
ATOM      6  C   UNL A   1      31.050  29.159  24.616  1.00  0.00     0.127 C 
ATOM      7  O   UNL A   1      29.016  29.365  21.540  1.00  0.00    -0.275 OA
ATOM      8  C   UNL A   1      29.674  28.902  22.467  1.00  0.00     0.226 C 
ATOM      9  C   UNL A   1      30.639  29.748  23.262  1.00  0.00     0.119 C 
ATOM     10  N   UNL A   1      29.618  27.576  22.768  1.00  0.00    -0.310 N 
ATOM     11  C   UNL A   1      30.187  26.967  23.838  1.00  0.00     0.146 A 
ATOM     12  H   UNL A   1      29.114  27.001  22.147  1.00  0.00     0.171 HD
ATOM     13  C   UNL A   1      30.836  27.685  24.757  1.00  0.00     0.073 A 
ATOM     14  N   UNL A   1      30.017  25.622  23.867  1.00  0.00    -0.196 NA
ATOM     15  C   UNL A   1      31.356  26.936  25.914  1.00  0.00     0.258 A 
ATOM     16  C   UNL A   1      30.512  24.950  24.861  1.00  0.00     0.209 A 
ATOM     17  N   UNL A   1      31.177  25.584  25.872  1.00  0.00    -0.292 N 
ATOM     18  O   UNL A   1      31.908  27.474  26.866  1.00  0.00    -0.269 OA
ATOM     19  H   UNL A   1      31.543  25.039  26.606  1.00  0.00     0.173 HD
BRANCH  16  20
ATOM     20  N   UNL A   1      30.378  23.591  24.981  1.00  0.00    -0.326 N 
ATOM     21  H   UNL A   1      29.481  23.216  25.133  1.00  0.00     0.170 HD
BRANCH  20  22
ATOM     22  C   UNL A   1      31.471  22.712  24.894  1.00  0.00     0.041 A 
ATOM     23  C   UNL A   1      32.018  22.154  26.052  1.00  0.00     0.030 A 
ATOM     24  C   UNL A   1      31.931  22.268  23.649  1.00  0.00     0.030 A 
ATOM     25  C   UNL A   1      32.996  21.157  25.964  1.00  0.00     0.049 A 
ATOM     26  C   UNL A   1      32.916  21.285  23.558  1.00  0.00     0.049 A 
ATOM     27  C   UNL A   1      33.452  20.723  24.717  1.00  0.00     0.127 A 
BRANCH  27  28
ATOM     28  O   UNL A   1      34.395  19.713  24.740  1.00  0.00    -0.457 OA
BRANCH  28  29
ATOM     29  C   UNL A   1      33.923  18.424  24.713  1.00  0.00     0.127 A 
ATOM     30  C   UNL A   1      34.483  17.518  23.811  1.00  0.00     0.047 A 
ATOM     31  C   UNL A   1      32.904  18.030  25.584  1.00  0.00     0.047 A 
ATOM     32  C   UNL A   1      34.063  16.189  23.826  1.00  0.00     0.004 A 
ATOM     33  C   UNL A   1      32.492  16.699  25.599  1.00  0.00     0.004 A 
ATOM     34  C   UNL A   1      33.077  15.779  24.727  1.00  0.00     0.000 A 
ENDBRANCH  28  29
ENDBRANCH  27  28
ENDBRANCH  20  22
ENDBRANCH  16  20
ENDBRANCH   3   6
ENDBRANCH   1   2
BRANCH   1  35
ATOM     35  C   UNL A   1      31.877  32.389  26.912  1.00  0.00     0.042 C 
BRANCH  35  36
ATOM     36  C   UNL A   1      33.085  33.179  27.395  1.00  0.00     0.118 C 
BRANCH  36  37
ATOM     37  N   UNL A   1      32.718  34.501  27.888  1.00  0.00    -0.352 N 
ATOM     38  C   UNL A   1      33.149  35.146  29.022  1.00  0.00     0.251 C 
ATOM     39  H   UNL A   1      32.075  34.999  27.333  1.00  0.00     0.163 HD
ATOM     40  O   UNL A   1      32.589  36.167  29.407  1.00  0.00    -0.269 OA
BRANCH  38  41
ATOM     41  C   UNL A   1      34.281  34.579  29.782  1.00  0.00     0.039 A 
ATOM     42  C   UNL A   1      34.040  33.967  31.013  1.00  0.00     0.014 A 
ATOM     43  C   UNL A   1      35.575  34.632  29.254  1.00  0.00     0.014 A 
ATOM     44  C   UNL A   1      35.093  33.350  31.688  1.00  0.00     0.010 A 
ATOM     45  C   UNL A   1      36.606  33.951  29.890  1.00  0.00     0.010 A 
ATOM     46  C   UNL A   1      36.378  33.317  31.118  1.00  0.00    -0.014 A 
BRANCH  46  47
ATOM     47  C   UNL A   1      37.505  32.656  31.817  1.00  0.00     0.031 A 
ATOM     48  C   UNL A   1      38.200  31.493  31.170  1.00  0.00     0.074 A 
ATOM     49  C   UNL A   1      37.868  33.070  33.047  1.00  0.00     0.049 A 
ATOM     50  N   UNL A   1      39.203  30.787  31.618  1.00  0.00    -0.248 NA
ATOM     51  C   UNL A   1      37.696  31.054  29.856  1.00  0.00     0.031 C 
ATOM     52  C   UNL A   1      37.224  34.144  33.804  1.00  0.00     0.029 A 
ATOM     53  N   UNL A   1      38.861  32.622  33.882  1.00  0.00    -0.354 N 
ATOM     54  C   UNL A   1      39.438  29.813  30.656  1.00  0.00     0.074 A 
ATOM     55  C   UNL A   1      38.452  29.991  29.616  1.00  0.00     0.031 C 
ATOM     56  C   UNL A   1      37.847  34.282  34.987  1.00  0.00     0.029 A 
ATOM     57  C   UNL A   1      38.923  33.297  35.078  1.00  0.00     0.049 A 
ATOM     58  H   UNL A   1      39.472  31.887  33.647  1.00  0.00     0.167 HD
ATOM     59  C   UNL A   1      40.413  28.878  30.623  1.00  0.00     0.034 A 
ATOM     60  C   UNL A   1      39.756  33.145  36.126  1.00  0.00     0.034 A 
ATOM     61  C   UNL A   1      41.422  28.732  31.631  1.00  0.00     0.049 A 
ATOM     62  C   UNL A   1      40.845  32.110  36.056  1.00  0.00     0.074 A 
ATOM     63  C   UNL A   1      42.499  27.865  31.644  1.00  0.00     0.029 A 
ATOM     64  N   UNL A   1      41.478  29.466  32.804  1.00  0.00    -0.354 N 
ATOM     65  N   UNL A   1      41.134  31.289  35.077  1.00  0.00    -0.248 NA
ATOM     66  C   UNL A   1      41.738  31.997  37.219  1.00  0.00     0.031 C 
ATOM     67  C   UNL A   1      43.203  28.066  32.833  1.00  0.00     0.029 A 
ATOM     68  C   UNL A   1      42.569  29.067  33.553  1.00  0.00     0.049 A 
ATOM     69  H   UNL A   1      40.837  30.167  33.066  1.00  0.00     0.167 HD
ATOM     70  C   UNL A   1      42.255  30.580  35.492  1.00  0.00     0.074 A 
ATOM     71  C   UNL A   1      42.600  31.073  36.809  1.00  0.00     0.031 C 
ATOM     72  C   UNL A   1      42.928  29.602  34.840  1.00  0.00     0.034 A 
BRANCH  59  73
ATOM     73  C   UNL A   1      40.488  27.983  29.419  1.00  0.00     0.023 A 
ATOM     74  C   UNL A   1      39.615  26.881  29.332  1.00  0.00     0.012 A 
ATOM     75  C   UNL A   1      41.343  28.285  28.343  1.00  0.00     0.148 A 
ATOM     76  C   UNL A   1      39.596  26.084  28.191  1.00  0.00     0.002 A 
ATOM     77  C   UNL A   1      41.296  27.502  27.196  1.00  0.00     0.091 A 
ATOM     78  F   UNL A   1      42.173  29.330  28.460  1.00  0.00    -0.205 F 
ATOM     79  C   UNL A   1      40.428  26.400  27.120  1.00  0.00     0.022 A 
BRANCH  77  80
ATOM     80  S   UNL A   1      42.286  27.852  25.739  1.00  0.00     0.127 S 
ATOM     81  O   UNL A   1      43.629  27.950  26.313  1.00  0.00    -0.237 OA
ATOM     82  O   UNL A   1      42.057  26.661  24.922  1.00  0.00    -0.237 OA
ATOM     83  O   UNL A   1      41.764  29.091  25.181  1.00  0.00    -0.744 OA
ENDBRANCH  77  80
ENDBRANCH  59  73
BRANCH  60  84
ATOM     84  C   UNL A   1      39.636  34.059  37.294  1.00  0.00     0.023 A 
ATOM     85  C   UNL A   1      40.062  35.395  37.164  1.00  0.00     0.012 A 
ATOM     86  C   UNL A   1      39.050  33.634  38.500  1.00  0.00     0.148 A 
ATOM     87  C   UNL A   1      39.912  36.293  38.222  1.00  0.00     0.002 A 
ATOM     88  C   UNL A   1      38.874  34.541  39.539  1.00  0.00     0.091 A 
ATOM     89  F   UNL A   1      38.655  32.356  38.595  1.00  0.00    -0.205 F 
ATOM     90  C   UNL A   1      39.311  35.868  39.405  1.00  0.00     0.022 A 
BRANCH  88  91
ATOM     91  S   UNL A   1      38.031  34.118  41.067  1.00  0.00     0.127 S 
ATOM     92  O   UNL A   1      37.761  35.438  41.634  1.00  0.00    -0.237 OA
ATOM     93  O   UNL A   1      36.855  33.407  40.569  1.00  0.00    -0.237 OA
ATOM     94  O   UNL A   1      38.967  33.296  41.822  1.00  0.00    -0.744 OA
ENDBRANCH  88  91
ENDBRANCH  60  84
BRANCH  72  95
ATOM     95  C   UNL A   1      44.122  28.984  35.512  1.00  0.00     0.023 A 
ATOM     96  C   UNL A   1      45.377  29.608  35.396  1.00  0.00     0.012 A 
ATOM     97  C   UNL A   1      43.961  27.894  36.392  1.00  0.00     0.148 A 
ATOM     98  C   UNL A   1      46.460  29.159  36.149  1.00  0.00     0.002 A 
ATOM     99  C   UNL A   1      45.036  27.473  37.164  1.00  0.00     0.091 A 
ATOM    100  F   UNL A   1      42.753  27.319  36.481  1.00  0.00    -0.205 F 
ATOM    101  C   UNL A   1      46.287  28.102  37.042  1.00  0.00     0.022 A 
BRANCH  99 102
ATOM    102  S   UNL A   1      44.894  26.178  38.400  1.00  0.00     0.127 S 
ATOM    103  O   UNL A   1      46.266  26.090  38.899  1.00  0.00    -0.237 OA
ATOM    104  O   UNL A   1      43.938  26.757  39.343  1.00  0.00    -0.237 OA
ATOM    105  O   UNL A   1      44.419  24.995  37.696  1.00  0.00    -0.744 OA
ENDBRANCH  99 102
ENDBRANCH  72  95
ENDBRANCH  46  47
ENDBRANCH  38  41
ENDBRANCH  36  37
ENDBRANCH  35  36
ENDBRANCH   1  35
TORSDOF 17
ENDMDL
MODEL 2
REMARK VINA RESULT:     -13.6      1.578      7.431
REMARK SMILES O=C1C[C@H](C(=O)NCCCNC(=O)c2ccc(-c3c4nc(c(-c5cccc(S(=O)(=O)[O-])c5F)c5ccc([nH]5)c(-c5cccc(S(=O)(=O)[O-])c5F)c5nc(c(-c6cccc(S(=O)(=O)[O-])c6F)c6ccc3[nH]6)C=C5)C=C4)cc2)c2c(nc(Nc3ccc(Oc4ccccc4)cc3)[nH]c2=O)N1
REMARK SMILES IDX 8 1 7 2 5 3 6 4 4 6 1 7 2 8 3 9 98 10 78 11 77 13 79 14
REMARK SMILES IDX 96 15 80 16 95 17 97 18 81 20 82 22 83 23 94 24 84 25 93 26
REMARK SMILES IDX 85 27 86 28 87 29 88 30 92 31 89 32 91 33 90 34 9 35 10 36
REMARK SMILES IDX 11 37 12 38 13 40 14 41 15 42 76 43 16 44 75 45 17 46 18 47
REMARK SMILES IDX 19 48 69 49 20 50 74 51 68 52 70 53 21 54 73 55 67 56 66 57
REMARK SMILES IDX 22 59 54 60 34 61 53 62 35 63 38 64 52 65 71 66 36 67 37 68
REMARK SMILES IDX 51 70 72 71 39 72 23 73 24 74 32 75 25 76 27 77 33 78 26 79
REMARK SMILES IDX 28 80 29 81 30 82 31 83 55 84 56 85 64 86 57 87 59 88 65 89
REMARK SMILES IDX 58 90 60 91 61 92 62 93 63 94 40 95 41 96 49 97 42 98 44 99
REMARK SMILES IDX 50 100 43 101 45 102 46 103 47 104 48 105
REMARK H PARENT 7 5 98 12 95 19 81 21 11 39 70 58 38 69
REMARK Flexibility Score: inf
ROOT
ATOM      1  C   UNL A   1      32.804  30.526  27.270  1.00  0.00     0.117 C 
ENDROOT
BRANCH   1   2
ATOM      2  N   UNL A   1      33.314  30.109  25.974  1.00  0.00    -0.355 N 
ATOM      3  C   UNL A   1      32.718  29.473  24.929  1.00  0.00     0.228 C 
ATOM      4  O   UNL A   1      33.437  29.130  23.986  1.00  0.00    -0.274 OA
ATOM      5  H   UNL A   1      34.264  30.325  25.826  1.00  0.00     0.163 HD
BRANCH   3   6
ATOM      6  C   UNL A   1      31.226  29.146  24.922  1.00  0.00     0.127 C 
ATOM      7  O   UNL A   1      28.615  29.549  22.341  1.00  0.00    -0.275 OA
ATOM      8  C   UNL A   1      29.432  29.026  23.094  1.00  0.00     0.226 C 
ATOM      9  C   UNL A   1      30.568  29.809  23.706  1.00  0.00     0.119 C 
ATOM     10  N   UNL A   1      29.392  27.689  23.346  1.00  0.00    -0.310 N 
ATOM     11  C   UNL A   1      30.146  27.016  24.251  1.00  0.00     0.146 A 
ATOM     12  H   UNL A   1      28.751  27.158  22.820  1.00  0.00     0.171 HD
ATOM     13  C   UNL A   1      30.994  27.673  25.044  1.00  0.00     0.073 A 
ATOM     14  N   UNL A   1      29.939  25.676  24.259  1.00  0.00    -0.196 NA
ATOM     15  C   UNL A   1      31.713  26.857  26.038  1.00  0.00     0.258 A 
ATOM     16  C   UNL A   1      30.602  24.946  25.101  1.00  0.00     0.209 A 
ATOM     17  N   UNL A   1      31.482  25.514  25.979  1.00  0.00    -0.292 N 
ATOM     18  O   UNL A   1      32.467  27.335  26.877  1.00  0.00    -0.269 OA
ATOM     19  H   UNL A   1      31.970  24.926  26.599  1.00  0.00     0.173 HD
BRANCH  16  20
ATOM     20  N   UNL A   1      30.448  23.587  25.191  1.00  0.00    -0.326 N 
ATOM     21  H   UNL A   1      29.549  23.223  25.360  1.00  0.00     0.170 HD
BRANCH  20  22
ATOM     22  C   UNL A   1      31.522  22.692  25.051  1.00  0.00     0.041 A 
ATOM     23  C   UNL A   1      32.236  22.268  26.174  1.00  0.00     0.030 A 
ATOM     24  C   UNL A   1      31.798  22.099  23.813  1.00  0.00     0.030 A 
ATOM     25  C   UNL A   1      33.197  21.257  26.063  1.00  0.00     0.049 A 
ATOM     26  C   UNL A   1      32.766  21.102  23.696  1.00  0.00     0.049 A 
ATOM     27  C   UNL A   1      33.469  20.674  24.823  1.00  0.00     0.127 A 
BRANCH  27  28
ATOM     28  O   UNL A   1      34.412  19.664  24.828  1.00  0.00    -0.457 OA
BRANCH  28  29
ATOM     29  C   UNL A   1      33.940  18.376  24.763  1.00  0.00     0.127 A 
ATOM     30  C   UNL A   1      34.486  17.503  23.822  1.00  0.00     0.047 A 
ATOM     31  C   UNL A   1      32.937  17.951  25.637  1.00  0.00     0.047 A 
ATOM     32  C   UNL A   1      34.066  16.174  23.798  1.00  0.00     0.004 A 
ATOM     33  C   UNL A   1      32.525  16.620  25.613  1.00  0.00     0.004 A 
ATOM     34  C   UNL A   1      33.096  15.731  24.700  1.00  0.00     0.000 A 
ENDBRANCH  28  29
ENDBRANCH  27  28
ENDBRANCH  20  22
ENDBRANCH  16  20
ENDBRANCH   3   6
ENDBRANCH   1   2
BRANCH   1  35
ATOM     35  C   UNL A   1      32.043  31.840  27.184  1.00  0.00     0.042 C 
BRANCH  35  36
ATOM     36  C   UNL A   1      32.930  33.029  26.839  1.00  0.00     0.118 C 
BRANCH  36  37
ATOM     37  N   UNL A   1      32.680  34.173  27.706  1.00  0.00    -0.352 N 
ATOM     38  C   UNL A   1      33.274  34.489  28.904  1.00  0.00     0.251 C 
ATOM     39  H   UNL A   1      31.994  34.805  27.391  1.00  0.00     0.163 HD
ATOM     40  O   UNL A   1      32.807  35.375  29.614  1.00  0.00    -0.269 OA
BRANCH  38  41
ATOM     41  C   UNL A   1      34.468  33.735  29.334  1.00  0.00     0.039 A 
ATOM     42  C   UNL A   1      35.735  34.200  28.978  1.00  0.00     0.014 A 
ATOM     43  C   UNL A   1      34.325  32.583  30.114  1.00  0.00     0.014 A 
ATOM     44  C   UNL A   1      36.866  33.541  29.461  1.00  0.00     0.010 A 
ATOM     45  C   UNL A   1      35.451  31.975  30.656  1.00  0.00     0.010 A 
ATOM     46  C   UNL A   1      36.731  32.440  30.323  1.00  0.00    -0.014 A 
BRANCH  46  47
ATOM     47  C   UNL A   1      37.921  31.735  30.853  1.00  0.00     0.031 A 
ATOM     48  C   UNL A   1      38.454  32.095  32.210  1.00  0.00     0.074 A 
ATOM     49  C   UNL A   1      38.547  30.812  30.097  1.00  0.00     0.049 A 
ATOM     50  N   UNL A   1      39.479  31.594  32.846  1.00  0.00    -0.248 NA
ATOM     51  C   UNL A   1      37.757  33.166  32.944  1.00  0.00     0.031 C 
ATOM     52  C   UNL A   1      38.163  30.427  28.738  1.00  0.00     0.029 A 
ATOM     53  N   UNL A   1      39.651  30.041  30.362  1.00  0.00    -0.354 N 
ATOM     54  C   UNL A   1      39.562  32.298  34.040  1.00  0.00     0.074 A 
ATOM     55  C   UNL A   1      38.509  33.287  34.029  1.00  0.00     0.031 C 
ATOM     56  C   UNL A   1      39.009  29.482  28.294  1.00  0.00     0.029 A 
ATOM     57  C   UNL A   1      40.003  29.206  29.329  1.00  0.00     0.049 A 
ATOM     58  H   UNL A   1      40.145  30.081  31.213  1.00  0.00     0.167 HD
ATOM     59  C   UNL A   1      40.414  32.111  35.072  1.00  0.00     0.034 A 
ATOM     60  C   UNL A   1      41.008  28.315  29.227  1.00  0.00     0.034 A 
ATOM     61  C   UNL A   1      41.428  31.097  35.104  1.00  0.00     0.049 A 
ATOM     62  C   UNL A   1      41.932  28.111  30.397  1.00  0.00     0.074 A 
ATOM     63  C   UNL A   1      42.287  30.780  36.140  1.00  0.00     0.029 A 
ATOM     64  N   UNL A   1      41.722  30.241  34.057  1.00  0.00    -0.354 N 
ATOM     65  N   UNL A   1      41.908  28.693  31.571  1.00  0.00    -0.248 NA
ATOM     66  C   UNL A   1      43.001  27.114  30.242  1.00  0.00     0.031 C 
ATOM     67  C   UNL A   1      43.111  29.736  35.714  1.00  0.00     0.029 A 
ATOM     68  C   UNL A   1      42.755  29.397  34.417  1.00  0.00     0.049 A 
ATOM     69  H   UNL A   1      41.264  30.234  33.184  1.00  0.00     0.167 HD
ATOM     70  C   UNL A   1      42.939  28.116  32.304  1.00  0.00     0.074 A 
ATOM     71  C   UNL A   1      43.565  27.132  31.445  1.00  0.00     0.031 C 
ATOM     72  C   UNL A   1      43.335  28.389  33.570  1.00  0.00     0.034 A 
BRANCH  59  73
ATOM     73  C   UNL A   1      40.241  32.971  36.291  1.00  0.00     0.023 A 
ATOM     74  C   UNL A   1      40.911  34.208  36.354  1.00  0.00     0.012 A 
ATOM     75  C   UNL A   1      39.351  32.604  37.317  1.00  0.00     0.148 A 
ATOM     76  C   UNL A   1      40.704  35.070  37.428  1.00  0.00     0.002 A 
ATOM     77  C   UNL A   1      39.127  33.483  38.370  1.00  0.00     0.091 A 
ATOM     78  F   UNL A   1      38.740  31.415  37.238  1.00  0.00    -0.205 F 
ATOM     79  C   UNL A   1      39.805  34.712  38.430  1.00  0.00     0.022 A 
BRANCH  77  80
ATOM     80  S   UNL A   1      37.951  33.144  39.685  1.00  0.00     0.127 S 
ATOM     81  O   UNL A   1      38.541  31.959  40.308  1.00  0.00    -0.237 OA
ATOM     82  O   UNL A   1      38.036  34.363  40.490  1.00  0.00    -0.237 OA
ATOM     83  O   UNL A   1      36.668  32.924  39.035  1.00  0.00    -0.744 OA
ENDBRANCH  77  80
ENDBRANCH  59  73
BRANCH  60  84
ATOM     84  C   UNL A   1      41.133  27.489  27.996  1.00  0.00     0.023 A 
ATOM     85  C   UNL A   1      41.721  28.055  26.848  1.00  0.00     0.012 A 
ATOM     86  C   UNL A   1      40.737  26.139  27.976  1.00  0.00     0.148 A 
ATOM     87  C   UNL A   1      41.903  27.291  25.695  1.00  0.00     0.002 A 
ATOM     88  C   UNL A   1      40.952  25.374  26.835  1.00  0.00     0.091 A 
ATOM     89  F   UNL A   1      40.181  25.627  29.083  1.00  0.00    -0.205 F 
ATOM     90  C   UNL A   1      41.527  25.950  25.691  1.00  0.00     0.022 A 
BRANCH  88  91
ATOM     91  S   UNL A   1      40.586  23.617  26.759  1.00  0.00     0.127 S 
ATOM     92  O   UNL A   1      41.489  23.171  25.700  1.00  0.00    -0.237 OA
ATOM     93  O   UNL A   1      40.951  23.181  28.106  1.00  0.00    -0.237 OA
ATOM     94  O   UNL A   1      39.166  23.521  26.449  1.00  0.00    -0.744 OA
ENDBRANCH  88  91
ENDBRANCH  60  84
BRANCH  72  95
ATOM     95  C   UNL A   1      44.493  27.619  34.140  1.00  0.00     0.023 A 
ATOM     96  C   UNL A   1      45.787  28.167  34.066  1.00  0.00     0.012 A 
ATOM     97  C   UNL A   1      44.270  26.449  34.893  1.00  0.00     0.148 A 
ATOM     98  C   UNL A   1      46.847  27.563  34.737  1.00  0.00     0.002 A 
ATOM     99  C   UNL A   1      45.326  25.871  35.588  1.00  0.00     0.091 A 
ATOM    100  F   UNL A   1      43.027  25.950  34.945  1.00  0.00    -0.205 F 
ATOM    101  C   UNL A   1      46.615  26.425  35.508  1.00  0.00     0.022 A 
BRANCH  99 102
ATOM    102  S   UNL A   1      45.114  24.455  36.672  1.00  0.00     0.127 S 
ATOM    103  O   UNL A   1      44.102  24.945  37.608  1.00  0.00    -0.237 OA
ATOM    104  O   UNL A   1      44.641  23.427  35.745  1.00  0.00    -0.237 OA
ATOM    105  O   UNL A   1      46.421  24.194  37.260  1.00  0.00    -0.744 OA
ENDBRANCH  99 102
ENDBRANCH  72  95
ENDBRANCH  46  47
ENDBRANCH  38  41
ENDBRANCH  36  37
ENDBRANCH  35  36
ENDBRANCH   1  35
TORSDOF 17
ENDMDL
MODEL 3
REMARK VINA RESULT:     -13.4      1.196      7.629
REMARK SMILES O=C1C[C@H](C(=O)NCCCNC(=O)c2ccc(-c3c4nc(c(-c5cccc(S(=O)(=O)[O-])c5F)c5ccc([nH]5)c(-c5cccc(S(=O)(=O)[O-])c5F)c5nc(c(-c6cccc(S(=O)(=O)[O-])c6F)c6ccc3[nH]6)C=C5)C=C4)cc2)c2c(nc(Nc3ccc(Oc4ccccc4)cc3)[nH]c2=O)N1
REMARK SMILES IDX 8 1 7 2 5 3 6 4 4 6 1 7 2 8 3 9 98 10 78 11 77 13 79 14
REMARK SMILES IDX 96 15 80 16 95 17 97 18 81 20 82 22 83 23 94 24 84 25 93 26
REMARK SMILES IDX 85 27 86 28 87 29 88 30 92 31 89 32 91 33 90 34 9 35 10 36
REMARK SMILES IDX 11 37 12 38 13 40 14 41 15 42 76 43 16 44 75 45 17 46 18 47
REMARK SMILES IDX 19 48 69 49 20 50 74 51 68 52 70 53 21 54 73 55 67 56 66 57
REMARK SMILES IDX 22 59 54 60 34 61 53 62 35 63 38 64 52 65 71 66 36 67 37 68
REMARK SMILES IDX 51 70 72 71 39 72 23 73 24 74 32 75 25 76 27 77 33 78 26 79
REMARK SMILES IDX 28 80 29 81 30 82 31 83 55 84 56 85 64 86 57 87 59 88 65 89
REMARK SMILES IDX 58 90 60 91 61 92 62 93 63 94 40 95 41 96 49 97 42 98 44 99
REMARK SMILES IDX 50 100 43 101 45 102 46 103 47 104 48 105
REMARK H PARENT 7 5 98 12 95 19 81 21 11 39 70 58 38 69
REMARK Flexibility Score: inf
ROOT
ATOM      1  C   UNL A   1      32.346  30.551  27.176  1.00  0.00     0.117 C 
ENDROOT
BRANCH   1   2
ATOM      2  N   UNL A   1      32.998  30.134  25.945  1.00  0.00    -0.355 N 
ATOM      3  C   UNL A   1      32.537  29.448  24.864  1.00  0.00     0.228 C 
ATOM      4  O   UNL A   1      33.360  29.122  24.003  1.00  0.00    -0.274 OA
ATOM      5  H   UNL A   1      33.947  30.394  25.884  1.00  0.00     0.163 HD
BRANCH   3   6
ATOM      6  C   UNL A   1      31.070  29.048  24.722  1.00  0.00     0.127 C 
ATOM      7  O   UNL A   1      28.678  29.356  21.924  1.00  0.00    -0.275 OA
ATOM      8  C   UNL A   1      29.452  28.864  22.741  1.00  0.00     0.226 C 
ATOM      9  C   UNL A   1      30.488  29.694  23.459  1.00  0.00     0.119 C 
ATOM     10  N   UNL A   1      29.457  27.524  22.977  1.00  0.00    -0.310 N 
ATOM     11  C   UNL A   1      30.162  26.876  23.938  1.00  0.00     0.146 A 
ATOM     12  H   UNL A   1      28.893  26.968  22.391  1.00  0.00     0.171 HD
ATOM     13  C   UNL A   1      30.903  27.564  24.809  1.00  0.00     0.073 A 
ATOM     14  N   UNL A   1      30.023  25.528  23.916  1.00  0.00    -0.196 NA
ATOM     15  C   UNL A   1      31.572  26.771  25.855  1.00  0.00     0.258 A 
ATOM     16  C   UNL A   1      30.646  24.820  24.806  1.00  0.00     0.209 A 
ATOM     17  N   UNL A   1      31.415  25.419  25.763  1.00  0.00    -0.292 N 
ATOM     18  O   UNL A   1      32.224  27.274  26.762  1.00  0.00    -0.269 OA
ATOM     19  H   UNL A   1      31.877  24.848  26.419  1.00  0.00     0.173 HD
BRANCH  16  20
ATOM     20  N   UNL A   1      30.554  23.453  24.870  1.00  0.00    -0.326 N 
ATOM     21  H   UNL A   1      29.663  23.043  24.951  1.00  0.00     0.170 HD
BRANCH  20  22
ATOM     22  C   UNL A   1      31.680  22.616  24.822  1.00  0.00     0.041 A 
ATOM     23  C   UNL A   1      32.524  22.634  23.709  1.00  0.00     0.030 A 
ATOM     24  C   UNL A   1      32.058  21.865  25.942  1.00  0.00     0.030 A 
ATOM     25  C   UNL A   1      33.732  21.927  23.723  1.00  0.00     0.049 A 
ATOM     26  C   UNL A   1      33.253  21.147  25.954  1.00  0.00     0.049 A 
ATOM     27  C   UNL A   1      34.098  21.176  24.843  1.00  0.00     0.127 A 
BRANCH  27  28
ATOM     28  O   UNL A   1      35.323  20.542  24.767  1.00  0.00    -0.457 OA
BRANCH  28  29
ATOM     29  C   UNL A   1      36.425  21.277  25.129  1.00  0.00     0.127 A 
ATOM     30  C   UNL A   1      36.258  22.616  25.483  1.00  0.00     0.047 A 
ATOM     31  C   UNL A   1      37.689  20.683  25.149  1.00  0.00     0.047 A 
ATOM     32  C   UNL A   1      37.358  23.350  25.924  1.00  0.00     0.004 A 
ATOM     33  C   UNL A   1      38.785  21.419  25.596  1.00  0.00     0.004 A 
ATOM     34  C   UNL A   1      38.617  22.748  25.990  1.00  0.00     0.000 A 
ENDBRANCH  28  29
ENDBRANCH  27  28
ENDBRANCH  20  22
ENDBRANCH  16  20
ENDBRANCH   3   6
ENDBRANCH   1   2
BRANCH   1  35
ATOM     35  C   UNL A   1      31.927  32.013  27.128  1.00  0.00     0.042 C 
BRANCH  35  36
ATOM     36  C   UNL A   1      33.100  32.979  27.216  1.00  0.00     0.118 C 
BRANCH  36  37
ATOM     37  N   UNL A   1      32.719  34.258  27.803  1.00  0.00    -0.352 N 
ATOM     38  C   UNL A   1      33.177  34.844  28.957  1.00  0.00     0.251 C 
ATOM     39  H   UNL A   1      32.042  34.770  27.304  1.00  0.00     0.163 HD
ATOM     40  O   UNL A   1      32.606  35.824  29.425  1.00  0.00    -0.269 OA
BRANCH  38  41
ATOM     41  C   UNL A   1      34.352  34.265  29.638  1.00  0.00     0.039 A 
ATOM     42  C   UNL A   1      34.160  33.429  30.739  1.00  0.00     0.014 A 
ATOM     43  C   UNL A   1      35.639  34.531  29.161  1.00  0.00     0.014 A 
ATOM     44  C   UNL A   1      35.262  32.807  31.325  1.00  0.00     0.010 A 
ATOM     45  C   UNL A   1      36.725  33.851  29.697  1.00  0.00     0.010 A 
ATOM     46  C   UNL A   1      36.549  32.995  30.792  1.00  0.00    -0.014 A 
BRANCH  46  47
ATOM     47  C   UNL A   1      37.729  32.334  31.397  1.00  0.00     0.031 A 
ATOM     48  C   UNL A   1      38.270  32.832  32.706  1.00  0.00     0.074 A 
ATOM     49  C   UNL A   1      38.340  31.324  30.746  1.00  0.00     0.049 A 
ATOM     50  N   UNL A   1      39.288  32.388  33.393  1.00  0.00    -0.248 NA
ATOM     51  C   UNL A   1      37.590  33.988  33.318  1.00  0.00     0.031 C 
ATOM     52  C   UNL A   1      37.948  30.798  29.437  1.00  0.00     0.029 A 
ATOM     53  N   UNL A   1      39.432  30.569  31.095  1.00  0.00    -0.354 N 
ATOM     54  C   UNL A   1      39.383  33.217  34.504  1.00  0.00     0.074 A 
ATOM     55  C   UNL A   1      38.346  34.215  34.384  1.00  0.00     0.031 C 
ATOM     56  C   UNL A   1      38.778  29.797  29.100  1.00  0.00     0.029 A 
ATOM     57  C   UNL A   1      39.770  29.621  30.159  1.00  0.00     0.049 A 
ATOM     58  H   UNL A   1      39.927  30.695  31.937  1.00  0.00     0.167 HD
ATOM     59  C   UNL A   1      40.234  33.130  35.550  1.00  0.00     0.034 A 
ATOM     60  C   UNL A   1      40.761  28.708  30.157  1.00  0.00     0.034 A 
ATOM     61  C   UNL A   1      41.232  32.110  35.693  1.00  0.00     0.049 A 
ATOM     62  C   UNL A   1      41.683  28.620  31.341  1.00  0.00     0.074 A 
ATOM     63  C   UNL A   1      42.087  31.895  36.758  1.00  0.00     0.029 A 
ATOM     64  N   UNL A   1      41.511  31.140  34.746  1.00  0.00    -0.354 N 
ATOM     65  N   UNL A   1      41.670  29.327  32.445  1.00  0.00    -0.248 NA
ATOM     66  C   UNL A   1      42.736  27.595  31.297  1.00  0.00     0.031 C 
ATOM     67  C   UNL A   1      42.895  30.799  36.449  1.00  0.00     0.029 A 
ATOM     68  C   UNL A   1      42.532  30.326  35.197  1.00  0.00     0.049 A 
ATOM     69  H   UNL A   1      41.052  31.045  33.880  1.00  0.00     0.167 HD
ATOM     70  C   UNL A   1      42.693  28.818  33.236  1.00  0.00     0.074 A 
ATOM     71  C   UNL A   1      43.301  27.736  32.491  1.00  0.00     0.031 C 
ATOM     72  C   UNL A   1      43.094  29.221  34.465  1.00  0.00     0.034 A 
BRANCH  59  73
ATOM     73  C   UNL A   1      40.076  34.121  36.667  1.00  0.00     0.023 A 
ATOM     74  C   UNL A   1      40.371  35.477  36.424  1.00  0.00     0.012 A 
ATOM     75  C   UNL A   1      39.550  33.732  37.913  1.00  0.00     0.148 A 
ATOM     76  C   UNL A   1      40.152  36.435  37.410  1.00  0.00     0.002 A 
ATOM     77  C   UNL A   1      39.305  34.699  38.881  1.00  0.00     0.091 A 
ATOM     78  F   UNL A   1      39.293  32.434  38.121  1.00  0.00    -0.205 F 
ATOM     79  C   UNL A   1      39.610  36.049  38.633  1.00  0.00     0.022 A 
BRANCH  77  80
ATOM     80  S   UNL A   1      38.561  34.318  40.470  1.00  0.00     0.127 S 
ATOM     81  O   UNL A   1      37.241  33.830  40.066  1.00  0.00    -0.237 OA
ATOM     82  O   UNL A   1      39.460  33.287  40.988  1.00  0.00    -0.237 OA
ATOM     83  O   UNL A   1      38.552  35.563  41.224  1.00  0.00    -0.744 OA
ENDBRANCH  77  80
ENDBRANCH  59  73
BRANCH  60  84
ATOM     84  C   UNL A   1      40.871  27.751  29.023  1.00  0.00     0.023 A 
ATOM     85  C   UNL A   1      40.026  26.625  28.993  1.00  0.00     0.012 A 
ATOM     86  C   UNL A   1      41.755  27.981  27.952  1.00  0.00     0.148 A 
ATOM     87  C   UNL A   1      40.065  25.738  27.916  1.00  0.00     0.002 A 
ATOM     88  C   UNL A   1      41.765  27.112  26.868  1.00  0.00     0.091 A 
ATOM     89  F   UNL A   1      42.547  29.061  28.009  1.00  0.00    -0.205 F 
ATOM     90  C   UNL A   1      40.927  25.985  26.851  1.00  0.00     0.022 A 
BRANCH  88  91
ATOM     91  S   UNL A   1      42.773  27.391  25.408  1.00  0.00     0.127 S 
ATOM     92  O   UNL A   1      42.512  26.181  24.630  1.00  0.00    -0.237 OA
ATOM     93  O   UNL A   1      42.178  28.613  24.868  1.00  0.00    -0.237 OA
ATOM     94  O   UNL A   1      44.140  27.538  25.891  1.00  0.00    -0.744 OA
ENDBRANCH  88  91
ENDBRANCH  60  84
BRANCH  72  95
ATOM     95  C   UNL A   1      44.241  28.501  35.116  1.00  0.00     0.023 A 
ATOM     96  C   UNL A   1      45.557  28.917  34.847  1.00  0.00     0.012 A 
ATOM     97  C   UNL A   1      44.002  27.538  36.117  1.00  0.00     0.148 A 
ATOM     98  C   UNL A   1      46.626  28.386  35.567  1.00  0.00     0.002 A 
ATOM     99  C   UNL A   1      45.069  27.038  36.855  1.00  0.00     0.091 A 
ATOM    100  F   UNL A   1      42.738  27.160  36.351  1.00  0.00    -0.205 F 
ATOM    101  C   UNL A   1      46.381  27.459  36.579  1.00  0.00     0.022 A 
BRANCH  99 102
ATOM    102  S   UNL A   1      44.850  25.904  38.230  1.00  0.00     0.127 S 
ATOM    103  O   UNL A   1      44.227  24.756  37.573  1.00  0.00    -0.237 OA
ATOM    104  O   UNL A   1      46.228  25.684  38.669  1.00  0.00    -0.237 OA
ATOM    105  O   UNL A   1      44.005  26.594  39.195  1.00  0.00    -0.744 OA
ENDBRANCH  99 102
ENDBRANCH  72  95
ENDBRANCH  46  47
ENDBRANCH  38  41
ENDBRANCH  36  37
ENDBRANCH  35  36
ENDBRANCH   1  35
TORSDOF 17
ENDMDL
