MODEL 1
REMARK VINA RESULT:     -13.6      0.000      0.000
REMARK SMILES Cc1c(-c2nn(-c3ccccc3)cc2/C=N/O)nnn1-c1ccc(C(=O)NCCCNC(=O)c2ccc(-c3c4nc(c(-c5cccc(S(=O)(=O)[O-])c5F)c5ccc([nH]5)c(-c5cccc(S(=O)(=O)[O-])c5F)c5nc(c(-c6cccc(S(=O)(=O)[O-])c6F)c6ccc3[nH]6)C=C5)C=C4)cc2)cc1
REMARK SMILES IDX 28 1 27 2 25 3 26 4 24 6 21 7 22 8 98 9 23 10 97 11 20 12
REMARK SMILES IDX 1 13 2 14 3 15 18 16 19 17 4 18 5 19 14 20 6 21 13 22 15 23
REMARK SMILES IDX 16 24 17 25 7 27 8 28 12 29 9 30 11 31 10 32 29 33 30 34
REMARK SMILES IDX 31 35 32 36 33 38 34 39 35 40 96 41 36 42 95 43 37 44 38 45
REMARK SMILES IDX 39 46 89 47 40 48 94 49 88 50 90 51 41 52 93 53 87 54 86 55
REMARK SMILES IDX 42 57 74 58 54 59 73 60 55 61 58 62 72 63 91 64 56 65 57 66
REMARK SMILES IDX 71 68 92 69 59 70 43 71 44 72 52 73 45 74 47 75 53 76 46 77
REMARK SMILES IDX 48 78 49 79 50 80 51 81 75 82 76 83 84 84 77 85 79 86 85 87
REMARK SMILES IDX 78 88 80 89 81 90 82 91 83 92 60 93 61 94 69 95 62 96 64 97
REMARK SMILES IDX 70 98 63 99 65 100 66 101 67 102 68 103
REMARK H PARENT 27 5 17 26 31 37 90 56 58 67
REMARK Flexibility Score: inf
ROOT
ATOM      1  C   UNL A   1      36.721  20.366  25.057  1.00  0.00     0.118 C 
ENDROOT
BRANCH   1   2
ATOM      2  N   UNL A   1      35.711  19.332  24.924  1.00  0.00    -0.352 N 
ATOM      3  C   UNL A   1      34.340  19.355  24.920  1.00  0.00     0.251 C 
ATOM      4  O   UNL A   1      33.766  18.298  24.664  1.00  0.00    -0.269 OA
ATOM      5  H   UNL A   1      36.088  18.429  24.815  1.00  0.00     0.163 HD
BRANCH   3   6
ATOM      6  C   UNL A   1      33.520  20.584  25.130  1.00  0.00     0.039 A 
ATOM      7  C   UNL A   1      32.120  23.011  25.296  1.00  0.00     0.067 A 
ATOM      8  C   UNL A   1      32.218  22.357  24.069  1.00  0.00     0.029 A 
ATOM      9  C   UNL A   1      32.627  22.417  26.454  1.00  0.00     0.029 A 
ATOM     10  C   UNL A   1      32.944  21.166  23.987  1.00  0.00     0.016 A 
ATOM     11  C   UNL A   1      33.281  21.185  26.368  1.00  0.00     0.016 A 
BRANCH   7  12
ATOM     12  N   UNL A   1      31.499  24.274  25.359  1.00  0.00    -0.217 N 
ATOM     13  C   UNL A   1      32.995  25.644  23.804  1.00  0.00     0.069 C 
ATOM     14  C   UNL A   1      31.911  25.471  24.801  1.00  0.00     0.071 A 
ATOM     15  C   UNL A   1      30.983  26.371  25.288  1.00  0.00     0.137 A 
ATOM     16  N   UNL A   1      30.029  25.727  26.017  1.00  0.00    -0.128 NA
ATOM     17  N   UNL A   1      30.312  24.432  25.991  1.00  0.00    -0.061 NA
BRANCH  15  18
ATOM     18  C   UNL A   1      30.872  27.797  25.018  1.00  0.00     0.124 A 
ATOM     19  N   UNL A   1      29.993  28.281  24.133  1.00  0.00    -0.165 NA
ATOM     20  C   UNL A   1      31.640  28.812  25.632  1.00  0.00     0.044 A 
ATOM     21  N   UNL A   1      30.243  29.605  24.102  1.00  0.00    -0.240 N 
ATOM     22  C   UNL A   1      31.242  29.963  24.978  1.00  0.00     0.125 A 
BRANCH  20  23
ATOM     23  C   UNL A   1      32.613  28.757  26.695  1.00  0.00     0.166 C 
ATOM     24  N   UNL A   1      33.202  29.836  27.088  1.00  0.00    -0.097 NA
BRANCH  24  25
ATOM     25  O   UNL A   1      34.123  29.521  28.095  1.00  0.00    -0.411 OA
ATOM     26  H   UNL A   1      33.850  29.023  28.840  1.00  0.00     0.330 HD
ENDBRANCH  24  25
ENDBRANCH  20  23
BRANCH  21  27
ATOM     27  C   UNL A   1      29.525  30.454  23.232  1.00  0.00     0.065 A 
ATOM     28  C   UNL A   1      29.070  31.692  23.707  1.00  0.00     0.028 A 
ATOM     29  C   UNL A   1      29.256  30.060  21.916  1.00  0.00     0.028 A 
ATOM     30  C   UNL A   1      28.375  32.548  22.853  1.00  0.00     0.002 A 
ATOM     31  C   UNL A   1      28.512  30.900  21.087  1.00  0.00     0.002 A 
ATOM     32  C   UNL A   1      28.085  32.146  21.549  1.00  0.00     0.000 A 
ENDBRANCH  21  27
ENDBRANCH  15  18
ENDBRANCH   7  12
ENDBRANCH   3   6
ENDBRANCH   1   2
BRANCH   1  33
ATOM     33  C   UNL A   1      38.119  19.853  24.692  1.00  0.00     0.042 C 
BRANCH  33  34
ATOM     34  C   UNL A   1      39.140  20.172  25.773  1.00  0.00     0.118 C 
BRANCH  34  35
ATOM     35  N   UNL A   1      40.261  19.228  25.760  1.00  0.00    -0.352 N 
ATOM     36  C   UNL A   1      41.611  19.481  25.925  1.00  0.00     0.251 C 
ATOM     37  H   UNL A   1      40.020  18.284  25.612  1.00  0.00     0.163 HD
ATOM     38  O   UNL A   1      42.441  18.670  25.552  1.00  0.00    -0.269 OA
BRANCH  36  39
ATOM     39  C   UNL A   1      42.023  20.749  26.553  1.00  0.00     0.039 A 
ATOM     40  C   UNL A   1      42.366  21.858  25.776  1.00  0.00     0.014 A 
ATOM     41  C   UNL A   1      42.024  20.827  27.943  1.00  0.00     0.014 A 
ATOM     42  C   UNL A   1      42.624  23.066  26.416  1.00  0.00     0.010 A 
ATOM     43  C   UNL A   1      42.095  22.051  28.554  1.00  0.00     0.010 A 
ATOM     44  C   UNL A   1      42.454  23.164  27.808  1.00  0.00    -0.014 A 
BRANCH  44  45
ATOM     45  C   UNL A   1      42.508  24.460  28.474  1.00  0.00     0.031 A 
ATOM     46  C   UNL A   1      41.334  25.325  28.184  1.00  0.00     0.074 A 
ATOM     47  C   UNL A   1      43.421  24.783  29.419  1.00  0.00     0.049 A 
ATOM     48  N   UNL A   1      41.308  26.372  27.427  1.00  0.00    -0.248 NA
ATOM     49  C   UNL A   1      40.004  24.874  28.624  1.00  0.00     0.031 C 
ATOM     50  C   UNL A   1      44.442  23.915  30.020  1.00  0.00     0.029 A 
ATOM     51  N   UNL A   1      43.541  25.928  30.147  1.00  0.00    -0.354 N 
ATOM     52  C   UNL A   1      40.016  26.872  27.545  1.00  0.00     0.074 A 
ATOM     53  C   UNL A   1      39.214  25.801  28.075  1.00  0.00     0.031 C 
ATOM     54  C   UNL A   1      44.883  24.465  31.173  1.00  0.00     0.029 A 
ATOM     55  C   UNL A   1      44.324  25.796  31.293  1.00  0.00     0.049 A 
ATOM     56  H   UNL A   1      43.112  26.775  29.887  1.00  0.00     0.167 HD
ATOM     57  C   UNL A   1      39.786  28.213  27.503  1.00  0.00     0.034 A 
ATOM     58  C   UNL A   1      44.477  26.707  32.285  1.00  0.00     0.034 A 
ATOM     59  C   UNL A   1      40.921  28.929  26.977  1.00  0.00     0.049 A 
ATOM     60  C   UNL A   1      44.111  28.021  31.720  1.00  0.00     0.074 A 
ATOM     61  C   UNL A   1      41.666  28.870  25.816  1.00  0.00     0.029 A 
ATOM     62  N   UNL A   1      41.698  29.598  27.892  1.00  0.00    -0.354 N 
ATOM     63  N   UNL A   1      44.799  28.619  30.788  1.00  0.00    -0.248 NA
ATOM     64  C   UNL A   1      42.747  28.486  31.892  1.00  0.00     0.031 C 
ATOM     65  C   UNL A   1      43.015  29.081  26.233  1.00  0.00     0.029 A 
ATOM     66  C   UNL A   1      43.011  29.338  27.606  1.00  0.00     0.049 A 
ATOM     67  H   UNL A   1      41.367  30.165  28.625  1.00  0.00     0.167 HD
ATOM     68  C   UNL A   1      43.832  29.162  29.953  1.00  0.00     0.074 A 
ATOM     69  C   UNL A   1      42.606  29.166  30.752  1.00  0.00     0.031 C 
ATOM     70  C   UNL A   1      44.052  29.274  28.610  1.00  0.00     0.034 A 
BRANCH  57  71
ATOM     71  C   UNL A   1      38.724  28.915  28.320  1.00  0.00     0.023 A 
ATOM     72  C   UNL A   1      37.886  29.833  27.651  1.00  0.00     0.012 A 
ATOM     73  C   UNL A   1      38.686  28.929  29.733  1.00  0.00     0.148 A 
ATOM     74  C   UNL A   1      37.082  30.738  28.353  1.00  0.00     0.002 A 
ATOM     75  C   UNL A   1      37.813  29.759  30.424  1.00  0.00     0.091 A 
ATOM     76  F   UNL A   1      39.598  28.249  30.435  1.00  0.00    -0.205 F 
ATOM     77  C   UNL A   1      37.032  30.690  29.741  1.00  0.00     0.022 A 
BRANCH  75  78
ATOM     78  S   UNL A   1      37.667  29.680  32.214  1.00  0.00     0.127 S 
ATOM     79  O   UNL A   1      36.514  30.543  32.449  1.00  0.00    -0.237 OA
ATOM     80  O   UNL A   1      37.430  28.252  32.428  1.00  0.00    -0.237 OA
ATOM     81  O   UNL A   1      38.945  30.154  32.728  1.00  0.00    -0.744 OA
ENDBRANCH  75  78
ENDBRANCH  57  71
BRANCH  58  82
ATOM     82  C   UNL A   1      44.705  26.528  33.737  1.00  0.00     0.023 A 
ATOM     83  C   UNL A   1      45.929  26.941  34.303  1.00  0.00     0.012 A 
ATOM     84  C   UNL A   1      43.627  26.254  34.607  1.00  0.00     0.148 A 
ATOM     85  C   UNL A   1      46.061  27.125  35.686  1.00  0.00     0.002 A 
ATOM     86  C   UNL A   1      43.764  26.438  35.980  1.00  0.00     0.091 A 
ATOM     87  F   UNL A   1      42.447  25.906  34.078  1.00  0.00    -0.205 F 
ATOM     88  C   UNL A   1      44.975  26.888  36.522  1.00  0.00     0.022 A 
BRANCH  86  89
ATOM     89  S   UNL A   1      42.400  26.192  37.126  1.00  0.00     0.127 S 
ATOM     90  O   UNL A   1      42.061  24.787  36.893  1.00  0.00    -0.237 OA
ATOM     91  O   UNL A   1      43.035  26.462  38.413  1.00  0.00    -0.237 OA
ATOM     92  O   UNL A   1      41.368  27.136  36.720  1.00  0.00    -0.744 OA
ENDBRANCH  86  89
ENDBRANCH  58  82
BRANCH  70  93
ATOM     93  C   UNL A   1      45.465  29.088  28.108  1.00  0.00     0.023 A 
ATOM     94  C   UNL A   1      46.436  30.111  28.147  1.00  0.00     0.012 A 
ATOM     95  C   UNL A   1      45.857  27.799  27.711  1.00  0.00     0.148 A 
ATOM     96  C   UNL A   1      47.759  29.860  27.767  1.00  0.00     0.002 A 
ATOM     97  C   UNL A   1      47.182  27.542  27.380  1.00  0.00     0.091 A 
ATOM     98  F   UNL A   1      44.924  26.835  27.680  1.00  0.00    -0.205 F 
ATOM     99  C   UNL A   1      48.134  28.571  27.396  1.00  0.00     0.022 A 
BRANCH  97 100
ATOM    100  S   UNL A   1      47.744  25.879  27.007  1.00  0.00     0.127 S 
ATOM    101  O   UNL A   1      49.173  26.082  26.785  1.00  0.00    -0.237 OA
ATOM    102  O   UNL A   1      47.411  25.152  28.233  1.00  0.00    -0.237 OA
ATOM    103  O   UNL A   1      46.981  25.452  25.840  1.00  0.00    -0.744 OA
ENDBRANCH  97 100
ENDBRANCH  70  93
ENDBRANCH  44  45
ENDBRANCH  36  39
ENDBRANCH  34  35
ENDBRANCH  33  34
ENDBRANCH   1  33
TORSDOF 18
ENDMDL
MODEL 2
REMARK VINA RESULT:     -13.5      1.348      2.242
REMARK SMILES Cc1c(-c2nn(-c3ccccc3)cc2/C=N/O)nnn1-c1ccc(C(=O)NCCCNC(=O)c2ccc(-c3c4nc(c(-c5cccc(S(=O)(=O)[O-])c5F)c5ccc([nH]5)c(-c5cccc(S(=O)(=O)[O-])c5F)c5nc(c(-c6cccc(S(=O)(=O)[O-])c6F)c6ccc3[nH]6)C=C5)C=C4)cc2)cc1
REMARK SMILES IDX 28 1 27 2 25 3 26 4 24 6 21 7 22 8 98 9 23 10 97 11 20 12
REMARK SMILES IDX 1 13 2 14 3 15 18 16 19 17 4 18 5 19 14 20 6 21 13 22 15 23
REMARK SMILES IDX 16 24 17 25 7 27 8 28 12 29 9 30 11 31 10 32 29 33 30 34
REMARK SMILES IDX 31 35 32 36 33 38 34 39 35 40 96 41 36 42 95 43 37 44 38 45
REMARK SMILES IDX 39 46 89 47 40 48 94 49 88 50 90 51 41 52 93 53 87 54 86 55
REMARK SMILES IDX 42 57 74 58 54 59 73 60 55 61 58 62 72 63 91 64 56 65 57 66
REMARK SMILES IDX 71 68 92 69 59 70 43 71 44 72 52 73 45 74 47 75 53 76 46 77
REMARK SMILES IDX 48 78 49 79 50 80 51 81 75 82 76 83 84 84 77 85 79 86 85 87
REMARK SMILES IDX 78 88 80 89 81 90 82 91 83 92 60 93 61 94 69 95 62 96 64 97
REMARK SMILES IDX 70 98 63 99 65 100 66 101 67 102 68 103
REMARK H PARENT 27 5 17 26 31 37 90 56 58 67
REMARK Flexibility Score: inf
ROOT
ATOM      1  C   UNL A   1      36.653  20.502  25.062  1.00  0.00     0.118 C 
ENDROOT
BRANCH   1   2
ATOM      2  N   UNL A   1      35.514  19.602  25.060  1.00  0.00    -0.352 N 
ATOM      3  C   UNL A   1      34.169  19.791  25.249  1.00  0.00     0.251 C 
ATOM      4  O   UNL A   1      33.438  18.820  25.065  1.00  0.00    -0.269 OA
ATOM      5  H   UNL A   1      35.757  18.664  24.889  1.00  0.00     0.163 HD
BRANCH   3   6
ATOM      6  C   UNL A   1      33.545  21.104  25.588  1.00  0.00     0.039 A 
ATOM      7  C   UNL A   1      32.460  23.666  25.959  1.00  0.00     0.067 A 
ATOM      8  C   UNL A   1      32.182  22.965  24.786  1.00  0.00     0.029 A 
ATOM      9  C   UNL A   1      33.189  23.062  26.985  1.00  0.00     0.029 A 
ATOM     10  C   UNL A   1      32.752  21.704  24.594  1.00  0.00     0.016 A 
ATOM     11  C   UNL A   1      33.685  21.766  26.809  1.00  0.00     0.016 A 
BRANCH   7  12
ATOM     12  N   UNL A   1      31.993  24.987  26.103  1.00  0.00    -0.217 N 
ATOM     13  C   UNL A   1      33.711  26.278  24.719  1.00  0.00     0.069 C 
ATOM     14  C   UNL A   1      32.570  26.164  25.660  1.00  0.00     0.071 A 
ATOM     15  C   UNL A   1      31.736  27.131  26.185  1.00  0.00     0.137 A 
ATOM     16  N   UNL A   1      30.680  26.555  26.825  1.00  0.00    -0.128 NA
ATOM     17  N   UNL A   1      30.806  25.242  26.703  1.00  0.00    -0.061 NA
BRANCH  15  18
ATOM     18  C   UNL A   1      31.810  28.576  26.028  1.00  0.00     0.124 A 
ATOM     19  N   UNL A   1      32.442  29.351  26.917  1.00  0.00    -0.165 NA
ATOM     20  C   UNL A   1      31.254  29.316  24.960  1.00  0.00     0.044 A 
ATOM     21  N   UNL A   1      32.227  30.607  26.479  1.00  0.00    -0.240 N 
ATOM     22  C   UNL A   1      31.498  30.631  25.312  1.00  0.00     0.125 A 
BRANCH  20  23
ATOM     23  C   UNL A   1      30.589  28.892  23.753  1.00  0.00     0.166 C 
ATOM     24  N   UNL A   1      31.264  28.330  22.807  1.00  0.00    -0.097 NA
BRANCH  24  25
ATOM     25  O   UNL A   1      30.411  28.047  21.734  1.00  0.00    -0.411 OA
ATOM     26  H   UNL A   1      29.627  27.554  21.876  1.00  0.00     0.330 HD
ENDBRANCH  24  25
ENDBRANCH  20  23
BRANCH  21  27
ATOM     27  C   UNL A   1      32.717  31.717  27.203  1.00  0.00     0.065 A 
ATOM     28  C   UNL A   1      32.036  32.939  27.124  1.00  0.00     0.028 A 
ATOM     29  C   UNL A   1      33.877  31.603  27.979  1.00  0.00     0.028 A 
ATOM     30  C   UNL A   1      32.499  34.037  27.847  1.00  0.00     0.002 A 
ATOM     31  C   UNL A   1      34.363  32.723  28.655  1.00  0.00     0.002 A 
ATOM     32  C   UNL A   1      33.668  33.933  28.601  1.00  0.00     0.000 A 
ENDBRANCH  21  27
ENDBRANCH  15  18
ENDBRANCH   7  12
ENDBRANCH   3   6
ENDBRANCH   1   2
BRANCH   1  33
ATOM     33  C   UNL A   1      37.963  19.770  24.747  1.00  0.00     0.042 C 
BRANCH  33  34
ATOM     34  C   UNL A   1      39.081  20.173  25.695  1.00  0.00     0.118 C 
BRANCH  34  35
ATOM     35  N   UNL A   1      40.166  19.188  25.711  1.00  0.00    -0.352 N 
ATOM     36  C   UNL A   1      41.518  19.389  25.919  1.00  0.00     0.251 C 
ATOM     37  H   UNL A   1      39.894  18.255  25.550  1.00  0.00     0.163 HD
ATOM     38  O   UNL A   1      42.328  18.548  25.566  1.00  0.00    -0.269 OA
BRANCH  36  39
ATOM     39  C   UNL A   1      41.958  20.637  26.567  1.00  0.00     0.039 A 
ATOM     40  C   UNL A   1      42.437  21.710  25.811  1.00  0.00     0.014 A 
ATOM     41  C   UNL A   1      41.848  20.737  27.950  1.00  0.00     0.014 A 
ATOM     42  C   UNL A   1      42.718  22.909  26.457  1.00  0.00     0.010 A 
ATOM     43  C   UNL A   1      41.947  21.963  28.554  1.00  0.00     0.010 A 
ATOM     44  C   UNL A   1      42.440  23.039  27.830  1.00  0.00    -0.014 A 
BRANCH  44  45
ATOM     45  C   UNL A   1      42.522  24.339  28.485  1.00  0.00     0.031 A 
ATOM     46  C   UNL A   1      41.352  25.214  28.213  1.00  0.00     0.074 A 
ATOM     47  C   UNL A   1      43.458  24.658  29.407  1.00  0.00     0.049 A 
ATOM     48  N   UNL A   1      41.321  26.256  27.450  1.00  0.00    -0.248 NA
ATOM     49  C   UNL A   1      40.026  24.781  28.685  1.00  0.00     0.031 C 
ATOM     50  C   UNL A   1      44.483  23.783  29.993  1.00  0.00     0.029 A 
ATOM     51  N   UNL A   1      43.607  25.807  30.124  1.00  0.00    -0.354 N 
ATOM     52  C   UNL A   1      40.037  26.771  27.592  1.00  0.00     0.074 A 
ATOM     53  C   UNL A   1      39.235  25.713  28.146  1.00  0.00     0.031 C 
ATOM     54  C   UNL A   1      44.955  24.336  31.131  1.00  0.00     0.029 A 
ATOM     55  C   UNL A   1      44.413  25.674  31.254  1.00  0.00     0.049 A 
ATOM     56  H   UNL A   1      43.182  26.656  29.867  1.00  0.00     0.167 HD
ATOM     57  C   UNL A   1      39.821  28.115  27.546  1.00  0.00     0.034 A 
ATOM     58  C   UNL A   1      44.598  26.590  32.236  1.00  0.00     0.034 A 
ATOM     59  C   UNL A   1      40.952  28.815  26.989  1.00  0.00     0.049 A 
ATOM     60  C   UNL A   1      44.234  27.905  31.669  1.00  0.00     0.074 A 
ATOM     61  C   UNL A   1      41.672  28.738  25.813  1.00  0.00     0.029 A 
ATOM     62  N   UNL A   1      41.756  29.481  27.882  1.00  0.00    -0.354 N 
ATOM     63  N   UNL A   1      44.908  28.488  30.718  1.00  0.00    -0.248 NA
ATOM     64  C   UNL A   1      42.879  28.386  31.867  1.00  0.00     0.031 C 
ATOM     65  C   UNL A   1      43.031  28.938  26.200  1.00  0.00     0.029 A 
ATOM     66  C   UNL A   1      43.060  29.205  27.571  1.00  0.00     0.049 A 
ATOM     67  H   UNL A   1      41.447  30.057  28.619  1.00  0.00     0.167 HD
ATOM     68  C   UNL A   1      43.929  29.035  29.901  1.00  0.00     0.074 A 
ATOM     69  C   UNL A   1      42.721  29.059  30.725  1.00  0.00     0.031 C 
ATOM     70  C   UNL A   1      44.121  29.136  28.553  1.00  0.00     0.034 A 
BRANCH  57  71
ATOM     71  C   UNL A   1      38.784  28.834  28.379  1.00  0.00     0.023 A 
ATOM     72  C   UNL A   1      37.971  29.787  27.730  1.00  0.00     0.012 A 
ATOM     73  C   UNL A   1      38.755  28.827  29.793  1.00  0.00     0.148 A 
ATOM     74  C   UNL A   1      37.197  30.704  28.451  1.00  0.00     0.002 A 
ATOM     75  C   UNL A   1      37.911  29.671  30.503  1.00  0.00     0.091 A 
ATOM     76  F   UNL A   1      39.651  28.110  30.479  1.00  0.00    -0.205 F 
ATOM     77  C   UNL A   1      37.154  30.635  29.840  1.00  0.00     0.022 A 
BRANCH  75  78
ATOM     78  S   UNL A   1      37.772  29.567  32.291  1.00  0.00     0.127 S 
ATOM     79  O   UNL A   1      36.639  30.450  32.547  1.00  0.00    -0.237 OA
ATOM     80  O   UNL A   1      37.507  28.141  32.485  1.00  0.00    -0.237 OA
ATOM     81  O   UNL A   1      39.063  30.007  32.806  1.00  0.00    -0.744 OA
ENDBRANCH  75  78
ENDBRANCH  57  71
BRANCH  58  82
ATOM     82  C   UNL A   1      44.855  26.419  33.684  1.00  0.00     0.023 A 
ATOM     83  C   UNL A   1      46.126  26.737  34.205  1.00  0.00     0.012 A 
ATOM     84  C   UNL A   1      43.785  26.253  34.591  1.00  0.00     0.148 A 
ATOM     85  C   UNL A   1      46.316  26.935  35.579  1.00  0.00     0.002 A 
ATOM     86  C   UNL A   1      43.979  26.449  35.955  1.00  0.00     0.091 A 
ATOM     87  F   UNL A   1      42.564  25.995  34.104  1.00  0.00    -0.205 F 
ATOM     88  C   UNL A   1      45.241  26.805  36.452  1.00  0.00     0.022 A 
BRANCH  86  89
ATOM     89  S   UNL A   1      42.636  26.339  37.145  1.00  0.00     0.127 S 
ATOM     90  O   UNL A   1      42.106  25.001  36.878  1.00  0.00    -0.237 OA
ATOM     91  O   UNL A   1      43.346  26.473  38.415  1.00  0.00    -0.237 OA
ATOM     92  O   UNL A   1      41.724  27.425  36.813  1.00  0.00    -0.744 OA
ENDBRANCH  86  89
ENDBRANCH  58  82
BRANCH  70  93
ATOM     93  C   UNL A   1      45.521  28.931  28.021  1.00  0.00     0.023 A 
ATOM     94  C   UNL A   1      46.507  29.940  28.043  1.00  0.00     0.012 A 
ATOM     95  C   UNL A   1      45.886  27.637  27.613  1.00  0.00     0.148 A 
ATOM     96  C   UNL A   1      47.819  29.670  27.636  1.00  0.00     0.002 A 
ATOM     97  C   UNL A   1      47.200  27.361  27.255  1.00  0.00     0.091 A 
ATOM     98  F   UNL A   1      44.939  26.687  27.599  1.00  0.00    -0.205 F 
ATOM     99  C   UNL A   1      48.167  28.377  27.254  1.00  0.00     0.022 A 
BRANCH  97 100
ATOM    100  S   UNL A   1      47.730  25.691  26.867  1.00  0.00     0.127 S 
ATOM    101  O   UNL A   1      46.925  25.382  25.688  1.00  0.00    -0.237 OA
ATOM    102  O   UNL A   1      49.159  25.867  26.604  1.00  0.00    -0.237 OA
ATOM    103  O   UNL A   1      47.439  24.894  28.053  1.00  0.00    -0.744 OA
ENDBRANCH  97 100
ENDBRANCH  70  93
ENDBRANCH  44  45
ENDBRANCH  36  39
ENDBRANCH  34  35
ENDBRANCH  33  34
ENDBRANCH   1  33
TORSDOF 18
ENDMDL
MODEL 3
REMARK VINA RESULT:     -13.3      3.030      8.882
REMARK SMILES Cc1c(-c2nn(-c3ccccc3)cc2/C=N/O)nnn1-c1ccc(C(=O)NCCCNC(=O)c2ccc(-c3c4nc(c(-c5cccc(S(=O)(=O)[O-])c5F)c5ccc([nH]5)c(-c5cccc(S(=O)(=O)[O-])c5F)c5nc(c(-c6cccc(S(=O)(=O)[O-])c6F)c6ccc3[nH]6)C=C5)C=C4)cc2)cc1
REMARK SMILES IDX 28 1 27 2 25 3 26 4 24 6 21 7 22 8 98 9 23 10 97 11 20 12
REMARK SMILES IDX 1 13 2 14 3 15 18 16 19 17 4 18 5 19 14 20 6 21 13 22 15 23
REMARK SMILES IDX 16 24 17 25 7 27 8 28 12 29 9 30 11 31 10 32 29 33 30 34
REMARK SMILES IDX 31 35 32 36 33 38 34 39 35 40 96 41 36 42 95 43 37 44 38 45
REMARK SMILES IDX 39 46 89 47 40 48 94 49 88 50 90 51 41 52 93 53 87 54 86 55
REMARK SMILES IDX 42 57 74 58 54 59 73 60 55 61 58 62 72 63 91 64 56 65 57 66
REMARK SMILES IDX 71 68 92 69 59 70 43 71 44 72 52 73 45 74 47 75 53 76 46 77
REMARK SMILES IDX 48 78 49 79 50 80 51 81 75 82 76 83 84 84 77 85 79 86 85 87
REMARK SMILES IDX 78 88 80 89 81 90 82 91 83 92 60 93 61 94 69 95 62 96 64 97
REMARK SMILES IDX 70 98 63 99 65 100 66 101 67 102 68 103
REMARK H PARENT 27 5 17 26 31 37 90 56 58 67
REMARK Flexibility Score: inf
ROOT
ATOM      1  C   UNL A   1      32.239  30.763  26.873  1.00  0.00     0.118 C 
ENDROOT
BRANCH   1   2
ATOM      2  N   UNL A   1      31.278  30.991  25.809  1.00  0.00    -0.352 N 
ATOM      3  C   UNL A   1      30.929  30.277  24.691  1.00  0.00     0.251 C 
ATOM      4  O   UNL A   1      29.974  30.694  24.039  1.00  0.00    -0.269 OA
ATOM      5  H   UNL A   1      30.773  31.830  25.911  1.00  0.00     0.163 HD
BRANCH   3   6
ATOM      6  C   UNL A   1      31.584  29.003  24.271  1.00  0.00     0.039 A 
ATOM      7  C   UNL A   1      32.668  26.479  23.697  1.00  0.00     0.067 A 
ATOM      8  C   UNL A   1      31.289  26.615  23.854  1.00  0.00     0.029 A 
ATOM      9  C   UNL A   1      33.495  27.603  23.724  1.00  0.00     0.029 A 
ATOM     10  C   UNL A   1      30.760  27.868  24.172  1.00  0.00     0.016 A 
ATOM     11  C   UNL A   1      32.939  28.863  23.964  1.00  0.00     0.016 A 
BRANCH   7  12
ATOM     12  N   UNL A   1      33.218  25.197  23.503  1.00  0.00    -0.217 N 
ATOM     13  C   UNL A   1      32.895  24.158  25.815  1.00  0.00     0.069 C 
ATOM     14  C   UNL A   1      33.426  24.193  24.431  1.00  0.00     0.071 A 
ATOM     15  C   UNL A   1      34.090  23.229  23.698  1.00  0.00     0.137 A 
ATOM     16  N   UNL A   1      34.189  23.606  22.392  1.00  0.00    -0.128 NA
ATOM     17  N   UNL A   1      33.584  24.779  22.267  1.00  0.00    -0.061 NA
BRANCH  15  18
ATOM     18  C   UNL A   1      34.546  21.915  24.127  1.00  0.00     0.124 A 
ATOM     19  N   UNL A   1      33.763  20.834  24.040  1.00  0.00    -0.165 NA
ATOM     20  C   UNL A   1      35.821  21.621  24.661  1.00  0.00     0.044 A 
ATOM     21  N   UNL A   1      34.491  19.847  24.597  1.00  0.00    -0.240 N 
ATOM     22  C   UNL A   1      35.732  20.284  25.001  1.00  0.00     0.125 A 
BRANCH  20  23
ATOM     23  C   UNL A   1      36.993  22.444  24.834  1.00  0.00     0.166 C 
ATOM     24  N   UNL A   1      37.057  23.277  25.818  1.00  0.00    -0.097 NA
BRANCH  24  25
ATOM     25  O   UNL A   1      38.265  23.982  25.749  1.00  0.00    -0.411 OA
ATOM     26  H   UNL A   1      38.848  23.984  26.483  1.00  0.00     0.330 HD
ENDBRANCH  24  25
ENDBRANCH  20  23
BRANCH  21  27
ATOM     27  C   UNL A   1      33.962  18.543  24.725  1.00  0.00     0.065 A 
ATOM     28  C   UNL A   1      32.908  18.320  25.621  1.00  0.00     0.028 A 
ATOM     29  C   UNL A   1      34.491  17.485  23.978  1.00  0.00     0.028 A 
ATOM     30  C   UNL A   1      32.363  17.042  25.745  1.00  0.00     0.002 A 
ATOM     31  C   UNL A   1      33.976  16.200  24.149  1.00  0.00     0.002 A 
ATOM     32  C   UNL A   1      32.906  15.981  25.019  1.00  0.00     0.000 A 
ENDBRANCH  21  27
ENDBRANCH  15  18
ENDBRANCH   7  12
ENDBRANCH   3   6
ENDBRANCH   1   2
BRANCH   1  33
ATOM     33  C   UNL A   1      32.886  32.069  27.351  1.00  0.00     0.042 C 
BRANCH  33  34
ATOM     34  C   UNL A   1      34.246  31.828  27.987  1.00  0.00     0.118 C 
BRANCH  34  35
ATOM     35  N   UNL A   1      34.280  32.267  29.385  1.00  0.00    -0.352 N 
ATOM     36  C   UNL A   1      35.145  31.885  30.394  1.00  0.00     0.251 C 
ATOM     37  H   UNL A   1      33.591  32.924  29.640  1.00  0.00     0.163 HD
ATOM     38  O   UNL A   1      34.846  32.062  31.563  1.00  0.00    -0.269 OA
BRANCH  36  39
ATOM     39  C   UNL A   1      36.427  31.257  30.029  1.00  0.00     0.039 A 
ATOM     40  C   UNL A   1      37.546  32.033  29.719  1.00  0.00     0.014 A 
ATOM     41  C   UNL A   1      36.506  29.867  30.036  1.00  0.00     0.014 A 
ATOM     42  C   UNL A   1      38.763  31.393  29.506  1.00  0.00     0.010 A 
ATOM     43  C   UNL A   1      37.732  29.256  30.010  1.00  0.00     0.010 A 
ATOM     44  C   UNL A   1      38.856  30.001  29.685  1.00  0.00    -0.014 A 
BRANCH  44  45
ATOM     45  C   UNL A   1      40.153  29.336  29.679  1.00  0.00     0.031 A 
ATOM     46  C   UNL A   1      40.713  29.117  31.037  1.00  0.00     0.074 A 
ATOM     47  C   UNL A   1      40.712  28.789  28.575  1.00  0.00     0.049 A 
ATOM     48  N   UNL A   1      41.698  29.750  31.585  1.00  0.00    -0.248 NA
ATOM     49  C   UNL A   1      39.986  28.233  31.963  1.00  0.00     0.031 C 
ATOM     50  C   UNL A   1      40.125  28.664  27.234  1.00  0.00     0.029 A 
ATOM     51  N   UNL A   1      41.880  28.099  28.451  1.00  0.00    -0.354 N 
ATOM     52  C   UNL A   1      41.891  29.129  32.813  1.00  0.00     0.074 A 
ATOM     53  C   UNL A   1      40.685  28.394  33.089  1.00  0.00     0.031 C 
ATOM     54  C   UNL A   1      40.804  27.734  26.526  1.00  0.00     0.029 A 
ATOM     55  C   UNL A   1      41.974  27.341  27.284  1.00  0.00     0.049 A 
ATOM     56  H   UNL A   1      42.595  28.133  29.126  1.00  0.00     0.167 HD
ATOM     57  C   UNL A   1      43.141  29.009  33.339  1.00  0.00     0.034 A 
ATOM     58  C   UNL A   1      42.932  26.433  26.977  1.00  0.00     0.034 A 
ATOM     59  C   UNL A   1      44.079  29.885  32.682  1.00  0.00     0.049 A 
ATOM     60  C   UNL A   1      44.106  26.747  27.818  1.00  0.00     0.074 A 
ATOM     61  C   UNL A   1      44.149  31.242  32.438  1.00  0.00     0.029 A 
ATOM     62  N   UNL A   1      44.942  29.295  31.790  1.00  0.00    -0.354 N 
ATOM     63  N   UNL A   1      44.810  27.836  27.689  1.00  0.00    -0.248 NA
ATOM     64  C   UNL A   1      44.251  26.050  29.082  1.00  0.00     0.031 C 
ATOM     65  C   UNL A   1      44.680  31.352  31.118  1.00  0.00     0.029 A 
ATOM     66  C   UNL A   1      44.980  30.067  30.660  1.00  0.00     0.049 A 
ATOM     67  H   UNL A   1      45.445  28.462  31.938  1.00  0.00     0.167 HD
ATOM     68  C   UNL A   1      45.085  28.215  28.995  1.00  0.00     0.074 A 
ATOM     69  C   UNL A   1      44.837  27.015  29.794  1.00  0.00     0.031 C 
ATOM     70  C   UNL A   1      45.194  29.534  29.332  1.00  0.00     0.034 A 
BRANCH  57  71
ATOM     71  C   UNL A   1      43.610  27.816  34.142  1.00  0.00     0.023 A 
ATOM     72  C   UNL A   1      44.222  28.068  35.389  1.00  0.00     0.012 A 
ATOM     73  C   UNL A   1      43.732  26.506  33.625  1.00  0.00     0.148 A 
ATOM     74  C   UNL A   1      44.943  27.078  36.065  1.00  0.00     0.002 A 
ATOM     75  C   UNL A   1      44.362  25.500  34.346  1.00  0.00     0.091 A 
ATOM     76  F   UNL A   1      43.372  26.246  32.364  1.00  0.00    -0.205 F 
ATOM     77  C   UNL A   1      45.000  25.787  35.551  1.00  0.00     0.022 A 
BRANCH  75  78
ATOM     78  S   UNL A   1      44.398  23.804  33.751  1.00  0.00     0.127 S 
ATOM     79  O   UNL A   1      45.411  23.213  34.619  1.00  0.00    -0.237 OA
ATOM     80  O   UNL A   1      43.024  23.371  34.012  1.00  0.00    -0.237 OA
ATOM     81  O   UNL A   1      44.733  23.897  32.336  1.00  0.00    -0.744 OA
ENDBRANCH  75  78
ENDBRANCH  57  71
BRANCH  58  82
ATOM     82  C   UNL A   1      42.865  25.185  26.183  1.00  0.00     0.023 A 
ATOM     83  C   UNL A   1      43.806  24.965  25.156  1.00  0.00     0.012 A 
ATOM     84  C   UNL A   1      42.097  24.087  26.629  1.00  0.00     0.148 A 
ATOM     85  C   UNL A   1      44.012  23.685  24.626  1.00  0.00     0.002 A 
ATOM     86  C   UNL A   1      42.305  22.818  26.099  1.00  0.00     0.091 A 
ATOM     87  F   UNL A   1      41.232  24.275  27.635  1.00  0.00    -0.205 F 
ATOM     88  C   UNL A   1      43.272  22.609  25.107  1.00  0.00     0.022 A 
BRANCH  86  89
ATOM     89  S   UNL A   1      41.419  21.369  26.691  1.00  0.00     0.127 S 
ATOM     90  O   UNL A   1      40.025  21.784  26.534  1.00  0.00    -0.237 OA
ATOM     91  O   UNL A   1      41.861  20.341  25.751  1.00  0.00    -0.237 OA
ATOM     92  O   UNL A   1      41.842  21.186  28.073  1.00  0.00    -0.744 OA
ENDBRANCH  86  89
ENDBRANCH  58  82
BRANCH  70  93
ATOM     93  C   UNL A   1      45.320  30.540  28.212  1.00  0.00     0.023 A 
ATOM     94  C   UNL A   1      44.210  31.036  27.494  1.00  0.00     0.012 A 
ATOM     95  C   UNL A   1      46.584  31.102  27.972  1.00  0.00     0.148 A 
ATOM     96  C   UNL A   1      44.365  32.044  26.537  1.00  0.00     0.002 A 
ATOM     97  C   UNL A   1      46.728  32.137  27.055  1.00  0.00     0.091 A 
ATOM     98  F   UNL A   1      47.631  30.624  28.662  1.00  0.00    -0.205 F 
ATOM     99  C   UNL A   1      45.624  32.604  26.327  1.00  0.00     0.022 A 
BRANCH  97 100
ATOM    100  S   UNL A   1      48.301  32.971  26.829  1.00  0.00     0.127 S 
ATOM    101  O   UNL A   1      47.997  33.908  25.751  1.00  0.00    -0.237 OA
ATOM    102  O   UNL A   1      48.519  33.591  28.137  1.00  0.00    -0.237 OA
ATOM    103  O   UNL A   1      49.264  31.926  26.501  1.00  0.00    -0.744 OA
ENDBRANCH  97 100
ENDBRANCH  70  93
ENDBRANCH  44  45
ENDBRANCH  36  39
ENDBRANCH  34  35
ENDBRANCH  33  34
ENDBRANCH   1  33
TORSDOF 18
ENDMDL
