MODEL 1
REMARK VINA RESULT:     -13.3      0.000      0.000
REMARK SMILES Cc1ccc(C(=O)Nc2cccc(C(=O)NCCCNC(=O)c3ccc(-c4c5nc(c(-c6cccc(S(=O)(=O)[O-])c6F)c6ccc([nH]6)c(-c6cccc(S(=O)(=O)[O-])c6F)c6nc(c(-c7cccc(S(=O)(=O)[O-])c7F)c7ccc4[nH]7)C=C6)C=C5)cc3)c2)cc1C
REMARK SMILES IDX 18 1 17 2 16 3 14 4 15 5 13 7 9 8 10 9 86 10 11 11 12 12
REMARK SMILES IDX 8 13 6 14 7 15 5 17 1 18 2 19 3 20 88 21 4 22 87 23 89 24
REMARK SMILES IDX 19 25 20 26 21 27 22 29 23 30 24 31 85 32 25 33 84 34 26 35
REMARK SMILES IDX 27 36 28 37 78 38 29 39 83 40 77 41 79 42 30 43 82 44 76 45
REMARK SMILES IDX 75 46 31 48 63 49 43 50 62 51 44 52 47 53 61 54 80 55 45 56
REMARK SMILES IDX 46 57 60 59 81 60 48 61 32 62 33 63 41 64 34 65 36 66 42 67
REMARK SMILES IDX 35 68 37 69 38 70 39 71 40 72 64 73 65 74 73 75 66 76 68 77
REMARK SMILES IDX 74 78 67 79 69 80 70 81 71 82 72 83 49 84 50 85 58 86 51 87
REMARK SMILES IDX 53 88 59 89 52 90 54 91 55 92 56 93 57 94
REMARK H PARENT 16 6 8 16 20 28 79 47 47 58
REMARK Flexibility Score: inf
ROOT
ATOM      1  C   UNL A   1      31.690  31.852  26.656  1.00  0.00     0.042 C 
ENDROOT
BRANCH   1   2
ATOM      2  C   UNL A   1      31.872  30.345  26.546  1.00  0.00     0.118 C 
BRANCH   2   3
ATOM      3  N   UNL A   1      32.671  29.985  25.391  1.00  0.00    -0.352 N 
ATOM      4  C   UNL A   1      32.540  29.018  24.427  1.00  0.00     0.251 C 
ATOM      5  O   UNL A   1      33.379  29.019  23.524  1.00  0.00    -0.269 OA
ATOM      6  H   UNL A   1      33.470  30.548  25.276  1.00  0.00     0.163 HD
BRANCH   4   7
ATOM      7  C   UNL A   1      31.413  28.040  24.364  1.00  0.00     0.041 A 
ATOM      8  C   UNL A   1      30.077  26.204  25.214  1.00  0.00     0.042 A 
ATOM      9  C   UNL A   1      29.107  26.426  24.241  1.00  0.00     0.026 A 
ATOM     10  C   UNL A   1      31.275  26.923  25.187  1.00  0.00     0.040 A 
ATOM     11  C   UNL A   1      29.264  27.485  23.349  1.00  0.00     0.003 A 
ATOM     12  C   UNL A   1      30.391  28.307  23.436  1.00  0.00     0.014 A 
BRANCH   8  13
ATOM     13  N   UNL A   1      29.774  25.325  26.262  1.00  0.00    -0.322 N 
ATOM     14  C   UNL A   1      30.311  24.082  26.561  1.00  0.00     0.255 C 
ATOM     15  O   UNL A   1      29.763  23.400  27.429  1.00  0.00    -0.269 OA
ATOM     16  H   UNL A   1      29.073  25.639  26.880  1.00  0.00     0.170 HD
BRANCH  14  17
ATOM     17  C   UNL A   1      31.591  23.574  25.962  1.00  0.00     0.040 A 
ATOM     18  C   UNL A   1      35.185  22.267  23.917  1.00  0.00     0.044 C 
ATOM     19  C   UNL A   1      33.926  22.632  24.654  1.00  0.00    -0.048 A 
ATOM     20  C   UNL A   1      34.012  23.502  25.749  1.00  0.00     0.004 A 
ATOM     21  C   UNL A   1      32.668  22.113  24.303  1.00  0.00    -0.047 A 
ATOM     22  C   UNL A   1      32.862  23.925  26.425  1.00  0.00     0.014 A 
ATOM     23  C   UNL A   1      31.512  22.620  24.936  1.00  0.00     0.017 A 
ATOM     24  C   UNL A   1      32.496  20.986  23.320  1.00  0.00     0.044 C 
ENDBRANCH  14  17
ENDBRANCH   8  13
ENDBRANCH   4   7
ENDBRANCH   2   3
ENDBRANCH   1   2
BRANCH   1  25
ATOM     25  C   UNL A   1      32.854  32.511  27.380  1.00  0.00     0.118 C 
BRANCH  25  26
ATOM     26  N   UNL A   1      32.590  33.921  27.651  1.00  0.00    -0.352 N 
ATOM     27  C   UNL A   1      33.116  34.741  28.619  1.00  0.00     0.251 C 
ATOM     28  H   UNL A   1      31.937  34.348  27.050  1.00  0.00     0.163 HD
ATOM     29  O   UNL A   1      32.606  35.833  28.838  1.00  0.00    -0.269 OA
BRANCH  27  30
ATOM     30  C   UNL A   1      34.287  34.288  29.396  1.00  0.00     0.039 A 
ATOM     31  C   UNL A   1      34.086  33.594  30.592  1.00  0.00     0.014 A 
ATOM     32  C   UNL A   1      35.581  34.544  28.936  1.00  0.00     0.014 A 
ATOM     33  C   UNL A   1      35.187  33.096  31.291  1.00  0.00     0.010 A 
ATOM     34  C   UNL A   1      36.666  33.968  29.582  1.00  0.00     0.010 A 
ATOM     35  C   UNL A   1      36.483  33.247  30.771  1.00  0.00    -0.014 A 
BRANCH  35  36
ATOM     36  C   UNL A   1      37.669  32.663  31.444  1.00  0.00     0.031 A 
ATOM     37  C   UNL A   1      38.400  31.512  30.804  1.00  0.00     0.074 A 
ATOM     38  C   UNL A   1      38.012  33.086  32.678  1.00  0.00     0.049 A 
ATOM     39  N   UNL A   1      39.374  30.786  31.286  1.00  0.00    -0.248 NA
ATOM     40  C   UNL A   1      37.956  31.101  29.460  1.00  0.00     0.031 C 
ATOM     41  C   UNL A   1      37.327  34.136  33.435  1.00  0.00     0.029 A 
ATOM     42  N   UNL A   1      38.996  32.652  33.532  1.00  0.00    -0.354 N 
ATOM     43  C   UNL A   1      39.620  29.803  30.334  1.00  0.00     0.074 A 
ATOM     44  C   UNL A   1      38.681  30.011  29.255  1.00  0.00     0.031 C 
ATOM     45  C   UNL A   1      37.902  34.257  34.641  1.00  0.00     0.029 A 
ATOM     46  C   UNL A   1      38.967  33.269  34.762  1.00  0.00     0.049 A 
ATOM     47  H   UNL A   1      39.657  31.965  33.288  1.00  0.00     0.167 HD
ATOM     48  C   UNL A   1      40.556  28.827  30.351  1.00  0.00     0.034 A 
ATOM     49  C   UNL A   1      39.699  33.044  35.872  1.00  0.00     0.034 A 
ATOM     50  C   UNL A   1      41.522  28.661  31.402  1.00  0.00     0.049 A 
ATOM     51  C   UNL A   1      40.768  31.985  35.838  1.00  0.00     0.074 A 
ATOM     52  C   UNL A   1      42.586  27.779  31.455  1.00  0.00     0.029 A 
ATOM     53  N   UNL A   1      41.534  29.378  32.586  1.00  0.00    -0.354 N 
ATOM     54  N   UNL A   1      41.100  31.179  34.858  1.00  0.00    -0.248 NA
ATOM     55  C   UNL A   1      41.589  31.826  37.047  1.00  0.00     0.031 C 
ATOM     56  C   UNL A   1      43.218  27.934  32.692  1.00  0.00     0.029 A 
ATOM     57  C   UNL A   1      42.575  28.945  33.388  1.00  0.00     0.049 A 
ATOM     58  H   UNL A   1      40.895  30.090  32.823  1.00  0.00     0.167 HD
ATOM     59  C   UNL A   1      42.189  30.447  35.318  1.00  0.00     0.074 A 
ATOM     60  C   UNL A   1      42.473  30.919  36.657  1.00  0.00     0.031 C 
ATOM     61  C   UNL A   1      42.883  29.466  34.694  1.00  0.00     0.034 A 
BRANCH  48  62
ATOM     62  C   UNL A   1      40.616  27.879  29.184  1.00  0.00     0.023 A 
ATOM     63  C   UNL A   1      39.703  26.809  29.098  1.00  0.00     0.012 A 
ATOM     64  C   UNL A   1      41.517  28.107  28.125  1.00  0.00     0.148 A 
ATOM     65  C   UNL A   1      39.703  25.965  27.988  1.00  0.00     0.002 A 
ATOM     66  C   UNL A   1      41.478  27.292  27.001  1.00  0.00     0.091 A 
ATOM     67  F   UNL A   1      42.390  29.119  28.235  1.00  0.00    -0.205 F 
ATOM     68  C   UNL A   1      40.579  26.214  26.935  1.00  0.00     0.022 A 
BRANCH  66  69
ATOM     69  S   UNL A   1      42.503  27.582  25.555  1.00  0.00     0.127 S 
ATOM     70  O   UNL A   1      43.841  27.620  26.145  1.00  0.00    -0.237 OA
ATOM     71  O   UNL A   1      42.229  26.396  24.744  1.00  0.00    -0.237 OA
ATOM     72  O   UNL A   1      42.043  28.838  24.978  1.00  0.00    -0.744 OA
ENDBRANCH  66  69
ENDBRANCH  48  62
BRANCH  49  73
ATOM     73  C   UNL A   1      39.466  33.852  37.102  1.00  0.00     0.023 A 
ATOM     74  C   UNL A   1      39.935  35.178  37.165  1.00  0.00     0.012 A 
ATOM     75  C   UNL A   1      38.779  33.315  38.209  1.00  0.00     0.148 A 
ATOM     76  C   UNL A   1      39.766  35.939  38.323  1.00  0.00     0.002 A 
ATOM     77  C   UNL A   1      38.562  34.096  39.336  1.00  0.00     0.091 A 
ATOM     78  F   UNL A   1      38.348  32.047  38.134  1.00  0.00    -0.205 F 
ATOM     79  C   UNL A   1      39.073  35.402  39.404  1.00  0.00     0.022 A 
BRANCH  77  80
ATOM     80  S   UNL A   1      37.567  33.530  40.720  1.00  0.00     0.127 S 
ATOM     81  O   UNL A   1      38.444  32.535  41.331  1.00  0.00    -0.237 OA
ATOM     82  O   UNL A   1      37.396  34.760  41.494  1.00  0.00    -0.237 OA
ATOM     83  O   UNL A   1      36.336  33.017  40.133  1.00  0.00    -0.744 OA
ENDBRANCH  77  80
ENDBRANCH  49  73
BRANCH  61  84
ATOM     84  C   UNL A   1      44.058  28.863  35.417  1.00  0.00     0.023 A 
ATOM     85  C   UNL A   1      45.331  29.456  35.312  1.00  0.00     0.012 A 
ATOM     86  C   UNL A   1      43.872  27.762  36.277  1.00  0.00     0.148 A 
ATOM     87  C   UNL A   1      46.410  28.943  36.032  1.00  0.00     0.002 A 
ATOM     88  C   UNL A   1      44.939  27.291  37.031  1.00  0.00     0.091 A 
ATOM     89  F   UNL A   1      42.655  27.204  36.347  1.00  0.00    -0.205 F 
ATOM     90  C   UNL A   1      46.211  27.871  36.901  1.00  0.00     0.022 A 
BRANCH  88  91
ATOM     91  S   UNL A   1      44.754  25.986  38.251  1.00  0.00     0.127 S 
ATOM     92  O   UNL A   1      46.122  25.848  38.749  1.00  0.00    -0.237 OA
ATOM     93  O   UNL A   1      43.815  26.583  39.201  1.00  0.00    -0.237 OA
ATOM     94  O   UNL A   1      44.234  24.830  37.532  1.00  0.00    -0.744 OA
ENDBRANCH  88  91
ENDBRANCH  61  84
ENDBRANCH  35  36
ENDBRANCH  27  30
ENDBRANCH  25  26
ENDBRANCH   1  25
TORSDOF 15
ENDMDL
MODEL 2
REMARK VINA RESULT:     -13.2      6.304     11.468
REMARK SMILES Cc1ccc(C(=O)Nc2cccc(C(=O)NCCCNC(=O)c3ccc(-c4c5nc(c(-c6cccc(S(=O)(=O)[O-])c6F)c6ccc([nH]6)c(-c6cccc(S(=O)(=O)[O-])c6F)c6nc(c(-c7cccc(S(=O)(=O)[O-])c7F)c7ccc4[nH]7)C=C6)C=C5)cc3)c2)cc1C
REMARK SMILES IDX 18 1 17 2 16 3 14 4 15 5 13 7 9 8 10 9 86 10 11 11 12 12
REMARK SMILES IDX 8 13 6 14 7 15 5 17 1 18 2 19 3 20 88 21 4 22 87 23 89 24
REMARK SMILES IDX 19 25 20 26 21 27 22 29 23 30 24 31 85 32 25 33 84 34 26 35
REMARK SMILES IDX 27 36 28 37 78 38 29 39 83 40 77 41 79 42 30 43 82 44 76 45
REMARK SMILES IDX 75 46 31 48 63 49 43 50 62 51 44 52 47 53 61 54 80 55 45 56
REMARK SMILES IDX 46 57 60 59 81 60 48 61 32 62 33 63 41 64 34 65 36 66 42 67
REMARK SMILES IDX 35 68 37 69 38 70 39 71 40 72 64 73 65 74 73 75 66 76 68 77
REMARK SMILES IDX 74 78 67 79 69 80 70 81 71 82 72 83 49 84 50 85 58 86 51 87
REMARK SMILES IDX 53 88 59 89 52 90 54 91 55 92 56 93 57 94
REMARK H PARENT 16 6 8 16 20 28 79 47 47 58
REMARK Flexibility Score: inf
ROOT
ATOM      1  C   UNL A   1      37.742  19.434  24.876  1.00  0.00     0.042 C 
ENDROOT
BRANCH   1   2
ATOM      2  C   UNL A   1      36.432  20.207  24.907  1.00  0.00     0.118 C 
BRANCH   2   3
ATOM      3  N   UNL A   1      36.654  21.635  25.032  1.00  0.00    -0.352 N 
ATOM      4  C   UNL A   1      35.849  22.728  24.836  1.00  0.00     0.251 C 
ATOM      5  O   UNL A   1      36.337  23.830  25.098  1.00  0.00    -0.269 OA
ATOM      6  H   UNL A   1      37.568  21.866  25.316  1.00  0.00     0.163 HD
BRANCH   4   7
ATOM      7  C   UNL A   1      34.418  22.655  24.416  1.00  0.00     0.041 A 
ATOM      8  C   UNL A   1      32.030  22.609  24.829  1.00  0.00     0.042 A 
ATOM      9  C   UNL A   1      31.765  22.764  23.471  1.00  0.00     0.026 A 
ATOM     10  C   UNL A   1      33.343  22.426  25.273  1.00  0.00     0.040 A 
ATOM     11  C   UNL A   1      32.827  22.909  22.582  1.00  0.00     0.003 A 
ATOM     12  C   UNL A   1      34.142  22.892  23.058  1.00  0.00     0.014 A 
BRANCH   8  13
ATOM     13  N   UNL A   1      30.965  22.744  25.730  1.00  0.00    -0.322 N 
ATOM     14  C   UNL A   1      30.479  23.877  26.365  1.00  0.00     0.255 C 
ATOM     15  O   UNL A   1      29.647  23.735  27.262  1.00  0.00    -0.269 OA
ATOM     16  H   UNL A   1      30.491  21.908  25.945  1.00  0.00     0.170 HD
BRANCH  14  17
ATOM     17  C   UNL A   1      30.830  25.274  25.938  1.00  0.00     0.040 A 
ATOM     18  C   UNL A   1      31.513  29.411  24.831  1.00  0.00     0.044 C 
ATOM     19  C   UNL A   1      31.301  27.952  25.128  1.00  0.00    -0.048 A 
ATOM     20  C   UNL A   1      32.121  27.330  26.078  1.00  0.00     0.004 A 
ATOM     21  C   UNL A   1      30.327  27.181  24.470  1.00  0.00    -0.047 A 
ATOM     22  C   UNL A   1      31.919  25.992  26.438  1.00  0.00     0.014 A 
ATOM     23  C   UNL A   1      30.078  25.863  24.910  1.00  0.00     0.017 A 
ATOM     24  C   UNL A   1      29.573  27.675  23.264  1.00  0.00     0.044 C 
ENDBRANCH  14  17
ENDBRANCH   8  13
ENDBRANCH   4   7
ENDBRANCH   2   3
ENDBRANCH   1   2
BRANCH   1  25
ATOM     25  C   UNL A   1      38.796  20.072  25.768  1.00  0.00     0.118 C 
BRANCH  25  26
ATOM     26  N   UNL A   1      39.976  19.222  25.897  1.00  0.00    -0.352 N 
ATOM     27  C   UNL A   1      41.285  19.569  26.128  1.00  0.00     0.251 C 
ATOM     28  H   UNL A   1      39.809  18.256  25.806  1.00  0.00     0.163 HD
ATOM     29  O   UNL A   1      42.173  18.739  25.978  1.00  0.00    -0.269 OA
BRANCH  27  30
ATOM     30  C   UNL A   1      41.608  20.948  26.545  1.00  0.00     0.039 A 
ATOM     31  C   UNL A   1      42.100  21.176  27.832  1.00  0.00     0.014 A 
ATOM     32  C   UNL A   1      41.430  22.013  25.658  1.00  0.00     0.014 A 
ATOM     33  C   UNL A   1      42.479  22.466  28.205  1.00  0.00     0.010 A 
ATOM     34  C   UNL A   1      41.896  23.276  25.998  1.00  0.00     0.010 A 
ATOM     35  C   UNL A   1      42.415  23.519  27.278  1.00  0.00    -0.014 A 
BRANCH  35  36
ATOM     36  C   UNL A   1      42.884  24.886  27.612  1.00  0.00     0.031 A 
ATOM     37  C   UNL A   1      41.934  25.869  28.245  1.00  0.00     0.074 A 
ATOM     38  C   UNL A   1      44.119  25.278  27.239  1.00  0.00     0.049 A 
ATOM     39  N   UNL A   1      42.110  27.138  28.496  1.00  0.00    -0.248 NA
ATOM     40  C   UNL A   1      40.598  25.366  28.612  1.00  0.00     0.031 C 
ATOM     41  C   UNL A   1      45.099  24.441  26.543  1.00  0.00     0.029 A 
ATOM     42  N   UNL A   1      44.745  26.495  27.350  1.00  0.00    -0.354 N 
ATOM     43  C   UNL A   1      40.897  27.598  28.996  1.00  0.00     0.074 A 
ATOM     44  C   UNL A   1      39.984  26.477  28.994  1.00  0.00     0.031 C 
ATOM     45  C   UNL A   1      46.195  25.170  26.281  1.00  0.00     0.029 A 
ATOM     46  C   UNL A   1      45.982  26.534  26.750  1.00  0.00     0.049 A 
ATOM     47  H   UNL A   1      44.345  27.266  27.814  1.00  0.00     0.167 HD
ATOM     48  C   UNL A   1      40.578  28.838  29.433  1.00  0.00     0.034 A 
ATOM     49  C   UNL A   1      46.838  27.561  26.573  1.00  0.00     0.034 A 
ATOM     50  C   UNL A   1      41.507  29.933  29.484  1.00  0.00     0.049 A 
ATOM     51  C   UNL A   1      46.475  28.915  27.119  1.00  0.00     0.074 A 
ATOM     52  C   UNL A   1      41.317  31.194  30.020  1.00  0.00     0.029 A 
ATOM     53  N   UNL A   1      42.792  29.905  28.968  1.00  0.00    -0.354 N 
ATOM     54  N   UNL A   1      45.384  29.286  27.747  1.00  0.00    -0.248 NA
ATOM     55  C   UNL A   1      47.470  29.986  26.966  1.00  0.00     0.031 C 
ATOM     56  C   UNL A   1      42.474  31.942  29.791  1.00  0.00     0.029 A 
ATOM     57  C   UNL A   1      43.400  31.133  29.154  1.00  0.00     0.049 A 
ATOM     58  H   UNL A   1      43.210  29.126  28.532  1.00  0.00     0.167 HD
ATOM     59  C   UNL A   1      45.580  30.618  28.097  1.00  0.00     0.074 A 
ATOM     60  C   UNL A   1      46.900  30.983  27.628  1.00  0.00     0.031 C 
ATOM     61  C   UNL A   1      44.738  31.464  28.736  1.00  0.00     0.034 A 
BRANCH  48  62
ATOM     62  C   UNL A   1      39.179  29.078  29.932  1.00  0.00     0.023 A 
ATOM     63  C   UNL A   1      38.843  28.767  31.264  1.00  0.00     0.012 A 
ATOM     64  C   UNL A   1      38.224  29.702  29.104  1.00  0.00     0.148 A 
ATOM     65  C   UNL A   1      37.570  29.048  31.759  1.00  0.00     0.002 A 
ATOM     66  C   UNL A   1      36.974  30.024  29.618  1.00  0.00     0.091 A 
ATOM     67  F   UNL A   1      38.558  29.972  27.835  1.00  0.00    -0.205 F 
ATOM     68  C   UNL A   1      36.642  29.689  30.941  1.00  0.00     0.022 A 
BRANCH  66  69
ATOM     69  S   UNL A   1      35.740  30.926  28.677  1.00  0.00     0.127 S 
ATOM     70  O   UNL A   1      35.009  29.837  28.029  1.00  0.00    -0.237 OA
ATOM     71  O   UNL A   1      34.996  31.617  29.730  1.00  0.00    -0.237 OA
ATOM     72  O   UNL A   1      36.478  31.800  27.775  1.00  0.00    -0.744 OA
ENDBRANCH  66  69
ENDBRANCH  48  62
BRANCH  49  73
ATOM     73  C   UNL A   1      48.134  27.346  25.869  1.00  0.00     0.023 A 
ATOM     74  C   UNL A   1      49.278  26.990  26.607  1.00  0.00     0.012 A 
ATOM     75  C   UNL A   1      48.238  27.490  24.471  1.00  0.00     0.148 A 
ATOM     76  C   UNL A   1      50.512  26.826  25.975  1.00  0.00     0.002 A 
ATOM     77  C   UNL A   1      49.455  27.268  23.840  1.00  0.00     0.091 A 
ATOM     78  F   UNL A   1      47.140  27.839  23.786  1.00  0.00    -0.205 F 
ATOM     79  C   UNL A   1      50.599  26.956  24.592  1.00  0.00     0.022 A 
BRANCH  77  80
ATOM     80  S   UNL A   1      49.627  27.285  22.052  1.00  0.00     0.127 S 
ATOM     81  O   UNL A   1      51.039  26.950  21.885  1.00  0.00    -0.237 OA
ATOM     82  O   UNL A   1      48.692  26.236  21.648  1.00  0.00    -0.237 OA
ATOM     83  O   UNL A   1      49.239  28.626  21.634  1.00  0.00    -0.744 OA
ENDBRANCH  77  80
ENDBRANCH  49  73
BRANCH  61  84
ATOM     84  C   UNL A   1      45.226  32.858  29.027  1.00  0.00     0.023 A 
ATOM     85  C   UNL A   1      45.928  33.127  30.217  1.00  0.00     0.012 A 
ATOM     86  C   UNL A   1      45.067  33.879  28.068  1.00  0.00     0.148 A 
ATOM     87  C   UNL A   1      46.441  34.401  30.462  1.00  0.00     0.002 A 
ATOM     88  C   UNL A   1      45.627  35.129  28.294  1.00  0.00     0.091 A 
ATOM     89  F   UNL A   1      44.380  33.603  26.949  1.00  0.00    -0.205 F 
ATOM     90  C   UNL A   1      46.303  35.396  29.496  1.00  0.00     0.022 A 
BRANCH  88  91
ATOM     91  S   UNL A   1      45.590  36.438  27.065  1.00  0.00     0.127 S 
ATOM     92  O   UNL A   1      44.156  36.699  26.952  1.00  0.00    -0.237 OA
ATOM     93  O   UNL A   1      46.354  37.499  27.722  1.00  0.00    -0.237 OA
ATOM     94  O   UNL A   1      46.219  35.890  25.871  1.00  0.00    -0.744 OA
ENDBRANCH  88  91
ENDBRANCH  61  84
ENDBRANCH  35  36
ENDBRANCH  27  30
ENDBRANCH  25  26
ENDBRANCH   1  25
TORSDOF 15
ENDMDL
MODEL 3
REMARK VINA RESULT:     -13.1      1.582      1.973
REMARK SMILES Cc1ccc(C(=O)Nc2cccc(C(=O)NCCCNC(=O)c3ccc(-c4c5nc(c(-c6cccc(S(=O)(=O)[O-])c6F)c6ccc([nH]6)c(-c6cccc(S(=O)(=O)[O-])c6F)c6nc(c(-c7cccc(S(=O)(=O)[O-])c7F)c7ccc4[nH]7)C=C6)C=C5)cc3)c2)cc1C
REMARK SMILES IDX 18 1 17 2 16 3 14 4 15 5 13 7 9 8 10 9 86 10 11 11 12 12
REMARK SMILES IDX 8 13 6 14 7 15 5 17 1 18 2 19 3 20 88 21 4 22 87 23 89 24
REMARK SMILES IDX 19 25 20 26 21 27 22 29 23 30 24 31 85 32 25 33 84 34 26 35
REMARK SMILES IDX 27 36 28 37 78 38 29 39 83 40 77 41 79 42 30 43 82 44 76 45
REMARK SMILES IDX 75 46 31 48 63 49 43 50 62 51 44 52 47 53 61 54 80 55 45 56
REMARK SMILES IDX 46 57 60 59 81 60 48 61 32 62 33 63 41 64 34 65 36 66 42 67
REMARK SMILES IDX 35 68 37 69 38 70 39 71 40 72 64 73 65 74 73 75 66 76 68 77
REMARK SMILES IDX 74 78 67 79 69 80 70 81 71 82 72 83 49 84 50 85 58 86 51 87
REMARK SMILES IDX 53 88 59 89 52 90 54 91 55 92 56 93 57 94
REMARK H PARENT 16 6 8 16 20 28 79 47 47 58
REMARK Flexibility Score: inf
ROOT
ATOM      1  C   UNL A   1      31.012  31.913  26.446  1.00  0.00     0.042 C 
ENDROOT
BRANCH   1   2
ATOM      2  C   UNL A   1      31.094  30.749  25.468  1.00  0.00     0.118 C 
BRANCH   2   3
ATOM      3  N   UNL A   1      32.380  30.083  25.534  1.00  0.00    -0.352 N 
ATOM      4  C   UNL A   1      32.768  28.779  25.361  1.00  0.00     0.251 C 
ATOM      5  O   UNL A   1      33.978  28.548  25.423  1.00  0.00    -0.269 OA
ATOM      6  H   UNL A   1      33.126  30.689  25.746  1.00  0.00     0.163 HD
BRANCH   4   7
ATOM      7  C   UNL A   1      31.837  27.661  25.021  1.00  0.00     0.041 A 
ATOM      8  C   UNL A   1      30.484  25.722  25.553  1.00  0.00     0.042 A 
ATOM      9  C   UNL A   1      29.890  25.759  24.294  1.00  0.00     0.026 A 
ATOM     10  C   UNL A   1      31.538  26.587  25.858  1.00  0.00     0.040 A 
ATOM     11  C   UNL A   1      30.236  26.775  23.407  1.00  0.00     0.003 A 
ATOM     12  C   UNL A   1      31.175  27.740  23.784  1.00  0.00     0.014 A 
BRANCH   8  13
ATOM     13  N   UNL A   1      29.928  24.875  26.521  1.00  0.00    -0.322 N 
ATOM     14  C   UNL A   1      30.274  23.577  26.868  1.00  0.00     0.255 C 
ATOM     15  O   UNL A   1      29.529  22.954  27.625  1.00  0.00    -0.269 OA
ATOM     16  H   UNL A   1      29.179  25.259  27.033  1.00  0.00     0.170 HD
BRANCH  14  17
ATOM     17  C   UNL A   1      31.569  22.934  26.458  1.00  0.00     0.040 A 
ATOM     18  C   UNL A   1      35.243  21.205  24.935  1.00  0.00     0.044 C 
ATOM     19  C   UNL A   1      33.947  21.721  25.500  1.00  0.00    -0.048 A 
ATOM     20  C   UNL A   1      33.990  22.710  26.491  1.00  0.00     0.004 A 
ATOM     21  C   UNL A   1      32.696  21.231  25.090  1.00  0.00    -0.047 A 
ATOM     22  C   UNL A   1      32.812  23.271  26.999  1.00  0.00     0.014 A 
ATOM     23  C   UNL A   1      31.522  21.870  25.545  1.00  0.00     0.017 A 
ATOM     24  C   UNL A   1      32.542  20.004  24.230  1.00  0.00     0.044 C 
ENDBRANCH  14  17
ENDBRANCH   8  13
ENDBRANCH   4   7
ENDBRANCH   2   3
ENDBRANCH   1   2
BRANCH   1  25
ATOM     25  C   UNL A   1      32.391  32.432  26.824  1.00  0.00     0.118 C 
BRANCH  25  26
ATOM     26  N   UNL A   1      32.329  33.796  27.341  1.00  0.00    -0.352 N 
ATOM     27  C   UNL A   1      33.074  34.394  28.327  1.00  0.00     0.251 C 
ATOM     28  H   UNL A   1      31.652  34.374  26.918  1.00  0.00     0.163 HD
ATOM     29  O   UNL A   1      32.727  35.477  28.783  1.00  0.00    -0.269 OA
BRANCH  27  30
ATOM     30  C   UNL A   1      34.282  33.716  28.837  1.00  0.00     0.039 A 
ATOM     31  C   UNL A   1      35.538  34.262  28.564  1.00  0.00     0.014 A 
ATOM     32  C   UNL A   1      34.169  32.545  29.591  1.00  0.00     0.014 A 
ATOM     33  C   UNL A   1      36.678  33.668  29.108  1.00  0.00     0.010 A 
ATOM     34  C   UNL A   1      35.293  32.013  30.207  1.00  0.00     0.010 A 
ATOM     35  C   UNL A   1      36.561  32.561  29.964  1.00  0.00    -0.014 A 
BRANCH  35  36
ATOM     36  C   UNL A   1      37.742  31.953  30.624  1.00  0.00     0.031 A 
ATOM     37  C   UNL A   1      38.535  30.892  29.908  1.00  0.00     0.074 A 
ATOM     38  C   UNL A   1      38.026  32.266  31.905  1.00  0.00     0.049 A 
ATOM     39  N   UNL A   1      39.515  30.154  30.356  1.00  0.00    -0.248 NA
ATOM     40  C   UNL A   1      38.154  30.598  28.515  1.00  0.00     0.031 C 
ATOM     41  C   UNL A   1      37.278  33.217  32.730  1.00  0.00     0.029 A 
ATOM     42  N   UNL A   1      38.993  31.784  32.752  1.00  0.00    -0.354 N 
ATOM     43  C   UNL A   1      39.830  29.274  29.326  1.00  0.00     0.074 A 
ATOM     44  C   UNL A   1      38.923  29.555  28.236  1.00  0.00     0.031 C 
ATOM     45  C   UNL A   1      37.805  33.240  33.964  1.00  0.00     0.029 A 
ATOM     46  C   UNL A   1      38.899  32.278  34.033  1.00  0.00     0.049 A 
ATOM     47  H   UNL A   1      39.686  31.144  32.470  1.00  0.00     0.167 HD
ATOM     48  C   UNL A   1      40.798  28.330  29.287  1.00  0.00     0.034 A 
ATOM     49  C   UNL A   1      39.597  31.971  35.144  1.00  0.00     0.034 A 
ATOM     50  C   UNL A   1      41.731  28.095  30.355  1.00  0.00     0.049 A 
ATOM     51  C   UNL A   1      40.703  30.955  35.052  1.00  0.00     0.074 A 
ATOM     52  C   UNL A   1      42.822  27.245  30.366  1.00  0.00     0.029 A 
ATOM     53  N   UNL A   1      41.675  28.696  31.601  1.00  0.00    -0.354 N 
ATOM     54  N   UNL A   1      41.098  30.257  34.014  1.00  0.00    -0.248 NA
ATOM     55  C   UNL A   1      41.485  30.706  36.272  1.00  0.00     0.031 C 
ATOM     56  C   UNL A   1      43.403  27.302  31.635  1.00  0.00     0.029 A 
ATOM     57  C   UNL A   1      42.701  28.220  32.398  1.00  0.00     0.049 A 
ATOM     58  H   UNL A   1      41.004  29.361  31.879  1.00  0.00     0.167 HD
ATOM     59  C   UNL A   1      42.194  29.519  34.446  1.00  0.00     0.074 A 
ATOM     60  C   UNL A   1      42.414  29.869  35.833  1.00  0.00     0.031 C 
ATOM     61  C   UNL A   1      42.944  28.623  33.759  1.00  0.00     0.034 A 
BRANCH  48  62
ATOM     62  C   UNL A   1      40.932  27.501  28.039  1.00  0.00     0.023 A 
ATOM     63  C   UNL A   1      41.567  28.038  26.901  1.00  0.00     0.012 A 
ATOM     64  C   UNL A   1      40.513  26.156  28.028  1.00  0.00     0.148 A 
ATOM     65  C   UNL A   1      41.759  27.258  25.762  1.00  0.00     0.002 A 
ATOM     66  C   UNL A   1      40.753  25.370  26.907  1.00  0.00     0.091 A 
ATOM     67  F   UNL A   1      39.895  25.670  29.113  1.00  0.00    -0.205 F 
ATOM     68  C   UNL A   1      41.366  25.923  25.770  1.00  0.00     0.022 A 
BRANCH  66  69
ATOM     69  S   UNL A   1      40.365  23.618  26.848  1.00  0.00     0.127 S 
ATOM     70  O   UNL A   1      40.770  23.182  28.185  1.00  0.00    -0.237 OA
ATOM     71  O   UNL A   1      38.919  23.633  26.626  1.00  0.00    -0.237 OA
ATOM     72  O   UNL A   1      41.148  23.067  25.752  1.00  0.00    -0.744 OA
ENDBRANCH  66  69
ENDBRANCH  48  62
BRANCH  49  73
ATOM     73  C   UNL A   1      39.292  32.650  36.435  1.00  0.00     0.023 A 
ATOM     74  C   UNL A   1      39.926  33.868  36.750  1.00  0.00     0.012 A 
ATOM     75  C   UNL A   1      38.376  32.098  37.351  1.00  0.00     0.148 A 
ATOM     76  C   UNL A   1      39.688  34.499  37.972  1.00  0.00     0.002 A 
ATOM     77  C   UNL A   1      38.098  32.761  38.540  1.00  0.00     0.091 A 
ATOM     78  F   UNL A   1      37.789  30.934  37.039  1.00  0.00    -0.205 F 
ATOM     79  C   UNL A   1      38.769  33.952  38.862  1.00  0.00     0.022 A 
BRANCH  77  80
ATOM     80  S   UNL A   1      36.833  32.197  39.682  1.00  0.00     0.127 S 
ATOM     81  O   UNL A   1      35.622  32.331  38.876  1.00  0.00    -0.237 OA
ATOM     82  O   UNL A   1      37.251  30.819  39.941  1.00  0.00    -0.237 OA
ATOM     83  O   UNL A   1      36.927  33.079  40.838  1.00  0.00    -0.744 OA
ENDBRANCH  77  80
ENDBRANCH  49  73
BRANCH  61  84
ATOM     84  C   UNL A   1      44.112  27.991  34.467  1.00  0.00     0.023 A 
ATOM     85  C   UNL A   1      45.373  28.619  34.449  1.00  0.00     0.012 A 
ATOM     86  C   UNL A   1      43.930  26.821  35.230  1.00  0.00     0.148 A 
ATOM     87  C   UNL A   1      46.443  28.074  35.158  1.00  0.00     0.002 A 
ATOM     88  C   UNL A   1      44.986  26.314  35.977  1.00  0.00     0.091 A 
ATOM     89  F   UNL A   1      42.725  26.232  35.219  1.00  0.00    -0.205 F 
ATOM     90  C   UNL A   1      46.246  26.932  35.932  1.00  0.00     0.022 A 
BRANCH  88  91
ATOM     91  S   UNL A   1      44.798  24.911  37.082  1.00  0.00     0.127 S 
ATOM     92  O   UNL A   1      43.935  25.467  38.124  1.00  0.00    -0.237 OA
ATOM     93  O   UNL A   1      44.153  23.922  36.218  1.00  0.00    -0.237 OA
ATOM     94  O   UNL A   1      46.143  24.553  37.513  1.00  0.00    -0.744 OA
ENDBRANCH  88  91
ENDBRANCH  61  84
ENDBRANCH  35  36
ENDBRANCH  27  30
ENDBRANCH  25  26
ENDBRANCH   1  25
TORSDOF 15
ENDMDL
