MODEL 1
REMARK VINA RESULT:     -12.3      0.000      0.000
REMARK SMILES C[C@@H]1[NH2+]CC[C@H]1C(=O)N[C@@H]1CCC[C@H](C(=O)NCCCNC(=O)c2ccc(-c3c4nc(c(-c5cccc(S(=O)(=O)[O-])c5F)c5ccc([nH]5)c(-c5cccc(S(=O)(=O)[O-])c5F)c5nc(c(-c6cccc(S(=O)(=O)[O-])c6F)c6ccc3[nH]6)C=C5)C=C4)cc2)C1
REMARK SMILES IDX 19 1 18 2 17 3 15 4 16 5 14 7 10 8 11 9 87 10 12 11 13 12
REMARK SMILES IDX 9 13 7 14 8 15 6 17 1 18 2 19 3 20 4 21 5 24 20 25 21 26
REMARK SMILES IDX 22 27 23 29 24 30 25 31 86 32 26 33 85 34 27 35 28 36 29 37
REMARK SMILES IDX 79 38 30 39 84 40 78 41 80 42 31 43 83 44 77 45 76 46 32 48
REMARK SMILES IDX 64 49 44 50 63 51 45 52 48 53 62 54 81 55 46 56 47 57 61 59
REMARK SMILES IDX 82 60 49 61 33 62 34 63 42 64 35 65 37 66 43 67 36 68 38 69
REMARK SMILES IDX 39 70 40 71 41 72 65 73 66 74 74 75 67 76 69 77 75 78 68 79
REMARK SMILES IDX 70 80 71 81 72 82 73 83 50 84 51 85 59 86 52 87 54 88 60 89
REMARK SMILES IDX 53 90 55 91 56 92 57 93 58 94
REMARK H PARENT 17 6 9 16 3 22 3 23 21 28 80 47 48 58
REMARK Flexibility Score: inf
ROOT
ATOM      1  C   UNL A   1      32.426  28.377  26.765  1.00  0.00     0.042 C 
ENDROOT
BRANCH   1   2
ATOM      2  C   UNL A   1      31.288  27.537  26.214  1.00  0.00     0.117 C 
BRANCH   2   3
ATOM      3  N   UNL A   1      31.217  26.222  26.843  1.00  0.00    -0.356 N 
ATOM      4  C   UNL A   1      31.764  25.022  26.501  1.00  0.00     0.223 C 
ATOM      5  O   UNL A   1      31.541  24.061  27.240  1.00  0.00    -0.275 OA
ATOM      6  H   UNL A   1      30.675  26.199  27.664  1.00  0.00     0.163 HD
BRANCH   4   7
ATOM      7  C   UNL A   1      32.717  24.875  25.315  1.00  0.00     0.080 C 
ATOM      8  C   UNL A   1      33.009  23.173  23.334  1.00  0.00     0.082 C 
ATOM      9  C   UNL A   1      34.445  22.986  23.860  1.00  0.00     0.025 C 
ATOM     10  C   UNL A   1      32.126  23.837  24.365  1.00  0.00     0.038 C 
ATOM     11  C   UNL A   1      35.010  24.237  24.522  1.00  0.00     0.003 C 
ATOM     12  C   UNL A   1      34.168  24.653  25.719  1.00  0.00     0.013 C 
BRANCH   8  13
ATOM     13  N   UNL A   1      32.516  21.854  22.861  1.00  0.00    -0.353 N 
ATOM     14  C   UNL A   1      32.528  20.547  23.220  1.00  0.00     0.229 C 
ATOM     15  O   UNL A   1      31.786  19.825  22.533  1.00  0.00    -0.275 OA
ATOM     16  H   UNL A   1      32.023  21.964  22.016  1.00  0.00     0.163 HD
BRANCH  14  17
ATOM     17  C   UNL A   1      33.357  19.873  24.314  1.00  0.00     0.142 C 
ATOM     18  C   UNL A   1      33.653  21.076  26.556  1.00  0.00     0.076 C 
ATOM     19  C   UNL A   1      32.840  20.078  25.735  1.00  0.00     0.192 C 
ATOM     20  N   UNL A   1      32.903  18.784  26.424  1.00  0.00    -0.343 N 
ATOM     21  C   UNL A   1      33.420  17.768  25.510  1.00  0.00     0.261 C 
ATOM     22  H   UNL A   1      31.968  18.517  26.733  1.00  0.00     0.346 HD
ATOM     23  H   UNL A   1      33.521  18.859  27.231  1.00  0.00     0.346 HD
ATOM     24  C   UNL A   1      33.605  18.390  24.136  1.00  0.00     0.081 C 
ENDBRANCH  14  17
ENDBRANCH   8  13
ENDBRANCH   4   7
ENDBRANCH   2   3
ENDBRANCH   1   2
BRANCH   1  25
ATOM     25  C   UNL A   1      32.924  29.434  25.789  1.00  0.00     0.118 C 
BRANCH  25  26
ATOM     26  N   UNL A   1      32.665  30.794  26.245  1.00  0.00    -0.352 N 
ATOM     27  C   UNL A   1      33.315  31.552  27.188  1.00  0.00     0.251 C 
ATOM     28  H   UNL A   1      31.904  31.239  25.808  1.00  0.00     0.163 HD
ATOM     29  O   UNL A   1      32.820  32.623  27.539  1.00  0.00    -0.269 OA
BRANCH  27  30
ATOM     30  C   UNL A   1      34.579  31.087  27.801  1.00  0.00     0.039 A 
ATOM     31  C   UNL A   1      35.638  31.991  27.923  1.00  0.00     0.014 A 
ATOM     32  C   UNL A   1      34.739  29.771  28.242  1.00  0.00     0.014 A 
ATOM     33  C   UNL A   1      36.822  31.592  28.549  1.00  0.00     0.010 A 
ATOM     34  C   UNL A   1      35.877  29.408  28.959  1.00  0.00     0.010 A 
ATOM     35  C   UNL A   1      36.937  30.310  29.113  1.00  0.00    -0.014 A 
BRANCH  35  36
ATOM     36  C   UNL A   1      38.151  29.923  29.879  1.00  0.00     0.031 A 
ATOM     37  C   UNL A   1      38.405  30.472  31.259  1.00  0.00     0.074 A 
ATOM     38  C   UNL A   1      39.061  29.110  29.305  1.00  0.00     0.049 A 
ATOM     39  N   UNL A   1      39.399  30.224  32.073  1.00  0.00    -0.248 NA
ATOM     40  C   UNL A   1      37.433  31.445  31.788  1.00  0.00     0.031 C 
ATOM     41  C   UNL A   1      38.989  28.596  27.934  1.00  0.00     0.029 A 
ATOM     42  N   UNL A   1      40.230  28.583  29.793  1.00  0.00    -0.354 N 
ATOM     43  C   UNL A   1      39.184  31.017  33.194  1.00  0.00     0.074 A 
ATOM     44  C   UNL A   1      37.993  31.796  32.936  1.00  0.00     0.031 C 
ATOM     45  C   UNL A   1      40.055  27.816  27.698  1.00  0.00     0.029 A 
ATOM     46  C   UNL A   1      40.900  27.794  28.886  1.00  0.00     0.049 A 
ATOM     47  H   UNL A   1      40.558  28.753  30.705  1.00  0.00     0.167 HD
ATOM     48  C   UNL A   1      39.888  31.065  34.350  1.00  0.00     0.034 A 
ATOM     49  C   UNL A   1      42.066  27.127  28.997  1.00  0.00     0.034 A 
ATOM     50  C   UNL A   1      41.056  30.269  34.618  1.00  0.00     0.049 A 
ATOM     51  C   UNL A   1      42.799  27.156  30.310  1.00  0.00     0.074 A 
ATOM     52  C   UNL A   1      41.799  30.194  35.783  1.00  0.00     0.029 A 
ATOM     53  N   UNL A   1      41.656  29.412  33.709  1.00  0.00    -0.354 N 
ATOM     54  N   UNL A   1      42.486  27.786  31.417  1.00  0.00    -0.248 NA
ATOM     55  C   UNL A   1      44.021  26.345  30.405  1.00  0.00     0.031 C 
ATOM     56  C   UNL A   1      42.860  29.308  35.570  1.00  0.00     0.029 A 
ATOM     57  C   UNL A   1      42.760  28.806  34.283  1.00  0.00     0.049 A 
ATOM     58  H   UNL A   1      41.341  29.256  32.788  1.00  0.00     0.167 HD
ATOM     59  C   UNL A   1      43.456  27.429  32.346  1.00  0.00     0.074 A 
ATOM     60  C   UNL A   1      44.343  26.495  31.682  1.00  0.00     0.031 C 
ATOM     61  C   UNL A   1      43.613  27.850  33.624  1.00  0.00     0.034 A 
BRANCH  48  62
ATOM     62  C   UNL A   1      39.373  31.964  35.447  1.00  0.00     0.023 A 
ATOM     63  C   UNL A   1      38.427  31.461  36.365  1.00  0.00     0.012 A 
ATOM     64  C   UNL A   1      39.868  33.273  35.616  1.00  0.00     0.148 A 
ATOM     65  C   UNL A   1      37.958  32.252  37.412  1.00  0.00     0.002 A 
ATOM     66  C   UNL A   1      39.431  34.040  36.690  1.00  0.00     0.091 A 
ATOM     67  F   UNL A   1      40.753  33.741  34.725  1.00  0.00    -0.205 F 
ATOM     68  C   UNL A   1      38.468  33.537  37.581  1.00  0.00     0.022 A 
BRANCH  66  69
ATOM     69  S   UNL A   1      40.082  35.676  37.045  1.00  0.00     0.127 S 
ATOM     70  O   UNL A   1      39.654  36.425  35.862  1.00  0.00    -0.237 OA
ATOM     71  O   UNL A   1      39.369  36.027  38.276  1.00  0.00    -0.237 OA
ATOM     72  O   UNL A   1      41.518  35.517  37.195  1.00  0.00    -0.744 OA
ENDBRANCH  66  69
ENDBRANCH  48  62
BRANCH  49  73
ATOM     73  C   UNL A   1      42.584  26.333  27.846  1.00  0.00     0.023 A 
ATOM     74  C   UNL A   1      43.557  26.890  26.992  1.00  0.00     0.012 A 
ATOM     75  C   UNL A   1      42.130  25.022  27.606  1.00  0.00     0.148 A 
ATOM     76  C   UNL A   1      44.035  26.171  25.896  1.00  0.00     0.002 A 
ATOM     77  C   UNL A   1      42.657  24.289  26.550  1.00  0.00     0.091 A 
ATOM     78  F   UNL A   1      41.196  24.513  28.422  1.00  0.00    -0.205 F 
ATOM     79  C   UNL A   1      43.593  24.868  25.680  1.00  0.00     0.022 A 
BRANCH  77  80
ATOM     80  S   UNL A   1      42.251  22.559  26.290  1.00  0.00     0.127 S 
ATOM     81  O   UNL A   1      42.854  21.929  27.462  1.00  0.00    -0.237 OA
ATOM     82  O   UNL A   1      40.788  22.587  26.289  1.00  0.00    -0.237 OA
ATOM     83  O   UNL A   1      42.840  22.208  25.005  1.00  0.00    -0.744 OA
ENDBRANCH  77  80
ENDBRANCH  49  73
BRANCH  61  84
ATOM     84  C   UNL A   1      44.777  27.287  34.398  1.00  0.00     0.023 A 
ATOM     85  C   UNL A   1      46.030  27.931  34.346  1.00  0.00     0.012 A 
ATOM     86  C   UNL A   1      44.623  26.141  35.203  1.00  0.00     0.148 A 
ATOM     87  C   UNL A   1      47.123  27.415  35.041  1.00  0.00     0.002 A 
ATOM     88  C   UNL A   1      45.703  25.663  35.935  1.00  0.00     0.091 A 
ATOM     89  F   UNL A   1      43.429  25.531  35.227  1.00  0.00    -0.205 F 
ATOM     90  C   UNL A   1      46.958  26.288  35.843  1.00  0.00     0.022 A 
BRANCH  88  91
ATOM     91  S   UNL A   1      45.558  24.275  37.066  1.00  0.00     0.127 S 
ATOM     92  O   UNL A   1      45.051  23.224  36.184  1.00  0.00    -0.237 OA
ATOM     93  O   UNL A   1      46.940  24.088  37.506  1.00  0.00    -0.237 OA
ATOM     94  O   UNL A   1      44.645  24.708  38.115  1.00  0.00    -0.744 OA
ENDBRANCH  88  91
ENDBRANCH  61  84
ENDBRANCH  35  36
ENDBRANCH  27  30
ENDBRANCH  25  26
ENDBRANCH   1  25
TORSDOF 15
ENDMDL
MODEL 2
REMARK VINA RESULT:     -12.3      2.152      3.630
REMARK SMILES C[C@@H]1[NH2+]CC[C@H]1C(=O)N[C@@H]1CCC[C@H](C(=O)NCCCNC(=O)c2ccc(-c3c4nc(c(-c5cccc(S(=O)(=O)[O-])c5F)c5ccc([nH]5)c(-c5cccc(S(=O)(=O)[O-])c5F)c5nc(c(-c6cccc(S(=O)(=O)[O-])c6F)c6ccc3[nH]6)C=C5)C=C4)cc2)C1
REMARK SMILES IDX 19 1 18 2 17 3 15 4 16 5 14 7 10 8 11 9 87 10 12 11 13 12
REMARK SMILES IDX 9 13 7 14 8 15 6 17 1 18 2 19 3 20 4 21 5 24 20 25 21 26
REMARK SMILES IDX 22 27 23 29 24 30 25 31 86 32 26 33 85 34 27 35 28 36 29 37
REMARK SMILES IDX 79 38 30 39 84 40 78 41 80 42 31 43 83 44 77 45 76 46 32 48
REMARK SMILES IDX 64 49 44 50 63 51 45 52 48 53 62 54 81 55 46 56 47 57 61 59
REMARK SMILES IDX 82 60 49 61 33 62 34 63 42 64 35 65 37 66 43 67 36 68 38 69
REMARK SMILES IDX 39 70 40 71 41 72 65 73 66 74 74 75 67 76 69 77 75 78 68 79
REMARK SMILES IDX 70 80 71 81 72 82 73 83 50 84 51 85 59 86 52 87 54 88 60 89
REMARK SMILES IDX 53 90 55 91 56 92 57 93 58 94
REMARK H PARENT 17 6 9 16 3 22 3 23 21 28 80 47 48 58
REMARK Flexibility Score: inf
ROOT
ATOM      1  C   UNL A   1      31.690  29.321  27.081  1.00  0.00     0.042 C 
ENDROOT
BRANCH   1   2
ATOM      2  C   UNL A   1      32.343  27.968  27.304  1.00  0.00     0.117 C 
BRANCH   2   3
ATOM      3  N   UNL A   1      31.379  26.874  27.247  1.00  0.00    -0.356 N 
ATOM      4  C   UNL A   1      31.092  25.968  26.271  1.00  0.00     0.223 C 
ATOM      5  O   UNL A   1      30.217  25.132  26.508  1.00  0.00    -0.275 OA
ATOM      6  H   UNL A   1      30.837  26.774  28.063  1.00  0.00     0.163 HD
BRANCH   4   7
ATOM      7  C   UNL A   1      31.891  25.899  24.970  1.00  0.00     0.080 C 
ATOM      8  C   UNL A   1      31.962  27.270  22.729  1.00  0.00     0.082 C 
ATOM      9  C   UNL A   1      31.678  25.925  22.033  1.00  0.00     0.025 C 
ATOM     10  C   UNL A   1      31.658  27.200  24.208  1.00  0.00     0.038 C 
ATOM     11  C   UNL A   1      32.253  24.728  22.781  1.00  0.00     0.003 C 
ATOM     12  C   UNL A   1      31.663  24.618  24.179  1.00  0.00     0.013 C 
BRANCH   8  13
ATOM     13  N   UNL A   1      31.221  28.331  21.999  1.00  0.00    -0.353 N 
ATOM     14  C   UNL A   1      30.118  29.108  22.125  1.00  0.00     0.229 C 
ATOM     15  O   UNL A   1      30.027  30.004  21.271  1.00  0.00    -0.275 OA
ATOM     16  H   UNL A   1      31.680  28.537  21.152  1.00  0.00     0.163 HD
BRANCH  14  17
ATOM     17  C   UNL A   1      28.983  28.983  23.144  1.00  0.00     0.142 C 
ATOM     18  C   UNL A   1      27.467  31.006  23.558  1.00  0.00     0.076 C 
ATOM     19  C   UNL A   1      27.698  29.716  22.773  1.00  0.00     0.192 C 
ATOM     20  N   UNL A   1      26.574  28.817  23.058  1.00  0.00    -0.343 N 
ATOM     21  C   UNL A   1      27.080  27.550  23.577  1.00  0.00     0.261 C 
ATOM     22  H   UNL A   1      26.048  28.647  22.201  1.00  0.00     0.346 HD
ATOM     23  H   UNL A   1      25.963  29.248  23.752  1.00  0.00     0.346 HD
ATOM     24  C   UNL A   1      28.598  27.571  23.534  1.00  0.00     0.081 C 
ENDBRANCH  14  17
ENDBRANCH   8  13
ENDBRANCH   4   7
ENDBRANCH   2   3
ENDBRANCH   1   2
BRANCH   1  25
ATOM     25  C   UNL A   1      32.482  30.227  26.150  1.00  0.00     0.118 C 
BRANCH  25  26
ATOM     26  N   UNL A   1      32.389  31.636  26.513  1.00  0.00    -0.352 N 
ATOM     27  C   UNL A   1      33.175  32.389  27.350  1.00  0.00     0.251 C 
ATOM     28  H   UNL A   1      31.644  32.123  26.093  1.00  0.00     0.163 HD
ATOM     29  O   UNL A   1      32.812  33.528  27.647  1.00  0.00    -0.269 OA
BRANCH  27  30
ATOM     30  C   UNL A   1      34.430  31.844  27.914  1.00  0.00     0.039 A 
ATOM     31  C   UNL A   1      35.548  32.679  27.995  1.00  0.00     0.014 A 
ATOM     32  C   UNL A   1      34.522  30.520  28.349  1.00  0.00     0.014 A 
ATOM     33  C   UNL A   1      36.727  32.204  28.575  1.00  0.00     0.010 A 
ATOM     34  C   UNL A   1      35.662  30.083  29.022  1.00  0.00     0.010 A 
ATOM     35  C   UNL A   1      36.783  30.916  29.135  1.00  0.00    -0.014 A 
BRANCH  35  36
ATOM     36  C   UNL A   1      37.998  30.452  29.854  1.00  0.00     0.031 A 
ATOM     37  C   UNL A   1      38.308  30.937  31.247  1.00  0.00     0.074 A 
ATOM     38  C   UNL A   1      38.859  29.625  29.226  1.00  0.00     0.049 A 
ATOM     39  N   UNL A   1      39.311  30.617  32.024  1.00  0.00    -0.248 NA
ATOM     40  C   UNL A   1      37.391  31.927  31.836  1.00  0.00     0.031 C 
ATOM     41  C   UNL A   1      38.732  29.167  27.840  1.00  0.00     0.029 A 
ATOM     42  N   UNL A   1      40.016  29.033  29.664  1.00  0.00    -0.354 N 
ATOM     43  C   UNL A   1      39.156  31.375  33.179  1.00  0.00     0.074 A 
ATOM     44  C   UNL A   1      37.993  32.211  32.982  1.00  0.00     0.031 C 
ATOM     45  C   UNL A   1      39.759  28.355  27.547  1.00  0.00     0.029 A 
ATOM     46  C   UNL A   1      40.631  28.253  28.711  1.00  0.00     0.049 A 
ATOM     47  H   UNL A   1      40.373  29.154  30.573  1.00  0.00     0.167 HD
ATOM     48  C   UNL A   1      39.890  31.351  34.318  1.00  0.00     0.034 A 
ATOM     49  C   UNL A   1      41.771  27.536  28.766  1.00  0.00     0.034 A 
ATOM     50  C   UNL A   1      41.030  30.499  34.525  1.00  0.00     0.049 A 
ATOM     51  C   UNL A   1      42.536  27.485  30.060  1.00  0.00     0.074 A 
ATOM     52  C   UNL A   1      41.798  30.349  35.667  1.00  0.00     0.029 A 
ATOM     53  N   UNL A   1      41.572  29.653  33.569  1.00  0.00    -0.354 N 
ATOM     54  N   UNL A   1      42.277  28.084  31.197  1.00  0.00    -0.248 NA
ATOM     55  C   UNL A   1      43.725  26.622  30.093  1.00  0.00     0.031 C 
ATOM     56  C   UNL A   1      42.816  29.429  35.393  1.00  0.00     0.029 A 
ATOM     57  C   UNL A   1      42.664  28.982  34.091  1.00  0.00     0.049 A 
ATOM     58  H   UNL A   1      41.228  29.546  32.652  1.00  0.00     0.167 HD
ATOM     59  C   UNL A   1      43.254  27.653  32.087  1.00  0.00     0.074 A 
ATOM     60  C   UNL A   1      44.085  26.710  31.365  1.00  0.00     0.031 C 
ATOM     61  C   UNL A   1      43.460  28.018  33.376  1.00  0.00     0.034 A 
BRANCH  48  62
ATOM     62  C   UNL A   1      39.439  32.227  35.461  1.00  0.00     0.023 A 
ATOM     63  C   UNL A   1      38.592  31.689  36.451  1.00  0.00     0.012 A 
ATOM     64  C   UNL A   1      39.904  33.551  35.596  1.00  0.00     0.148 A 
ATOM     65  C   UNL A   1      38.187  32.459  37.540  1.00  0.00     0.002 A 
ATOM     66  C   UNL A   1      39.533  34.298  36.709  1.00  0.00     0.091 A 
ATOM     67  F   UNL A   1      40.694  34.052  34.638  1.00  0.00    -0.205 F 
ATOM     68  C   UNL A   1      38.666  33.759  37.674  1.00  0.00     0.022 A 
BRANCH  66  69
ATOM     69  S   UNL A   1      40.157  35.954  37.019  1.00  0.00     0.127 S 
ATOM     70  O   UNL A   1      39.422  36.323  38.231  1.00  0.00    -0.237 OA
ATOM     71  O   UNL A   1      41.586  35.706  37.229  1.00  0.00    -0.237 OA
ATOM     72  O   UNL A   1      39.839  36.735  35.836  1.00  0.00    -0.744 OA
ENDBRANCH  66  69
ENDBRANCH  48  62
BRANCH  49  73
ATOM     73  C   UNL A   1      42.227  26.766  27.574  1.00  0.00     0.023 A 
ATOM     74  C   UNL A   1      42.971  27.411  26.566  1.00  0.00     0.012 A 
ATOM     75  C   UNL A   1      41.943  25.393  27.444  1.00  0.00     0.148 A 
ATOM     76  C   UNL A   1      43.384  26.713  25.431  1.00  0.00     0.002 A 
ATOM     77  C   UNL A   1      42.413  24.690  26.342  1.00  0.00     0.091 A 
ATOM     78  F   UNL A   1      41.225  24.799  28.407  1.00  0.00    -0.205 F 
ATOM     79  C   UNL A   1      43.115  25.351  25.323  1.00  0.00     0.022 A 
BRANCH  77  80
ATOM     80  S   UNL A   1      42.235  22.909  26.197  1.00  0.00     0.127 S 
ATOM     81  O   UNL A   1      43.021  22.435  27.333  1.00  0.00    -0.237 OA
ATOM     82  O   UNL A   1      40.788  22.736  26.333  1.00  0.00    -0.237 OA
ATOM     83  O   UNL A   1      42.753  22.570  24.878  1.00  0.00    -0.744 OA
ENDBRANCH  77  80
ENDBRANCH  49  73
BRANCH  61  84
ATOM     84  C   UNL A   1      44.618  27.380  34.097  1.00  0.00     0.023 A 
ATOM     85  C   UNL A   1      45.894  27.976  34.039  1.00  0.00     0.012 A 
ATOM     86  C   UNL A   1      44.437  26.209  34.860  1.00  0.00     0.148 A 
ATOM     87  C   UNL A   1      46.982  27.389  34.686  1.00  0.00     0.002 A 
ATOM     88  C   UNL A   1      45.514  25.660  35.545  1.00  0.00     0.091 A 
ATOM     89  F   UNL A   1      43.220  25.646  34.890  1.00  0.00    -0.205 F 
ATOM     90  C   UNL A   1      46.790  26.238  35.446  1.00  0.00     0.022 A 
BRANCH  88  91
ATOM     91  S   UNL A   1      45.340  24.234  36.624  1.00  0.00     0.127 S 
ATOM     92  O   UNL A   1      46.703  24.075  37.129  1.00  0.00    -0.237 OA
ATOM     93  O   UNL A   1      44.374  24.710  37.614  1.00  0.00    -0.237 OA
ATOM     94  O   UNL A   1      44.853  23.152  35.780  1.00  0.00    -0.744 OA
ENDBRANCH  88  91
ENDBRANCH  61  84
ENDBRANCH  35  36
ENDBRANCH  27  30
ENDBRANCH  25  26
ENDBRANCH   1  25
TORSDOF 15
ENDMDL
MODEL 3
REMARK VINA RESULT:     -12.3      5.219     10.423
REMARK SMILES C[C@@H]1[NH2+]CC[C@H]1C(=O)N[C@@H]1CCC[C@H](C(=O)NCCCNC(=O)c2ccc(-c3c4nc(c(-c5cccc(S(=O)(=O)[O-])c5F)c5ccc([nH]5)c(-c5cccc(S(=O)(=O)[O-])c5F)c5nc(c(-c6cccc(S(=O)(=O)[O-])c6F)c6ccc3[nH]6)C=C5)C=C4)cc2)C1
REMARK SMILES IDX 19 1 18 2 17 3 15 4 16 5 14 7 10 8 11 9 87 10 12 11 13 12
REMARK SMILES IDX 9 13 7 14 8 15 6 17 1 18 2 19 3 20 4 21 5 24 20 25 21 26
REMARK SMILES IDX 22 27 23 29 24 30 25 31 86 32 26 33 85 34 27 35 28 36 29 37
REMARK SMILES IDX 79 38 30 39 84 40 78 41 80 42 31 43 83 44 77 45 76 46 32 48
REMARK SMILES IDX 64 49 44 50 63 51 45 52 48 53 62 54 81 55 46 56 47 57 61 59
REMARK SMILES IDX 82 60 49 61 33 62 34 63 42 64 35 65 37 66 43 67 36 68 38 69
REMARK SMILES IDX 39 70 40 71 41 72 65 73 66 74 74 75 67 76 69 77 75 78 68 79
REMARK SMILES IDX 70 80 71 81 72 82 73 83 50 84 51 85 59 86 52 87 54 88 60 89
REMARK SMILES IDX 53 90 55 91 56 92 57 93 58 94
REMARK H PARENT 17 6 9 16 3 22 3 23 21 28 80 47 48 58
REMARK Flexibility Score: inf
ROOT
ATOM      1  C   UNL A   1      36.499  21.827  24.181  1.00  0.00     0.042 C 
ENDROOT
BRANCH   1   2
ATOM      2  C   UNL A   1      35.057  22.301  24.209  1.00  0.00     0.117 C 
BRANCH   2   3
ATOM      3  N   UNL A   1      34.809  23.371  23.248  1.00  0.00    -0.356 N 
ATOM      4  C   UNL A   1      34.055  24.503  23.325  1.00  0.00     0.223 C 
ATOM      5  O   UNL A   1      34.039  25.247  22.342  1.00  0.00    -0.275 OA
ATOM      6  H   UNL A   1      35.271  23.252  22.387  1.00  0.00     0.163 HD
BRANCH   4   7
ATOM      7  C   UNL A   1      33.341  24.914  24.612  1.00  0.00     0.080 C 
ATOM      8  C   UNL A   1      30.947  25.804  25.235  1.00  0.00     0.082 C 
ATOM      9  C   UNL A   1      31.684  27.005  25.860  1.00  0.00     0.025 C 
ATOM     10  C   UNL A   1      31.850  25.028  24.305  1.00  0.00     0.038 C 
ATOM     11  C   UNL A   1      33.062  26.647  26.404  1.00  0.00     0.003 C 
ATOM     12  C   UNL A   1      33.968  26.117  25.303  1.00  0.00     0.013 C 
BRANCH   8  13
ATOM     13  N   UNL A   1      29.700  26.307  24.604  1.00  0.00    -0.353 N 
ATOM     14  C   UNL A   1      29.253  27.352  23.865  1.00  0.00     0.229 C 
ATOM     15  O   UNL A   1      28.101  27.208  23.426  1.00  0.00    -0.275 OA
ATOM     16  H   UNL A   1      28.961  25.680  24.778  1.00  0.00     0.163 HD
BRANCH  14  17
ATOM     17  C   UNL A   1      29.971  28.667  23.554  1.00  0.00     0.142 C 
ATOM     18  C   UNL A   1      32.403  28.587  22.754  1.00  0.00     0.076 C 
ATOM     19  C   UNL A   1      30.926  28.615  22.366  1.00  0.00     0.192 C 
ATOM     20  N   UNL A   1      30.704  29.823  21.562  1.00  0.00    -0.343 N 
ATOM     21  C   UNL A   1      29.649  30.629  22.171  1.00  0.00     0.261 C 
ATOM     22  H   UNL A   1      30.424  29.557  20.618  1.00  0.00     0.346 HD
ATOM     23  H   UNL A   1      31.566  30.367  21.523  1.00  0.00     0.346 HD
ATOM     24  C   UNL A   1      29.080  29.876  23.362  1.00  0.00     0.081 C 
ENDBRANCH  14  17
ENDBRANCH   8  13
ENDBRANCH   4   7
ENDBRANCH   2   3
ENDBRANCH   1   2
BRANCH   1  25
ATOM     25  C   UNL A   1      37.306  22.281  25.389  1.00  0.00     0.118 C 
BRANCH  25  26
ATOM     26  N   UNL A   1      38.327  21.319  25.784  1.00  0.00    -0.352 N 
ATOM     27  C   UNL A   1      39.561  21.518  26.354  1.00  0.00     0.251 C 
ATOM     28  H   UNL A   1      38.097  20.377  25.614  1.00  0.00     0.163 HD
ATOM     29  O   UNL A   1      40.337  20.567  26.449  1.00  0.00    -0.269 OA
BRANCH  27  30
ATOM     30  C   UNL A   1      39.973  22.858  26.829  1.00  0.00     0.039 A 
ATOM     31  C   UNL A   1      40.853  22.945  27.911  1.00  0.00     0.014 A 
ATOM     32  C   UNL A   1      39.494  24.026  26.230  1.00  0.00     0.014 A 
ATOM     33  C   UNL A   1      41.302  24.197  28.342  1.00  0.00     0.010 A 
ATOM     34  C   UNL A   1      40.024  25.264  26.591  1.00  0.00     0.010 A 
ATOM     35  C   UNL A   1      40.927  25.366  27.658  1.00  0.00    -0.014 A 
BRANCH  35  36
ATOM     36  C   UNL A   1      41.493  26.686  28.042  1.00  0.00     0.031 A 
ATOM     37  C   UNL A   1      42.931  27.027  27.751  1.00  0.00     0.074 A 
ATOM     38  C   UNL A   1      40.718  27.567  28.707  1.00  0.00     0.049 A 
ATOM     39  N   UNL A   1      43.579  28.136  27.998  1.00  0.00    -0.248 NA
ATOM     40  C   UNL A   1      43.759  25.982  27.125  1.00  0.00     0.031 C 
ATOM     41  C   UNL A   1      39.342  27.318  29.146  1.00  0.00     0.029 A 
ATOM     42  N   UNL A   1      40.977  28.841  29.143  1.00  0.00    -0.354 N 
ATOM     43  C   UNL A   1      44.886  27.918  27.578  1.00  0.00     0.074 A 
ATOM     44  C   UNL A   1      44.955  26.553  27.108  1.00  0.00     0.031 C 
ATOM     45  C   UNL A   1      38.874  28.409  29.772  1.00  0.00     0.029 A 
ATOM     46  C   UNL A   1      39.920  29.424  29.804  1.00  0.00     0.049 A 
ATOM     47  H   UNL A   1      41.837  29.296  28.997  1.00  0.00     0.167 HD
ATOM     48  C   UNL A   1      45.927  28.786  27.546  1.00  0.00     0.034 A 
ATOM     49  C   UNL A   1      39.805  30.640  30.374  1.00  0.00     0.034 A 
ATOM     50  C   UNL A   1      45.851  30.153  27.987  1.00  0.00     0.049 A 
ATOM     51  C   UNL A   1      40.957  31.601  30.277  1.00  0.00     0.074 A 
ATOM     52  C   UNL A   1      46.828  31.132  27.932  1.00  0.00     0.029 A 
ATOM     53  N   UNL A   1      44.736  30.738  28.568  1.00  0.00    -0.354 N 
ATOM     54  N   UNL A   1      42.134  31.427  29.724  1.00  0.00    -0.248 NA
ATOM     55  C   UNL A   1      40.750  32.942  30.841  1.00  0.00     0.031 C 
ATOM     56  C   UNL A   1      46.310  32.301  28.500  1.00  0.00     0.029 A 
ATOM     57  C   UNL A   1      45.000  32.060  28.880  1.00  0.00     0.049 A 
ATOM     58  H   UNL A   1      43.880  30.278  28.735  1.00  0.00     0.167 HD
ATOM     59  C   UNL A   1      42.797  32.642  29.852  1.00  0.00     0.074 A 
ATOM     60  C   UNL A   1      41.875  33.554  30.497  1.00  0.00     0.031 C 
ATOM     61  C   UNL A   1      44.062  32.969  29.488  1.00  0.00     0.034 A 
BRANCH  48  62
ATOM     62  C   UNL A   1      47.225  28.301  26.950  1.00  0.00     0.023 A 
ATOM     63  C   UNL A   1      48.297  27.971  27.806  1.00  0.00     0.012 A 
ATOM     64  C   UNL A   1      47.365  28.104  25.562  1.00  0.00     0.148 A 
ATOM     65  C   UNL A   1      49.497  27.485  27.290  1.00  0.00     0.002 A 
ATOM     66  C   UNL A   1      48.549  27.574  25.059  1.00  0.00     0.091 A 
ATOM     67  F   UNL A   1      46.343  28.438  24.762  1.00  0.00    -0.205 F 
ATOM     68  C   UNL A   1      49.619  27.276  25.919  1.00  0.00     0.022 A 
BRANCH  66  69
ATOM     69  S   UNL A   1      48.781  27.191  23.319  1.00  0.00     0.127 S 
ATOM     70  O   UNL A   1      50.239  27.102  23.230  1.00  0.00    -0.237 OA
ATOM     71  O   UNL A   1      48.086  25.908  23.195  1.00  0.00    -0.237 OA
ATOM     72  O   UNL A   1      48.178  28.287  22.580  1.00  0.00    -0.744 OA
ENDBRANCH  66  69
ENDBRANCH  48  62
BRANCH  49  73
ATOM     73  C   UNL A   1      38.531  31.034  31.041  1.00  0.00     0.023 A 
ATOM     74  C   UNL A   1      38.366  30.815  32.423  1.00  0.00     0.012 A 
ATOM     75  C   UNL A   1      37.489  31.641  30.315  1.00  0.00     0.148 A 
ATOM     76  C   UNL A   1      37.172  31.153  33.059  1.00  0.00     0.002 A 
ATOM     77  C   UNL A   1      36.327  32.034  30.967  1.00  0.00     0.091 A 
ATOM     78  F   UNL A   1      37.658  31.831  28.998  1.00  0.00    -0.205 F 
ATOM     79  C   UNL A   1      36.156  31.772  32.335  1.00  0.00     0.022 A 
BRANCH  77  80
ATOM     80  S   UNL A   1      35.034  32.965  30.139  1.00  0.00     0.127 S 
ATOM     81  O   UNL A   1      35.787  34.071  29.553  1.00  0.00    -0.237 OA
ATOM     82  O   UNL A   1      34.524  31.988  29.176  1.00  0.00    -0.237 OA
ATOM     83  O   UNL A   1      34.082  33.326  31.182  1.00  0.00    -0.744 OA
ENDBRANCH  77  80
ENDBRANCH  49  73
BRANCH  61  84
ATOM     84  C   UNL A   1      44.515  34.379  29.760  1.00  0.00     0.023 A 
ATOM     85  C   UNL A   1      45.086  34.703  31.008  1.00  0.00     0.012 A 
ATOM     86  C   UNL A   1      44.409  35.376  28.771  1.00  0.00     0.148 A 
ATOM     87  C   UNL A   1      45.494  36.008  31.284  1.00  0.00     0.002 A 
ATOM     88  C   UNL A   1      44.867  36.661  29.034  1.00  0.00     0.091 A 
ATOM     89  F   UNL A   1      43.848  35.055  27.595  1.00  0.00    -0.205 F 
ATOM     90  C   UNL A   1      45.395  36.983  30.296  1.00  0.00     0.022 A 
BRANCH  88  91
ATOM     91  S   UNL A   1      44.865  37.956  27.790  1.00  0.00     0.127 S 
ATOM     92  O   UNL A   1      45.635  37.335  26.713  1.00  0.00    -0.237 OA
ATOM     93  O   UNL A   1      43.439  38.114  27.507  1.00  0.00    -0.237 OA
ATOM     94  O   UNL A   1      45.486  39.114  28.418  1.00  0.00    -0.744 OA
ENDBRANCH  88  91
ENDBRANCH  61  84
ENDBRANCH  35  36
ENDBRANCH  27  30
ENDBRANCH  25  26
ENDBRANCH   1  25
TORSDOF 15
ENDMDL
