MODEL 1
REMARK VINA RESULT:     -11.7      0.000      0.000
REMARK SMILES CC1(C)CCC[C@@](C)(CCC(=O)NCCCNC(=O)c2ccc(-c3c4nc(c(-c5cccc(S(=O)(=O)[O-])c5F)c5ccc([nH]5)c(-c5cccc(S(=O)(=O)[O-])c5F)c5nc(c(-c6cccc(S(=O)(=O)[O-])c6F)c6ccc3[nH]6)C=C5)C=C4)cc2)C1=O
REMARK SMILES IDX 15 1 14 2 13 3 11 4 12 5 10 7 9 8 7 9 1 10 2 11 3 12 4 13
REMARK SMILES IDX 83 14 5 15 84 16 6 17 8 18 16 19 17 20 18 21 19 23 20 24
REMARK SMILES IDX 21 25 82 26 22 27 81 28 23 29 24 30 25 31 75 32 26 33 80 34
REMARK SMILES IDX 74 35 76 36 27 37 79 38 73 39 72 40 28 42 60 43 40 44 59 45
REMARK SMILES IDX 41 46 44 47 58 48 77 49 42 50 43 51 57 53 78 54 45 55 29 56
REMARK SMILES IDX 30 57 38 58 31 59 33 60 39 61 32 62 34 63 35 64 36 65 37 66
REMARK SMILES IDX 61 67 62 68 70 69 63 70 65 71 71 72 64 73 66 74 67 75 68 76
REMARK SMILES IDX 69 77 46 78 47 79 55 80 48 81 50 82 56 83 49 84 51 85 52 86
REMARK SMILES IDX 53 87 54 88
REMARK H PARENT 13 6 17 22 76 41 44 52
REMARK Flexibility Score: inf
ROOT
ATOM      1  C   UNL A   1      32.164  27.769  25.584  1.00  0.00     0.042 C 
ENDROOT
BRANCH   1   2
ATOM      2  C   UNL A   1      31.660  26.844  24.474  1.00  0.00     0.117 C 
BRANCH   2   3
ATOM      3  N   UNL A   1      32.535  26.830  23.305  1.00  0.00    -0.356 N 
ATOM      4  C   UNL A   1      32.928  25.823  22.475  1.00  0.00     0.220 C 
ATOM      5  O   UNL A   1      33.709  26.098  21.560  1.00  0.00    -0.275 OA
ATOM      6  H   UNL A   1      32.912  27.710  23.075  1.00  0.00     0.163 HD
BRANCH   4   7
ATOM      7  C   UNL A   1      32.387  24.414  22.622  1.00  0.00     0.101 C 
BRANCH   7   8
ATOM      8  C   UNL A   1      33.447  23.316  22.875  1.00  0.00     0.024 C 
BRANCH   8   9
ATOM      9  C   UNL A   1      33.607  22.853  24.350  1.00  0.00     0.027 C 
ATOM     10  C   UNL A   1      36.653  22.954  23.122  1.00  0.00     0.019 C 
ATOM     11  C   UNL A   1      36.211  22.309  24.443  1.00  0.00     0.024 C 
ATOM     12  C   UNL A   1      37.138  21.089  24.646  1.00  0.00     0.019 C 
ATOM     13  C   UNL A   1      36.345  23.292  25.610  1.00  0.00     0.014 C 
ATOM     14  C   UNL A   1      34.749  21.828  24.503  1.00  0.00     0.144 C 
ATOM     15  C   UNL A   1      35.357  24.456  25.487  1.00  0.00     0.002 C 
ATOM     16  O   UNL A   1      34.511  20.642  24.732  1.00  0.00    -0.298 OA
ATOM     17  C   UNL A   1      33.901  23.997  25.360  1.00  0.00     0.014 C 
ATOM     18  C   UNL A   1      32.233  22.287  24.787  1.00  0.00     0.020 C 
ENDBRANCH   8   9
ENDBRANCH   7   8
ENDBRANCH   4   7
ENDBRANCH   2   3
ENDBRANCH   1   2
BRANCH   1  19
ATOM     19  C   UNL A   1      33.095  28.878  25.119  1.00  0.00     0.118 C 
BRANCH  19  20
ATOM     20  N   UNL A   1      32.562  30.183  25.478  1.00  0.00    -0.352 N 
ATOM     21  C   UNL A   1      32.795  30.949  26.595  1.00  0.00     0.251 C 
ATOM     22  H   UNL A   1      31.941  30.576  24.823  1.00  0.00     0.163 HD
ATOM     23  O   UNL A   1      31.994  31.840  26.876  1.00  0.00    -0.269 OA
BRANCH  21  24
ATOM     24  C   UNL A   1      33.989  30.741  27.455  1.00  0.00     0.039 A 
ATOM     25  C   UNL A   1      34.892  31.798  27.627  1.00  0.00     0.014 A 
ATOM     26  C   UNL A   1      34.292  29.492  28.004  1.00  0.00     0.014 A 
ATOM     27  C   UNL A   1      36.076  31.608  28.353  1.00  0.00     0.010 A 
ATOM     28  C   UNL A   1      35.432  29.325  28.793  1.00  0.00     0.010 A 
ATOM     29  C   UNL A   1      36.354  30.370  28.951  1.00  0.00    -0.014 A 
BRANCH  29  30
ATOM     30  C   UNL A   1      37.614  30.128  29.706  1.00  0.00     0.031 A 
ATOM     31  C   UNL A   1      38.672  29.211  29.142  1.00  0.00     0.074 A 
ATOM     32  C   UNL A   1      37.780  30.659  30.935  1.00  0.00     0.049 A 
ATOM     33  N   UNL A   1      39.788  28.800  29.687  1.00  0.00    -0.248 NA
ATOM     34  C   UNL A   1      38.427  28.662  27.797  1.00  0.00     0.031 C 
ATOM     35  C   UNL A   1      36.812  31.510  31.626  1.00  0.00     0.029 A 
ATOM     36  N   UNL A   1      38.811  30.530  31.834  1.00  0.00    -0.354 N 
ATOM     37  C   UNL A   1      40.353  27.911  28.777  1.00  0.00     0.074 A 
ATOM     38  C   UNL A   1      39.443  27.823  27.656  1.00  0.00     0.031 C 
ATOM     39  C   UNL A   1      37.289  31.823  32.841  1.00  0.00     0.029 A 
ATOM     40  C   UNL A   1      38.583  31.171  33.030  1.00  0.00     0.049 A 
ATOM     41  H   UNL A   1      39.635  30.028  31.641  1.00  0.00     0.167 HD
ATOM     42  C   UNL A   1      41.534  27.251  28.851  1.00  0.00     0.034 A 
ATOM     43  C   UNL A   1      39.321  31.219  34.156  1.00  0.00     0.034 A 
ATOM     44  C   UNL A   1      42.468  27.388  29.935  1.00  0.00     0.049 A 
ATOM     45  C   UNL A   1      40.648  30.509  34.198  1.00  0.00     0.074 A 
ATOM     46  C   UNL A   1      43.735  26.842  30.053  1.00  0.00     0.029 A 
ATOM     47  N   UNL A   1      42.239  28.117  31.091  1.00  0.00    -0.354 N 
ATOM     48  N   UNL A   1      41.237  29.803  33.262  1.00  0.00    -0.248 NA
ATOM     49  C   UNL A   1      41.430  30.628  35.439  1.00  0.00     0.031 C 
ATOM     50  C   UNL A   1      44.265  27.228  31.288  1.00  0.00     0.029 A 
ATOM     51  C   UNL A   1      43.334  28.027  31.933  1.00  0.00     0.049 A 
ATOM     52  H   UNL A   1      41.418  28.625  31.284  1.00  0.00     0.167 HD
ATOM     53  C   UNL A   1      42.465  29.418  33.789  1.00  0.00     0.074 A 
ATOM     54  C   UNL A   1      42.548  29.991  35.117  1.00  0.00     0.031 C 
ATOM     55  C   UNL A   1      43.429  28.645  33.230  1.00  0.00     0.034 A 
BRANCH  42  56
ATOM     56  C   UNL A   1      41.916  26.364  27.693  1.00  0.00     0.023 A 
ATOM     57  C   UNL A   1      42.673  26.898  26.631  1.00  0.00     0.012 A 
ATOM     58  C   UNL A   1      41.585  24.994  27.684  1.00  0.00     0.148 A 
ATOM     59  C   UNL A   1      43.064  26.094  25.561  1.00  0.00     0.002 A 
ATOM     60  C   UNL A   1      42.014  24.190  26.635  1.00  0.00     0.091 A 
ATOM     61  F   UNL A   1      40.849  24.506  28.693  1.00  0.00    -0.205 F 
ATOM     62  C   UNL A   1      42.743  24.740  25.568  1.00  0.00     0.022 A 
BRANCH  60  63
ATOM     63  S   UNL A   1      41.720  22.417  26.588  1.00  0.00     0.127 S 
ATOM     64  O   UNL A   1      42.329  21.983  27.845  1.00  0.00    -0.237 OA
ATOM     65  O   UNL A   1      40.259  22.347  26.563  1.00  0.00    -0.237 OA
ATOM     66  O   UNL A   1      42.371  21.936  25.377  1.00  0.00    -0.744 OA
ENDBRANCH  60  63
ENDBRANCH  42  56
BRANCH  43  67
ATOM     67  C   UNL A   1      38.849  32.022  35.321  1.00  0.00     0.023 A 
ATOM     68  C   UNL A   1      38.959  33.426  35.277  1.00  0.00     0.012 A 
ATOM     69  C   UNL A   1      38.264  31.413  36.447  1.00  0.00     0.148 A 
ATOM     70  C   UNL A   1      38.519  34.207  36.346  1.00  0.00     0.002 A 
ATOM     71  C   UNL A   1      37.778  32.201  37.485  1.00  0.00     0.091 A 
ATOM     72  F   UNL A   1      38.183  30.076  36.478  1.00  0.00    -0.205 F 
ATOM     73  C   UNL A   1      37.920  33.597  37.445  1.00  0.00     0.022 A 
BRANCH  71  74
ATOM     74  S   UNL A   1      36.873  31.508  38.874  1.00  0.00     0.127 S 
ATOM     75  O   UNL A   1      36.719  30.113  38.465  1.00  0.00    -0.237 OA
ATOM     76  O   UNL A   1      37.806  31.724  39.982  1.00  0.00    -0.237 OA
ATOM     77  O   UNL A   1      35.645  32.281  38.969  1.00  0.00    -0.744 OA
ENDBRANCH  71  74
ENDBRANCH  43  67
BRANCH  55  78
ATOM     78  C   UNL A   1      44.672  28.380  34.038  1.00  0.00     0.023 A 
ATOM     79  C   UNL A   1      45.755  29.280  33.963  1.00  0.00     0.012 A 
ATOM     80  C   UNL A   1      44.738  27.293  34.932  1.00  0.00     0.148 A 
ATOM     81  C   UNL A   1      46.892  29.088  34.746  1.00  0.00     0.002 A 
ATOM     82  C   UNL A   1      45.856  27.134  35.743  1.00  0.00     0.091 A 
ATOM     83  F   UNL A   1      43.705  26.439  34.977  1.00  0.00    -0.205 F 
ATOM     84  C   UNL A   1      46.938  28.023  35.643  1.00  0.00     0.022 A 
BRANCH  82  85
ATOM     85  S   UNL A   1      45.966  25.847  36.992  1.00  0.00     0.127 S 
ATOM     86  O   UNL A   1      47.149  26.261  37.744  1.00  0.00    -0.237 OA
ATOM     87  O   UNL A   1      44.701  26.002  37.711  1.00  0.00    -0.237 OA
ATOM     88  O   UNL A   1      46.096  24.592  36.265  1.00  0.00    -0.744 OA
ENDBRANCH  82  85
ENDBRANCH  55  78
ENDBRANCH  29  30
ENDBRANCH  21  24
ENDBRANCH  19  20
ENDBRANCH   1  19
TORSDOF 15
ENDMDL
MODEL 2
REMARK VINA RESULT:     -11.6      2.346      3.358
REMARK SMILES CC1(C)CCC[C@@](C)(CCC(=O)NCCCNC(=O)c2ccc(-c3c4nc(c(-c5cccc(S(=O)(=O)[O-])c5F)c5ccc([nH]5)c(-c5cccc(S(=O)(=O)[O-])c5F)c5nc(c(-c6cccc(S(=O)(=O)[O-])c6F)c6ccc3[nH]6)C=C5)C=C4)cc2)C1=O
REMARK SMILES IDX 15 1 14 2 13 3 11 4 12 5 10 7 9 8 7 9 1 10 2 11 3 12 4 13
REMARK SMILES IDX 83 14 5 15 84 16 6 17 8 18 16 19 17 20 18 21 19 23 20 24
REMARK SMILES IDX 21 25 82 26 22 27 81 28 23 29 24 30 25 31 75 32 26 33 80 34
REMARK SMILES IDX 74 35 76 36 27 37 79 38 73 39 72 40 28 42 60 43 40 44 59 45
REMARK SMILES IDX 41 46 44 47 58 48 77 49 42 50 43 51 57 53 78 54 45 55 29 56
REMARK SMILES IDX 30 57 38 58 31 59 33 60 39 61 32 62 34 63 35 64 36 65 37 66
REMARK SMILES IDX 61 67 62 68 70 69 63 70 65 71 71 72 64 73 66 74 67 75 68 76
REMARK SMILES IDX 69 77 46 78 47 79 55 80 48 81 50 82 56 83 49 84 51 85 52 86
REMARK SMILES IDX 53 87 54 88
REMARK H PARENT 13 6 17 22 76 41 44 52
REMARK Flexibility Score: inf
ROOT
ATOM      1  C   UNL A   1      31.480  31.898  26.478  1.00  0.00     0.042 C 
ENDROOT
BRANCH   1   2
ATOM      2  C   UNL A   1      31.639  30.503  25.869  1.00  0.00     0.117 C 
BRANCH   2   3
ATOM      3  N   UNL A   1      30.783  30.291  24.705  1.00  0.00    -0.356 N 
ATOM      4  C   UNL A   1      30.847  29.394  23.680  1.00  0.00     0.220 C 
ATOM      5  O   UNL A   1      29.985  29.458  22.800  1.00  0.00    -0.275 OA
ATOM      6  H   UNL A   1      30.019  30.909  24.650  1.00  0.00     0.163 HD
BRANCH   4   7
ATOM      7  C   UNL A   1      31.907  28.310  23.637  1.00  0.00     0.101 C 
BRANCH   7   8
ATOM      8  C   UNL A   1      31.447  26.909  24.104  1.00  0.00     0.024 C 
BRANCH   8   9
ATOM      9  C   UNL A   1      31.710  25.741  23.113  1.00  0.00     0.027 C 
ATOM     10  C   UNL A   1      33.422  25.004  25.818  1.00  0.00     0.019 C 
ATOM     11  C   UNL A   1      33.539  24.336  24.442  1.00  0.00     0.024 C 
ATOM     12  C   UNL A   1      35.021  23.925  24.297  1.00  0.00     0.019 C 
ATOM     13  C   UNL A   1      32.625  23.110  24.343  1.00  0.00     0.014 C 
ATOM     14  C   UNL A   1      33.152  25.208  23.232  1.00  0.00     0.144 C 
ATOM     15  C   UNL A   1      31.145  23.503  24.375  1.00  0.00     0.002 C 
ATOM     16  O   UNL A   1      33.983  25.419  22.349  1.00  0.00    -0.298 OA
ATOM     17  C   UNL A   1      30.770  24.517  23.290  1.00  0.00     0.014 C 
ATOM     18  C   UNL A   1      31.388  26.283  21.698  1.00  0.00     0.020 C 
ENDBRANCH   8   9
ENDBRANCH   7   8
ENDBRANCH   4   7
ENDBRANCH   2   3
ENDBRANCH   1   2
BRANCH   1  19
ATOM     19  C   UNL A   1      32.692  32.403  27.246  1.00  0.00     0.118 C 
BRANCH  19  20
ATOM     20  N   UNL A   1      32.560  33.819  27.544  1.00  0.00    -0.352 N 
ATOM     21  C   UNL A   1      33.090  34.552  28.580  1.00  0.00     0.251 C 
ATOM     22  H   UNL A   1      32.008  34.331  26.910  1.00  0.00     0.163 HD
ATOM     23  O   UNL A   1      32.585  35.640  28.852  1.00  0.00    -0.269 OA
BRANCH  21  24
ATOM     24  C   UNL A   1      34.261  34.073  29.361  1.00  0.00     0.039 A 
ATOM     25  C   UNL A   1      35.550  34.378  28.904  1.00  0.00     0.014 A 
ATOM     26  C   UNL A   1      34.114  33.237  30.471  1.00  0.00     0.014 A 
ATOM     27  C   UNL A   1      36.675  33.864  29.562  1.00  0.00     0.010 A 
ATOM     28  C   UNL A   1      35.235  32.790  31.173  1.00  0.00     0.010 A 
ATOM     29  C   UNL A   1      36.529  33.070  30.710  1.00  0.00    -0.014 A 
BRANCH  29  30
ATOM     30  C   UNL A   1      37.703  32.487  31.416  1.00  0.00     0.031 A 
ATOM     31  C   UNL A   1      38.464  31.338  30.800  1.00  0.00     0.074 A 
ATOM     32  C   UNL A   1      38.038  32.924  32.647  1.00  0.00     0.049 A 
ATOM     33  N   UNL A   1      39.448  30.635  31.299  1.00  0.00    -0.248 NA
ATOM     34  C   UNL A   1      38.044  30.907  29.455  1.00  0.00     0.031 C 
ATOM     35  C   UNL A   1      37.349  33.982  33.386  1.00  0.00     0.029 A 
ATOM     36  N   UNL A   1      39.025  32.507  33.507  1.00  0.00    -0.354 N 
ATOM     37  C   UNL A   1      39.732  29.653  30.355  1.00  0.00     0.074 A 
ATOM     38  C   UNL A   1      38.799  29.835  29.265  1.00  0.00     0.031 C 
ATOM     39  C   UNL A   1      37.927  34.127  34.588  1.00  0.00     0.029 A 
ATOM     40  C   UNL A   1      39.009  33.154  34.721  1.00  0.00     0.049 A 
ATOM     41  H   UNL A   1      39.682  31.811  33.277  1.00  0.00     0.167 HD
ATOM     42  C   UNL A   1      40.699  28.704  30.377  1.00  0.00     0.034 A 
ATOM     43  C   UNL A   1      39.766  32.978  35.821  1.00  0.00     0.034 A 
ATOM     44  C   UNL A   1      41.668  28.563  31.429  1.00  0.00     0.049 A 
ATOM     45  C   UNL A   1      40.860  31.943  35.805  1.00  0.00     0.074 A 
ATOM     46  C   UNL A   1      42.750  27.701  31.494  1.00  0.00     0.029 A 
ATOM     47  N   UNL A   1      41.674  29.297  32.604  1.00  0.00    -0.354 N 
ATOM     48  N   UNL A   1      41.215  31.131  34.837  1.00  0.00    -0.248 NA
ATOM     49  C   UNL A   1      41.682  31.822  37.020  1.00  0.00     0.031 C 
ATOM     50  C   UNL A   1      43.398  27.903  32.716  1.00  0.00     0.029 A 
ATOM     51  C   UNL A   1      42.730  28.902  33.407  1.00  0.00     0.049 A 
ATOM     52  H   UNL A   1      41.021  29.998  32.835  1.00  0.00     0.167 HD
ATOM     53  C   UNL A   1      42.313  30.424  35.314  1.00  0.00     0.074 A 
ATOM     54  C   UNL A   1      42.583  30.922  36.648  1.00  0.00     0.031 C 
ATOM     55  C   UNL A   1      43.022  29.439  34.710  1.00  0.00     0.034 A 
BRANCH  42  56
ATOM     56  C   UNL A   1      40.801  27.777  29.191  1.00  0.00     0.023 A 
ATOM     57  C   UNL A   1      40.002  26.616  29.148  1.00  0.00     0.012 A 
ATOM     58  C   UNL A   1      41.634  28.082  28.097  1.00  0.00     0.148 A 
ATOM     59  C   UNL A   1      40.056  25.756  28.053  1.00  0.00     0.002 A 
ATOM     60  C   UNL A   1      41.651  27.242  26.990  1.00  0.00     0.091 A 
ATOM     61  F   UNL A   1      42.402  29.180  28.162  1.00  0.00    -0.205 F 
ATOM     62  C   UNL A   1      40.872  26.073  26.971  1.00  0.00     0.022 A 
BRANCH  60  63
ATOM     63  S   UNL A   1      42.609  27.602  25.512  1.00  0.00     0.127 S 
ATOM     64  O   UNL A   1      43.971  27.634  26.044  1.00  0.00    -0.237 OA
ATOM     65  O   UNL A   1      42.315  26.448  24.663  1.00  0.00    -0.237 OA
ATOM     66  O   UNL A   1      42.103  28.871  25.007  1.00  0.00    -0.744 OA
ENDBRANCH  60  63
ENDBRANCH  42  56
BRANCH  43  67
ATOM     67  C   UNL A   1      39.556  33.847  37.015  1.00  0.00     0.023 A 
ATOM     68  C   UNL A   1      39.983  35.189  36.972  1.00  0.00     0.012 A 
ATOM     69  C   UNL A   1      38.910  33.369  38.170  1.00  0.00     0.148 A 
ATOM     70  C   UNL A   1      39.795  36.031  38.068  1.00  0.00     0.002 A 
ATOM     71  C   UNL A   1      38.676  34.229  39.238  1.00  0.00     0.091 A 
ATOM     72  F   UNL A   1      38.525  32.085  38.200  1.00  0.00    -0.205 F 
ATOM     73  C   UNL A   1      39.133  35.555  39.196  1.00  0.00     0.022 A 
BRANCH  71  74
ATOM     74  S   UNL A   1      37.714  33.737  40.674  1.00  0.00     0.127 S 
ATOM     75  O   UNL A   1      36.512  33.181  40.054  1.00  0.00    -0.237 OA
ATOM     76  O   UNL A   1      38.593  32.749  41.305  1.00  0.00    -0.237 OA
ATOM     77  O   UNL A   1      37.524  34.949  41.454  1.00  0.00    -0.744 OA
ENDBRANCH  71  74
ENDBRANCH  43  67
BRANCH  55  78
ATOM     78  C   UNL A   1      44.175  28.837  35.469  1.00  0.00     0.023 A 
ATOM     79  C   UNL A   1      45.464  29.392  35.332  1.00  0.00     0.012 A 
ATOM     80  C   UNL A   1      43.971  27.782  36.380  1.00  0.00     0.148 A 
ATOM     81  C   UNL A   1      46.535  28.889  36.069  1.00  0.00     0.002 A 
ATOM     82  C   UNL A   1      45.033  27.316  37.145  1.00  0.00     0.091 A 
ATOM     83  F   UNL A   1      42.741  27.257  36.484  1.00  0.00    -0.205 F 
ATOM     84  C   UNL A   1      46.318  27.860  36.983  1.00  0.00     0.022 A 
BRANCH  82  85
ATOM     85  S   UNL A   1      44.831  26.059  38.413  1.00  0.00     0.127 S 
ATOM     86  O   UNL A   1      46.219  25.766  38.768  1.00  0.00    -0.237 OA
ATOM     87  O   UNL A   1      44.077  26.774  39.443  1.00  0.00    -0.237 OA
ATOM     88  O   UNL A   1      44.104  24.966  37.782  1.00  0.00    -0.744 OA
ENDBRANCH  82  85
ENDBRANCH  55  78
ENDBRANCH  29  30
ENDBRANCH  21  24
ENDBRANCH  19  20
ENDBRANCH   1  19
TORSDOF 15
ENDMDL
MODEL 3
REMARK VINA RESULT:     -11.5      3.038      8.396
REMARK SMILES CC1(C)CCC[C@@](C)(CCC(=O)NCCCNC(=O)c2ccc(-c3c4nc(c(-c5cccc(S(=O)(=O)[O-])c5F)c5ccc([nH]5)c(-c5cccc(S(=O)(=O)[O-])c5F)c5nc(c(-c6cccc(S(=O)(=O)[O-])c6F)c6ccc3[nH]6)C=C5)C=C4)cc2)C1=O
REMARK SMILES IDX 15 1 14 2 13 3 11 4 12 5 10 7 9 8 7 9 1 10 2 11 3 12 4 13
REMARK SMILES IDX 83 14 5 15 84 16 6 17 8 18 16 19 17 20 18 21 19 23 20 24
REMARK SMILES IDX 21 25 82 26 22 27 81 28 23 29 24 30 25 31 75 32 26 33 80 34
REMARK SMILES IDX 74 35 76 36 27 37 79 38 73 39 72 40 28 42 60 43 40 44 59 45
REMARK SMILES IDX 41 46 44 47 58 48 77 49 42 50 43 51 57 53 78 54 45 55 29 56
REMARK SMILES IDX 30 57 38 58 31 59 33 60 39 61 32 62 34 63 35 64 36 65 37 66
REMARK SMILES IDX 61 67 62 68 70 69 63 70 65 71 71 72 64 73 66 74 67 75 68 76
REMARK SMILES IDX 69 77 46 78 47 79 55 80 48 81 50 82 56 83 49 84 51 85 52 86
REMARK SMILES IDX 53 87 54 88
REMARK H PARENT 13 6 17 22 76 41 44 52
REMARK Flexibility Score: inf
ROOT
ATOM      1  C   UNL A   1      32.715  28.093  26.962  1.00  0.00     0.042 C 
ENDROOT
BRANCH   1   2
ATOM      2  C   UNL A   1      31.975  27.063  26.107  1.00  0.00     0.117 C 
BRANCH   2   3
ATOM      3  N   UNL A   1      31.676  25.832  26.832  1.00  0.00    -0.356 N 
ATOM      4  C   UNL A   1      31.516  24.545  26.412  1.00  0.00     0.220 C 
ATOM      5  O   UNL A   1      31.239  23.690  27.257  1.00  0.00    -0.275 OA
ATOM      6  H   UNL A   1      31.569  25.953  27.803  1.00  0.00     0.163 HD
BRANCH   4   7
ATOM      7  C   UNL A   1      31.724  24.149  24.962  1.00  0.00     0.101 C 
BRANCH   7   8
ATOM      8  C   UNL A   1      33.185  24.211  24.458  1.00  0.00     0.024 C 
BRANCH   8   9
ATOM      9  C   UNL A   1      33.635  23.045  23.535  1.00  0.00     0.027 C 
ATOM     10  C   UNL A   1      35.578  22.877  26.180  1.00  0.00     0.019 C 
ATOM     11  C   UNL A   1      35.767  22.139  24.847  1.00  0.00     0.024 C 
ATOM     12  C   UNL A   1      37.294  22.021  24.645  1.00  0.00     0.019 C 
ATOM     13  C   UNL A   1      35.117  20.752  24.887  1.00  0.00     0.014 C 
ATOM     14  C   UNL A   1      35.160  22.820  23.606  1.00  0.00     0.144 C 
ATOM     15  C   UNL A   1      33.590  20.845  24.977  1.00  0.00     0.002 C 
ATOM     16  O   UNL A   1      35.891  23.121  22.663  1.00  0.00    -0.298 OA
ATOM     17  C   UNL A   1      32.971  21.676  23.849  1.00  0.00     0.014 C 
ATOM     18  C   UNL A   1      33.150  23.399  22.108  1.00  0.00     0.020 C 
ENDBRANCH   8   9
ENDBRANCH   7   8
ENDBRANCH   4   7
ENDBRANCH   2   3
ENDBRANCH   1   2
BRANCH   1  19
ATOM     19  C   UNL A   1      33.757  28.913  26.218  1.00  0.00     0.118 C 
BRANCH  19  20
ATOM     20  N   UNL A   1      33.782  30.282  26.707  1.00  0.00    -0.352 N 
ATOM     21  C   UNL A   1      34.575  30.855  27.674  1.00  0.00     0.251 C 
ATOM     22  H   UNL A   1      33.135  30.890  26.283  1.00  0.00     0.163 HD
ATOM     23  O   UNL A   1      34.210  31.913  28.184  1.00  0.00    -0.269 OA
BRANCH  21  24
ATOM     24  C   UNL A   1      35.859  30.241  28.101  1.00  0.00     0.039 A 
ATOM     25  C   UNL A   1      35.938  29.650  29.369  1.00  0.00     0.014 A 
ATOM     26  C   UNL A   1      37.015  30.336  27.321  1.00  0.00     0.014 A 
ATOM     27  C   UNL A   1      37.158  29.146  29.840  1.00  0.00     0.010 A 
ATOM     28  C   UNL A   1      38.211  29.763  27.759  1.00  0.00     0.010 A 
ATOM     29  C   UNL A   1      38.306  29.190  29.036  1.00  0.00    -0.014 A 
BRANCH  29  30
ATOM     30  C   UNL A   1      39.623  28.687  29.518  1.00  0.00     0.031 A 
ATOM     31  C   UNL A   1      40.353  29.414  30.621  1.00  0.00     0.074 A 
ATOM     32  C   UNL A   1      40.207  27.633  28.914  1.00  0.00     0.049 A 
ATOM     33  N   UNL A   1      41.546  29.191  31.110  1.00  0.00    -0.248 NA
ATOM     34  C   UNL A   1      39.660  30.559  31.235  1.00  0.00     0.031 C 
ATOM     35  C   UNL A   1      39.642  26.879  27.795  1.00  0.00     0.029 A 
ATOM     36  N   UNL A   1      41.424  27.036  29.136  1.00  0.00    -0.354 N 
ATOM     37  C   UNL A   1      41.766  30.192  32.051  1.00  0.00     0.074 A 
ATOM     38  C   UNL A   1      40.593  31.039  32.046  1.00  0.00     0.031 C 
ATOM     39  C   UNL A   1      40.510  25.925  27.424  1.00  0.00     0.029 A 
ATOM     40  C   UNL A   1      41.708  26.016  28.256  1.00  0.00     0.049 A 
ATOM     41  H   UNL A   1      42.036  27.310  29.857  1.00  0.00     0.167 HD
ATOM     42  C   UNL A   1      42.831  30.375  32.868  1.00  0.00     0.034 A 
ATOM     43  C   UNL A   1      42.808  25.251  28.123  1.00  0.00     0.034 A 
ATOM     44  C   UNL A   1      43.969  29.498  32.920  1.00  0.00     0.049 A 
ATOM     45  C   UNL A   1      43.963  25.449  29.069  1.00  0.00     0.074 A 
ATOM     46  C   UNL A   1      45.049  29.540  33.785  1.00  0.00     0.029 A 
ATOM     47  N   UNL A   1      44.178  28.422  32.072  1.00  0.00    -0.354 N 
ATOM     48  N   UNL A   1      44.082  26.301  30.060  1.00  0.00    -0.248 NA
ATOM     49  C   UNL A   1      45.122  24.558  28.903  1.00  0.00     0.031 C 
ATOM     50  C   UNL A   1      45.921  28.499  33.447  1.00  0.00     0.029 A 
ATOM     51  C   UNL A   1      45.375  27.800  32.382  1.00  0.00     0.049 A 
ATOM     52  H   UNL A   1      43.566  28.143  31.353  1.00  0.00     0.167 HD
ATOM     53  C   UNL A   1      45.312  26.032  30.649  1.00  0.00     0.074 A 
ATOM     54  C   UNL A   1      45.890  24.920  29.922  1.00  0.00     0.031 C 
ATOM     55  C   UNL A   1      45.917  26.662  31.687  1.00  0.00     0.034 A 
BRANCH  42  56
ATOM     56  C   UNL A   1      42.791  31.540  33.825  1.00  0.00     0.023 A 
ATOM     57  C   UNL A   1      43.175  32.820  33.376  1.00  0.00     0.012 A 
ATOM     58  C   UNL A   1      42.316  31.385  35.143  1.00  0.00     0.148 A 
ATOM     59  C   UNL A   1      43.122  33.919  34.231  1.00  0.00     0.002 A 
ATOM     60  C   UNL A   1      42.227  32.494  35.977  1.00  0.00     0.091 A 
ATOM     61  F   UNL A   1      41.973  30.158  35.561  1.00  0.00    -0.205 F 
ATOM     62  C   UNL A   1      42.640  33.759  35.527  1.00  0.00     0.022 A 
BRANCH  60  63
ATOM     63  S   UNL A   1      41.546  32.406  37.638  1.00  0.00     0.127 S 
ATOM     64  O   UNL A   1      42.325  31.313  38.219  1.00  0.00    -0.237 OA
ATOM     65  O   UNL A   1      41.862  33.731  38.172  1.00  0.00    -0.237 OA
ATOM     66  O   UNL A   1      40.123  32.143  37.473  1.00  0.00    -0.744 OA
ENDBRANCH  60  63
ENDBRANCH  42  56
BRANCH  43  67
ATOM     67  C   UNL A   1      42.847  24.179  27.086  1.00  0.00     0.023 A 
ATOM     68  C   UNL A   1      43.602  24.383  25.915  1.00  0.00     0.012 A 
ATOM     69  C   UNL A   1      42.175  22.955  27.266  1.00  0.00     0.148 A 
ATOM     70  C   UNL A   1      43.666  23.399  24.929  1.00  0.00     0.002 A 
ATOM     71  C   UNL A   1      42.288  21.957  26.304  1.00  0.00     0.091 A 
ATOM     72  F   UNL A   1      41.448  22.785  28.379  1.00  0.00    -0.205 F 
ATOM     73  C   UNL A   1      43.018  22.182  25.127  1.00  0.00     0.022 A 
BRANCH  71  74
ATOM     74  S   UNL A   1      41.598  20.314  26.540  1.00  0.00     0.127 S 
ATOM     75  O   UNL A   1      40.161  20.586  26.514  1.00  0.00    -0.237 OA
ATOM     76  O   UNL A   1      42.108  19.599  25.368  1.00  0.00    -0.237 OA
ATOM     77  O   UNL A   1      42.132  19.841  27.807  1.00  0.00    -0.744 OA
ENDBRANCH  71  74
ENDBRANCH  43  67
BRANCH  55  78
ATOM     78  C   UNL A   1      47.269  26.159  32.121  1.00  0.00     0.023 A 
ATOM     79  C   UNL A   1      47.362  25.249  33.193  1.00  0.00     0.012 A 
ATOM     80  C   UNL A   1      48.435  26.519  31.417  1.00  0.00     0.148 A 
ATOM     81  C   UNL A   1      48.596  24.725  33.574  1.00  0.00     0.002 A 
ATOM     82  C   UNL A   1      49.656  25.957  31.774  1.00  0.00     0.091 A 
ATOM     83  F   UNL A   1      48.329  27.399  30.411  1.00  0.00    -0.205 F 
ATOM     84  C   UNL A   1      49.740  25.070  32.858  1.00  0.00     0.022 A 
BRANCH  82  85
ATOM     85  S   UNL A   1      51.167  26.270  30.853  1.00  0.00     0.127 S 
ATOM     86  O   UNL A   1      50.769  25.909  29.493  1.00  0.00    -0.237 OA
ATOM     87  O   UNL A   1      51.372  27.703  31.067  1.00  0.00    -0.237 OA
ATOM     88  O   UNL A   1      52.186  25.419  31.452  1.00  0.00    -0.744 OA
ENDBRANCH  82  85
ENDBRANCH  55  78
ENDBRANCH  29  30
ENDBRANCH  21  24
ENDBRANCH  19  20
ENDBRANCH   1  19
TORSDOF 15
ENDMDL
