MODEL 1
REMARK VINA RESULT:     -13.2      0.000      0.000
REMARK SMILES COC(=O)c1ccc(C)c2c1[C@H]1C=CC[C@H]1[C@@H](c1ccc(C(=O)NCCCNC(=O)c3ccc(-c4c5nc(c(-c6cccc(S(=O)(=O)[O-])c6F)c6ccc([nH]6)c(-c6cccc(S(=O)(=O)[O-])c6F)c6nc(c(-c7cccc(S(=O)(=O)[O-])c7F)c7ccc4[nH]7)C=C6)C=C5)cc3)cc1)N2
REMARK SMILES IDX 26 1 25 2 24 3 22 4 23 5 21 7 18 8 19 9 95 10 20 11 94 12
REMARK SMILES IDX 17 13 5 14 6 15 11 16 7 17 10 18 12 19 8 20 96 21 13 22
REMARK SMILES IDX 16 23 9 24 14 26 15 27 3 28 4 29 2 30 1 31 27 32 28 33 29 34
REMARK SMILES IDX 30 36 31 37 32 38 93 39 33 40 92 41 34 42 35 43 36 44 86 45
REMARK SMILES IDX 37 46 91 47 85 48 87 49 38 50 90 51 84 52 83 53 39 55 71 56
REMARK SMILES IDX 51 57 70 58 52 59 55 60 69 61 88 62 53 63 54 64 68 66 89 67
REMARK SMILES IDX 56 68 40 69 41 70 49 71 42 72 44 73 50 74 43 75 45 76 46 77
REMARK SMILES IDX 47 78 48 79 72 80 73 81 81 82 74 83 76 84 82 85 75 86 77 87
REMARK SMILES IDX 78 88 79 89 80 90 57 91 58 92 66 93 59 94 61 95 67 96 60 97
REMARK SMILES IDX 62 98 63 99 64 100 65 101
REMARK H PARENT 24 6 96 25 28 35 87 54 55 65
REMARK Flexibility Score: inf
ROOT
ATOM      1  C   UNL A   1      31.624  32.301  26.775  1.00  0.00     0.042 C 
ENDROOT
BRANCH   1   2
ATOM      2  C   UNL A   1      31.844  30.915  26.175  1.00  0.00     0.118 C 
BRANCH   2   3
ATOM      3  N   UNL A   1      31.576  29.893  27.162  1.00  0.00    -0.352 N 
ATOM      4  C   UNL A   1      31.787  28.542  27.164  1.00  0.00     0.251 C 
ATOM      5  O   UNL A   1      31.449  27.928  28.177  1.00  0.00    -0.269 OA
ATOM      6  H   UNL A   1      31.163  30.232  27.988  1.00  0.00     0.163 HD
BRANCH   4   7
ATOM      7  C   UNL A   1      32.439  27.807  26.045  1.00  0.00     0.039 A 
ATOM      8  C   UNL A   1      33.652  26.171  24.059  1.00  0.00    -0.025 A 
ATOM      9  C   UNL A   1      33.653  25.805  25.414  1.00  0.00     0.006 A 
ATOM     10  C   UNL A   1      33.075  27.403  23.729  1.00  0.00     0.006 A 
ATOM     11  C   UNL A   1      33.060  26.606  26.388  1.00  0.00     0.014 A 
ATOM     12  C   UNL A   1      32.441  28.186  24.701  1.00  0.00     0.014 A 
BRANCH   8  13
ATOM     13  C   UNL A   1      34.116  25.245  22.931  1.00  0.00     0.114 C 
ATOM     14  C   UNL A   1      33.508  21.553  24.949  1.00  0.00     0.065 A 
ATOM     15  C   UNL A   1      34.486  21.125  25.851  1.00  0.00     0.016 A 
ATOM     16  C   UNL A   1      33.746  22.644  24.084  1.00  0.00    -0.003 A 
ATOM     17  C   UNL A   1      35.720  21.761  25.887  1.00  0.00     0.006 A 
ATOM     18  C   UNL A   1      35.019  23.276  24.110  1.00  0.00     0.042 A 
ATOM     19  C   UNL A   1      32.655  23.154  23.159  1.00  0.00     0.050 C 
ATOM     20  C   UNL A   1      36.002  22.834  25.025  1.00  0.00    -0.028 A 
ATOM     21  N   UNL A   1      35.236  24.416  23.349  1.00  0.00    -0.377 N 
ATOM     22  C   UNL A   1      31.415  23.705  23.825  1.00  0.00    -0.023 C 
ATOM     23  C   UNL A   1      33.056  24.343  22.261  1.00  0.00     0.031 C 
ATOM     24  C   UNL A   1      37.351  23.489  25.186  1.00  0.00     0.046 C 
ATOM     25  H   UNL A   1      36.153  24.665  23.090  1.00  0.00     0.161 HD
ATOM     26  C   UNL A   1      30.901  24.734  23.139  1.00  0.00    -0.030 C 
ATOM     27  C   UNL A   1      31.729  25.048  21.935  1.00  0.00     0.034 C 
BRANCH  14  28
ATOM     28  C   UNL A   1      32.229  20.808  24.917  1.00  0.00     0.338 C 
ATOM     29  O   UNL A   1      31.261  21.072  25.603  1.00  0.00    -0.246 OA
BRANCH  28  30
ATOM     30  O   UNL A   1      32.344  19.788  24.027  1.00  0.00    -0.465 OA
ATOM     31  C   UNL A   1      32.438  18.502  24.644  1.00  0.00     0.282 C 
ENDBRANCH  28  30
ENDBRANCH  14  28
ENDBRANCH   8  13
ENDBRANCH   4   7
ENDBRANCH   2   3
ENDBRANCH   1   2
BRANCH   1  32
ATOM     32  C   UNL A   1      32.859  32.796  27.518  1.00  0.00     0.118 C 
BRANCH  32  33
ATOM     33  N   UNL A   1      32.792  34.238  27.741  1.00  0.00    -0.352 N 
ATOM     34  C   UNL A   1      33.360  34.971  28.753  1.00  0.00     0.251 C 
ATOM     35  H   UNL A   1      32.271  34.750  27.081  1.00  0.00     0.163 HD
ATOM     36  O   UNL A   1      32.971  36.107  28.997  1.00  0.00    -0.269 OA
BRANCH  34  37
ATOM     37  C   UNL A   1      34.447  34.357  29.531  1.00  0.00     0.039 A 
ATOM     38  C   UNL A   1      34.143  33.600  30.661  1.00  0.00     0.014 A 
ATOM     39  C   UNL A   1      35.769  34.518  29.102  1.00  0.00     0.014 A 
ATOM     40  C   UNL A   1      35.175  32.956  31.339  1.00  0.00     0.010 A 
ATOM     41  C   UNL A   1      36.783  33.814  29.732  1.00  0.00     0.010 A 
ATOM     42  C   UNL A   1      36.496  33.044  30.867  1.00  0.00    -0.014 A 
BRANCH  42  43
ATOM     43  C   UNL A   1      37.595  32.357  31.576  1.00  0.00     0.031 A 
ATOM     44  C   UNL A   1      38.307  31.214  30.914  1.00  0.00     0.074 A 
ATOM     45  C   UNL A   1      37.921  32.737  32.825  1.00  0.00     0.049 A 
ATOM     46  N   UNL A   1      39.330  30.529  31.349  1.00  0.00    -0.248 NA
ATOM     47  C   UNL A   1      37.802  30.771  29.603  1.00  0.00     0.031 C 
ATOM     48  C   UNL A   1      37.238  33.778  33.596  1.00  0.00     0.029 A 
ATOM     49  N   UNL A   1      38.901  32.285  33.670  1.00  0.00    -0.354 N 
ATOM     50  C   UNL A   1      39.574  29.565  30.382  1.00  0.00     0.074 A 
ATOM     51  C   UNL A   1      38.575  29.725  29.352  1.00  0.00     0.031 C 
ATOM     52  C   UNL A   1      37.834  33.898  34.793  1.00  0.00     0.029 A 
ATOM     53  C   UNL A   1      38.928  32.934  34.881  1.00  0.00     0.049 A 
ATOM     54  H   UNL A   1      39.528  31.564  33.432  1.00  0.00     0.167 HD
ATOM     55  C   UNL A   1      40.567  28.651  30.341  1.00  0.00     0.034 A 
ATOM     56  C   UNL A   1      39.747  32.777  35.939  1.00  0.00     0.034 A 
ATOM     57  C   UNL A   1      41.583  28.528  31.345  1.00  0.00     0.049 A 
ATOM     58  C   UNL A   1      40.865  31.777  35.858  1.00  0.00     0.074 A 
ATOM     59  C   UNL A   1      42.692  27.705  31.340  1.00  0.00     0.029 A 
ATOM     60  N   UNL A   1      41.602  29.235  32.536  1.00  0.00    -0.354 N 
ATOM     61  N   UNL A   1      41.186  30.989  34.861  1.00  0.00    -0.248 NA
ATOM     62  C   UNL A   1      41.751  31.658  37.026  1.00  0.00     0.031 C 
ATOM     63  C   UNL A   1      43.370  27.891  32.546  1.00  0.00     0.029 A 
ATOM     64  C   UNL A   1      42.694  28.848  33.288  1.00  0.00     0.049 A 
ATOM     65  H   UNL A   1      40.939  29.909  32.806  1.00  0.00     0.167 HD
ATOM     66  C   UNL A   1      42.316  30.294  35.270  1.00  0.00     0.074 A 
ATOM     67  C   UNL A   1      42.633  30.759  36.605  1.00  0.00     0.031 C 
ATOM     68  C   UNL A   1      43.018  29.349  34.600  1.00  0.00     0.034 A 
BRANCH  55  69
ATOM     69  C   UNL A   1      40.644  27.746  29.146  1.00  0.00     0.023 A 
ATOM     70  C   UNL A   1      39.745  26.667  29.038  1.00  0.00     0.012 A 
ATOM     71  C   UNL A   1      41.540  28.018  28.096  1.00  0.00     0.148 A 
ATOM     72  C   UNL A   1      39.743  25.862  27.900  1.00  0.00     0.002 A 
ATOM     73  C   UNL A   1      41.510  27.232  26.952  1.00  0.00     0.091 A 
ATOM     74  F   UNL A   1      42.396  29.040  28.237  1.00  0.00    -0.205 F 
ATOM     75  C   UNL A   1      40.617  26.152  26.854  1.00  0.00     0.022 A 
BRANCH  73  76
ATOM     76  S   UNL A   1      42.557  27.549  25.530  1.00  0.00     0.127 S 
ATOM     77  O   UNL A   1      42.273  26.385  24.690  1.00  0.00    -0.237 OA
ATOM     78  O   UNL A   1      42.016  28.811  25.027  1.00  0.00    -0.237 OA
ATOM     79  O   UNL A   1      43.920  27.625  26.037  1.00  0.00    -0.744 OA
ENDBRANCH  73  76
ENDBRANCH  55  69
BRANCH  56  80
ATOM     80  C   UNL A   1      39.564  33.655  37.124  1.00  0.00     0.023 A 
ATOM     81  C   UNL A   1      39.991  34.994  37.067  1.00  0.00     0.012 A 
ATOM     82  C   UNL A   1      38.868  33.199  38.261  1.00  0.00     0.148 A 
ATOM     83  C   UNL A   1      39.728  35.869  38.121  1.00  0.00     0.002 A 
ATOM     84  C   UNL A   1      38.576  34.084  39.292  1.00  0.00     0.091 A 
ATOM     85  F   UNL A   1      38.465  31.921  38.284  1.00  0.00    -0.205 F 
ATOM     86  C   UNL A   1      39.013  35.416  39.228  1.00  0.00     0.022 A 
BRANCH  84  87
ATOM     87  S   UNL A   1      37.572  33.627  40.710  1.00  0.00     0.127 S 
ATOM     88  O   UNL A   1      36.428  32.983  40.071  1.00  0.00    -0.237 OA
ATOM     89  O   UNL A   1      38.470  32.720  41.426  1.00  0.00    -0.237 OA
ATOM     90  O   UNL A   1      37.279  34.871  41.407  1.00  0.00    -0.744 OA
ENDBRANCH  84  87
ENDBRANCH  56  80
BRANCH  68  91
ATOM     91  C   UNL A   1      44.211  28.724  35.265  1.00  0.00     0.023 A 
ATOM     92  C   UNL A   1      45.473  29.330  35.115  1.00  0.00     0.012 A 
ATOM     93  C   UNL A   1      44.041  27.682  36.197  1.00  0.00     0.148 A 
ATOM     94  C   UNL A   1      46.549  28.916  35.897  1.00  0.00     0.002 A 
ATOM     95  C   UNL A   1      45.109  27.297  36.996  1.00  0.00     0.091 A 
ATOM     96  F   UNL A   1      42.825  27.130  36.320  1.00  0.00    -0.205 F 
ATOM     97  C   UNL A   1      46.364  27.912  36.847  1.00  0.00     0.022 A 
BRANCH  95  98
ATOM     98  S   UNL A   1      44.952  26.074  38.302  1.00  0.00     0.127 S 
ATOM     99  O   UNL A   1      44.538  24.889  37.552  1.00  0.00    -0.237 OA
ATOM    100  O   UNL A   1      46.314  26.016  38.834  1.00  0.00    -0.237 OA
ATOM    101  O   UNL A   1      43.954  26.593  39.227  1.00  0.00    -0.744 OA
ENDBRANCH  95  98
ENDBRANCH  68  91
ENDBRANCH  42  43
ENDBRANCH  34  37
ENDBRANCH  32  33
ENDBRANCH   1  32
TORSDOF 16
ENDMDL
MODEL 2
REMARK VINA RESULT:     -13.1      6.146     11.332
REMARK SMILES COC(=O)c1ccc(C)c2c1[C@H]1C=CC[C@H]1[C@@H](c1ccc(C(=O)NCCCNC(=O)c3ccc(-c4c5nc(c(-c6cccc(S(=O)(=O)[O-])c6F)c6ccc([nH]6)c(-c6cccc(S(=O)(=O)[O-])c6F)c6nc(c(-c7cccc(S(=O)(=O)[O-])c7F)c7ccc4[nH]7)C=C6)C=C5)cc3)cc1)N2
REMARK SMILES IDX 26 1 25 2 24 3 22 4 23 5 21 7 18 8 19 9 95 10 20 11 94 12
REMARK SMILES IDX 17 13 5 14 6 15 11 16 7 17 10 18 12 19 8 20 96 21 13 22
REMARK SMILES IDX 16 23 9 24 14 26 15 27 3 28 4 29 2 30 1 31 27 32 28 33 29 34
REMARK SMILES IDX 30 36 31 37 32 38 93 39 33 40 92 41 34 42 35 43 36 44 86 45
REMARK SMILES IDX 37 46 91 47 85 48 87 49 38 50 90 51 84 52 83 53 39 55 71 56
REMARK SMILES IDX 51 57 70 58 52 59 55 60 69 61 88 62 53 63 54 64 68 66 89 67
REMARK SMILES IDX 56 68 40 69 41 70 49 71 42 72 44 73 50 74 43 75 45 76 46 77
REMARK SMILES IDX 47 78 48 79 72 80 73 81 81 82 74 83 76 84 82 85 75 86 77 87
REMARK SMILES IDX 78 88 79 89 80 90 57 91 58 92 66 93 59 94 61 95 67 96 60 97
REMARK SMILES IDX 62 98 63 99 64 100 65 101
REMARK H PARENT 24 6 96 25 28 35 87 54 55 65
REMARK Flexibility Score: inf
ROOT
ATOM      1  C   UNL A   1      38.171  19.680  24.957  1.00  0.00     0.042 C 
ENDROOT
BRANCH   1   2
ATOM      2  C   UNL A   1      37.319  20.884  24.572  1.00  0.00     0.118 C 
BRANCH   2   3
ATOM      3  N   UNL A   1      37.913  22.102  25.075  1.00  0.00    -0.352 N 
ATOM      4  C   UNL A   1      37.369  23.234  25.613  1.00  0.00     0.251 C 
ATOM      5  O   UNL A   1      38.153  24.118  25.961  1.00  0.00    -0.269 OA
ATOM      6  H   UNL A   1      38.896  22.120  25.021  1.00  0.00     0.163 HD
BRANCH   4   7
ATOM      7  C   UNL A   1      35.909  23.422  25.838  1.00  0.00     0.039 A 
ATOM      8  C   UNL A   1      33.133  23.994  26.091  1.00  0.00    -0.025 A 
ATOM      9  C   UNL A   1      34.058  24.985  25.727  1.00  0.00     0.006 A 
ATOM     10  C   UNL A   1      33.640  22.720  26.378  1.00  0.00     0.006 A 
ATOM     11  C   UNL A   1      35.417  24.706  25.603  1.00  0.00     0.014 A 
ATOM     12  C   UNL A   1      34.999  22.430  26.211  1.00  0.00     0.014 A 
BRANCH   8  13
ATOM     13  C   UNL A   1      31.616  24.196  26.055  1.00  0.00     0.114 C 
ATOM     14  C   UNL A   1      31.588  27.845  23.874  1.00  0.00     0.065 A 
ATOM     15  C   UNL A   1      31.840  29.031  24.568  1.00  0.00     0.016 A 
ATOM     16  C   UNL A   1      31.360  26.634  24.564  1.00  0.00    -0.003 A 
ATOM     17  C   UNL A   1      31.845  29.032  25.957  1.00  0.00     0.006 A 
ATOM     18  C   UNL A   1      31.344  26.646  25.985  1.00  0.00     0.042 A 
ATOM     19  C   UNL A   1      31.161  25.333  23.806  1.00  0.00     0.050 C 
ATOM     20  C   UNL A   1      31.598  27.853  26.679  1.00  0.00    -0.028 A 
ATOM     21  N   UNL A   1      31.231  25.451  26.682  1.00  0.00    -0.377 N 
ATOM     22  C   UNL A   1      32.327  24.860  22.970  1.00  0.00    -0.023 C 
ATOM     23  C   UNL A   1      30.910  24.090  24.685  1.00  0.00     0.031 C 
ATOM     24  C   UNL A   1      31.682  27.952  28.181  1.00  0.00     0.046 C 
ATOM     25  H   UNL A   1      30.889  25.453  27.605  1.00  0.00     0.161 HD
ATOM     26  C   UNL A   1      32.425  23.524  22.968  1.00  0.00    -0.030 C 
ATOM     27  C   UNL A   1      31.366  22.904  23.820  1.00  0.00     0.034 C 
BRANCH  14  28
ATOM     28  C   UNL A   1      31.543  27.909  22.395  1.00  0.00     0.338 C 
ATOM     29  O   UNL A   1      32.523  27.870  21.675  1.00  0.00    -0.246 OA
BRANCH  28  30
ATOM     30  O   UNL A   1      30.250  28.047  22.005  1.00  0.00    -0.465 OA
ATOM     31  C   UNL A   1      29.810  29.406  21.958  1.00  0.00     0.282 C 
ENDBRANCH  28  30
ENDBRANCH  14  28
ENDBRANCH   8  13
ENDBRANCH   4   7
ENDBRANCH   2   3
ENDBRANCH   1   2
BRANCH   1  32
ATOM     32  C   UNL A   1      39.009  19.955  26.200  1.00  0.00     0.118 C 
BRANCH  32  33
ATOM     33  N   UNL A   1      40.219  19.138  26.207  1.00  0.00    -0.352 N 
ATOM     34  C   UNL A   1      41.526  19.551  26.137  1.00  0.00     0.251 C 
ATOM     35  H   UNL A   1      40.080  18.166  26.270  1.00  0.00     0.163 HD
ATOM     36  O   UNL A   1      42.416  18.764  25.839  1.00  0.00    -0.269 OA
BRANCH  34  37
ATOM     37  C   UNL A   1      41.828  20.960  26.433  1.00  0.00     0.039 A 
ATOM     38  C   UNL A   1      42.255  21.321  27.710  1.00  0.00     0.014 A 
ATOM     39  C   UNL A   1      41.712  21.911  25.413  1.00  0.00     0.014 A 
ATOM     40  C   UNL A   1      42.618  22.643  27.952  1.00  0.00     0.010 A 
ATOM     41  C   UNL A   1      42.146  23.208  25.636  1.00  0.00     0.010 A 
ATOM     42  C   UNL A   1      42.584  23.588  26.912  1.00  0.00    -0.014 A 
BRANCH  42  43
ATOM     43  C   UNL A   1      42.975  24.991  27.158  1.00  0.00     0.031 A 
ATOM     44  C   UNL A   1      42.001  25.932  27.804  1.00  0.00     0.074 A 
ATOM     45  C   UNL A   1      44.188  25.423  26.765  1.00  0.00     0.049 A 
ATOM     46  N   UNL A   1      42.181  27.177  28.155  1.00  0.00    -0.248 NA
ATOM     47  C   UNL A   1      40.648  25.420  28.081  1.00  0.00     0.031 C 
ATOM     48  C   UNL A   1      45.180  24.615  26.051  1.00  0.00     0.029 A 
ATOM     49  N   UNL A   1      44.788  26.647  26.900  1.00  0.00    -0.354 N 
ATOM     50  C   UNL A   1      40.964  27.601  28.668  1.00  0.00     0.074 A 
ATOM     51  C   UNL A   1      40.040  26.497  28.555  1.00  0.00     0.031 C 
ATOM     52  C   UNL A   1      46.273  25.362  25.829  1.00  0.00     0.029 A 
ATOM     53  C   UNL A   1      46.054  26.702  26.368  1.00  0.00     0.049 A 
ATOM     54  H   UNL A   1      44.354  27.415  27.336  1.00  0.00     0.167 HD
ATOM     55  C   UNL A   1      40.657  28.795  29.220  1.00  0.00     0.034 A 
ATOM     56  C   UNL A   1      46.942  27.714  26.329  1.00  0.00     0.034 A 
ATOM     57  C   UNL A   1      41.593  29.870  29.371  1.00  0.00     0.049 A 
ATOM     58  C   UNL A   1      46.592  29.023  26.978  1.00  0.00     0.074 A 
ATOM     59  C   UNL A   1      41.406  31.079  30.014  1.00  0.00     0.029 A 
ATOM     60  N   UNL A   1      42.880  29.872  28.861  1.00  0.00    -0.354 N 
ATOM     61  N   UNL A   1      45.493  29.351  27.613  1.00  0.00    -0.248 NA
ATOM     62  C   UNL A   1      47.601  30.091  26.933  1.00  0.00     0.031 C 
ATOM     63  C   UNL A   1      42.575  31.829  29.866  1.00  0.00     0.029 A 
ATOM     64  C   UNL A   1      43.494  31.074  29.153  1.00  0.00     0.049 A 
ATOM     65  H   UNL A   1      43.295  29.129  28.365  1.00  0.00     0.167 HD
ATOM     66  C   UNL A   1      45.682  30.653  28.059  1.00  0.00     0.074 A 
ATOM     67  C   UNL A   1      47.006  31.054  27.629  1.00  0.00     0.031 C 
ATOM     68  C   UNL A   1      44.828  31.443  28.752  1.00  0.00     0.034 A 
BRANCH  55  69
ATOM     69  C   UNL A   1      39.268  28.988  29.756  1.00  0.00     0.023 A 
ATOM     70  C   UNL A   1      38.992  28.648  31.095  1.00  0.00     0.012 A 
ATOM     71  C   UNL A   1      38.270  29.585  28.966  1.00  0.00     0.148 A 
ATOM     72  C   UNL A   1      37.732  28.893  31.639  1.00  0.00     0.002 A 
ATOM     73  C   UNL A   1      37.028  29.856  29.524  1.00  0.00     0.091 A 
ATOM     74  F   UNL A   1      38.558  29.880  27.690  1.00  0.00    -0.205 F 
ATOM     75  C   UNL A   1      36.756  29.507  30.858  1.00  0.00     0.022 A 
BRANCH  73  76
ATOM     76  S   UNL A   1      35.719  30.686  28.621  1.00  0.00     0.127 S 
ATOM     77  O   UNL A   1      35.019  31.389  29.697  1.00  0.00    -0.237 OA
ATOM     78  O   UNL A   1      36.474  31.553  27.717  1.00  0.00    -0.237 OA
ATOM     79  O   UNL A   1      34.949  29.638  27.966  1.00  0.00    -0.744 OA
ENDBRANCH  73  76
ENDBRANCH  55  69
BRANCH  56  80
ATOM     80  C   UNL A   1      48.273  27.478  25.710  1.00  0.00     0.023 A 
ATOM     81  C   UNL A   1      49.332  27.002  26.506  1.00  0.00     0.012 A 
ATOM     82  C   UNL A   1      48.459  27.613  24.321  1.00  0.00     0.148 A 
ATOM     83  C   UNL A   1      50.556  26.663  25.929  1.00  0.00     0.002 A 
ATOM     84  C   UNL A   1      49.668  27.239  23.747  1.00  0.00     0.091 A 
ATOM     85  F   UNL A   1      47.430  28.060  23.587  1.00  0.00    -0.205 F 
ATOM     86  C   UNL A   1      50.720  26.772  24.550  1.00  0.00     0.022 A 
BRANCH  84  87
ATOM     87  S   UNL A   1      49.944  27.244  21.972  1.00  0.00     0.127 S 
ATOM     88  O   UNL A   1      48.892  26.345  21.504  1.00  0.00    -0.237 OA
ATOM     89  O   UNL A   1      49.740  28.655  21.646  1.00  0.00    -0.237 OA
ATOM     90  O   UNL A   1      51.305  26.763  21.779  1.00  0.00    -0.744 OA
ENDBRANCH  84  87
ENDBRANCH  56  80
BRANCH  68  91
ATOM     91  C   UNL A   1      45.260  32.836  29.112  1.00  0.00     0.023 A 
ATOM     92  C   UNL A   1      46.054  33.031  30.258  1.00  0.00     0.012 A 
ATOM     93  C   UNL A   1      45.062  33.898  28.208  1.00  0.00     0.148 A 
ATOM     94  C   UNL A   1      46.659  34.264  30.492  1.00  0.00     0.002 A 
ATOM     95  C   UNL A   1      45.695  35.114  28.431  1.00  0.00     0.091 A 
ATOM     96  F   UNL A   1      44.305  33.677  27.123  1.00  0.00    -0.205 F 
ATOM     97  C   UNL A   1      46.493  35.298  29.572  1.00  0.00     0.022 A 
BRANCH  95  98
ATOM     98  S   UNL A   1      45.611  36.478  27.266  1.00  0.00     0.127 S 
ATOM     99  O   UNL A   1      46.448  37.482  27.923  1.00  0.00    -0.237 OA
ATOM    100  O   UNL A   1      46.196  35.890  26.061  1.00  0.00    -0.237 OA
ATOM    101  O   UNL A   1      44.203  36.833  27.154  1.00  0.00    -0.744 OA
ENDBRANCH  95  98
ENDBRANCH  68  91
ENDBRANCH  42  43
ENDBRANCH  34  37
ENDBRANCH  32  33
ENDBRANCH   1  32
TORSDOF 16
ENDMDL
MODEL 3
REMARK VINA RESULT:     -13.1      6.255      9.799
REMARK SMILES COC(=O)c1ccc(C)c2c1[C@H]1C=CC[C@H]1[C@@H](c1ccc(C(=O)NCCCNC(=O)c3ccc(-c4c5nc(c(-c6cccc(S(=O)(=O)[O-])c6F)c6ccc([nH]6)c(-c6cccc(S(=O)(=O)[O-])c6F)c6nc(c(-c7cccc(S(=O)(=O)[O-])c7F)c7ccc4[nH]7)C=C6)C=C5)cc3)cc1)N2
REMARK SMILES IDX 26 1 25 2 24 3 22 4 23 5 21 7 18 8 19 9 95 10 20 11 94 12
REMARK SMILES IDX 17 13 5 14 6 15 11 16 7 17 10 18 12 19 8 20 96 21 13 22
REMARK SMILES IDX 16 23 9 24 14 26 15 27 3 28 4 29 2 30 1 31 27 32 28 33 29 34
REMARK SMILES IDX 30 36 31 37 32 38 93 39 33 40 92 41 34 42 35 43 36 44 86 45
REMARK SMILES IDX 37 46 91 47 85 48 87 49 38 50 90 51 84 52 83 53 39 55 71 56
REMARK SMILES IDX 51 57 70 58 52 59 55 60 69 61 88 62 53 63 54 64 68 66 89 67
REMARK SMILES IDX 56 68 40 69 41 70 49 71 42 72 44 73 50 74 43 75 45 76 46 77
REMARK SMILES IDX 47 78 48 79 72 80 73 81 81 82 74 83 76 84 82 85 75 86 77 87
REMARK SMILES IDX 78 88 79 89 80 90 57 91 58 92 66 93 59 94 61 95 67 96 60 97
REMARK SMILES IDX 62 98 63 99 64 100 65 101
REMARK H PARENT 24 6 96 25 28 35 87 54 55 65
REMARK Flexibility Score: inf
ROOT
ATOM      1  C   UNL A   1      38.240  19.847  25.059  1.00  0.00     0.042 C 
ENDROOT
BRANCH   1   2
ATOM      2  C   UNL A   1      37.406  21.048  24.625  1.00  0.00     0.118 C 
BRANCH   2   3
ATOM      3  N   UNL A   1      37.978  22.271  25.144  1.00  0.00    -0.352 N 
ATOM      4  C   UNL A   1      37.412  23.389  25.690  1.00  0.00     0.251 C 
ATOM      5  O   UNL A   1      38.180  24.282  26.051  1.00  0.00    -0.269 OA
ATOM      6  H   UNL A   1      38.960  22.306  25.096  1.00  0.00     0.163 HD
BRANCH   4   7
ATOM      7  C   UNL A   1      35.948  23.550  25.908  1.00  0.00     0.039 A 
ATOM      8  C   UNL A   1      33.160  24.069  26.144  1.00  0.00    -0.025 A 
ATOM      9  C   UNL A   1      34.065  25.072  25.765  1.00  0.00     0.006 A 
ATOM     10  C   UNL A   1      33.692  22.811  26.454  1.00  0.00     0.006 A 
ATOM     11  C   UNL A   1      35.431  24.819  25.649  1.00  0.00     0.014 A 
ATOM     12  C   UNL A   1      35.057  22.546  26.295  1.00  0.00     0.014 A 
BRANCH   8  13
ATOM     13  C   UNL A   1      31.639  24.240  26.100  1.00  0.00     0.114 C 
ATOM     14  C   UNL A   1      31.544  27.861  23.876  1.00  0.00     0.065 A 
ATOM     15  C   UNL A   1      31.769  29.060  24.557  1.00  0.00     0.016 A 
ATOM     16  C   UNL A   1      31.339  26.654  24.579  1.00  0.00    -0.003 A 
ATOM     17  C   UNL A   1      31.769  29.078  25.945  1.00  0.00     0.006 A 
ATOM     18  C   UNL A   1      31.317  26.683  26.000  1.00  0.00     0.042 A 
ATOM     19  C   UNL A   1      31.169  25.340  23.836  1.00  0.00     0.050 C 
ATOM     20  C   UNL A   1      31.544  27.902  26.680  1.00  0.00    -0.028 A 
ATOM     21  N   UNL A   1      31.226  25.494  26.711  1.00  0.00    -0.377 N 
ATOM     22  C   UNL A   1      32.348  24.881  23.010  1.00  0.00    -0.023 C 
ATOM     23  C   UNL A   1      30.940  24.103  24.730  1.00  0.00     0.031 C 
ATOM     24  C   UNL A   1      31.621  28.021  28.181  1.00  0.00     0.046 C 
ATOM     25  H   UNL A   1      30.881  25.499  27.633  1.00  0.00     0.161 HD
ATOM     26  C   UNL A   1      32.473  23.547  23.024  1.00  0.00    -0.030 C 
ATOM     27  C   UNL A   1      31.424  22.916  23.880  1.00  0.00     0.034 C 
BRANCH  14  28
ATOM     28  C   UNL A   1      31.503  27.907  22.396  1.00  0.00     0.338 C 
ATOM     29  O   UNL A   1      32.483  27.837  21.678  1.00  0.00    -0.246 OA
BRANCH  28  30
ATOM     30  O   UNL A   1      30.214  28.067  22.002  1.00  0.00    -0.465 OA
ATOM     31  C   UNL A   1      29.801  29.434  21.944  1.00  0.00     0.282 C 
ENDBRANCH  28  30
ENDBRANCH  14  28
ENDBRANCH   8  13
ENDBRANCH   4   7
ENDBRANCH   2   3
ENDBRANCH   1   2
BRANCH   1  32
ATOM     32  C   UNL A   1      39.271  20.228  26.115  1.00  0.00     0.118 C 
BRANCH  32  33
ATOM     33  N   UNL A   1      40.427  19.337  26.063  1.00  0.00    -0.352 N 
ATOM     34  C   UNL A   1      41.757  19.670  26.017  1.00  0.00     0.251 C 
ATOM     35  H   UNL A   1      40.226  18.373  26.061  1.00  0.00     0.163 HD
ATOM     36  O   UNL A   1      42.596  18.850  25.663  1.00  0.00    -0.269 OA
BRANCH  34  37
ATOM     37  C   UNL A   1      42.148  21.034  26.406  1.00  0.00     0.039 A 
ATOM     38  C   UNL A   1      42.317  22.009  25.424  1.00  0.00     0.014 A 
ATOM     39  C   UNL A   1      42.310  21.337  27.762  1.00  0.00     0.014 A 
ATOM     40  C   UNL A   1      42.604  23.315  25.812  1.00  0.00     0.010 A 
ATOM     41  C   UNL A   1      42.519  22.652  28.149  1.00  0.00     0.010 A 
ATOM     42  C   UNL A   1      42.687  23.646  27.176  1.00  0.00    -0.014 A 
BRANCH  42  43
ATOM     43  C   UNL A   1      42.983  25.031  27.596  1.00  0.00     0.031 A 
ATOM     44  C   UNL A   1      44.391  25.544  27.530  1.00  0.00     0.074 A 
ATOM     45  C   UNL A   1      41.992  25.808  28.072  1.00  0.00     0.049 A 
ATOM     46  N   UNL A   1      44.836  26.742  27.798  1.00  0.00    -0.248 NA
ATOM     47  C   UNL A   1      45.440  24.590  27.128  1.00  0.00     0.031 C 
ATOM     48  C   UNL A   1      40.603  25.383  28.259  1.00  0.00     0.029 A 
ATOM     49  N   UNL A   1      42.002  27.112  28.494  1.00  0.00    -0.354 N 
ATOM     50  C   UNL A   1      46.210  26.679  27.619  1.00  0.00     0.074 A 
ATOM     51  C   UNL A   1      46.537  25.321  27.256  1.00  0.00     0.031 C 
ATOM     52  C   UNL A   1      39.891  26.415  28.741  1.00  0.00     0.029 A 
ATOM     53  C   UNL A   1      40.774  27.566  28.910  1.00  0.00     0.049 A 
ATOM     54  H   UNL A   1      42.813  27.671  28.498  1.00  0.00     0.167 HD
ATOM     55  C   UNL A   1      47.115  27.678  27.715  1.00  0.00     0.034 A 
ATOM     56  C   UNL A   1      40.399  28.777  29.368  1.00  0.00     0.034 A 
ATOM     57  C   UNL A   1      46.776  29.035  28.032  1.00  0.00     0.049 A 
ATOM     58  C   UNL A   1      41.414  29.882  29.435  1.00  0.00     0.074 A 
ATOM     59  C   UNL A   1      47.607  30.139  28.047  1.00  0.00     0.029 A 
ATOM     60  N   UNL A   1      45.514  29.466  28.403  1.00  0.00    -0.354 N 
ATOM     61  N   UNL A   1      42.681  29.849  29.097  1.00  0.00    -0.248 NA
ATOM     62  C   UNL A   1      40.956  31.193  29.916  1.00  0.00     0.031 C 
ATOM     63  C   UNL A   1      46.851  31.238  28.459  1.00  0.00     0.029 A 
ATOM     64  C   UNL A   1      45.547  30.820  28.675  1.00  0.00     0.049 A 
ATOM     65  H   UNL A   1      44.715  28.895  28.464  1.00  0.00     0.167 HD
ATOM     66  C   UNL A   1      43.167  31.133  29.307  1.00  0.00     0.074 A 
ATOM     67  C   UNL A   1      42.057  31.926  29.793  1.00  0.00     0.031 C 
ATOM     68  C   UNL A   1      44.423  31.604  29.121  1.00  0.00     0.034 A 
BRANCH  55  69
ATOM     69  C   UNL A   1      48.551  27.360  27.418  1.00  0.00     0.023 A 
ATOM     70  C   UNL A   1      49.328  26.702  28.392  1.00  0.00     0.012 A 
ATOM     71  C   UNL A   1      49.099  27.629  26.152  1.00  0.00     0.148 A 
ATOM     72  C   UNL A   1      50.639  26.323  28.111  1.00  0.00     0.002 A 
ATOM     73  C   UNL A   1      50.395  27.221  25.867  1.00  0.00     0.091 A 
ATOM     74  F   UNL A   1      48.342  28.274  25.253  1.00  0.00    -0.205 F 
ATOM     75  C   UNL A   1      51.168  26.572  26.846  1.00  0.00     0.022 A 
BRANCH  73  76
ATOM     76  S   UNL A   1      51.153  27.448  24.257  1.00  0.00     0.127 S 
ATOM     77  O   UNL A   1      52.420  26.737  24.425  1.00  0.00    -0.237 OA
ATOM     78  O   UNL A   1      50.195  26.786  23.372  1.00  0.00    -0.237 OA
ATOM     79  O   UNL A   1      51.274  28.887  24.064  1.00  0.00    -0.744 OA
ENDBRANCH  73  76
ENDBRANCH  55  69
BRANCH  56  80
ATOM     80  C   UNL A   1      38.972  29.001  29.720  1.00  0.00     0.023 A 
ATOM     81  C   UNL A   1      38.550  28.809  31.049  1.00  0.00     0.012 A 
ATOM     82  C   UNL A   1      38.064  29.509  28.772  1.00  0.00     0.148 A 
ATOM     83  C   UNL A   1      37.245  29.122  31.429  1.00  0.00     0.002 A 
ATOM     84  C   UNL A   1      36.777  29.853  29.164  1.00  0.00     0.091 A 
ATOM     85  F   UNL A   1      38.498  29.689  27.516  1.00  0.00    -0.205 F 
ATOM     86  C   UNL A   1      36.363  29.653  30.491  1.00  0.00     0.022 A 
BRANCH  84  87
ATOM     87  S   UNL A   1      35.600  30.639  28.057  1.00  0.00     0.127 S 
ATOM     88  O   UNL A   1      34.457  30.854  28.941  1.00  0.00    -0.237 OA
ATOM     89  O   UNL A   1      36.321  31.853  27.674  1.00  0.00    -0.237 OA
ATOM     90  O   UNL A   1      35.380  29.692  26.974  1.00  0.00    -0.744 OA
ENDBRANCH  84  87
ENDBRANCH  56  80
BRANCH  68  91
ATOM     91  C   UNL A   1      44.711  33.045  29.435  1.00  0.00     0.023 A 
ATOM     92  C   UNL A   1      45.274  33.374  30.682  1.00  0.00     0.012 A 
ATOM     93  C   UNL A   1      44.623  34.023  28.426  1.00  0.00     0.148 A 
ATOM     94  C   UNL A   1      45.762  34.658  30.916  1.00  0.00     0.002 A 
ATOM     95  C   UNL A   1      45.142  35.290  28.654  1.00  0.00     0.091 A 
ATOM     96  F   UNL A   1      44.087  33.675  27.246  1.00  0.00    -0.205 F 
ATOM     97  C   UNL A   1      45.711  35.609  29.898  1.00  0.00     0.022 A 
BRANCH  95  98
ATOM     98  S   UNL A   1      45.199  36.559  27.383  1.00  0.00     0.127 S 
ATOM     99  O   UNL A   1      43.778  36.755  27.095  1.00  0.00    -0.237 OA
ATOM    100  O   UNL A   1      45.838  37.670  28.086  1.00  0.00    -0.237 OA
ATOM    101  O   UNL A   1      45.975  36.000  26.284  1.00  0.00    -0.744 OA
ENDBRANCH  95  98
ENDBRANCH  68  91
ENDBRANCH  42  43
ENDBRANCH  34  37
ENDBRANCH  32  33
ENDBRANCH   1  32
TORSDOF 16
ENDMDL
