MODEL 1
REMARK VINA RESULT:     -10.6      0.000      0.000
REMARK SMILES C#CCNC(=O)C[N@@H+](CC(=O)NCCCNC(=O)c1ccc(-c2c3nc(c(-c4cccc(S(=O)(=O)[O-])c4F)c4ccc([nH]4)c(-c4cccc(S(=O)(=O)[O-])c4F)c4nc(c(-c5cccc(S(=O)(=O)[O-])c5F)c5ccc2[nH]5)C=C4)C=C3)cc1)C(C)(C)C
REMARK SMILES IDX 13 1 12 2 10 3 11 4 9 6 8 7 7 9 5 10 4 11 6 13 3 14 2 15
REMARK SMILES IDX 1 16 82 17 83 18 84 19 85 20 14 21 15 22 16 23 17 24 18 26
REMARK SMILES IDX 19 27 20 28 81 29 21 30 80 31 22 32 23 33 24 34 74 35 25 36
REMARK SMILES IDX 79 37 73 38 75 39 26 40 78 41 72 42 71 43 27 45 59 46 39 47
REMARK SMILES IDX 58 48 40 49 43 50 57 51 76 52 41 53 42 54 56 56 77 57 44 58
REMARK SMILES IDX 28 59 29 60 37 61 30 62 32 63 38 64 31 65 33 66 34 67 35 68
REMARK SMILES IDX 36 69 60 70 61 71 69 72 62 73 64 74 70 75 63 76 65 77 66 78
REMARK SMILES IDX 67 79 68 80 45 81 46 82 54 83 47 84 49 85 55 86 48 87 50 88
REMARK SMILES IDX 51 89 52 90 53 91
REMARK H PARENT 12 5 8 8 4 12 16 25 75 44 43 55
REMARK Flexibility Score: inf
ROOT
ATOM      1  C   UNL A   1      31.435  30.686  26.189  1.00  0.00     0.118 C 
ENDROOT
BRANCH   1   2
ATOM      2  N   UNL A   1      30.921  30.356  24.867  1.00  0.00    -0.351 N 
ATOM      3  C   UNL A   1      31.199  29.331  24.008  1.00  0.00     0.275 C 
ATOM      4  O   UNL A   1      30.346  29.087  23.149  1.00  0.00    -0.269 OA
ATOM      5  H   UNL A   1      30.247  30.989  24.529  1.00  0.00     0.163 HD
BRANCH   3   6
ATOM      6  C   UNL A   1      32.472  28.481  24.111  1.00  0.00     0.364 C 
BRANCH   6   7
ATOM      7  N   UNL A   1      32.280  27.009  24.261  1.00  0.00    -0.315 N 
ATOM      8  H   UNL A   1      31.281  26.835  24.148  1.00  0.00     0.349 HD
BRANCH   7   9
ATOM      9  C   UNL A   1      32.667  26.602  25.622  1.00  0.00     0.364 C 
BRANCH   9  10
ATOM     10  C   UNL A   1      31.563  26.445  26.653  1.00  0.00     0.275 C 
ATOM     11  N   UNL A   1      30.857  25.286  26.739  1.00  0.00    -0.340 N 
ATOM     12  H   UNL A   1      30.065  25.314  27.322  1.00  0.00     0.164 HD
ATOM     13  O   UNL A   1      31.204  27.410  27.329  1.00  0.00    -0.268 OA
BRANCH  11  14
ATOM     14  C   UNL A   1      31.111  24.024  26.093  1.00  0.00     0.206 C 
BRANCH  14  15
ATOM     15  C   UNL A   1      32.138  23.278  26.929  1.00  0.00    -0.085 C 
ATOM     16  C   UNL A   1      33.018  22.637  27.646  1.00  0.00     0.006 C 
ENDBRANCH  14  15
ENDBRANCH  11  14
ENDBRANCH   9  10
ENDBRANCH   7   9
BRANCH   7  17
ATOM     17  C   UNL A   1      32.767  26.131  23.151  1.00  0.00     0.090 C 
ATOM     18  C   UNL A   1      33.494  26.857  21.996  1.00  0.00     0.078 C 
ATOM     19  C   UNL A   1      33.754  25.060  23.677  1.00  0.00     0.078 C 
ATOM     20  C   UNL A   1      31.581  25.338  22.549  1.00  0.00     0.078 C 
ENDBRANCH   7  17
ENDBRANCH   6   7
ENDBRANCH   3   6
ENDBRANCH   1   2
BRANCH   1  21
ATOM     21  C   UNL A   1      31.453  32.181  26.522  1.00  0.00     0.042 C 
BRANCH  21  22
ATOM     22  C   UNL A   1      32.712  32.676  27.225  1.00  0.00     0.118 C 
BRANCH  22  23
ATOM     23  N   UNL A   1      32.583  34.070  27.611  1.00  0.00    -0.352 N 
ATOM     24  C   UNL A   1      33.141  34.737  28.677  1.00  0.00     0.251 C 
ATOM     25  H   UNL A   1      32.010  34.617  27.026  1.00  0.00     0.163 HD
ATOM     26  O   UNL A   1      32.658  35.816  29.014  1.00  0.00    -0.269 OA
BRANCH  24  27
ATOM     27  C   UNL A   1      34.306  34.189  29.419  1.00  0.00     0.039 A 
ATOM     28  C   UNL A   1      35.593  34.431  28.925  1.00  0.00     0.014 A 
ATOM     29  C   UNL A   1      34.147  33.359  30.532  1.00  0.00     0.014 A 
ATOM     30  C   UNL A   1      36.710  33.864  29.553  1.00  0.00     0.010 A 
ATOM     31  C   UNL A   1      35.265  32.854  31.201  1.00  0.00     0.010 A 
ATOM     32  C   UNL A   1      36.557  33.076  30.703  1.00  0.00    -0.014 A 
BRANCH  32  33
ATOM     33  C   UNL A   1      37.729  32.452  31.380  1.00  0.00     0.031 A 
ATOM     34  C   UNL A   1      38.462  31.305  30.732  1.00  0.00     0.074 A 
ATOM     35  C   UNL A   1      38.082  32.849  32.618  1.00  0.00     0.049 A 
ATOM     36  N   UNL A   1      39.458  30.593  31.195  1.00  0.00    -0.248 NA
ATOM     37  C   UNL A   1      37.998  30.884  29.400  1.00  0.00     0.031 C 
ATOM     38  C   UNL A   1      37.403  33.886  33.398  1.00  0.00     0.029 A 
ATOM     39  N   UNL A   1      39.077  32.402  33.455  1.00  0.00    -0.354 N 
ATOM     40  C   UNL A   1      39.701  29.610  30.242  1.00  0.00     0.074 A 
ATOM     41  C   UNL A   1      38.737  29.806  29.182  1.00  0.00     0.031 C 
ATOM     42  C   UNL A   1      37.989  33.983  34.602  1.00  0.00     0.029 A 
ATOM     43  C   UNL A   1      39.070  33.004  34.691  1.00  0.00     0.049 A 
ATOM     44  H   UNL A   1      39.732  31.714  33.193  1.00  0.00     0.167 HD
ATOM     45  C   UNL A   1      40.658  28.650  30.232  1.00  0.00     0.034 A 
ATOM     46  C   UNL A   1      39.835  32.788  35.779  1.00  0.00     0.034 A 
ATOM     47  C   UNL A   1      41.665  28.503  31.248  1.00  0.00     0.049 A 
ATOM     48  C   UNL A   1      40.937  31.765  35.718  1.00  0.00     0.074 A 
ATOM     49  C   UNL A   1      42.763  27.661  31.254  1.00  0.00     0.029 A 
ATOM     50  N   UNL A   1      41.691  29.204  32.443  1.00  0.00    -0.354 N 
ATOM     51  N   UNL A   1      41.280  30.984  34.723  1.00  0.00    -0.248 NA
ATOM     52  C   UNL A   1      41.778  31.616  36.915  1.00  0.00     0.031 C 
ATOM     53  C   UNL A   1      43.445  27.840  32.463  1.00  0.00     0.029 A 
ATOM     54  C   UNL A   1      42.776  28.800  33.204  1.00  0.00     0.049 A 
ATOM     55  H   UNL A   1      41.036  29.888  32.711  1.00  0.00     0.167 HD
ATOM     56  C   UNL A   1      42.385  30.263  35.165  1.00  0.00     0.074 A 
ATOM     57  C   UNL A   1      42.672  30.723  36.508  1.00  0.00     0.031 C 
ATOM     58  C   UNL A   1      43.083  29.294  34.524  1.00  0.00     0.034 A 
BRANCH  45  59
ATOM     59  C   UNL A   1      40.702  27.719  29.048  1.00  0.00     0.023 A 
ATOM     60  C   UNL A   1      39.773  26.662  28.964  1.00  0.00     0.012 A 
ATOM     61  C   UNL A   1      41.621  27.917  27.999  1.00  0.00     0.148 A 
ATOM     62  C   UNL A   1      39.783  25.792  27.874  1.00  0.00     0.002 A 
ATOM     63  C   UNL A   1      41.598  27.069  26.896  1.00  0.00     0.091 A 
ATOM     64  F   UNL A   1      42.512  28.913  28.104  1.00  0.00    -0.205 F 
ATOM     65  C   UNL A   1      40.687  26.002  26.836  1.00  0.00     0.022 A 
BRANCH  63  66
ATOM     66  S   UNL A   1      42.678  27.308  25.480  1.00  0.00     0.127 S 
ATOM     67  O   UNL A   1      43.976  27.492  26.127  1.00  0.00    -0.237 OA
ATOM     68  O   UNL A   1      42.532  26.043  24.758  1.00  0.00    -0.237 OA
ATOM     69  O   UNL A   1      42.152  28.468  24.774  1.00  0.00    -0.744 OA
ENDBRANCH  63  66
ENDBRANCH  45  59
BRANCH  46  70
ATOM     70  C   UNL A   1      39.617  33.613  37.002  1.00  0.00     0.023 A 
ATOM     71  C   UNL A   1      40.071  34.946  37.023  1.00  0.00     0.012 A 
ATOM     72  C   UNL A   1      38.910  33.108  38.111  1.00  0.00     0.148 A 
ATOM     73  C   UNL A   1      39.840  35.758  38.133  1.00  0.00     0.002 A 
ATOM     74  C   UNL A   1      38.637  33.939  39.193  1.00  0.00     0.091 A 
ATOM     75  F   UNL A   1      38.499  31.833  38.075  1.00  0.00    -0.205 F 
ATOM     76  C   UNL A   1      39.112  35.259  39.211  1.00  0.00     0.022 A 
BRANCH  74  77
ATOM     77  S   UNL A   1      37.601  33.429  40.569  1.00  0.00     0.127 S 
ATOM     78  O   UNL A   1      37.519  34.660  41.354  1.00  0.00    -0.237 OA
ATOM     79  O   UNL A   1      36.361  33.051  39.889  1.00  0.00    -0.237 OA
ATOM     80  O   UNL A   1      38.300  32.323  41.204  1.00  0.00    -0.744 OA
ENDBRANCH  74  77
ENDBRANCH  46  70
BRANCH  58  81
ATOM     81  C   UNL A   1      44.228  28.649  35.258  1.00  0.00     0.023 A 
ATOM     82  C   UNL A   1      45.535  29.140  35.063  1.00  0.00     0.012 A 
ATOM     83  C   UNL A   1      44.008  27.628  36.203  1.00  0.00     0.148 A 
ATOM     84  C   UNL A   1      46.607  28.608  35.780  1.00  0.00     0.002 A 
ATOM     85  C   UNL A   1      45.075  27.133  36.945  1.00  0.00     0.091 A 
ATOM     86  F   UNL A   1      42.760  27.162  36.362  1.00  0.00    -0.205 F 
ATOM     87  C   UNL A   1      46.375  27.616  36.729  1.00  0.00     0.022 A 
BRANCH  85  88
ATOM     88  S   UNL A   1      44.858  25.917  38.251  1.00  0.00     0.127 S 
ATOM     89  O   UNL A   1      44.310  24.780  37.513  1.00  0.00    -0.237 OA
ATOM     90  O   UNL A   1      46.226  25.729  38.734  1.00  0.00    -0.237 OA
ATOM     91  O   UNL A   1      43.956  26.527  39.220  1.00  0.00    -0.744 OA
ENDBRANCH  85  88
ENDBRANCH  58  81
ENDBRANCH  32  33
ENDBRANCH  24  27
ENDBRANCH  22  23
ENDBRANCH  21  22
ENDBRANCH   1  21
TORSDOF 19
ENDMDL
MODEL 2
REMARK VINA RESULT:     -10.5      3.516      8.901
REMARK SMILES C#CCNC(=O)C[N@@H+](CC(=O)NCCCNC(=O)c1ccc(-c2c3nc(c(-c4cccc(S(=O)(=O)[O-])c4F)c4ccc([nH]4)c(-c4cccc(S(=O)(=O)[O-])c4F)c4nc(c(-c5cccc(S(=O)(=O)[O-])c5F)c5ccc2[nH]5)C=C4)C=C3)cc1)C(C)(C)C
REMARK SMILES IDX 13 1 12 2 10 3 11 4 9 6 8 7 7 9 5 10 4 11 6 13 3 14 2 15
REMARK SMILES IDX 1 16 82 17 83 18 84 19 85 20 14 21 15 22 16 23 17 24 18 26
REMARK SMILES IDX 19 27 20 28 81 29 21 30 80 31 22 32 23 33 24 34 74 35 25 36
REMARK SMILES IDX 79 37 73 38 75 39 26 40 78 41 72 42 71 43 27 45 59 46 39 47
REMARK SMILES IDX 58 48 40 49 43 50 57 51 76 52 41 53 42 54 56 56 77 57 44 58
REMARK SMILES IDX 28 59 29 60 37 61 30 62 32 63 38 64 31 65 33 66 34 67 35 68
REMARK SMILES IDX 36 69 60 70 61 71 69 72 62 73 64 74 70 75 63 76 65 77 66 78
REMARK SMILES IDX 67 79 68 80 45 81 46 82 54 83 47 84 49 85 55 86 48 87 50 88
REMARK SMILES IDX 51 89 52 90 53 91
REMARK H PARENT 12 5 8 8 4 12 16 25 75 44 43 55
REMARK Flexibility Score: inf
ROOT
ATOM      1  C   UNL A   1      32.724  27.923  23.844  1.00  0.00     0.118 C 
ENDROOT
BRANCH   1   2
ATOM      2  N   UNL A   1      33.277  27.212  22.700  1.00  0.00    -0.351 N 
ATOM      3  C   UNL A   1      32.860  26.099  22.027  1.00  0.00     0.275 C 
ATOM      4  O   UNL A   1      33.295  25.956  20.880  1.00  0.00    -0.269 OA
ATOM      5  H   UNL A   1      34.106  27.608  22.344  1.00  0.00     0.163 HD
BRANCH   3   6
ATOM      6  C   UNL A   1      31.871  25.089  22.621  1.00  0.00     0.364 C 
BRANCH   6   7
ATOM      7  N   UNL A   1      32.327  24.342  23.829  1.00  0.00    -0.315 N 
ATOM      8  H   UNL A   1      33.116  24.864  24.210  1.00  0.00     0.349 HD
BRANCH   7   9
ATOM      9  C   UNL A   1      32.806  23.008  23.427  1.00  0.00     0.364 C 
BRANCH   9  10
ATOM     10  C   UNL A   1      34.302  22.753  23.474  1.00  0.00     0.275 C 
ATOM     11  N   UNL A   1      34.822  21.847  24.345  1.00  0.00    -0.340 N 
ATOM     12  H   UNL A   1      35.802  21.847  24.422  1.00  0.00     0.164 HD
ATOM     13  O   UNL A   1      35.072  23.458  22.821  1.00  0.00    -0.268 OA
BRANCH  11  14
ATOM     14  C   UNL A   1      34.132  20.889  25.169  1.00  0.00     0.206 C 
BRANCH  14  15
ATOM     15  C   UNL A   1      34.003  21.487  26.561  1.00  0.00    -0.085 C 
ATOM     16  C   UNL A   1      33.893  22.000  27.754  1.00  0.00     0.006 C 
ENDBRANCH  14  15
ENDBRANCH  11  14
ENDBRANCH   9  10
ENDBRANCH   7   9
BRANCH   7  17
ATOM     17  C   UNL A   1      31.450  24.385  25.041  1.00  0.00     0.090 C 
ATOM     18  C   UNL A   1      30.887  23.023  25.507  1.00  0.00     0.078 C 
ATOM     19  C   UNL A   1      32.204  24.980  26.257  1.00  0.00     0.078 C 
ATOM     20  C   UNL A   1      30.256  25.339  24.792  1.00  0.00     0.078 C 
ENDBRANCH   7  17
ENDBRANCH   6   7
ENDBRANCH   3   6
ENDBRANCH   1   2
BRANCH   1  21
ATOM     21  C   UNL A   1      33.649  28.977  24.460  1.00  0.00     0.042 C 
BRANCH  21  22
ATOM     22  C   UNL A   1      33.738  28.955  25.983  1.00  0.00     0.118 C 
BRANCH  22  23
ATOM     23  N   UNL A   1      33.690  30.299  26.530  1.00  0.00    -0.352 N 
ATOM     24  C   UNL A   1      34.428  30.855  27.548  1.00  0.00     0.251 C 
ATOM     25  H   UNL A   1      33.031  30.900  26.111  1.00  0.00     0.163 HD
ATOM     26  O   UNL A   1      34.020  31.889  28.074  1.00  0.00    -0.269 OA
BRANCH  24  27
ATOM     27  C   UNL A   1      35.697  30.242  28.019  1.00  0.00     0.039 A 
ATOM     28  C   UNL A   1      35.734  29.671  29.297  1.00  0.00     0.014 A 
ATOM     29  C   UNL A   1      36.873  30.311  27.268  1.00  0.00     0.014 A 
ATOM     30  C   UNL A   1      36.933  29.155  29.807  1.00  0.00     0.010 A 
ATOM     31  C   UNL A   1      38.051  29.731  27.747  1.00  0.00     0.010 A 
ATOM     32  C   UNL A   1      38.102  29.172  29.032  1.00  0.00    -0.014 A 
BRANCH  32  33
ATOM     33  C   UNL A   1      39.392  28.641  29.558  1.00  0.00     0.031 A 
ATOM     34  C   UNL A   1      40.107  29.351  30.679  1.00  0.00     0.074 A 
ATOM     35  C   UNL A   1      39.971  27.576  28.971  1.00  0.00     0.049 A 
ATOM     36  N   UNL A   1      41.267  29.079  31.223  1.00  0.00    -0.248 NA
ATOM     37  C   UNL A   1      39.448  30.538  31.247  1.00  0.00     0.031 C 
ATOM     38  C   UNL A   1      39.432  26.850  27.820  1.00  0.00     0.029 A 
ATOM     39  N   UNL A   1      41.161  26.942  29.237  1.00  0.00    -0.354 N 
ATOM     40  C   UNL A   1      41.500  30.087  32.151  1.00  0.00     0.074 A 
ATOM     41  C   UNL A   1      40.369  30.987  32.086  1.00  0.00     0.031 C 
ATOM     42  C   UNL A   1      40.294  25.882  27.469  1.00  0.00     0.029 A 
ATOM     43  C   UNL A   1      41.456  25.929  28.353  1.00  0.00     0.049 A 
ATOM     44  H   UNL A   1      41.747  27.189  29.989  1.00  0.00     0.167 HD
ATOM     45  C   UNL A   1      42.543  30.237  33.004  1.00  0.00     0.034 A 
ATOM     46  C   UNL A   1      42.542  25.137  28.254  1.00  0.00     0.034 A 
ATOM     47  C   UNL A   1      43.629  29.303  33.124  1.00  0.00     0.049 A 
ATOM     48  C   UNL A   1      43.654  25.278  29.257  1.00  0.00     0.074 A 
ATOM     49  C   UNL A   1      44.651  29.287  34.056  1.00  0.00     0.029 A 
ATOM     50  N   UNL A   1      43.842  28.225  32.279  1.00  0.00    -0.354 N 
ATOM     51  N   UNL A   1      43.757  26.114  30.262  1.00  0.00    -0.248 NA
ATOM     52  C   UNL A   1      44.785  24.345  29.136  1.00  0.00     0.031 C 
ATOM     53  C   UNL A   1      45.494  28.209  33.764  1.00  0.00     0.029 A 
ATOM     54  C   UNL A   1      44.990  27.549  32.655  1.00  0.00     0.049 A 
ATOM     55  H   UNL A   1      43.262  27.977  31.523  1.00  0.00     0.167 HD
ATOM     56  C   UNL A   1      44.952  25.800  30.901  1.00  0.00     0.074 A 
ATOM     57  C   UNL A   1      45.524  24.676  30.189  1.00  0.00     0.031 C 
ATOM     58  C   UNL A   1      45.532  26.403  31.968  1.00  0.00     0.034 A 
BRANCH  45  59
ATOM     59  C   UNL A   1      42.527  31.430  33.925  1.00  0.00     0.023 A 
ATOM     60  C   UNL A   1      43.108  32.642  33.498  1.00  0.00     0.012 A 
ATOM     61  C   UNL A   1      41.898  31.371  35.184  1.00  0.00     0.148 A 
ATOM     62  C   UNL A   1      43.097  33.765  34.325  1.00  0.00     0.002 A 
ATOM     63  C   UNL A   1      41.857  32.507  35.985  1.00  0.00     0.091 A 
ATOM     64  F   UNL A   1      41.370  30.205  35.584  1.00  0.00    -0.205 F 
ATOM     65  C   UNL A   1      42.463  33.700  35.563  1.00  0.00     0.022 A 
BRANCH  63  66
ATOM     66  S   UNL A   1      40.998  32.535  37.564  1.00  0.00     0.127 S 
ATOM     67  O   UNL A   1      40.927  33.970  37.836  1.00  0.00    -0.237 OA
ATOM     68  O   UNL A   1      39.714  31.915  37.234  1.00  0.00    -0.237 OA
ATOM     69  O   UNL A   1      41.824  31.758  38.477  1.00  0.00    -0.744 OA
ENDBRANCH  63  66
ENDBRANCH  45  59
BRANCH  46  70
ATOM     70  C   UNL A   1      42.590  24.093  27.192  1.00  0.00     0.023 A 
ATOM     71  C   UNL A   1      43.311  24.347  26.009  1.00  0.00     0.012 A 
ATOM     72  C   UNL A   1      41.984  22.834  27.372  1.00  0.00     0.148 A 
ATOM     73  C   UNL A   1      43.415  23.372  25.017  1.00  0.00     0.002 A 
ATOM     74  C   UNL A   1      42.136  21.848  26.402  1.00  0.00     0.091 A 
ATOM     75  F   UNL A   1      41.292  22.619  28.499  1.00  0.00    -0.205 F 
ATOM     76  C   UNL A   1      42.840  22.120  25.219  1.00  0.00     0.022 A 
BRANCH  74  77
ATOM     77  S   UNL A   1      41.542  20.167  26.626  1.00  0.00     0.127 S 
ATOM     78  O   UNL A   1      41.958  19.534  25.377  1.00  0.00    -0.237 OA
ATOM     79  O   UNL A   1      42.288  19.740  27.810  1.00  0.00    -0.237 OA
ATOM     80  O   UNL A   1      40.106  20.279  26.828  1.00  0.00    -0.744 OA
ENDBRANCH  74  77
ENDBRANCH  46  70
BRANCH  58  81
ATOM     81  C   UNL A   1      46.859  25.872  32.440  1.00  0.00     0.023 A 
ATOM     82  C   UNL A   1      48.047  26.426  31.922  1.00  0.00     0.012 A 
ATOM     83  C   UNL A   1      46.937  24.896  33.454  1.00  0.00     0.148 A 
ATOM     84  C   UNL A   1      49.290  26.002  32.391  1.00  0.00     0.002 A 
ATOM     85  C   UNL A   1      48.178  24.509  33.945  1.00  0.00     0.091 A 
ATOM     86  F   UNL A   1      45.795  24.367  33.921  1.00  0.00    -0.205 F 
ATOM     87  C   UNL A   1      49.356  25.055  33.409  1.00  0.00     0.022 A 
BRANCH  85  88
ATOM     88  S   UNL A   1      48.357  23.361  35.317  1.00  0.00     0.127 S 
ATOM     89  O   UNL A   1      47.805  22.132  34.751  1.00  0.00    -0.237 OA
ATOM     90  O   UNL A   1      49.806  23.342  35.523  1.00  0.00    -0.237 OA
ATOM     91  O   UNL A   1      47.600  23.937  36.421  1.00  0.00    -0.744 OA
ENDBRANCH  85  88
ENDBRANCH  58  81
ENDBRANCH  32  33
ENDBRANCH  24  27
ENDBRANCH  22  23
ENDBRANCH  21  22
ENDBRANCH   1  21
TORSDOF 19
ENDMDL
MODEL 3
REMARK VINA RESULT:     -10.4      6.497     11.519
REMARK SMILES C#CCNC(=O)C[N@@H+](CC(=O)NCCCNC(=O)c1ccc(-c2c3nc(c(-c4cccc(S(=O)(=O)[O-])c4F)c4ccc([nH]4)c(-c4cccc(S(=O)(=O)[O-])c4F)c4nc(c(-c5cccc(S(=O)(=O)[O-])c5F)c5ccc2[nH]5)C=C4)C=C3)cc1)C(C)(C)C
REMARK SMILES IDX 13 1 12 2 10 3 11 4 9 6 8 7 7 9 5 10 4 11 6 13 3 14 2 15
REMARK SMILES IDX 1 16 82 17 83 18 84 19 85 20 14 21 15 22 16 23 17 24 18 26
REMARK SMILES IDX 19 27 20 28 81 29 21 30 80 31 22 32 23 33 24 34 74 35 25 36
REMARK SMILES IDX 79 37 73 38 75 39 26 40 78 41 72 42 71 43 27 45 59 46 39 47
REMARK SMILES IDX 58 48 40 49 43 50 57 51 76 52 41 53 42 54 56 56 77 57 44 58
REMARK SMILES IDX 28 59 29 60 37 61 30 62 32 63 38 64 31 65 33 66 34 67 35 68
REMARK SMILES IDX 36 69 60 70 61 71 69 72 62 73 64 74 70 75 63 76 65 77 66 78
REMARK SMILES IDX 67 79 68 80 45 81 46 82 54 83 47 84 49 85 55 86 48 87 50 88
REMARK SMILES IDX 51 89 52 90 53 91
REMARK H PARENT 12 5 8 8 4 12 16 25 75 44 43 55
REMARK Flexibility Score: inf
ROOT
ATOM      1  C   UNL A   1      35.905  20.257  24.951  1.00  0.00     0.118 C 
ENDROOT
BRANCH   1   2
ATOM      2  N   UNL A   1      35.535  21.238  25.963  1.00  0.00    -0.351 N 
ATOM      3  C   UNL A   1      34.325  21.739  26.350  1.00  0.00     0.275 C 
ATOM      4  O   UNL A   1      34.276  22.250  27.473  1.00  0.00    -0.269 OA
ATOM      5  H   UNL A   1      36.300  21.609  26.460  1.00  0.00     0.163 HD
BRANCH   3   6
ATOM      6  C   UNL A   1      33.067  21.645  25.477  1.00  0.00     0.364 C 
BRANCH   6   7
ATOM      7  N   UNL A   1      32.592  22.915  24.855  1.00  0.00    -0.315 N 
ATOM      8  H   UNL A   1      33.179  23.659  25.233  1.00  0.00     0.349 HD
BRANCH   7   9
ATOM      9  C   UNL A   1      31.201  23.170  25.266  1.00  0.00     0.364 C 
BRANCH   9  10
ATOM     10  C   UNL A   1      30.972  23.786  26.635  1.00  0.00     0.275 C 
ATOM     11  N   UNL A   1      31.097  25.128  26.819  1.00  0.00    -0.340 N 
ATOM     12  H   UNL A   1      31.083  25.431  27.755  1.00  0.00     0.164 HD
ATOM     13  O   UNL A   1      30.804  23.065  27.619  1.00  0.00    -0.268 OA
BRANCH  11  14
ATOM     14  C   UNL A   1      31.247  26.165  25.831  1.00  0.00     0.206 C 
BRANCH  14  15
ATOM     15  C   UNL A   1      32.729  26.478  25.715  1.00  0.00    -0.085 C 
ATOM     16  C   UNL A   1      34.001  26.748  25.615  1.00  0.00     0.006 C 
ENDBRANCH  14  15
ENDBRANCH  11  14
ENDBRANCH   9  10
ENDBRANCH   7   9
BRANCH   7  17
ATOM     17  C   UNL A   1      32.898  23.132  23.406  1.00  0.00     0.090 C 
ATOM     18  C   UNL A   1      32.202  24.348  22.752  1.00  0.00     0.078 C 
ATOM     19  C   UNL A   1      34.417  23.330  23.178  1.00  0.00     0.078 C 
ATOM     20  C   UNL A   1      32.521  21.868  22.594  1.00  0.00     0.078 C 
ENDBRANCH   7  17
ENDBRANCH   6   7
ENDBRANCH   3   6
ENDBRANCH   1   2
BRANCH   1  21
ATOM     21  C   UNL A   1      37.408  20.150  24.673  1.00  0.00     0.042 C 
BRANCH  21  22
ATOM     22  C   UNL A   1      38.315  20.558  25.830  1.00  0.00     0.118 C 
BRANCH  22  23
ATOM     23  N   UNL A   1      39.375  19.588  26.032  1.00  0.00    -0.352 N 
ATOM     24  C   UNL A   1      40.730  19.787  26.162  1.00  0.00     0.251 C 
ATOM     25  H   UNL A   1      39.081  18.649  26.083  1.00  0.00     0.163 HD
ATOM     26  O   UNL A   1      41.484  18.829  26.001  1.00  0.00    -0.269 OA
BRANCH  24  27
ATOM     27  C   UNL A   1      41.296  21.121  26.491  1.00  0.00     0.039 A 
ATOM     28  C   UNL A   1      41.118  21.627  27.785  1.00  0.00     0.014 A 
ATOM     29  C   UNL A   1      41.908  21.922  25.523  1.00  0.00     0.014 A 
ATOM     30  C   UNL A   1      41.568  22.913  28.110  1.00  0.00     0.010 A 
ATOM     31  C   UNL A   1      42.421  23.175  25.867  1.00  0.00     0.010 A 
ATOM     32  C   UNL A   1      42.232  23.697  27.155  1.00  0.00    -0.014 A 
BRANCH  32  33
ATOM     33  C   UNL A   1      42.708  25.073  27.474  1.00  0.00     0.031 A 
ATOM     34  C   UNL A   1      41.771  26.079  28.093  1.00  0.00     0.074 A 
ATOM     35  C   UNL A   1      43.952  25.454  27.124  1.00  0.00     0.049 A 
ATOM     36  N   UNL A   1      41.982  27.339  28.380  1.00  0.00    -0.248 NA
ATOM     37  C   UNL A   1      40.409  25.618  28.407  1.00  0.00     0.031 C 
ATOM     38  C   UNL A   1      44.931  24.610  26.438  1.00  0.00     0.029 A 
ATOM     39  N   UNL A   1      44.593  26.662  27.263  1.00  0.00    -0.354 N 
ATOM     40  C   UNL A   1      40.771  27.832  28.853  1.00  0.00     0.074 A 
ATOM     41  C   UNL A   1      39.824  26.740  28.798  1.00  0.00     0.031 C 
ATOM     42  C   UNL A   1      46.040  25.328  26.201  1.00  0.00     0.029 A 
ATOM     43  C   UNL A   1      45.847  26.688  26.698  1.00  0.00     0.049 A 
ATOM     44  H   UNL A   1      44.193  27.434  27.724  1.00  0.00     0.167 HD
ATOM     45  C   UNL A   1      40.478  29.071  29.319  1.00  0.00     0.034 A 
ATOM     46  C   UNL A   1      46.737  27.694  26.579  1.00  0.00     0.034 A 
ATOM     47  C   UNL A   1      41.438  30.134  29.445  1.00  0.00     0.049 A 
ATOM     48  C   UNL A   1      46.416  29.040  27.168  1.00  0.00     0.074 A 
ATOM     49  C   UNL A   1      41.277  31.372  30.042  1.00  0.00     0.029 A 
ATOM     50  N   UNL A   1      42.734  30.091  28.956  1.00  0.00    -0.354 N 
ATOM     51  N   UNL A   1      45.332  29.426  27.798  1.00  0.00    -0.248 NA
ATOM     52  C   UNL A   1      47.450  30.080  27.062  1.00  0.00     0.031 C 
ATOM     53  C   UNL A   1      42.472  32.086  29.898  1.00  0.00     0.029 A 
ATOM     54  C   UNL A   1      43.379  31.289  29.220  1.00  0.00     0.049 A 
ATOM     55  H   UNL A   1      43.138  29.323  28.491  1.00  0.00     0.167 HD
ATOM     56  C   UNL A   1      45.559  30.746  28.176  1.00  0.00     0.074 A 
ATOM     57  C   UNL A   1      46.895  31.083  27.732  1.00  0.00     0.031 C 
ATOM     58  C   UNL A   1      44.726  31.604  28.814  1.00  0.00     0.034 A 
BRANCH  45  59
ATOM     59  C   UNL A   1      39.070  29.325  29.790  1.00  0.00     0.023 A 
ATOM     60  C   UNL A   1      38.705  28.971  31.104  1.00  0.00     0.012 A 
ATOM     61  C   UNL A   1      38.126  29.958  28.957  1.00  0.00     0.148 A 
ATOM     62  C   UNL A   1      37.411  29.207  31.570  1.00  0.00     0.002 A 
ATOM     63  C   UNL A   1      36.851  30.225  29.443  1.00  0.00     0.091 A 
ATOM     64  F   UNL A   1      38.482  30.268  27.702  1.00  0.00    -0.205 F 
ATOM     65  C   UNL A   1      36.489  29.842  30.744  1.00  0.00     0.022 A 
BRANCH  63  66
ATOM     66  S   UNL A   1      35.620  31.105  28.473  1.00  0.00     0.127 S 
ATOM     67  O   UNL A   1      34.662  31.504  29.503  1.00  0.00    -0.237 OA
ATOM     68  O   UNL A   1      36.398  32.208  27.906  1.00  0.00    -0.237 OA
ATOM     69  O   UNL A   1      35.132  30.147  27.491  1.00  0.00    -0.744 OA
ENDBRANCH  63  66
ENDBRANCH  45  59
BRANCH  46  70
ATOM     70  C   UNL A   1      48.050  27.433  25.924  1.00  0.00     0.023 A 
ATOM     71  C   UNL A   1      49.127  26.965  26.701  1.00  0.00     0.012 A 
ATOM     72  C   UNL A   1      48.219  27.584  24.532  1.00  0.00     0.148 A 
ATOM     73  C   UNL A   1      50.354  26.666  26.108  1.00  0.00     0.002 A 
ATOM     74  C   UNL A   1      49.429  27.234  23.941  1.00  0.00     0.091 A 
ATOM     75  F   UNL A   1      47.185  28.044  23.815  1.00  0.00    -0.205 F 
ATOM     76  C   UNL A   1      50.500  26.788  24.729  1.00  0.00     0.022 A 
BRANCH  74  77
ATOM     77  S   UNL A   1      49.673  27.235  22.161  1.00  0.00     0.127 S 
ATOM     78  O   UNL A   1      48.697  26.238  21.725  1.00  0.00    -0.237 OA
ATOM     79  O   UNL A   1      49.339  28.616  21.812  1.00  0.00    -0.237 OA
ATOM     80  O   UNL A   1      51.069  26.883  21.953  1.00  0.00    -0.744 OA
ENDBRANCH  74  77
ENDBRANCH  46  70
BRANCH  58  81
ATOM     81  C   UNL A   1      45.221  33.002  29.074  1.00  0.00     0.023 A 
ATOM     82  C   UNL A   1      45.923  33.274  30.265  1.00  0.00     0.012 A 
ATOM     83  C   UNL A   1      45.076  34.019  28.109  1.00  0.00     0.148 A 
ATOM     84  C   UNL A   1      46.453  34.543  30.502  1.00  0.00     0.002 A 
ATOM     85  C   UNL A   1      45.644  35.268  28.334  1.00  0.00     0.091 A 
ATOM     86  F   UNL A   1      44.390  33.745  26.990  1.00  0.00    -0.205 F 
ATOM     87  C   UNL A   1      46.325  35.534  29.532  1.00  0.00     0.022 A 
BRANCH  85  88
ATOM     88  S   UNL A   1      45.607  36.578  27.104  1.00  0.00     0.127 S 
ATOM     89  O   UNL A   1      46.431  37.606  27.737  1.00  0.00    -0.237 OA
ATOM     90  O   UNL A   1      46.221  35.935  25.942  1.00  0.00    -0.237 OA
ATOM     91  O   UNL A   1      44.202  36.923  26.929  1.00  0.00    -0.744 OA
ENDBRANCH  85  88
ENDBRANCH  58  81
ENDBRANCH  32  33
ENDBRANCH  24  27
ENDBRANCH  22  23
ENDBRANCH  21  22
ENDBRANCH   1  21
TORSDOF 19
ENDMDL
