MODEL 1
REMARK VINA RESULT:     -11.9      0.000      0.000
REMARK SMILES C[C@]1(C(=O)N2CCC(CC(=O)NCCCNC(=O)c3ccc(-c4c5nc(c(-c6cccc(S(=O)(=O)[O-])c6F)c6ccc([nH]6)c(-c6cccc(S(=O)(=O)[O-])c6F)c6nc(c(-c7cccc(S(=O)(=O)[O-])c7F)c7ccc4[nH]7)C=C6)C=C5)cc3)CC2)CCC[NH2+]C1
REMARK SMILES IDX 14 1 13 2 12 3 10 4 11 5 9 7 8 8 3 9 4 10 5 11 6 12 83 13
REMARK SMILES IDX 7 14 82 15 2 16 1 17 84 18 88 19 85 20 87 21 86 22 15 25
REMARK SMILES IDX 16 26 17 27 18 29 19 30 20 31 81 32 21 33 80 34 22 35 23 36
REMARK SMILES IDX 24 37 74 38 25 39 79 40 73 41 75 42 26 43 78 44 72 45 71 46
REMARK SMILES IDX 27 48 59 49 39 50 58 51 40 52 43 53 57 54 76 55 41 56 42 57
REMARK SMILES IDX 56 59 77 60 44 61 28 62 29 63 37 64 30 65 32 66 38 67 31 68
REMARK SMILES IDX 33 69 34 70 35 71 36 72 60 73 61 74 69 75 62 76 64 77 70 78
REMARK SMILES IDX 63 79 65 80 66 81 67 82 68 83 45 84 46 85 54 86 47 87 49 88
REMARK SMILES IDX 55 89 48 90 50 91 51 92 52 93 53 94
REMARK H PARENT 12 6 87 23 87 24 16 28 75 47 43 58
REMARK Flexibility Score: inf
ROOT
ATOM      1  C   UNL A   1      33.358  27.672  26.529  1.00  0.00     0.042 C 
ENDROOT
BRANCH   1   2
ATOM      2  C   UNL A   1      31.837  27.854  26.606  1.00  0.00     0.117 C 
BRANCH   2   3
ATOM      3  N   UNL A   1      31.109  26.605  26.803  1.00  0.00    -0.356 N 
ATOM      4  C   UNL A   1      30.354  25.839  25.965  1.00  0.00     0.220 C 
ATOM      5  O   UNL A   1      29.910  24.775  26.405  1.00  0.00    -0.275 OA
ATOM      6  H   UNL A   1      31.177  26.245  27.717  1.00  0.00     0.163 HD
BRANCH   4   7
ATOM      7  C   UNL A   1      30.050  26.262  24.537  1.00  0.00     0.103 C 
BRANCH   7   8
ATOM      8  C   UNL A   1      30.850  25.472  23.470  1.00  0.00     0.002 C 
ATOM      9  C   UNL A   1      33.911  22.703  24.187  1.00  0.00     0.234 C 
ATOM     10  O   UNL A   1      34.003  21.554  23.743  1.00  0.00    -0.274 OA
ATOM     11  N   UNL A   1      33.018  23.582  23.609  1.00  0.00    -0.342 N 
ATOM     12  C   UNL A   1      31.749  23.081  23.110  1.00  0.00     0.120 C 
ATOM     13  C   UNL A   1      33.367  24.887  23.105  1.00  0.00     0.120 C 
ATOM     14  C   UNL A   1      30.621  23.956  23.656  1.00  0.00     0.026 C 
ATOM     15  C   UNL A   1      32.324  25.890  23.550  1.00  0.00     0.026 C 
BRANCH   9  16
ATOM     16  C   UNL A   1      34.748  23.161  25.422  1.00  0.00     0.095 C 
ATOM     17  C   UNL A   1      35.961  23.981  24.945  1.00  0.00     0.028 C 
ATOM     18  C   UNL A   1      33.999  23.966  26.512  1.00  0.00     0.028 C 
ATOM     19  C   UNL A   1      35.236  21.855  26.115  1.00  0.00     0.277 C 
ATOM     20  C   UNL A   1      32.889  23.163  27.183  1.00  0.00     0.063 C 
ATOM     21  N   UNL A   1      34.128  21.082  26.705  1.00  0.00    -0.345 N 
ATOM     22  C   UNL A   1      33.401  21.830  27.719  1.00  0.00     0.260 C 
ATOM     23  H   UNL A   1      33.479  20.822  25.962  1.00  0.00     0.346 HD
ATOM     24  H   UNL A   1      34.531  20.260  27.156  1.00  0.00     0.346 HD
ENDBRANCH   9  16
ENDBRANCH   7   8
ENDBRANCH   4   7
ENDBRANCH   2   3
ENDBRANCH   1   2
BRANCH   1  25
ATOM     25  C   UNL A   1      34.107  28.791  25.818  1.00  0.00     0.118 C 
BRANCH  25  26
ATOM     26  N   UNL A   1      33.843  30.081  26.428  1.00  0.00    -0.352 N 
ATOM     27  C   UNL A   1      34.456  30.691  27.497  1.00  0.00     0.251 C 
ATOM     28  H   UNL A   1      33.116  30.598  26.012  1.00  0.00     0.163 HD
ATOM     29  O   UNL A   1      33.900  31.656  28.019  1.00  0.00    -0.269 OA
BRANCH  27  30
ATOM     30  C   UNL A   1      35.757  30.212  28.034  1.00  0.00     0.039 A 
ATOM     31  C   UNL A   1      36.908  30.393  27.258  1.00  0.00     0.014 A 
ATOM     32  C   UNL A   1      35.853  29.518  29.243  1.00  0.00     0.014 A 
ATOM     33  C   UNL A   1      38.144  29.911  27.704  1.00  0.00     0.010 A 
ATOM     34  C   UNL A   1      37.098  29.106  29.724  1.00  0.00     0.010 A 
ATOM     35  C   UNL A   1      38.257  29.276  28.952  1.00  0.00    -0.014 A 
BRANCH  35  36
ATOM     36  C   UNL A   1      39.570  28.773  29.445  1.00  0.00     0.031 A 
ATOM     37  C   UNL A   1      40.288  29.473  30.571  1.00  0.00     0.074 A 
ATOM     38  C   UNL A   1      40.152  27.717  28.841  1.00  0.00     0.049 A 
ATOM     39  N   UNL A   1      41.445  29.188  31.116  1.00  0.00    -0.248 NA
ATOM     40  C   UNL A   1      39.637  30.662  31.145  1.00  0.00     0.031 C 
ATOM     41  C   UNL A   1      39.606  26.994  27.691  1.00  0.00     0.029 A 
ATOM     42  N   UNL A   1      41.342  27.081  29.097  1.00  0.00    -0.354 N 
ATOM     43  C   UNL A   1      41.675  30.177  32.066  1.00  0.00     0.074 A 
ATOM     44  C   UNL A   1      40.554  31.089  32.002  1.00  0.00     0.031 C 
ATOM     45  C   UNL A   1      40.454  26.013  27.344  1.00  0.00     0.029 A 
ATOM     46  C   UNL A   1      41.614  26.047  28.231  1.00  0.00     0.049 A 
ATOM     47  H   UNL A   1      41.943  27.339  29.833  1.00  0.00     0.167 HD
ATOM     48  C   UNL A   1      42.707  30.300  32.936  1.00  0.00     0.034 A 
ATOM     49  C   UNL A   1      42.675  25.219  28.156  1.00  0.00     0.034 A 
ATOM     50  C   UNL A   1      43.795  29.366  33.040  1.00  0.00     0.049 A 
ATOM     51  C   UNL A   1      43.782  25.346  29.168  1.00  0.00     0.074 A 
ATOM     52  C   UNL A   1      44.835  29.354  33.954  1.00  0.00     0.029 A 
ATOM     53  N   UNL A   1      43.990  28.281  32.200  1.00  0.00    -0.354 N 
ATOM     54  N   UNL A   1      43.895  26.187  30.166  1.00  0.00    -0.248 NA
ATOM     55  C   UNL A   1      44.890  24.385  29.064  1.00  0.00     0.031 C 
ATOM     56  C   UNL A   1      45.668  28.269  33.658  1.00  0.00     0.029 A 
ATOM     57  C   UNL A   1      45.137  27.596  32.570  1.00  0.00     0.049 A 
ATOM     58  H   UNL A   1      43.402  28.033  31.453  1.00  0.00     0.167 HD
ATOM     59  C   UNL A   1      45.067  25.838  30.828  1.00  0.00     0.074 A 
ATOM     60  C   UNL A   1      45.614  24.692  30.133  1.00  0.00     0.031 C 
ATOM     61  C   UNL A   1      45.647  26.425  31.904  1.00  0.00     0.034 A 
BRANCH  48  62
ATOM     62  C   UNL A   1      42.676  31.460  33.899  1.00  0.00     0.023 A 
ATOM     63  C   UNL A   1      43.255  32.689  33.520  1.00  0.00     0.012 A 
ATOM     64  C   UNL A   1      42.024  31.360  35.144  1.00  0.00     0.148 A 
ATOM     65  C   UNL A   1      43.218  33.789  34.377  1.00  0.00     0.002 A 
ATOM     66  C   UNL A   1      41.953  32.473  35.975  1.00  0.00     0.091 A 
ATOM     67  F   UNL A   1      41.496  30.180  35.496  1.00  0.00    -0.205 F 
ATOM     68  C   UNL A   1      42.558  33.683  35.598  1.00  0.00     0.022 A 
BRANCH  66  69
ATOM     69  S   UNL A   1      41.061  32.462  37.535  1.00  0.00     0.127 S 
ATOM     70  O   UNL A   1      41.899  31.582  38.347  1.00  0.00    -0.237 OA
ATOM     71  O   UNL A   1      41.102  33.873  37.924  1.00  0.00    -0.237 OA
ATOM     72  O   UNL A   1      39.730  31.957  37.231  1.00  0.00    -0.744 OA
ENDBRANCH  66  69
ENDBRANCH  48  62
BRANCH  49  73
ATOM     73  C   UNL A   1      42.706  24.145  27.123  1.00  0.00     0.023 A 
ATOM     74  C   UNL A   1      43.425  24.353  25.930  1.00  0.00     0.012 A 
ATOM     75  C   UNL A   1      42.056  22.914  27.328  1.00  0.00     0.148 A 
ATOM     76  C   UNL A   1      43.474  23.365  24.947  1.00  0.00     0.002 A 
ATOM     77  C   UNL A   1      42.156  21.912  26.369  1.00  0.00     0.091 A 
ATOM     78  F   UNL A   1      41.363  22.741  28.463  1.00  0.00    -0.205 F 
ATOM     79  C   UNL A   1      42.850  22.141  25.170  1.00  0.00     0.022 A 
BRANCH  77  80
ATOM     80  S   UNL A   1      41.502  20.261  26.636  1.00  0.00     0.127 S 
ATOM     81  O   UNL A   1      40.078  20.528  26.812  1.00  0.00    -0.237 OA
ATOM     82  O   UNL A   1      41.857  19.589  25.386  1.00  0.00    -0.237 OA
ATOM     83  O   UNL A   1      42.206  19.751  27.808  1.00  0.00    -0.744 OA
ENDBRANCH  77  80
ENDBRANCH  49  73
BRANCH  61  84
ATOM     84  C   UNL A   1      46.931  25.829  32.417  1.00  0.00     0.023 A 
ATOM     85  C   UNL A   1      48.164  26.295  31.918  1.00  0.00     0.012 A 
ATOM     86  C   UNL A   1      46.921  24.857  33.437  1.00  0.00     0.148 A 
ATOM     87  C   UNL A   1      49.365  25.780  32.403  1.00  0.00     0.002 A 
ATOM     88  C   UNL A   1      48.123  24.382  33.947  1.00  0.00     0.091 A 
ATOM     89  F   UNL A   1      45.739  24.410  33.884  1.00  0.00    -0.205 F 
ATOM     90  C   UNL A   1      49.346  24.833  33.425  1.00  0.00     0.022 A 
BRANCH  88  91
ATOM     91  S   UNL A   1      48.191  23.231  35.326  1.00  0.00     0.127 S 
ATOM     92  O   UNL A   1      49.630  23.007  35.457  1.00  0.00    -0.237 OA
ATOM     93  O   UNL A   1      47.595  24.008  36.413  1.00  0.00    -0.237 OA
ATOM     94  O   UNL A   1      47.410  22.072  34.916  1.00  0.00    -0.744 OA
ENDBRANCH  88  91
ENDBRANCH  61  84
ENDBRANCH  35  36
ENDBRANCH  27  30
ENDBRANCH  25  26
ENDBRANCH   1  25
TORSDOF 15
ENDMDL
MODEL 2
REMARK VINA RESULT:     -11.7      1.053      1.732
REMARK SMILES C[C@]1(C(=O)N2CCC(CC(=O)NCCCNC(=O)c3ccc(-c4c5nc(c(-c6cccc(S(=O)(=O)[O-])c6F)c6ccc([nH]6)c(-c6cccc(S(=O)(=O)[O-])c6F)c6nc(c(-c7cccc(S(=O)(=O)[O-])c7F)c7ccc4[nH]7)C=C6)C=C5)cc3)CC2)CCC[NH2+]C1
REMARK SMILES IDX 14 1 13 2 12 3 10 4 11 5 9 7 8 8 3 9 4 10 5 11 6 12 83 13
REMARK SMILES IDX 7 14 82 15 2 16 1 17 84 18 88 19 85 20 87 21 86 22 15 25
REMARK SMILES IDX 16 26 17 27 18 29 19 30 20 31 81 32 21 33 80 34 22 35 23 36
REMARK SMILES IDX 24 37 74 38 25 39 79 40 73 41 75 42 26 43 78 44 72 45 71 46
REMARK SMILES IDX 27 48 59 49 39 50 58 51 40 52 43 53 57 54 76 55 41 56 42 57
REMARK SMILES IDX 56 59 77 60 44 61 28 62 29 63 37 64 30 65 32 66 38 67 31 68
REMARK SMILES IDX 33 69 34 70 35 71 36 72 60 73 61 74 69 75 62 76 64 77 70 78
REMARK SMILES IDX 63 79 65 80 66 81 67 82 68 83 45 84 46 85 54 86 47 87 49 88
REMARK SMILES IDX 55 89 48 90 50 91 51 92 52 93 53 94
REMARK H PARENT 12 6 87 23 87 24 16 28 75 47 43 58
REMARK Flexibility Score: inf
ROOT
ATOM      1  C   UNL A   1      34.021  28.117  26.043  1.00  0.00     0.042 C 
ENDROOT
BRANCH   1   2
ATOM      2  C   UNL A   1      33.197  28.155  24.750  1.00  0.00     0.117 C 
BRANCH   2   3
ATOM      3  N   UNL A   1      33.389  26.984  23.902  1.00  0.00    -0.356 N 
ATOM      4  C   UNL A   1      32.546  25.986  23.507  1.00  0.00     0.220 C 
ATOM      5  O   UNL A   1      32.983  25.148  22.713  1.00  0.00    -0.275 OA
ATOM      6  H   UNL A   1      34.303  26.897  23.546  1.00  0.00     0.163 HD
BRANCH   4   7
ATOM      7  C   UNL A   1      31.119  25.886  24.016  1.00  0.00     0.103 C 
BRANCH   7   8
ATOM      8  C   UNL A   1      30.922  24.804  25.109  1.00  0.00     0.002 C 
ATOM      9  C   UNL A   1      33.753  21.983  26.367  1.00  0.00     0.234 C 
ATOM     10  O   UNL A   1      34.110  21.742  27.524  1.00  0.00    -0.274 OA
ATOM     11  N   UNL A   1      32.597  22.706  26.152  1.00  0.00    -0.342 N 
ATOM     12  C   UNL A   1      32.248  23.776  27.069  1.00  0.00     0.120 C 
ATOM     13  C   UNL A   1      31.501  22.268  25.324  1.00  0.00     0.120 C 
ATOM     14  C   UNL A   1      31.921  25.035  26.264  1.00  0.00     0.026 C 
ATOM     15  C   UNL A   1      31.037  23.419  24.458  1.00  0.00     0.026 C 
BRANCH   9  16
ATOM     16  C   UNL A   1      34.611  21.528  25.146  1.00  0.00     0.095 C 
ATOM     17  C   UNL A   1      34.009  20.246  24.542  1.00  0.00     0.028 C 
ATOM     18  C   UNL A   1      34.817  22.563  24.014  1.00  0.00     0.028 C 
ATOM     19  C   UNL A   1      36.031  21.226  25.711  1.00  0.00     0.277 C 
ATOM     20  C   UNL A   1      35.582  23.801  24.474  1.00  0.00     0.063 C 
ATOM     21  N   UNL A   1      36.715  22.439  26.194  1.00  0.00    -0.345 N 
ATOM     22  C   UNL A   1      36.900  23.432  25.146  1.00  0.00     0.260 C 
ATOM     23  H   UNL A   1      36.158  22.853  26.942  1.00  0.00     0.346 HD
ATOM     24  H   UNL A   1      37.640  22.161  26.523  1.00  0.00     0.346 HD
ENDBRANCH   9  16
ENDBRANCH   7   8
ENDBRANCH   4   7
ENDBRANCH   2   3
ENDBRANCH   1   2
BRANCH   1  25
ATOM     25  C   UNL A   1      33.305  28.637  27.282  1.00  0.00     0.118 C 
BRANCH  25  26
ATOM     26  N   UNL A   1      33.372  30.085  27.369  1.00  0.00    -0.352 N 
ATOM     27  C   UNL A   1      34.322  30.887  27.954  1.00  0.00     0.251 C 
ATOM     28  H   UNL A   1      32.624  30.564  26.945  1.00  0.00     0.163 HD
ATOM     29  O   UNL A   1      34.050  32.070  28.153  1.00  0.00    -0.269 OA
BRANCH  27  30
ATOM     30  C   UNL A   1      35.656  30.363  28.352  1.00  0.00     0.039 A 
ATOM     31  C   UNL A   1      35.774  29.698  29.578  1.00  0.00     0.014 A 
ATOM     32  C   UNL A   1      36.803  30.583  27.584  1.00  0.00     0.014 A 
ATOM     33  C   UNL A   1      37.021  29.233  30.013  1.00  0.00     0.010 A 
ATOM     34  C   UNL A   1      38.032  30.052  27.981  1.00  0.00     0.010 A 
ATOM     35  C   UNL A   1      38.163  29.390  29.211  1.00  0.00    -0.014 A 
BRANCH  35  36
ATOM     36  C   UNL A   1      39.492  28.886  29.656  1.00  0.00     0.031 A 
ATOM     37  C   UNL A   1      40.249  29.582  30.759  1.00  0.00     0.074 A 
ATOM     38  C   UNL A   1      40.052  27.832  29.029  1.00  0.00     0.049 A 
ATOM     39  N   UNL A   1      41.425  29.296  31.262  1.00  0.00    -0.248 NA
ATOM     40  C   UNL A   1      39.618  30.769  31.360  1.00  0.00     0.031 C 
ATOM     41  C   UNL A   1      39.467  27.113  27.897  1.00  0.00     0.029 A 
ATOM     42  N   UNL A   1      41.251  27.195  29.241  1.00  0.00    -0.354 N 
ATOM     43  C   UNL A   1      41.688  30.281  32.207  1.00  0.00     0.074 A 
ATOM     44  C   UNL A   1      40.565  31.194  32.186  1.00  0.00     0.031 C 
ATOM     45  C   UNL A   1      40.302  26.134  27.517  1.00  0.00     0.029 A 
ATOM     46  C   UNL A   1      41.492  26.165  28.362  1.00  0.00     0.049 A 
ATOM     47  H   UNL A   1      41.878  27.451  29.956  1.00  0.00     0.167 HD
ATOM     48  C   UNL A   1      42.750  30.402  33.041  1.00  0.00     0.034 A 
ATOM     49  C   UNL A   1      42.550  25.337  28.247  1.00  0.00     0.034 A 
ATOM     50  C   UNL A   1      43.841  29.468  33.103  1.00  0.00     0.049 A 
ATOM     51  C   UNL A   1      43.692  25.461  29.220  1.00  0.00     0.074 A 
ATOM     52  C   UNL A   1      44.912  29.452  33.980  1.00  0.00     0.029 A 
ATOM     53  N   UNL A   1      44.007  28.385  32.253  1.00  0.00    -0.354 N 
ATOM     54  N   UNL A   1      43.840  26.299  30.216  1.00  0.00    -0.248 NA
ATOM     55  C   UNL A   1      44.796  24.500  29.074  1.00  0.00     0.031 C 
ATOM     56  C   UNL A   1      45.734  28.369  33.651  1.00  0.00     0.029 A 
ATOM     57  C   UNL A   1      45.166  27.700  32.580  1.00  0.00     0.049 A 
ATOM     58  H   UNL A   1      43.392  28.140  31.526  1.00  0.00     0.167 HD
ATOM     59  C   UNL A   1      45.034  25.947  30.836  1.00  0.00     0.074 A 
ATOM     60  C   UNL A   1      45.557  24.804  30.118  1.00  0.00     0.031 C 
ATOM     61  C   UNL A   1      45.652  26.531  31.892  1.00  0.00     0.034 A 
BRANCH  48  62
ATOM     62  C   UNL A   1      42.752  31.559  34.008  1.00  0.00     0.023 A 
ATOM     63  C   UNL A   1      43.281  32.801  33.600  1.00  0.00     0.012 A 
ATOM     64  C   UNL A   1      42.179  31.442  35.289  1.00  0.00     0.148 A 
ATOM     65  C   UNL A   1      43.272  33.897  34.461  1.00  0.00     0.002 A 
ATOM     66  C   UNL A   1      42.135  32.551  36.128  1.00  0.00     0.091 A 
ATOM     67  F   UNL A   1      41.699  30.250  35.669  1.00  0.00    -0.205 F 
ATOM     68  C   UNL A   1      42.691  33.774  35.720  1.00  0.00     0.022 A 
BRANCH  66  69
ATOM     69  S   UNL A   1      41.340  32.517  37.739  1.00  0.00     0.127 S 
ATOM     70  O   UNL A   1      41.431  33.919  38.142  1.00  0.00    -0.237 OA
ATOM     71  O   UNL A   1      39.988  32.066  37.406  1.00  0.00    -0.237 OA
ATOM     72  O   UNL A   1      42.110  31.580  38.545  1.00  0.00    -0.744 OA
ENDBRANCH  66  69
ENDBRANCH  48  62
BRANCH  49  73
ATOM     73  C   UNL A   1      42.545  24.267  27.210  1.00  0.00     0.023 A 
ATOM     74  C   UNL A   1      43.417  24.366  26.109  1.00  0.00     0.012 A 
ATOM     75  C   UNL A   1      41.707  23.142  27.324  1.00  0.00     0.148 A 
ATOM     76  C   UNL A   1      43.436  23.378  25.125  1.00  0.00     0.002 A 
ATOM     77  C   UNL A   1      41.771  22.133  26.369  1.00  0.00     0.091 A 
ATOM     78  F   UNL A   1      40.872  23.074  28.371  1.00  0.00    -0.205 F 
ATOM     79  C   UNL A   1      42.622  22.256  25.260  1.00  0.00     0.022 A 
BRANCH  77  80
ATOM     80  S   UNL A   1      40.863  20.594  26.539  1.00  0.00     0.127 S 
ATOM     81  O   UNL A   1      39.516  20.996  26.149  1.00  0.00    -0.237 OA
ATOM     82  O   UNL A   1      41.553  19.728  25.582  1.00  0.00    -0.237 OA
ATOM     83  O   UNL A   1      41.032  20.195  27.933  1.00  0.00    -0.744 OA
ENDBRANCH  77  80
ENDBRANCH  49  73
BRANCH  61  84
ATOM     84  C   UNL A   1      46.954  25.933  32.358  1.00  0.00     0.023 A 
ATOM     85  C   UNL A   1      48.168  26.402  31.819  1.00  0.00     0.012 A 
ATOM     86  C   UNL A   1      46.979  24.957  33.373  1.00  0.00     0.148 A 
ATOM     87  C   UNL A   1      49.386  25.886  32.260  1.00  0.00     0.002 A 
ATOM     88  C   UNL A   1      48.199  24.480  33.840  1.00  0.00     0.091 A 
ATOM     89  F   UNL A   1      45.813  24.507  33.859  1.00  0.00    -0.205 F 
ATOM     90  C   UNL A   1      49.402  24.934  33.277  1.00  0.00     0.022 A 
BRANCH  88  91
ATOM     91  S   UNL A   1      48.315  23.323  35.210  1.00  0.00     0.127 S 
ATOM     92  O   UNL A   1      49.762  23.168  35.347  1.00  0.00    -0.237 OA
ATOM     93  O   UNL A   1      47.676  24.062  36.299  1.00  0.00    -0.237 OA
ATOM     94  O   UNL A   1      47.592  22.132  34.787  1.00  0.00    -0.744 OA
ENDBRANCH  88  91
ENDBRANCH  61  84
ENDBRANCH  35  36
ENDBRANCH  27  30
ENDBRANCH  25  26
ENDBRANCH   1  25
TORSDOF 15
ENDMDL
MODEL 3
REMARK VINA RESULT:     -11.7      1.418      1.717
REMARK SMILES C[C@]1(C(=O)N2CCC(CC(=O)NCCCNC(=O)c3ccc(-c4c5nc(c(-c6cccc(S(=O)(=O)[O-])c6F)c6ccc([nH]6)c(-c6cccc(S(=O)(=O)[O-])c6F)c6nc(c(-c7cccc(S(=O)(=O)[O-])c7F)c7ccc4[nH]7)C=C6)C=C5)cc3)CC2)CCC[NH2+]C1
REMARK SMILES IDX 14 1 13 2 12 3 10 4 11 5 9 7 8 8 3 9 4 10 5 11 6 12 83 13
REMARK SMILES IDX 7 14 82 15 2 16 1 17 84 18 88 19 85 20 87 21 86 22 15 25
REMARK SMILES IDX 16 26 17 27 18 29 19 30 20 31 81 32 21 33 80 34 22 35 23 36
REMARK SMILES IDX 24 37 74 38 25 39 79 40 73 41 75 42 26 43 78 44 72 45 71 46
REMARK SMILES IDX 27 48 59 49 39 50 58 51 40 52 43 53 57 54 76 55 41 56 42 57
REMARK SMILES IDX 56 59 77 60 44 61 28 62 29 63 37 64 30 65 32 66 38 67 31 68
REMARK SMILES IDX 33 69 34 70 35 71 36 72 60 73 61 74 69 75 62 76 64 77 70 78
REMARK SMILES IDX 63 79 65 80 66 81 67 82 68 83 45 84 46 85 54 86 47 87 49 88
REMARK SMILES IDX 55 89 48 90 50 91 51 92 52 93 53 94
REMARK H PARENT 12 6 87 23 87 24 16 28 75 47 43 58
REMARK Flexibility Score: inf
ROOT
ATOM      1  C   UNL A   1      33.117  27.870  26.681  1.00  0.00     0.042 C 
ENDROOT
BRANCH   1   2
ATOM      2  C   UNL A   1      31.618  27.911  26.359  1.00  0.00     0.117 C 
BRANCH   2   3
ATOM      3  N   UNL A   1      31.330  28.254  24.970  1.00  0.00    -0.356 N 
ATOM      4  C   UNL A   1      30.755  27.553  23.950  1.00  0.00     0.220 C 
ATOM      5  O   UNL A   1      30.577  28.141  22.880  1.00  0.00    -0.275 OA
ATOM      6  H   UNL A   1      31.604  29.166  24.720  1.00  0.00     0.163 HD
BRANCH   4   7
ATOM      7  C   UNL A   1      30.343  26.098  24.101  1.00  0.00     0.103 C 
BRANCH   7   8
ATOM      8  C   UNL A   1      31.116  25.133  23.167  1.00  0.00     0.002 C 
ATOM      9  C   UNL A   1      33.911  22.236  24.328  1.00  0.00     0.234 C 
ATOM     10  O   UNL A   1      33.926  21.040  24.018  1.00  0.00    -0.274 OA
ATOM     11  N   UNL A   1      33.116  23.109  23.615  1.00  0.00    -0.342 N 
ATOM     12  C   UNL A   1      31.830  22.654  23.115  1.00  0.00     0.120 C 
ATOM     13  C   UNL A   1      33.589  24.318  22.987  1.00  0.00     0.120 C 
ATOM     14  C   UNL A   1      30.757  23.670  23.507  1.00  0.00     0.026 C 
ATOM     15  C   UNL A   1      32.616  25.442  23.269  1.00  0.00     0.026 C 
BRANCH   9  16
ATOM     16  C   UNL A   1      34.734  22.765  25.543  1.00  0.00     0.095 C 
ATOM     17  C   UNL A   1      36.105  23.269  25.055  1.00  0.00     0.028 C 
ATOM     18  C   UNL A   1      34.075  23.869  26.404  1.00  0.00     0.028 C 
ATOM     19  C   UNL A   1      34.930  21.546  26.490  1.00  0.00     0.277 C 
ATOM     20  C   UNL A   1      32.795  23.400  27.091  1.00  0.00     0.063 C 
ATOM     21  N   UNL A   1      33.665  21.089  27.092  1.00  0.00    -0.345 N 
ATOM     22  C   UNL A   1      33.020  22.121  27.890  1.00  0.00     0.260 C 
ATOM     23  H   UNL A   1      33.029  20.810  26.344  1.00  0.00     0.346 HD
ATOM     24  H   UNL A   1      33.881  20.309  27.712  1.00  0.00     0.346 HD
ENDBRANCH   9  16
ENDBRANCH   7   8
ENDBRANCH   4   7
ENDBRANCH   2   3
ENDBRANCH   1   2
BRANCH   1  25
ATOM     25  C   UNL A   1      33.954  28.943  25.997  1.00  0.00     0.118 C 
BRANCH  25  26
ATOM     26  N   UNL A   1      33.783  30.238  26.630  1.00  0.00    -0.352 N 
ATOM     27  C   UNL A   1      34.493  30.816  27.655  1.00  0.00     0.251 C 
ATOM     28  H   UNL A   1      33.048  30.784  26.271  1.00  0.00     0.163 HD
ATOM     29  O   UNL A   1      34.013  31.797  28.221  1.00  0.00    -0.269 OA
BRANCH  27  30
ATOM     30  C   UNL A   1      35.811  30.285  28.095  1.00  0.00     0.039 A 
ATOM     31  C   UNL A   1      35.882  29.598  29.312  1.00  0.00     0.014 A 
ATOM     32  C   UNL A   1      36.986  30.521  27.376  1.00  0.00     0.014 A 
ATOM     33  C   UNL A   1      37.112  29.126  29.787  1.00  0.00     0.010 A 
ATOM     34  C   UNL A   1      38.200  29.984  27.810  1.00  0.00     0.010 A 
ATOM     35  C   UNL A   1      38.284  29.299  29.032  1.00  0.00    -0.014 A 
BRANCH  35  36
ATOM     36  C   UNL A   1      39.596  28.788  29.519  1.00  0.00     0.031 A 
ATOM     37  C   UNL A   1      40.325  29.484  30.641  1.00  0.00     0.074 A 
ATOM     38  C   UNL A   1      40.168  27.727  28.914  1.00  0.00     0.049 A 
ATOM     39  N   UNL A   1      41.483  29.192  31.179  1.00  0.00    -0.248 NA
ATOM     40  C   UNL A   1      39.685  30.678  31.217  1.00  0.00     0.031 C 
ATOM     41  C   UNL A   1      39.611  27.007  27.767  1.00  0.00     0.029 A 
ATOM     42  N   UNL A   1      41.355  27.083  29.164  1.00  0.00    -0.354 N 
ATOM     43  C   UNL A   1      41.725  30.179  32.128  1.00  0.00     0.074 A 
ATOM     44  C   UNL A   1      40.609  31.099  32.069  1.00  0.00     0.031 C 
ATOM     45  C   UNL A   1      40.450  26.020  27.416  1.00  0.00     0.029 A 
ATOM     46  C   UNL A   1      41.615  26.047  28.297  1.00  0.00     0.049 A 
ATOM     47  H   UNL A   1      41.962  27.338  29.895  1.00  0.00     0.167 HD
ATOM     48  C   UNL A   1      42.762  30.297  32.992  1.00  0.00     0.034 A 
ATOM     49  C   UNL A   1      42.670  25.212  28.217  1.00  0.00     0.034 A 
ATOM     50  C   UNL A   1      43.844  29.355  33.092  1.00  0.00     0.049 A 
ATOM     51  C   UNL A   1      43.783  25.331  29.223  1.00  0.00     0.074 A 
ATOM     52  C   UNL A   1      44.889  29.336  34.000  1.00  0.00     0.029 A 
ATOM     53  N   UNL A   1      44.028  28.267  32.251  1.00  0.00    -0.354 N 
ATOM     54  N   UNL A   1      43.907  26.173  30.220  1.00  0.00    -0.248 NA
ATOM     55  C   UNL A   1      44.884  24.362  29.114  1.00  0.00     0.031 C 
ATOM     56  C   UNL A   1      45.713  28.246  33.700  1.00  0.00     0.029 A 
ATOM     57  C   UNL A   1      45.172  27.575  32.615  1.00  0.00     0.049 A 
ATOM     58  H   UNL A   1      43.433  28.023  31.507  1.00  0.00     0.167 HD
ATOM     59  C   UNL A   1      45.080  25.816  30.876  1.00  0.00     0.074 A 
ATOM     60  C   UNL A   1      45.615  24.666  30.178  1.00  0.00     0.031 C 
ATOM     61  C   UNL A   1      45.670  26.401  31.948  1.00  0.00     0.034 A 
BRANCH  48  62
ATOM     62  C   UNL A   1      42.744  31.458  33.954  1.00  0.00     0.023 A 
ATOM     63  C   UNL A   1      43.333  32.681  33.572  1.00  0.00     0.012 A 
ATOM     64  C   UNL A   1      42.095  31.364  35.201  1.00  0.00     0.148 A 
ATOM     65  C   UNL A   1      43.307  33.782  34.428  1.00  0.00     0.002 A 
ATOM     66  C   UNL A   1      42.037  32.478  36.031  1.00  0.00     0.091 A 
ATOM     67  F   UNL A   1      41.559  30.189  35.556  1.00  0.00    -0.205 F 
ATOM     68  C   UNL A   1      42.651  33.683  35.652  1.00  0.00     0.022 A 
BRANCH  66  69
ATOM     69  S   UNL A   1      41.150  32.477  37.594  1.00  0.00     0.127 S 
ATOM     70  O   UNL A   1      41.994  31.606  38.411  1.00  0.00    -0.237 OA
ATOM     71  O   UNL A   1      41.187  33.890  37.972  1.00  0.00    -0.237 OA
ATOM     72  O   UNL A   1      39.820  31.964  37.298  1.00  0.00    -0.744 OA
ENDBRANCH  66  69
ENDBRANCH  48  62
BRANCH  49  73
ATOM     73  C   UNL A   1      42.688  24.136  27.185  1.00  0.00     0.023 A 
ATOM     74  C   UNL A   1      43.387  24.345  25.981  1.00  0.00     0.012 A 
ATOM     75  C   UNL A   1      42.045  22.903  27.402  1.00  0.00     0.148 A 
ATOM     76  C   UNL A   1      43.423  23.356  24.998  1.00  0.00     0.002 A 
ATOM     77  C   UNL A   1      42.133  21.900  26.442  1.00  0.00     0.091 A 
ATOM     78  F   UNL A   1      41.371  22.730  28.547  1.00  0.00    -0.205 F 
ATOM     79  C   UNL A   1      42.807  22.130  25.233  1.00  0.00     0.022 A 
BRANCH  77  80
ATOM     80  S   UNL A   1      41.489  20.248  26.722  1.00  0.00     0.127 S 
ATOM     81  O   UNL A   1      40.064  20.508  26.898  1.00  0.00    -0.237 OA
ATOM     82  O   UNL A   1      41.846  19.570  25.475  1.00  0.00    -0.237 OA
ATOM     83  O   UNL A   1      42.197  19.749  27.896  1.00  0.00    -0.744 OA
ENDBRANCH  77  80
ENDBRANCH  49  73
BRANCH  61  84
ATOM     84  C   UNL A   1      46.953  25.796  32.454  1.00  0.00     0.023 A 
ATOM     85  C   UNL A   1      46.926  24.937  33.570  1.00  0.00     0.012 A 
ATOM     86  C   UNL A   1      48.174  26.025  31.788  1.00  0.00     0.148 A 
ATOM     87  C   UNL A   1      48.097  24.340  34.035  1.00  0.00     0.002 A 
ATOM     88  C   UNL A   1      49.329  25.391  32.229  1.00  0.00     0.091 A 
ATOM     89  F   UNL A   1      48.184  26.862  30.741  1.00  0.00    -0.205 F 
ATOM     90  C   UNL A   1      49.295  24.558  33.359  1.00  0.00     0.022 A 
BRANCH  88  91
ATOM     91  S   UNL A   1      50.896  25.541  31.362  1.00  0.00     0.127 S 
ATOM     92  O   UNL A   1      51.733  24.590  32.092  1.00  0.00    -0.237 OA
ATOM     93  O   UNL A   1      50.544  25.125  30.005  1.00  0.00    -0.237 OA
ATOM     94  O   UNL A   1      51.283  26.940  31.481  1.00  0.00    -0.744 OA
ENDBRANCH  88  91
ENDBRANCH  61  84
ENDBRANCH  35  36
ENDBRANCH  27  30
ENDBRANCH  25  26
ENDBRANCH   1  25
TORSDOF 15
ENDMDL
