MODEL 1
REMARK VINA RESULT:     -11.9      0.000      0.000
REMARK SMILES CCc1ccc2c(c1)C=C(C(=O)NCCCNC(=O)c1ccc(-c3c4nc(c(-c5cccc(S(=O)(=O)[O-])c5F)c5ccc([nH]5)c(-c5cccc(S(=O)(=O)[O-])c5F)c5nc(c(-c6cccc(S(=O)(=O)[O-])c6F)c6ccc3[nH]6)C=C5)C=C4)cc1)[C@H](C(F)(F)F)O2
REMARK SMILES IDX 16 1 15 2 14 3 13 4 11 5 12 6 10 8 3 9 4 10 8 11 5 12 7 13
REMARK SMILES IDX 6 14 9 15 88 16 83 17 2 18 1 19 84 20 85 21 86 22 87 23
REMARK SMILES IDX 17 24 18 25 19 27 20 28 21 29 82 30 22 31 81 32 23 33 24 34
REMARK SMILES IDX 25 35 75 36 26 37 80 38 74 39 76 40 27 41 79 42 73 43 72 44
REMARK SMILES IDX 28 46 60 47 40 48 59 49 41 50 44 51 58 52 77 53 42 54 43 55
REMARK SMILES IDX 57 57 78 58 45 59 29 60 30 61 38 62 31 63 33 64 39 65 32 66
REMARK SMILES IDX 34 67 35 68 36 69 37 70 61 71 62 72 70 73 63 74 65 75 71 76
REMARK SMILES IDX 64 77 66 78 67 79 68 80 69 81 46 82 47 83 55 84 48 85 50 86
REMARK SMILES IDX 56 87 49 88 51 89 52 90 53 91 54 92
REMARK H PARENT 13 7 17 26 76 45 44 56
REMARK Flexibility Score: inf
ROOT
ATOM      1  C   UNL A   1      33.947  28.912  26.108  1.00  0.00     0.118 C 
ENDROOT
BRANCH   1   2
ATOM      2  C   UNL A   1      33.078  27.949  26.916  1.00  0.00     0.042 C 
BRANCH   2   3
ATOM      3  C   UNL A   1      31.672  27.761  26.337  1.00  0.00     0.118 C 
BRANCH   3   4
ATOM      4  N   UNL A   1      31.099  26.492  26.764  1.00  0.00    -0.352 N 
ATOM      5  C   UNL A   1      31.342  25.200  26.424  1.00  0.00     0.251 C 
ATOM      6  O   UNL A   1      30.605  24.336  26.895  1.00  0.00    -0.270 OA
ATOM      7  H   UNL A   1      30.387  26.592  27.438  1.00  0.00     0.163 HD
BRANCH   5   8
ATOM      8  C   UNL A   1      32.497  24.784  25.587  1.00  0.00     0.067 C 
ATOM      9  C   UNL A   1      36.846  22.771  24.912  1.00  0.00    -0.047 A 
ATOM     10  C   UNL A   1      36.641  22.810  23.528  1.00  0.00     0.007 A 
ATOM     11  C   UNL A   1      35.874  23.319  25.759  1.00  0.00     0.015 A 
ATOM     12  C   UNL A   1      35.467  23.355  23.004  1.00  0.00     0.047 A 
ATOM     13  C   UNL A   1      34.694  23.861  25.234  1.00  0.00     0.017 A 
ATOM     14  C   UNL A   1      34.493  23.871  23.858  1.00  0.00     0.128 A 
ATOM     15  C   UNL A   1      33.636  24.319  26.119  1.00  0.00     0.025 C 
ATOM     16  O   UNL A   1      33.341  24.305  23.275  1.00  0.00    -0.475 OA
ATOM     17  C   UNL A   1      32.399  25.067  24.090  1.00  0.00     0.314 C 
BRANCH   9  18
ATOM     18  C   UNL A   1      38.092  22.151  25.491  1.00  0.00     0.032 C 
ATOM     19  C   UNL A   1      38.768  23.063  26.499  1.00  0.00     0.009 C 
ENDBRANCH   9  18
BRANCH  17  20
ATOM     20  C   UNL A   1      31.008  24.889  23.438  1.00  0.00     0.429 C 
ATOM     21  F   UNL A   1      30.422  23.711  23.744  1.00  0.00    -0.167 F 
ATOM     22  F   UNL A   1      30.140  25.843  23.879  1.00  0.00    -0.167 F 
ATOM     23  F   UNL A   1      31.050  25.005  22.089  1.00  0.00    -0.167 F 
ENDBRANCH  17  20
ENDBRANCH   5   8
ENDBRANCH   3   4
ENDBRANCH   2   3
ENDBRANCH   1   2
BRANCH   1  24
ATOM     24  N   UNL A   1      33.875  30.272  26.626  1.00  0.00    -0.352 N 
ATOM     25  C   UNL A   1      34.629  30.888  27.594  1.00  0.00     0.251 C 
ATOM     26  H   UNL A   1      33.179  30.836  26.218  1.00  0.00     0.163 HD
ATOM     27  O   UNL A   1      34.255  31.967  28.047  1.00  0.00    -0.269 OA
BRANCH  25  28
ATOM     28  C   UNL A   1      35.874  30.267  28.097  1.00  0.00     0.039 A 
ATOM     29  C   UNL A   1      37.025  30.330  27.305  1.00  0.00     0.014 A 
ATOM     30  C   UNL A   1      35.903  29.585  29.317  1.00  0.00     0.014 A 
ATOM     31  C   UNL A   1      38.216  29.756  27.759  1.00  0.00     0.010 A 
ATOM     32  C   UNL A   1      37.106  29.067  29.796  1.00  0.00     0.010 A 
ATOM     33  C   UNL A   1      38.274  29.145  29.022  1.00  0.00    -0.014 A 
BRANCH  33  34
ATOM     34  C   UNL A   1      39.552  28.615  29.564  1.00  0.00     0.031 A 
ATOM     35  C   UNL A   1      40.268  29.332  30.675  1.00  0.00     0.074 A 
ATOM     36  C   UNL A   1      40.118  27.540  28.982  1.00  0.00     0.049 A 
ATOM     37  N   UNL A   1      41.424  29.054  31.224  1.00  0.00    -0.248 NA
ATOM     38  C   UNL A   1      39.617  30.531  31.226  1.00  0.00     0.031 C 
ATOM     39  C   UNL A   1      39.561  26.808  27.842  1.00  0.00     0.029 A 
ATOM     40  N   UNL A   1      41.303  26.898  29.241  1.00  0.00    -0.354 N 
ATOM     41  C   UNL A   1      41.658  30.061  32.152  1.00  0.00     0.074 A 
ATOM     42  C   UNL A   1      40.534  30.971  32.076  1.00  0.00     0.031 C 
ATOM     43  C   UNL A   1      40.405  25.823  27.497  1.00  0.00     0.029 A 
ATOM     44  C   UNL A   1      41.575  25.870  28.369  1.00  0.00     0.049 A 
ATOM     45  H   UNL A   1      41.901  27.149  29.982  1.00  0.00     0.167 HD
ATOM     46  C   UNL A   1      42.698  30.204  33.008  1.00  0.00     0.034 A 
ATOM     47  C   UNL A   1      42.649  25.063  28.270  1.00  0.00     0.034 A 
ATOM     48  C   UNL A   1      43.791  29.272  33.110  1.00  0.00     0.049 A 
ATOM     49  C   UNL A   1      43.771  25.214  29.259  1.00  0.00     0.074 A 
ATOM     50  C   UNL A   1      44.835  29.267  34.018  1.00  0.00     0.029 A 
ATOM     51  N   UNL A   1      43.988  28.189  32.268  1.00  0.00    -0.354 N 
ATOM     52  N   UNL A   1      43.888  26.067  30.248  1.00  0.00    -0.248 NA
ATOM     53  C   UNL A   1      44.894  24.272  29.142  1.00  0.00     0.031 C 
ATOM     54  C   UNL A   1      45.678  28.195  33.709  1.00  0.00     0.029 A 
ATOM     55  C   UNL A   1      45.147  27.518  32.623  1.00  0.00     0.049 A 
ATOM     56  H   UNL A   1      43.393  27.933  31.527  1.00  0.00     0.167 HD
ATOM     57  C   UNL A   1      45.081  25.749  30.888  1.00  0.00     0.074 A 
ATOM     58  C   UNL A   1      45.637  24.608  30.189  1.00  0.00     0.031 C 
ATOM     59  C   UNL A   1      45.669  26.358  31.948  1.00  0.00     0.034 A 
BRANCH  46  60
ATOM     60  C   UNL A   1      42.681  31.387  33.942  1.00  0.00     0.023 A 
ATOM     61  C   UNL A   1      43.250  32.608  33.526  1.00  0.00     0.012 A 
ATOM     62  C   UNL A   1      42.055  31.311  35.201  1.00  0.00     0.148 A 
ATOM     63  C   UNL A   1      43.231  33.723  34.363  1.00  0.00     0.002 A 
ATOM     64  C   UNL A   1      42.002  32.439  36.013  1.00  0.00     0.091 A 
ATOM     65  F   UNL A   1      41.537  30.137  35.590  1.00  0.00    -0.205 F 
ATOM     66  C   UNL A   1      42.599  33.641  35.600  1.00  0.00     0.022 A 
BRANCH  64  67
ATOM     67  S   UNL A   1      41.142  32.456  37.590  1.00  0.00     0.127 S 
ATOM     68  O   UNL A   1      41.179  33.878  37.930  1.00  0.00    -0.237 OA
ATOM     69  O   UNL A   1      39.817  31.951  37.226  1.00  0.00    -0.237 OA
ATOM     70  O   UNL A   1      41.903  31.580  38.470  1.00  0.00    -0.744 OA
ENDBRANCH  64  67
ENDBRANCH  46  60
BRANCH  47  71
ATOM     71  C   UNL A   1      42.679  24.000  27.226  1.00  0.00     0.023 A 
ATOM     72  C   UNL A   1      43.307  24.261  25.993  1.00  0.00     0.012 A 
ATOM     73  C   UNL A   1      42.144  22.719  27.468  1.00  0.00     0.148 A 
ATOM     74  C   UNL A   1      43.380  23.275  25.009  1.00  0.00     0.002 A 
ATOM     75  C   UNL A   1      42.271  21.725  26.505  1.00  0.00     0.091 A 
ATOM     76  F   UNL A   1      41.542  22.494  28.644  1.00  0.00    -0.205 F 
ATOM     77  C   UNL A   1      42.873  22.004  25.270  1.00  0.00     0.022 A 
BRANCH  75  78
ATOM     78  S   UNL A   1      41.778  20.023  26.808  1.00  0.00     0.127 S 
ATOM     79  O   UNL A   1      42.093  19.388  25.533  1.00  0.00    -0.237 OA
ATOM     80  O   UNL A   1      42.653  19.648  27.918  1.00  0.00    -0.237 OA
ATOM     81  O   UNL A   1      40.363  20.080  27.155  1.00  0.00    -0.744 OA
ENDBRANCH  75  78
ENDBRANCH  47  71
BRANCH  59  82
ATOM     82  C   UNL A   1      46.980  25.797  32.434  1.00  0.00     0.023 A 
ATOM     83  C   UNL A   1      48.188  26.281  31.894  1.00  0.00     0.012 A 
ATOM     84  C   UNL A   1      47.020  24.853  33.478  1.00  0.00     0.148 A 
ATOM     85  C   UNL A   1      49.414  25.814  32.365  1.00  0.00     0.002 A 
ATOM     86  C   UNL A   1      48.245  24.427  33.976  1.00  0.00     0.091 A 
ATOM     87  F   UNL A   1      45.859  24.391  33.966  1.00  0.00    -0.205 F 
ATOM     88  C   UNL A   1      49.443  24.897  33.413  1.00  0.00     0.022 A 
BRANCH  86  89
ATOM     89  S   UNL A   1      48.381  23.318  35.384  1.00  0.00     0.127 S 
ATOM     90  O   UNL A   1      47.670  24.064  36.420  1.00  0.00    -0.237 OA
ATOM     91  O   UNL A   1      47.686  22.122  34.906  1.00  0.00    -0.237 OA
ATOM     92  O   UNL A   1      49.808  23.136  35.613  1.00  0.00    -0.744 OA
ENDBRANCH  86  89
ENDBRANCH  59  82
ENDBRANCH  33  34
ENDBRANCH  25  28
ENDBRANCH   1  24
TORSDOF 15
ENDMDL
MODEL 2
REMARK VINA RESULT:     -11.7      1.831      3.662
REMARK SMILES CCc1ccc2c(c1)C=C(C(=O)NCCCNC(=O)c1ccc(-c3c4nc(c(-c5cccc(S(=O)(=O)[O-])c5F)c5ccc([nH]5)c(-c5cccc(S(=O)(=O)[O-])c5F)c5nc(c(-c6cccc(S(=O)(=O)[O-])c6F)c6ccc3[nH]6)C=C5)C=C4)cc1)[C@H](C(F)(F)F)O2
REMARK SMILES IDX 16 1 15 2 14 3 13 4 11 5 12 6 10 8 3 9 4 10 8 11 5 12 7 13
REMARK SMILES IDX 6 14 9 15 88 16 83 17 2 18 1 19 84 20 85 21 86 22 87 23
REMARK SMILES IDX 17 24 18 25 19 27 20 28 21 29 82 30 22 31 81 32 23 33 24 34
REMARK SMILES IDX 25 35 75 36 26 37 80 38 74 39 76 40 27 41 79 42 73 43 72 44
REMARK SMILES IDX 28 46 60 47 40 48 59 49 41 50 44 51 58 52 77 53 42 54 43 55
REMARK SMILES IDX 57 57 78 58 45 59 29 60 30 61 38 62 31 63 33 64 39 65 32 66
REMARK SMILES IDX 34 67 35 68 36 69 37 70 61 71 62 72 70 73 63 74 65 75 71 76
REMARK SMILES IDX 64 77 66 78 67 79 68 80 69 81 46 82 47 83 55 84 48 85 50 86
REMARK SMILES IDX 56 87 49 88 51 89 52 90 53 91 54 92
REMARK H PARENT 13 7 17 26 76 45 44 56
REMARK Flexibility Score: inf
ROOT
ATOM      1  C   UNL A   1      34.242  28.942  26.002  1.00  0.00     0.118 C 
ENDROOT
BRANCH   1   2
ATOM      2  C   UNL A   1      33.458  27.797  26.641  1.00  0.00     0.042 C 
BRANCH   2   3
ATOM      3  C   UNL A   1      33.651  26.453  25.932  1.00  0.00     0.118 C 
BRANCH   3   4
ATOM      4  N   UNL A   1      34.000  26.648  24.532  1.00  0.00    -0.352 N 
ATOM      5  C   UNL A   1      33.269  26.925  23.421  1.00  0.00     0.251 C 
ATOM      6  O   UNL A   1      33.853  26.931  22.339  1.00  0.00    -0.270 OA
ATOM      7  H   UNL A   1      34.965  26.562  24.355  1.00  0.00     0.163 HD
BRANCH   5   8
ATOM      8  C   UNL A   1      31.832  27.299  23.467  1.00  0.00     0.067 C 
ATOM      9  C   UNL A   1      28.164  30.432  23.079  1.00  0.00    -0.047 A 
ATOM     10  C   UNL A   1      27.259  29.367  23.123  1.00  0.00     0.007 A 
ATOM     11  C   UNL A   1      29.533  30.168  23.218  1.00  0.00     0.015 A 
ATOM     12  C   UNL A   1      27.718  28.056  23.269  1.00  0.00     0.047 A 
ATOM     13  C   UNL A   1      29.995  28.853  23.360  1.00  0.00     0.017 A 
ATOM     14  C   UNL A   1      29.085  27.802  23.379  1.00  0.00     0.128 A 
ATOM     15  C   UNL A   1      31.420  28.572  23.384  1.00  0.00     0.025 C 
ATOM     16  O   UNL A   1      29.458  26.492  23.430  1.00  0.00    -0.475 OA
ATOM     17  C   UNL A   1      30.841  26.182  23.783  1.00  0.00     0.314 C 
BRANCH   9  18
ATOM     18  C   UNL A   1      27.683  31.847  22.884  1.00  0.00     0.032 C 
ATOM     19  C   UNL A   1      28.797  32.861  23.079  1.00  0.00     0.009 C 
ENDBRANCH   9  18
BRANCH  17  20
ATOM     20  C   UNL A   1      31.146  24.789  23.184  1.00  0.00     0.429 C 
ATOM     21  F   UNL A   1      31.716  24.849  21.960  1.00  0.00    -0.167 F 
ATOM     22  F   UNL A   1      32.039  24.113  23.959  1.00  0.00    -0.167 F 
ATOM     23  F   UNL A   1      30.043  24.008  23.101  1.00  0.00    -0.167 F 
ENDBRANCH  17  20
ENDBRANCH   5   8
ENDBRANCH   3   4
ENDBRANCH   2   3
ENDBRANCH   1   2
BRANCH   1  24
ATOM     24  N   UNL A   1      33.921  30.226  26.610  1.00  0.00    -0.352 N 
ATOM     25  C   UNL A   1      34.503  30.869  27.675  1.00  0.00     0.251 C 
ATOM     26  H   UNL A   1      33.170  30.708  26.193  1.00  0.00     0.163 HD
ATOM     27  O   UNL A   1      33.933  31.834  28.175  1.00  0.00    -0.269 OA
BRANCH  25  28
ATOM     28  C   UNL A   1      35.797  30.408  28.224  1.00  0.00     0.039 A 
ATOM     29  C   UNL A   1      35.794  29.572  29.346  1.00  0.00     0.014 A 
ATOM     30  C   UNL A   1      37.011  30.832  27.675  1.00  0.00     0.014 A 
ATOM     31  C   UNL A   1      37.002  29.118  29.882  1.00  0.00     0.010 A 
ATOM     32  C   UNL A   1      38.213  30.329  28.172  1.00  0.00     0.010 A 
ATOM     33  C   UNL A   1      38.221  29.470  29.281  1.00  0.00    -0.014 A 
BRANCH  33  34
ATOM     34  C   UNL A   1      39.511  28.922  29.776  1.00  0.00     0.031 A 
ATOM     35  C   UNL A   1      40.260  29.609  30.885  1.00  0.00     0.074 A 
ATOM     36  C   UNL A   1      40.058  27.860  29.152  1.00  0.00     0.049 A 
ATOM     37  N   UNL A   1      41.428  29.314  31.395  1.00  0.00    -0.248 NA
ATOM     38  C   UNL A   1      39.627  30.796  31.482  1.00  0.00     0.031 C 
ATOM     39  C   UNL A   1      39.468  27.159  28.009  1.00  0.00     0.029 A 
ATOM     40  N   UNL A   1      41.247  27.208  29.363  1.00  0.00    -0.354 N 
ATOM     41  C   UNL A   1      41.691  30.297  32.342  1.00  0.00     0.074 A 
ATOM     42  C   UNL A   1      40.569  31.212  32.318  1.00  0.00     0.031 C 
ATOM     43  C   UNL A   1      40.299  26.180  27.618  1.00  0.00     0.029 A 
ATOM     44  C   UNL A   1      41.492  26.202  28.458  1.00  0.00     0.049 A 
ATOM     45  H   UNL A   1      41.865  27.439  30.094  1.00  0.00     0.167 HD
ATOM     46  C   UNL A   1      42.754  30.415  33.172  1.00  0.00     0.034 A 
ATOM     47  C   UNL A   1      42.560  25.395  28.311  1.00  0.00     0.034 A 
ATOM     48  C   UNL A   1      43.846  29.478  33.222  1.00  0.00     0.049 A 
ATOM     49  C   UNL A   1      43.709  25.517  29.274  1.00  0.00     0.074 A 
ATOM     50  C   UNL A   1      44.913  29.447  34.102  1.00  0.00     0.029 A 
ATOM     51  N   UNL A   1      44.017  28.415  32.348  1.00  0.00    -0.354 N 
ATOM     52  N   UNL A   1      43.855  26.345  30.280  1.00  0.00    -0.248 NA
ATOM     53  C   UNL A   1      44.824  24.575  29.103  1.00  0.00     0.031 C 
ATOM     54  C   UNL A   1      45.744  28.380  33.744  1.00  0.00     0.029 A 
ATOM     55  C   UNL A   1      45.182  27.732  32.656  1.00  0.00     0.049 A 
ATOM     56  H   UNL A   1      43.401  28.180  31.617  1.00  0.00     0.167 HD
ATOM     57  C   UNL A   1      45.063  26.007  30.879  1.00  0.00     0.074 A 
ATOM     58  C   UNL A   1      45.596  24.883  30.138  1.00  0.00     0.031 C 
ATOM     59  C   UNL A   1      45.682  26.588  31.938  1.00  0.00     0.034 A 
BRANCH  46  60
ATOM     60  C   UNL A   1      42.766  31.574  34.135  1.00  0.00     0.023 A 
ATOM     61  C   UNL A   1      43.340  32.800  33.739  1.00  0.00     0.012 A 
ATOM     62  C   UNL A   1      42.163  31.473  35.404  1.00  0.00     0.148 A 
ATOM     63  C   UNL A   1      43.347  33.894  34.605  1.00  0.00     0.002 A 
ATOM     64  C   UNL A   1      42.136  32.581  36.244  1.00  0.00     0.091 A 
ATOM     65  F   UNL A   1      41.640  30.295  35.773  1.00  0.00    -0.205 F 
ATOM     66  C   UNL A   1      42.738  33.788  35.850  1.00  0.00     0.022 A 
BRANCH  64  67
ATOM     67  S   UNL A   1      41.306  32.567  37.837  1.00  0.00     0.127 S 
ATOM     68  O   UNL A   1      42.116  31.605  38.583  1.00  0.00    -0.237 OA
ATOM     69  O   UNL A   1      41.453  33.956  38.276  1.00  0.00    -0.237 OA
ATOM     70  O   UNL A   1      39.934  32.159  37.570  1.00  0.00    -0.744 OA
ENDBRANCH  64  67
ENDBRANCH  46  60
BRANCH  47  71
ATOM     71  C   UNL A   1      42.558  24.358  27.241  1.00  0.00     0.023 A 
ATOM     72  C   UNL A   1      43.238  24.611  26.034  1.00  0.00     0.012 A 
ATOM     73  C   UNL A   1      41.941  23.106  27.433  1.00  0.00     0.148 A 
ATOM     74  C   UNL A   1      43.281  23.647  25.027  1.00  0.00     0.002 A 
ATOM     75  C   UNL A   1      42.037  22.130  26.448  1.00  0.00     0.091 A 
ATOM     76  F   UNL A   1      41.291  22.889  28.585  1.00  0.00    -0.205 F 
ATOM     77  C   UNL A   1      42.692  22.403  25.239  1.00  0.00     0.022 A 
BRANCH  75  78
ATOM     78  S   UNL A   1      41.434  20.454  26.691  1.00  0.00     0.127 S 
ATOM     79  O   UNL A   1      41.828  19.809  25.443  1.00  0.00    -0.237 OA
ATOM     80  O   UNL A   1      42.188  20.030  27.871  1.00  0.00    -0.237 OA
ATOM     81  O   UNL A   1      39.999  20.581  26.914  1.00  0.00    -0.744 OA
ENDBRANCH  75  78
ENDBRANCH  47  71
BRANCH  59  82
ATOM     82  C   UNL A   1      47.003  26.012  32.375  1.00  0.00     0.023 A 
ATOM     83  C   UNL A   1      48.200  26.538  31.851  1.00  0.00     0.012 A 
ATOM     84  C   UNL A   1      47.063  25.007  33.360  1.00  0.00     0.148 A 
ATOM     85  C   UNL A   1      49.436  26.055  32.279  1.00  0.00     0.002 A 
ATOM     86  C   UNL A   1      48.298  24.563  33.817  1.00  0.00     0.091 A 
ATOM     87  F   UNL A   1      45.912  24.506  33.833  1.00  0.00    -0.205 F 
ATOM     88  C   UNL A   1      49.485  25.077  33.270  1.00  0.00     0.022 A 
BRANCH  86  89
ATOM     89  S   UNL A   1      48.460  23.374  35.155  1.00  0.00     0.127 S 
ATOM     90  O   UNL A   1      49.888  23.062  35.105  1.00  0.00    -0.237 OA
ATOM     91  O   UNL A   1      48.047  24.158  36.319  1.00  0.00    -0.237 OA
ATOM     92  O   UNL A   1      47.568  22.272  34.821  1.00  0.00    -0.744 OA
ENDBRANCH  86  89
ENDBRANCH  59  82
ENDBRANCH  33  34
ENDBRANCH  25  28
ENDBRANCH   1  24
TORSDOF 15
ENDMDL
MODEL 3
REMARK VINA RESULT:     -11.6      2.089      2.720
REMARK SMILES CCc1ccc2c(c1)C=C(C(=O)NCCCNC(=O)c1ccc(-c3c4nc(c(-c5cccc(S(=O)(=O)[O-])c5F)c5ccc([nH]5)c(-c5cccc(S(=O)(=O)[O-])c5F)c5nc(c(-c6cccc(S(=O)(=O)[O-])c6F)c6ccc3[nH]6)C=C5)C=C4)cc1)[C@H](C(F)(F)F)O2
REMARK SMILES IDX 16 1 15 2 14 3 13 4 11 5 12 6 10 8 3 9 4 10 8 11 5 12 7 13
REMARK SMILES IDX 6 14 9 15 88 16 83 17 2 18 1 19 84 20 85 21 86 22 87 23
REMARK SMILES IDX 17 24 18 25 19 27 20 28 21 29 82 30 22 31 81 32 23 33 24 34
REMARK SMILES IDX 25 35 75 36 26 37 80 38 74 39 76 40 27 41 79 42 73 43 72 44
REMARK SMILES IDX 28 46 60 47 40 48 59 49 41 50 44 51 58 52 77 53 42 54 43 55
REMARK SMILES IDX 57 57 78 58 45 59 29 60 30 61 38 62 31 63 33 64 39 65 32 66
REMARK SMILES IDX 34 67 35 68 36 69 37 70 61 71 62 72 70 73 63 74 65 75 71 76
REMARK SMILES IDX 64 77 66 78 67 79 68 80 69 81 46 82 47 83 55 84 48 85 50 86
REMARK SMILES IDX 56 87 49 88 51 89 52 90 53 91 54 92
REMARK H PARENT 13 7 17 26 76 45 44 56
REMARK Flexibility Score: inf
ROOT
ATOM      1  C   UNL A   1      32.484  30.474  26.909  1.00  0.00     0.118 C 
ENDROOT
BRANCH   1   2
ATOM      2  C   UNL A   1      31.814  30.041  25.605  1.00  0.00     0.042 C 
BRANCH   2   3
ATOM      3  C   UNL A   1      32.736  29.243  24.679  1.00  0.00     0.118 C 
BRANCH   3   4
ATOM      4  N   UNL A   1      31.972  28.560  23.645  1.00  0.00    -0.352 N 
ATOM      5  C   UNL A   1      31.842  27.254  23.293  1.00  0.00     0.251 C 
ATOM      6  O   UNL A   1      31.185  26.996  22.287  1.00  0.00    -0.270 OA
ATOM      7  H   UNL A   1      31.439  29.171  23.085  1.00  0.00     0.163 HD
BRANCH   5   8
ATOM      8  C   UNL A   1      32.380  26.136  24.110  1.00  0.00     0.067 C 
ATOM      9  C   UNL A   1      35.968  23.440  25.921  1.00  0.00    -0.047 A 
ATOM     10  C   UNL A   1      35.060  22.834  26.797  1.00  0.00     0.007 A 
ATOM     11  C   UNL A   1      35.494  24.374  24.990  1.00  0.00     0.015 A 
ATOM     12  C   UNL A   1      33.708  23.183  26.764  1.00  0.00     0.047 A 
ATOM     13  C   UNL A   1      34.139  24.728  24.961  1.00  0.00     0.017 A 
ATOM     14  C   UNL A   1      33.253  24.134  25.853  1.00  0.00     0.128 A 
ATOM     15  C   UNL A   1      33.673  25.783  24.077  1.00  0.00     0.025 C 
ATOM     16  O   UNL A   1      31.939  24.483  25.943  1.00  0.00    -0.475 OA
ATOM     17  C   UNL A   1      31.363  25.288  24.869  1.00  0.00     0.314 C 
BRANCH   9  18
ATOM     18  C   UNL A   1      37.435  23.099  25.972  1.00  0.00     0.032 C 
ATOM     19  C   UNL A   1      38.276  24.267  26.458  1.00  0.00     0.009 C 
ENDBRANCH   9  18
BRANCH  17  20
ATOM     20  C   UNL A   1      30.152  26.032  25.477  1.00  0.00     0.429 C 
ATOM     21  F   UNL A   1      29.243  26.416  24.553  1.00  0.00    -0.167 F 
ATOM     22  F   UNL A   1      29.467  25.224  26.334  1.00  0.00    -0.167 F 
ATOM     23  F   UNL A   1      30.518  27.123  26.191  1.00  0.00    -0.167 F 
ENDBRANCH  17  20
ENDBRANCH   5   8
ENDBRANCH   3   4
ENDBRANCH   2   3
ENDBRANCH   1   2
BRANCH   1  24
ATOM     24  N   UNL A   1      32.698  31.913  26.957  1.00  0.00    -0.352 N 
ATOM     25  C   UNL A   1      33.662  32.641  27.609  1.00  0.00     0.251 C 
ATOM     26  H   UNL A   1      32.050  32.448  26.442  1.00  0.00     0.163 HD
ATOM     27  O   UNL A   1      33.528  33.857  27.712  1.00  0.00    -0.269 OA
BRANCH  25  28
ATOM     28  C   UNL A   1      34.851  31.978  28.191  1.00  0.00     0.039 A 
ATOM     29  C   UNL A   1      36.058  32.682  28.241  1.00  0.00     0.014 A 
ATOM     30  C   UNL A   1      34.796  30.655  28.640  1.00  0.00     0.014 A 
ATOM     31  C   UNL A   1      37.194  32.081  28.790  1.00  0.00     0.010 A 
ATOM     32  C   UNL A   1      35.913  30.078  29.243  1.00  0.00     0.010 A 
ATOM     33  C   UNL A   1      37.124  30.784  29.322  1.00  0.00    -0.014 A 
BRANCH  33  34
ATOM     34  C   UNL A   1      38.293  30.162  29.996  1.00  0.00     0.031 A 
ATOM     35  C   UNL A   1      38.695  30.589  31.381  1.00  0.00     0.074 A 
ATOM     36  C   UNL A   1      39.055  29.284  29.316  1.00  0.00     0.049 A 
ATOM     37  N   UNL A   1      39.724  30.208  32.095  1.00  0.00    -0.248 NA
ATOM     38  C   UNL A   1      37.847  31.594  32.043  1.00  0.00     0.031 C 
ATOM     39  C   UNL A   1      38.816  28.853  27.937  1.00  0.00     0.029 A 
ATOM     40  N   UNL A   1      40.204  28.624  29.675  1.00  0.00    -0.354 N 
ATOM     41  C   UNL A   1      39.672  30.952  33.268  1.00  0.00     0.074 A 
ATOM     42  C   UNL A   1      38.522  31.825  33.161  1.00  0.00     0.031 C 
ATOM     43  C   UNL A   1      39.790  28.007  27.565  1.00  0.00     0.029 A 
ATOM     44  C   UNL A   1      40.738  27.858  28.665  1.00  0.00     0.049 A 
ATOM     45  H   UNL A   1      40.606  28.692  30.571  1.00  0.00     0.167 HD
ATOM     46  C   UNL A   1      40.490  30.896  34.346  1.00  0.00     0.034 A 
ATOM     47  C   UNL A   1      41.869  27.128  28.621  1.00  0.00     0.034 A 
ATOM     48  C   UNL A   1      41.606  29.994  34.466  1.00  0.00     0.049 A 
ATOM     49  C   UNL A   1      42.737  27.048  29.846  1.00  0.00     0.074 A 
ATOM     50  C   UNL A   1      42.427  29.783  35.559  1.00  0.00     0.029 A 
ATOM     51  N   UNL A   1      42.065  29.165  33.454  1.00  0.00    -0.354 N 
ATOM     52  N   UNL A   1      42.570  27.625  31.012  1.00  0.00    -0.248 NA
ATOM     53  C   UNL A   1      43.929  26.193  29.764  1.00  0.00     0.031 C 
ATOM     54  C   UNL A   1      43.400  28.843  35.200  1.00  0.00     0.029 A 
ATOM     55  C   UNL A   1      43.170  28.453  33.891  1.00  0.00     0.049 A 
ATOM     56  H   UNL A   1      41.665  29.093  32.558  1.00  0.00     0.167 HD
ATOM     57  C   UNL A   1      43.619  27.182  31.810  1.00  0.00     0.074 A 
ATOM     58  C   UNL A   1      44.401  26.269  31.001  1.00  0.00     0.031 C 
ATOM     59  C   UNL A   1      43.916  27.515  33.091  1.00  0.00     0.034 A 
BRANCH  46  60
ATOM     60  C   UNL A   1      40.178  31.802  35.510  1.00  0.00     0.023 A 
ATOM     61  C   UNL A   1      40.954  32.962  35.713  1.00  0.00     0.012 A 
ATOM     62  C   UNL A   1      39.089  31.541  36.364  1.00  0.00     0.148 A 
ATOM     63  C   UNL A   1      40.675  33.827  36.771  1.00  0.00     0.002 A 
ATOM     64  C   UNL A   1      38.791  32.432  37.391  1.00  0.00     0.091 A 
ATOM     65  F   UNL A   1      38.375  30.424  36.170  1.00  0.00    -0.205 F 
ATOM     66  C   UNL A   1      39.590  33.568  37.602  1.00  0.00     0.022 A 
BRANCH  64  67
ATOM     67  S   UNL A   1      37.367  32.226  38.466  1.00  0.00     0.127 S 
ATOM     68  O   UNL A   1      37.851  32.816  39.713  1.00  0.00    -0.237 OA
ATOM     69  O   UNL A   1      36.343  33.013  37.777  1.00  0.00    -0.237 OA
ATOM     70  O   UNL A   1      37.102  30.795  38.509  1.00  0.00    -0.744 OA
ENDBRANCH  64  67
ENDBRANCH  46  60
BRANCH  47  71
ATOM     71  C   UNL A   1      42.207  26.366  27.386  1.00  0.00     0.023 A 
ATOM     72  C   UNL A   1      42.812  27.036  26.305  1.00  0.00     0.012 A 
ATOM     73  C   UNL A   1      41.988  24.977  27.297  1.00  0.00     0.148 A 
ATOM     74  C   UNL A   1      43.169  26.343  25.149  1.00  0.00     0.002 A 
ATOM     75  C   UNL A   1      42.399  24.283  26.166  1.00  0.00     0.091 A 
ATOM     76  F   UNL A   1      41.401  24.360  28.333  1.00  0.00    -0.205 F 
ATOM     77  C   UNL A   1      42.974  24.966  25.084  1.00  0.00     0.022 A 
BRANCH  75  78
ATOM     78  S   UNL A   1      42.318  22.492  26.052  1.00  0.00     0.127 S 
ATOM     79  O   UNL A   1      43.016  22.238  24.796  1.00  0.00    -0.237 OA
ATOM     80  O   UNL A   1      43.043  22.080  27.255  1.00  0.00    -0.237 OA
ATOM     81  O   UNL A   1      40.899  22.160  26.068  1.00  0.00    -0.744 OA
ENDBRANCH  75  78
ENDBRANCH  47  71
BRANCH  59  82
ATOM     82  C   UNL A   1      45.132  26.880  33.713  1.00  0.00     0.023 A 
ATOM     83  C   UNL A   1      46.356  27.576  33.717  1.00  0.00     0.012 A 
ATOM     84  C   UNL A   1      45.045  25.632  34.361  1.00  0.00     0.148 A 
ATOM     85  C   UNL A   1      47.482  27.029  34.331  1.00  0.00     0.002 A 
ATOM     86  C   UNL A   1      46.157  25.114  35.012  1.00  0.00     0.091 A 
ATOM     87  F   UNL A   1      43.874  24.976  34.330  1.00  0.00    -0.205 F 
ATOM     88  C   UNL A   1      47.380  25.805  34.989  1.00  0.00     0.022 A 
BRANCH  86  89
ATOM     89  S   UNL A   1      46.096  23.591  35.963  1.00  0.00     0.127 S 
ATOM     90  O   UNL A   1      44.991  23.857  36.882  1.00  0.00    -0.237 OA
ATOM     91  O   UNL A   1      45.807  22.593  34.933  1.00  0.00    -0.237 OA
ATOM     92  O   UNL A   1      47.406  23.454  36.584  1.00  0.00    -0.744 OA
ENDBRANCH  86  89
ENDBRANCH  59  82
ENDBRANCH  33  34
ENDBRANCH  25  28
ENDBRANCH   1  24
TORSDOF 15
ENDMDL
