MODEL 1
REMARK VINA RESULT:     -10.7      0.000      0.000
REMARK SMILES CCCCc1[nH]ncc1C(=O)NCCCNC(=O)c1ccc(-c2c3nc(c(-c4cccc(S(=O)(=O)[O-])c4F)c4ccc([nH]4)c(-c4cccc(S(=O)(=O)[O-])c4F)c4nc(c(-c5cccc(S(=O)(=O)[O-])c5F)c5ccc2[nH]5)C=C4)C=C3)cc1
REMARK SMILES IDX 14 1 13 2 12 3 10 4 11 5 9 7 5 8 6 9 7 10 8 12 4 13 3 14
REMARK SMILES IDX 2 15 1 16 15 17 16 18 17 19 18 21 19 22 20 23 81 24 21 25
REMARK SMILES IDX 80 26 22 27 23 28 24 29 74 30 25 31 79 32 73 33 75 34 26 35
REMARK SMILES IDX 78 36 72 37 71 38 27 40 59 41 39 42 58 43 40 44 43 45 57 46
REMARK SMILES IDX 76 47 41 48 42 49 56 51 77 52 44 53 28 54 29 55 37 56 30 57
REMARK SMILES IDX 32 58 38 59 31 60 33 61 34 62 35 63 36 64 60 65 61 66 69 67
REMARK SMILES IDX 62 68 64 69 70 70 63 71 65 72 66 73 67 74 68 75 45 76 46 77
REMARK SMILES IDX 54 78 47 79 49 80 55 81 48 82 50 83 51 84 52 85 53 86
REMARK H PARENT 12 6 6 11 16 20 75 39 43 50
REMARK Flexibility Score: inf
ROOT
ATOM      1  C   UNL A   1      31.368  31.480  26.210  1.00  0.00     0.042 C 
ENDROOT
BRANCH   1   2
ATOM      2  C   UNL A   1      31.429  29.980  25.925  1.00  0.00     0.118 C 
BRANCH   2   3
ATOM      3  N   UNL A   1      31.888  29.709  24.585  1.00  0.00    -0.352 N 
ATOM      4  C   UNL A   1      31.348  29.054  23.515  1.00  0.00     0.254 C 
ATOM      5  O   UNL A   1      32.003  29.165  22.472  1.00  0.00    -0.269 OA
ATOM      6  H   UNL A   1      32.784  30.075  24.403  1.00  0.00     0.163 HD
BRANCH   4   7
ATOM      7  C   UNL A   1      30.092  28.303  23.499  1.00  0.00     0.080 A 
ATOM      8  C   UNL A   1      28.750  28.538  23.197  1.00  0.00     0.048 A 
ATOM      9  N   UNL A   1      28.084  27.378  23.522  1.00  0.00    -0.282 N 
ATOM     10  N   UNL A   1      28.868  26.384  23.937  1.00  0.00    -0.183 NA
ATOM     11  H   UNL A   1      27.107  27.289  23.451  1.00  0.00     0.190 HD
ATOM     12  C   UNL A   1      30.072  26.949  23.961  1.00  0.00     0.149 A 
BRANCH   8  13
ATOM     13  C   UNL A   1      27.915  29.683  22.731  1.00  0.00     0.056 C 
BRANCH  13  14
ATOM     14  C   UNL A   1      28.294  31.013  23.402  1.00  0.00     0.006 C 
BRANCH  14  15
ATOM     15  C   UNL A   1      28.581  32.173  22.440  1.00  0.00    -0.003 C 
ATOM     16  C   UNL A   1      29.009  33.452  23.145  1.00  0.00     0.004 C 
ENDBRANCH  14  15
ENDBRANCH  13  14
ENDBRANCH   8  13
ENDBRANCH   4   7
ENDBRANCH   2   3
ENDBRANCH   1   2
BRANCH   1  17
ATOM     17  C   UNL A   1      32.640  32.048  26.829  1.00  0.00     0.118 C 
BRANCH  17  18
ATOM     18  N   UNL A   1      32.486  33.452  27.192  1.00  0.00    -0.352 N 
ATOM     19  C   UNL A   1      33.100  34.190  28.173  1.00  0.00     0.251 C 
ATOM     20  H   UNL A   1      31.837  33.952  26.645  1.00  0.00     0.163 HD
ATOM     21  O   UNL A   1      32.638  35.294  28.464  1.00  0.00    -0.269 OA
BRANCH  19  22
ATOM     22  C   UNL A   1      34.292  33.681  28.887  1.00  0.00     0.039 A 
ATOM     23  C   UNL A   1      34.116  32.741  29.909  1.00  0.00     0.014 A 
ATOM     24  C   UNL A   1      35.575  34.148  28.591  1.00  0.00     0.014 A 
ATOM     25  C   UNL A   1      35.227  32.220  30.579  1.00  0.00     0.010 A 
ATOM     26  C   UNL A   1      36.686  33.574  29.208  1.00  0.00     0.010 A 
ATOM     27  C   UNL A   1      36.526  32.602  30.204  1.00  0.00    -0.014 A 
BRANCH  27  28
ATOM     28  C   UNL A   1      37.723  31.958  30.804  1.00  0.00     0.031 A 
ATOM     29  C   UNL A   1      38.475  30.887  30.061  1.00  0.00     0.074 A 
ATOM     30  C   UNL A   1      38.068  32.269  32.071  1.00  0.00     0.049 A 
ATOM     31  N   UNL A   1      39.493  30.168  30.461  1.00  0.00    -0.248 NA
ATOM     32  C   UNL A   1      38.012  30.562  28.701  1.00  0.00     0.031 C 
ATOM     33  C   UNL A   1      37.367  33.232  32.926  1.00  0.00     0.029 A 
ATOM     34  N   UNL A   1      39.071  31.787  32.875  1.00  0.00    -0.354 N 
ATOM     35  C   UNL A   1      39.766  29.282  29.425  1.00  0.00     0.074 A 
ATOM     36  C   UNL A   1      38.797  29.540  28.383  1.00  0.00     0.031 C 
ATOM     37  C   UNL A   1      37.956  33.265  34.131  1.00  0.00     0.029 A 
ATOM     38  C   UNL A   1      39.053  32.304  34.150  1.00  0.00     0.049 A 
ATOM     39  H   UNL A   1      39.740  31.132  32.569  1.00  0.00     0.167 HD
ATOM     40  C   UNL A   1      40.750  28.354  29.342  1.00  0.00     0.034 A 
ATOM     41  C   UNL A   1      39.821  32.025  35.222  1.00  0.00     0.034 A 
ATOM     42  C   UNL A   1      41.741  28.137  30.360  1.00  0.00     0.049 A 
ATOM     43  C   UNL A   1      40.925  31.012  35.083  1.00  0.00     0.074 A 
ATOM     44  C   UNL A   1      42.844  27.302  30.319  1.00  0.00     0.029 A 
ATOM     45  N   UNL A   1      41.743  28.740  31.607  1.00  0.00    -0.354 N 
ATOM     46  N   UNL A   1      41.284  30.322  34.028  1.00  0.00    -0.248 NA
ATOM     47  C   UNL A   1      41.752  30.762  36.273  1.00  0.00     0.031 C 
ATOM     48  C   UNL A   1      43.497  27.377  31.553  1.00  0.00     0.029 A 
ATOM     49  C   UNL A   1      42.815  28.280  32.353  1.00  0.00     0.049 A 
ATOM     50  H   UNL A   1      41.081  29.399  31.917  1.00  0.00     0.167 HD
ATOM     51  C   UNL A   1      42.392  29.580  34.418  1.00  0.00     0.074 A 
ATOM     52  C   UNL A   1      42.666  29.929  35.796  1.00  0.00     0.031 C 
ATOM     53  C   UNL A   1      43.106  28.673  33.707  1.00  0.00     0.034 A 
BRANCH  40  54
ATOM     54  C   UNL A   1      40.847  27.531  28.085  1.00  0.00     0.023 A 
ATOM     55  C   UNL A   1      41.508  28.057  26.956  1.00  0.00     0.012 A 
ATOM     56  C   UNL A   1      40.382  26.200  28.057  1.00  0.00     0.148 A 
ATOM     57  C   UNL A   1      41.689  27.281  25.813  1.00  0.00     0.002 A 
ATOM     58  C   UNL A   1      40.604  25.419  26.927  1.00  0.00     0.091 A 
ATOM     59  F   UNL A   1      39.742  25.724  29.133  1.00  0.00    -0.205 F 
ATOM     60  C   UNL A   1      41.248  25.959  25.804  1.00  0.00     0.022 A 
BRANCH  58  61
ATOM     61  S   UNL A   1      40.147  23.683  26.844  1.00  0.00     0.127 S 
ATOM     62  O   UNL A   1      38.735  23.770  26.464  1.00  0.00    -0.237 OA
ATOM     63  O   UNL A   1      41.031  23.186  25.786  1.00  0.00    -0.237 OA
ATOM     64  O   UNL A   1      40.401  23.131  28.162  1.00  0.00    -0.744 OA
ENDBRANCH  58  61
ENDBRANCH  40  54
BRANCH  41  65
ATOM     65  C   UNL A   1      39.601  32.739  36.513  1.00  0.00     0.023 A 
ATOM     66  C   UNL A   1      40.340  33.904  36.793  1.00  0.00     0.012 A 
ATOM     67  C   UNL A   1      38.667  32.275  37.459  1.00  0.00     0.148 A 
ATOM     68  C   UNL A   1      40.184  34.571  38.010  1.00  0.00     0.002 A 
ATOM     69  C   UNL A   1      38.472  32.979  38.643  1.00  0.00     0.091 A 
ATOM     70  F   UNL A   1      37.983  31.155  37.185  1.00  0.00    -0.205 F 
ATOM     71  C   UNL A   1      39.244  34.116  38.929  1.00  0.00     0.022 A 
BRANCH  69  72
ATOM     72  S   UNL A   1      37.181  32.538  39.812  1.00  0.00     0.127 S 
ATOM     73  O   UNL A   1      37.668  31.261  40.329  1.00  0.00    -0.237 OA
ATOM     74  O   UNL A   1      37.238  33.649  40.764  1.00  0.00    -0.237 OA
ATOM     75  O   UNL A   1      35.954  32.487  39.033  1.00  0.00    -0.744 OA
ENDBRANCH  69  72
ENDBRANCH  41  65
BRANCH  53  76
ATOM     76  C   UNL A   1      44.267  28.006  34.395  1.00  0.00     0.023 A 
ATOM     77  C   UNL A   1      45.536  28.620  34.374  1.00  0.00     0.012 A 
ATOM     78  C   UNL A   1      44.089  26.810  35.119  1.00  0.00     0.148 A 
ATOM     79  C   UNL A   1      46.616  28.037  35.034  1.00  0.00     0.002 A 
ATOM     80  C   UNL A   1      45.158  26.262  35.816  1.00  0.00     0.091 A 
ATOM     81  F   UNL A   1      42.877  26.234  35.112  1.00  0.00    -0.205 F 
ATOM     82  C   UNL A   1      46.425  26.865  35.764  1.00  0.00     0.022 A 
BRANCH  80  83
ATOM     83  S   UNL A   1      44.985  24.810  36.859  1.00  0.00     0.127 S 
ATOM     84  O   UNL A   1      45.133  23.726  35.889  1.00  0.00    -0.237 OA
ATOM     85  O   UNL A   1      46.109  24.958  37.785  1.00  0.00    -0.237 OA
ATOM     86  O   UNL A   1      43.672  24.914  37.481  1.00  0.00    -0.744 OA
ENDBRANCH  80  83
ENDBRANCH  53  76
ENDBRANCH  27  28
ENDBRANCH  19  22
ENDBRANCH  17  18
ENDBRANCH   1  17
TORSDOF 16
ENDMDL
MODEL 2
REMARK VINA RESULT:     -10.6      3.438      8.868
REMARK SMILES CCCCc1[nH]ncc1C(=O)NCCCNC(=O)c1ccc(-c2c3nc(c(-c4cccc(S(=O)(=O)[O-])c4F)c4ccc([nH]4)c(-c4cccc(S(=O)(=O)[O-])c4F)c4nc(c(-c5cccc(S(=O)(=O)[O-])c5F)c5ccc2[nH]5)C=C4)C=C3)cc1
REMARK SMILES IDX 14 1 13 2 12 3 10 4 11 5 9 7 5 8 6 9 7 10 8 12 4 13 3 14
REMARK SMILES IDX 2 15 1 16 15 17 16 18 17 19 18 21 19 22 20 23 81 24 21 25
REMARK SMILES IDX 80 26 22 27 23 28 24 29 74 30 25 31 79 32 73 33 75 34 26 35
REMARK SMILES IDX 78 36 72 37 71 38 27 40 59 41 39 42 58 43 40 44 43 45 57 46
REMARK SMILES IDX 76 47 41 48 42 49 56 51 77 52 44 53 28 54 29 55 37 56 30 57
REMARK SMILES IDX 32 58 38 59 31 60 33 61 34 62 35 63 36 64 60 65 61 66 69 67
REMARK SMILES IDX 62 68 64 69 70 70 63 71 65 72 66 73 67 74 68 75 45 76 46 77
REMARK SMILES IDX 54 78 47 79 49 80 55 81 48 82 50 83 51 84 52 85 53 86
REMARK H PARENT 12 6 6 11 16 20 75 39 43 50
REMARK Flexibility Score: inf
ROOT
ATOM      1  C   UNL A   1      33.276  28.057  26.907  1.00  0.00     0.042 C 
ENDROOT
BRANCH   1   2
ATOM      2  C   UNL A   1      31.797  28.285  27.213  1.00  0.00     0.118 C 
BRANCH   2   3
ATOM      3  N   UNL A   1      31.034  27.066  27.100  1.00  0.00    -0.352 N 
ATOM      4  C   UNL A   1      30.677  26.268  26.050  1.00  0.00     0.254 C 
ATOM      5  O   UNL A   1      30.133  25.209  26.383  1.00  0.00    -0.269 OA
ATOM      6  H   UNL A   1      30.698  26.740  27.966  1.00  0.00     0.163 HD
BRANCH   4   7
ATOM      7  C   UNL A   1      30.917  26.539  24.632  1.00  0.00     0.080 A 
ATOM      8  C   UNL A   1      30.733  27.591  23.734  1.00  0.00     0.048 A 
ATOM      9  N   UNL A   1      31.090  27.098  22.500  1.00  0.00    -0.282 N 
ATOM     10  N   UNL A   1      31.558  25.851  22.513  1.00  0.00    -0.183 NA
ATOM     11  H   UNL A   1      31.008  27.625  21.673  1.00  0.00     0.190 HD
ATOM     12  C   UNL A   1      31.419  25.498  23.788  1.00  0.00     0.149 A 
BRANCH   8  13
ATOM     13  C   UNL A   1      30.199  28.983  23.771  1.00  0.00     0.056 C 
BRANCH  13  14
ATOM     14  C   UNL A   1      29.617  29.438  22.422  1.00  0.00     0.006 C 
BRANCH  14  15
ATOM     15  C   UNL A   1      28.121  29.774  22.434  1.00  0.00    -0.003 C 
ATOM     16  C   UNL A   1      27.267  28.715  23.116  1.00  0.00     0.004 C 
ENDBRANCH  14  15
ENDBRANCH  13  14
ENDBRANCH   8  13
ENDBRANCH   4   7
ENDBRANCH   2   3
ENDBRANCH   1   2
BRANCH   1  17
ATOM     17  C   UNL A   1      33.901  29.125  26.016  1.00  0.00     0.118 C 
BRANCH  17  18
ATOM     18  N   UNL A   1      33.857  30.443  26.638  1.00  0.00    -0.352 N 
ATOM     19  C   UNL A   1      34.610  30.971  27.657  1.00  0.00     0.251 C 
ATOM     20  H   UNL A   1      33.179  31.053  26.267  1.00  0.00     0.163 HD
ATOM     21  O   UNL A   1      34.238  32.017  28.190  1.00  0.00    -0.269 OA
BRANCH  19  22
ATOM     22  C   UNL A   1      35.845  30.305  28.127  1.00  0.00     0.039 A 
ATOM     23  C   UNL A   1      36.979  30.329  27.307  1.00  0.00     0.014 A 
ATOM     24  C   UNL A   1      35.886  29.619  29.344  1.00  0.00     0.014 A 
ATOM     25  C   UNL A   1      38.167  29.734  27.740  1.00  0.00     0.010 A 
ATOM     26  C   UNL A   1      37.091  29.091  29.807  1.00  0.00     0.010 A 
ATOM     27  C   UNL A   1      38.245  29.146  29.013  1.00  0.00    -0.014 A 
BRANCH  27  28
ATOM     28  C   UNL A   1      39.533  28.633  29.550  1.00  0.00     0.031 A 
ATOM     29  C   UNL A   1      40.250  29.361  30.655  1.00  0.00     0.074 A 
ATOM     30  C   UNL A   1      40.107  27.563  28.963  1.00  0.00     0.049 A 
ATOM     31  N   UNL A   1      41.414  29.099  31.192  1.00  0.00    -0.248 NA
ATOM     32  C   UNL A   1      39.588  30.551  31.216  1.00  0.00     0.031 C 
ATOM     33  C   UNL A   1      39.549  26.822  27.827  1.00  0.00     0.029 A 
ATOM     34  N   UNL A   1      41.301  26.933  29.211  1.00  0.00    -0.354 N 
ATOM     35  C   UNL A   1      41.643  30.107  32.121  1.00  0.00     0.074 A 
ATOM     36  C   UNL A   1      40.505  30.999  32.064  1.00  0.00     0.031 C 
ATOM     37  C   UNL A   1      40.400  25.845  27.477  1.00  0.00     0.029 A 
ATOM     38  C   UNL A   1      41.577  25.908  28.335  1.00  0.00     0.049 A 
ATOM     39  H   UNL A   1      41.903  27.189  29.947  1.00  0.00     0.167 HD
ATOM     40  C   UNL A   1      42.696  30.263  32.959  1.00  0.00     0.034 A 
ATOM     41  C   UNL A   1      42.664  25.119  28.221  1.00  0.00     0.034 A 
ATOM     42  C   UNL A   1      43.800  29.347  33.045  1.00  0.00     0.049 A 
ATOM     43  C   UNL A   1      43.800  25.299  29.191  1.00  0.00     0.074 A 
ATOM     44  C   UNL A   1      44.855  29.357  33.942  1.00  0.00     0.029 A 
ATOM     45  N   UNL A   1      44.006  28.270  32.199  1.00  0.00    -0.354 N 
ATOM     46  N   UNL A   1      43.908  26.145  30.187  1.00  0.00    -0.248 NA
ATOM     47  C   UNL A   1      44.951  24.396  29.043  1.00  0.00     0.031 C 
ATOM     48  C   UNL A   1      45.715  28.303  33.618  1.00  0.00     0.029 A 
ATOM     49  C   UNL A   1      45.181  27.621  32.536  1.00  0.00     0.049 A 
ATOM     50  H   UNL A   1      43.405  28.004  31.465  1.00  0.00     0.167 HD
ATOM     51  C   UNL A   1      45.122  25.857  30.800  1.00  0.00     0.074 A 
ATOM     52  C   UNL A   1      45.698  24.738  30.083  1.00  0.00     0.031 C 
ATOM     53  C   UNL A   1      45.719  26.477  31.847  1.00  0.00     0.034 A 
BRANCH  40  54
ATOM     54  C   UNL A   1      42.690  31.441  33.897  1.00  0.00     0.023 A 
ATOM     55  C   UNL A   1      43.206  32.679  33.464  1.00  0.00     0.012 A 
ATOM     56  C   UNL A   1      42.078  31.351  35.164  1.00  0.00     0.148 A 
ATOM     57  C   UNL A   1      43.131  33.806  34.282  1.00  0.00     0.002 A 
ATOM     58  C   UNL A   1      41.969  32.489  35.957  1.00  0.00     0.091 A 
ATOM     59  F   UNL A   1      41.609  30.161  35.564  1.00  0.00    -0.205 F 
ATOM     60  C   UNL A   1      42.502  33.713  35.521  1.00  0.00     0.022 A 
BRANCH  58  61
ATOM     61  S   UNL A   1      41.107  32.495  37.533  1.00  0.00     0.127 S 
ATOM     62  O   UNL A   1      41.973  31.634  38.343  1.00  0.00    -0.237 OA
ATOM     63  O   UNL A   1      41.148  33.913  37.898  1.00  0.00    -0.237 OA
ATOM     64  O   UNL A   1      39.780  31.968  37.273  1.00  0.00    -0.744 OA
ENDBRANCH  58  61
ENDBRANCH  40  54
BRANCH  41  65
ATOM     65  C   UNL A   1      42.719  24.058  27.173  1.00  0.00     0.023 A 
ATOM     66  C   UNL A   1      43.408  24.308  25.972  1.00  0.00     0.012 A 
ATOM     67  C   UNL A   1      42.099  22.809  27.361  1.00  0.00     0.148 A 
ATOM     68  C   UNL A   1      43.443  23.349  24.958  1.00  0.00     0.002 A 
ATOM     69  C   UNL A   1      42.189  21.835  26.372  1.00  0.00     0.091 A 
ATOM     70  F   UNL A   1      41.432  22.591  28.504  1.00  0.00    -0.205 F 
ATOM     71  C   UNL A   1      42.843  22.110  25.161  1.00  0.00     0.022 A 
BRANCH  69  72
ATOM     72  S   UNL A   1      41.567  20.167  26.617  1.00  0.00     0.127 S 
ATOM     73  O   UNL A   1      42.002  19.502  25.390  1.00  0.00    -0.237 OA
ATOM     74  O   UNL A   1      42.277  19.751  27.828  1.00  0.00    -0.237 OA
ATOM     75  O   UNL A   1      40.130  20.311  26.791  1.00  0.00    -0.744 OA
ENDBRANCH  69  72
ENDBRANCH  41  65
BRANCH  53  76
ATOM     76  C   UNL A   1      47.055  25.951  32.299  1.00  0.00     0.023 A 
ATOM     77  C   UNL A   1      47.126  25.104  33.424  1.00  0.00     0.012 A 
ATOM     78  C   UNL A   1      48.228  26.237  31.573  1.00  0.00     0.148 A 
ATOM     79  C   UNL A   1      48.347  24.578  33.839  1.00  0.00     0.002 A 
ATOM     80  C   UNL A   1      49.434  25.668  31.963  1.00  0.00     0.091 A 
ATOM     81  F   UNL A   1      48.141  27.058  30.516  1.00  0.00    -0.205 F 
ATOM     82  C   UNL A   1      49.499  24.851  33.103  1.00  0.00     0.022 A 
BRANCH  80  83
ATOM     83  S   UNL A   1      50.949  25.883  31.023  1.00  0.00     0.127 S 
ATOM     84  O   UNL A   1      50.569  25.344  29.717  1.00  0.00    -0.237 OA
ATOM     85  O   UNL A   1      51.129  27.335  31.054  1.00  0.00    -0.237 OA
ATOM     86  O   UNL A   1      51.975  25.131  31.732  1.00  0.00    -0.744 OA
ENDBRANCH  80  83
ENDBRANCH  53  76
ENDBRANCH  27  28
ENDBRANCH  19  22
ENDBRANCH  17  18
ENDBRANCH   1  17
TORSDOF 16
ENDMDL
MODEL 3
REMARK VINA RESULT:     -10.6      6.591     10.972
REMARK SMILES CCCCc1[nH]ncc1C(=O)NCCCNC(=O)c1ccc(-c2c3nc(c(-c4cccc(S(=O)(=O)[O-])c4F)c4ccc([nH]4)c(-c4cccc(S(=O)(=O)[O-])c4F)c4nc(c(-c5cccc(S(=O)(=O)[O-])c5F)c5ccc2[nH]5)C=C4)C=C3)cc1
REMARK SMILES IDX 14 1 13 2 12 3 10 4 11 5 9 7 5 8 6 9 7 10 8 12 4 13 3 14
REMARK SMILES IDX 2 15 1 16 15 17 16 18 17 19 18 21 19 22 20 23 81 24 21 25
REMARK SMILES IDX 80 26 22 27 23 28 24 29 74 30 25 31 79 32 73 33 75 34 26 35
REMARK SMILES IDX 78 36 72 37 71 38 27 40 59 41 39 42 58 43 40 44 43 45 57 46
REMARK SMILES IDX 76 47 41 48 42 49 56 51 77 52 44 53 28 54 29 55 37 56 30 57
REMARK SMILES IDX 32 58 38 59 31 60 33 61 34 62 35 63 36 64 60 65 61 66 69 67
REMARK SMILES IDX 62 68 64 69 70 70 63 71 65 72 66 73 67 74 68 75 45 76 46 77
REMARK SMILES IDX 54 78 47 79 49 80 55 81 48 82 50 83 51 84 52 85 53 86
REMARK H PARENT 12 6 6 11 16 20 75 39 43 50
REMARK Flexibility Score: inf
ROOT
ATOM      1  C   UNL A   1      41.146  21.286  27.486  1.00  0.00     0.042 C 
ENDROOT
BRANCH   1   2
ATOM      2  C   UNL A   1      42.410  20.442  27.642  1.00  0.00     0.118 C 
BRANCH   2   3
ATOM      3  N   UNL A   1      42.474  19.390  26.658  1.00  0.00    -0.352 N 
ATOM      4  C   UNL A   1      43.390  19.038  25.707  1.00  0.00     0.254 C 
ATOM      5  O   UNL A   1      43.147  17.964  25.145  1.00  0.00    -0.269 OA
ATOM      6  H   UNL A   1      41.687  18.798  26.675  1.00  0.00     0.163 HD
BRANCH   4   7
ATOM      7  C   UNL A   1      44.600  19.779  25.351  1.00  0.00     0.080 A 
ATOM      8  C   UNL A   1      44.963  21.099  25.078  1.00  0.00     0.048 A 
ATOM      9  N   UNL A   1      46.285  21.054  24.697  1.00  0.00    -0.282 N 
ATOM     10  N   UNL A   1      46.842  19.846  24.764  1.00  0.00    -0.183 NA
ATOM     11  H   UNL A   1      46.779  21.851  24.400  1.00  0.00     0.190 HD
ATOM     12  C   UNL A   1      45.822  19.070  25.120  1.00  0.00     0.149 A 
BRANCH   8  13
ATOM     13  C   UNL A   1      44.292  22.430  25.015  1.00  0.00     0.056 C 
BRANCH  13  14
ATOM     14  C   UNL A   1      44.297  23.168  26.364  1.00  0.00     0.006 C 
BRANCH  14  15
ATOM     15  C   UNL A   1      44.686  24.650  26.298  1.00  0.00    -0.003 C 
ATOM     16  C   UNL A   1      45.505  25.007  25.066  1.00  0.00     0.004 C 
ENDBRANCH  14  15
ENDBRANCH  13  14
ENDBRANCH   8  13
ENDBRANCH   4   7
ENDBRANCH   2   3
ENDBRANCH   1   2
BRANCH   1  17
ATOM     17  C   UNL A   1      40.907  21.795  26.069  1.00  0.00     0.118 C 
BRANCH  17  18
ATOM     18  N   UNL A   1      39.496  22.068  25.822  1.00  0.00    -0.352 N 
ATOM     19  C   UNL A   1      38.706  23.111  26.237  1.00  0.00     0.251 C 
ATOM     20  H   UNL A   1      39.036  21.397  25.268  1.00  0.00     0.163 HD
ATOM     21  O   UNL A   1      37.484  23.014  26.122  1.00  0.00    -0.269 OA
BRANCH  19  22
ATOM     22  C   UNL A   1      39.294  24.335  26.827  1.00  0.00     0.039 A 
ATOM     23  C   UNL A   1      39.993  25.216  25.994  1.00  0.00     0.014 A 
ATOM     24  C   UNL A   1      39.203  24.602  28.195  1.00  0.00     0.014 A 
ATOM     25  C   UNL A   1      40.533  26.394  26.518  1.00  0.00     0.010 A 
ATOM     26  C   UNL A   1      39.676  25.812  28.702  1.00  0.00     0.010 A 
ATOM     27  C   UNL A   1      40.341  26.723  27.870  1.00  0.00    -0.014 A 
BRANCH  27  28
ATOM     28  C   UNL A   1      40.782  28.033  28.416  1.00  0.00     0.031 A 
ATOM     29  C   UNL A   1      42.244  28.330  28.619  1.00  0.00     0.074 A 
ATOM     30  C   UNL A   1      39.851  28.917  28.829  1.00  0.00     0.049 A 
ATOM     31  N   UNL A   1      42.802  29.386  29.150  1.00  0.00    -0.248 NA
ATOM     32  C   UNL A   1      43.205  27.298  28.192  1.00  0.00     0.031 C 
ATOM     33  C   UNL A   1      38.401  28.710  28.762  1.00  0.00     0.029 A 
ATOM     34  N   UNL A   1      39.979  30.151  29.418  1.00  0.00    -0.354 N 
ATOM     35  C   UNL A   1      44.169  29.133  29.160  1.00  0.00     0.074 A 
ATOM     36  C   UNL A   1      44.357  27.814  28.597  1.00  0.00     0.031 C 
ATOM     37  C   UNL A   1      37.778  29.774  29.292  1.00  0.00     0.029 A 
ATOM     38  C   UNL A   1      38.777  30.723  29.768  1.00  0.00     0.049 A 
ATOM     39  H   UNL A   1      40.849  30.585  29.575  1.00  0.00     0.167 HD
ATOM     40  C   UNL A   1      45.176  29.936  29.580  1.00  0.00     0.034 A 
ATOM     41  C   UNL A   1      38.508  31.873  30.417  1.00  0.00     0.034 A 
ATOM     42  C   UNL A   1      44.986  31.266  30.093  1.00  0.00     0.049 A 
ATOM     43  C   UNL A   1      39.652  32.756  30.838  1.00  0.00     0.074 A 
ATOM     44  C   UNL A   1      45.950  32.199  30.435  1.00  0.00     0.029 A 
ATOM     45  N   UNL A   1      43.757  31.847  30.355  1.00  0.00    -0.354 N 
ATOM     46  N   UNL A   1      40.939  32.579  30.664  1.00  0.00    -0.248 NA
ATOM     47  C   UNL A   1      39.305  34.013  31.518  1.00  0.00     0.031 C 
ATOM     48  C   UNL A   1      45.303  33.334  30.933  1.00  0.00     0.029 A 
ATOM     49  C   UNL A   1      43.936  33.118  30.876  1.00  0.00     0.049 A 
ATOM     50  H   UNL A   1      42.884  31.421  30.194  1.00  0.00     0.167 HD
ATOM     51  C   UNL A   1      41.552  33.712  31.185  1.00  0.00     0.074 A 
ATOM     52  C   UNL A   1      40.495  34.583  31.652  1.00  0.00     0.031 C 
ATOM     53  C   UNL A   1      42.874  33.996  31.290  1.00  0.00     0.034 A 
BRANCH  40  54
ATOM     54  C   UNL A   1      46.589  29.430  29.457  1.00  0.00     0.023 A 
ATOM     55  C   UNL A   1      47.171  28.722  30.527  1.00  0.00     0.012 A 
ATOM     56  C   UNL A   1      47.299  29.560  28.245  1.00  0.00     0.148 A 
ATOM     57  C   UNL A   1      48.444  28.167  30.404  1.00  0.00     0.002 A 
ATOM     58  C   UNL A   1      48.551  28.967  28.116  1.00  0.00     0.091 A 
ATOM     59  F   UNL A   1      46.735  30.251  27.245  1.00  0.00    -0.205 F 
ATOM     60  C   UNL A   1      49.127  28.279  29.195  1.00  0.00     0.022 A 
BRANCH  58  61
ATOM     61  S   UNL A   1      49.478  28.985  26.577  1.00  0.00     0.127 S 
ATOM     62  O   UNL A   1      49.819  30.405  26.457  1.00  0.00    -0.237 OA
ATOM     63  O   UNL A   1      50.612  28.114  26.895  1.00  0.00    -0.237 OA
ATOM     64  O   UNL A   1      48.581  28.475  25.556  1.00  0.00    -0.744 OA
ENDBRANCH  58  61
ENDBRANCH  40  54
BRANCH  41  65
ATOM     65  C   UNL A   1      37.097  32.280  30.675  1.00  0.00     0.023 A 
ATOM     66  C   UNL A   1      36.538  32.069  31.950  1.00  0.00     0.012 A 
ATOM     67  C   UNL A   1      36.310  32.877  29.672  1.00  0.00     0.148 A 
ATOM     68  C   UNL A   1      35.208  32.404  32.209  1.00  0.00     0.002 A 
ATOM     69  C   UNL A   1      35.004  33.265  29.954  1.00  0.00     0.091 A 
ATOM     70  F   UNL A   1      36.851  33.058  28.458  1.00  0.00    -0.205 F 
ATOM     71  C   UNL A   1      34.445  33.010  31.216  1.00  0.00     0.022 A 
BRANCH  69  72
ATOM     72  S   UNL A   1      34.005  34.181  28.774  1.00  0.00     0.127 S 
ATOM     73  O   UNL A   1      34.911  35.262  28.392  1.00  0.00    -0.237 OA
ATOM     74  O   UNL A   1      33.768  33.180  27.732  1.00  0.00    -0.237 OA
ATOM     75  O   UNL A   1      32.810  34.575  29.502  1.00  0.00    -0.744 OA
ENDBRANCH  69  72
ENDBRANCH  41  65
BRANCH  53  76
ATOM     76  C   UNL A   1      43.256  35.312  31.915  1.00  0.00     0.023 A 
ATOM     77  C   UNL A   1      43.336  35.421  33.318  1.00  0.00     0.012 A 
ATOM     78  C   UNL A   1      43.601  36.418  31.113  1.00  0.00     0.148 A 
ATOM     79  C   UNL A   1      43.722  36.620  33.914  1.00  0.00     0.002 A 
ATOM     80  C   UNL A   1      44.033  37.594  31.714  1.00  0.00     0.091 A 
ATOM     81  F   UNL A   1      43.501  36.298  29.781  1.00  0.00    -0.205 F 
ATOM     82  C   UNL A   1      44.080  37.702  33.113  1.00  0.00     0.022 A 
BRANCH  80  83
ATOM     83  S   UNL A   1      44.606  39.006  30.764  1.00  0.00     0.127 S 
ATOM     84  O   UNL A   1      43.384  39.416  30.072  1.00  0.00    -0.237 OA
ATOM     85  O   UNL A   1      45.050  39.925  31.813  1.00  0.00    -0.237 OA
ATOM     86  O   UNL A   1      45.672  38.509  29.905  1.00  0.00    -0.744 OA
ENDBRANCH  80  83
ENDBRANCH  53  76
ENDBRANCH  27  28
ENDBRANCH  19  22
ENDBRANCH  17  18
ENDBRANCH   1  17
TORSDOF 16
ENDMDL
