MODEL 1
REMARK VINA RESULT:     -11.3      0.000      0.000
REMARK SMILES COCCn1nnc(C(=O)NCCCNC(=O)c2ccc(-c3c4nc(c(-c5cccc(S(=O)(=O)[O-])c5F)c5ccc([nH]5)c(-c5cccc(S(=O)(=O)[O-])c5F)c5nc(c(-c6cccc(S(=O)(=O)[O-])c6F)c6ccc3[nH]6)C=C5)C=C4)cc2)c1C(F)(F)F
REMARK SMILES IDX 13 1 12 2 11 3 9 4 10 5 8 7 5 8 6 9 81 10 7 11 4 12 3 13
REMARK SMILES IDX 2 14 1 15 82 16 83 17 84 18 85 19 14 20 15 21 16 22 17 24
REMARK SMILES IDX 18 25 19 26 80 27 20 28 79 29 21 30 22 31 23 32 73 33 24 34
REMARK SMILES IDX 78 35 72 36 74 37 25 38 77 39 71 40 70 41 26 43 58 44 38 45
REMARK SMILES IDX 57 46 39 47 42 48 56 49 75 50 40 51 41 52 55 54 76 55 43 56
REMARK SMILES IDX 27 57 28 58 36 59 29 60 31 61 37 62 30 63 32 64 33 65 34 66
REMARK SMILES IDX 35 67 59 68 60 69 68 70 61 71 63 72 69 73 62 74 64 75 65 76
REMARK SMILES IDX 66 77 67 78 44 79 45 80 53 81 46 82 48 83 54 84 47 85 49 86
REMARK SMILES IDX 50 87 51 88 52 89
REMARK H PARENT 11 6 15 23 74 42 42 53
REMARK Flexibility Score: inf
ROOT
ATOM      1  C   UNL A   1      37.700  20.179  25.003  1.00  0.00     0.042 C 
ENDROOT
BRANCH   1   2
ATOM      2  C   UNL A   1      36.586  21.203  25.212  1.00  0.00     0.118 C 
BRANCH   2   3
ATOM      3  N   UNL A   1      35.299  20.641  25.565  1.00  0.00    -0.351 N 
ATOM      4  C   UNL A   1      33.999  20.840  25.188  1.00  0.00     0.274 C 
ATOM      5  O   UNL A   1      33.194  20.018  25.635  1.00  0.00    -0.267 OA
ATOM      6  H   UNL A   1      35.381  19.938  26.249  1.00  0.00     0.163 HD
BRANCH   4   7
ATOM      7  C   UNL A   1      33.520  21.976  24.405  1.00  0.00     0.182 A 
ATOM      8  N   UNL A   1      32.829  23.805  23.461  1.00  0.00    -0.237 N 
ATOM      9  N   UNL A   1      32.449  22.802  22.663  1.00  0.00    -0.066 NA
ATOM     10  C   UNL A   1      33.615  23.359  24.496  1.00  0.00     0.175 A 
ATOM     11  N   UNL A   1      32.852  21.682  23.227  1.00  0.00    -0.124 NA
BRANCH   8  12
ATOM     12  C   UNL A   1      32.285  25.118  23.182  1.00  0.00     0.175 C 
BRANCH  12  13
ATOM     13  C   UNL A   1      32.448  25.500  21.715  1.00  0.00     0.183 C 
BRANCH  13  14
ATOM     14  O   UNL A   1      33.654  26.237  21.504  1.00  0.00    -0.383 OA
ATOM     15  C   UNL A   1      33.684  27.447  22.262  1.00  0.00     0.194 C 
ENDBRANCH  13  14
ENDBRANCH  12  13
ENDBRANCH   8  12
BRANCH  10  16
ATOM     16  C   UNL A   1      34.329  24.277  25.382  1.00  0.00     0.435 C 
ATOM     17  F   UNL A   1      35.644  24.378  25.086  1.00  0.00    -0.164 F 
ATOM     18  F   UNL A   1      33.810  25.530  25.339  1.00  0.00    -0.164 F 
ATOM     19  F   UNL A   1      34.269  23.912  26.688  1.00  0.00    -0.164 F 
ENDBRANCH  10  16
ENDBRANCH   4   7
ENDBRANCH   2   3
ENDBRANCH   1   2
BRANCH   1  20
ATOM     20  C   UNL A   1      39.007  20.611  25.655  1.00  0.00     0.118 C 
BRANCH  20  21
ATOM     21  N   UNL A   1      39.978  19.510  25.775  1.00  0.00    -0.352 N 
ATOM     22  C   UNL A   1      41.344  19.591  25.977  1.00  0.00     0.251 C 
ATOM     23  H   UNL A   1      39.608  18.601  25.702  1.00  0.00     0.163 HD
ATOM     24  O   UNL A   1      42.084  18.644  25.702  1.00  0.00    -0.269 OA
BRANCH  22  25
ATOM     25  C   UNL A   1      41.896  20.831  26.538  1.00  0.00     0.039 A 
ATOM     26  C   UNL A   1      42.281  21.912  25.740  1.00  0.00     0.014 A 
ATOM     27  C   UNL A   1      41.909  20.922  27.926  1.00  0.00     0.014 A 
ATOM     28  C   UNL A   1      42.576  23.122  26.363  1.00  0.00     0.010 A 
ATOM     29  C   UNL A   1      41.964  22.157  28.506  1.00  0.00     0.010 A 
ATOM     30  C   UNL A   1      42.377  23.243  27.749  1.00  0.00    -0.014 A 
BRANCH  30  31
ATOM     31  C   UNL A   1      42.434  24.531  28.425  1.00  0.00     0.031 A 
ATOM     32  C   UNL A   1      41.225  25.362  28.189  1.00  0.00     0.074 A 
ATOM     33  C   UNL A   1      43.374  24.819  29.356  1.00  0.00     0.049 A 
ATOM     34  N   UNL A   1      41.122  26.382  27.403  1.00  0.00    -0.248 NA
ATOM     35  C   UNL A   1      39.928  24.874  28.691  1.00  0.00     0.031 C 
ATOM     36  C   UNL A   1      44.405  23.922  29.901  1.00  0.00     0.029 A 
ATOM     37  N   UNL A   1      43.528  25.933  30.121  1.00  0.00    -0.354 N 
ATOM     38  C   UNL A   1      39.817  26.840  27.568  1.00  0.00     0.074 A 
ATOM     39  C   UNL A   1      39.083  25.735  28.116  1.00  0.00     0.031 C 
ATOM     40  C   UNL A   1      44.888  24.429  31.056  1.00  0.00     0.029 A 
ATOM     41  C   UNL A   1      44.345  25.759  31.238  1.00  0.00     0.049 A 
ATOM     42  H   UNL A   1      43.098  26.791  29.904  1.00  0.00     0.167 HD
ATOM     43  C   UNL A   1      39.553  28.178  27.565  1.00  0.00     0.034 A 
ATOM     44  C   UNL A   1      44.536  26.635  32.256  1.00  0.00     0.034 A 
ATOM     45  C   UNL A   1      40.702  28.910  27.078  1.00  0.00     0.049 A 
ATOM     46  C   UNL A   1      44.131  27.964  31.753  1.00  0.00     0.074 A 
ATOM     47  C   UNL A   1      41.431  28.948  25.908  1.00  0.00     0.029 A 
ATOM     48  N   UNL A   1      41.501  29.450  28.057  1.00  0.00    -0.354 N 
ATOM     49  N   UNL A   1      44.760  28.590  30.800  1.00  0.00    -0.248 NA
ATOM     50  C   UNL A   1      42.768  28.400  32.002  1.00  0.00     0.031 C 
ATOM     51  C   UNL A   1      42.783  29.144  26.319  1.00  0.00     0.029 A 
ATOM     52  C   UNL A   1      42.812  29.305  27.707  1.00  0.00     0.049 A 
ATOM     53  H   UNL A   1      41.178  29.875  28.884  1.00  0.00     0.167 HD
ATOM     54  C   UNL A   1      43.742  29.127  30.025  1.00  0.00     0.074 A 
ATOM     55  C   UNL A   1      42.562  29.107  30.887  1.00  0.00     0.031 C 
ATOM     56  C   UNL A   1      43.891  29.238  28.671  1.00  0.00     0.034 A 
BRANCH  43  57
ATOM     57  C   UNL A   1      38.501  28.882  28.414  1.00  0.00     0.023 A 
ATOM     58  C   UNL A   1      37.676  29.818  27.742  1.00  0.00     0.012 A 
ATOM     59  C   UNL A   1      38.457  28.910  29.827  1.00  0.00     0.148 A 
ATOM     60  C   UNL A   1      36.931  30.781  28.431  1.00  0.00     0.002 A 
ATOM     61  C   UNL A   1      37.663  29.827  30.510  1.00  0.00     0.091 A 
ATOM     62  F   UNL A   1      39.260  28.128  30.546  1.00  0.00    -0.205 F 
ATOM     63  C   UNL A   1      36.926  30.789  29.818  1.00  0.00     0.022 A 
BRANCH  61  64
ATOM     64  S   UNL A   1      37.587  29.863  32.309  1.00  0.00     0.127 S 
ATOM     65  O   UNL A   1      37.207  28.487  32.613  1.00  0.00    -0.237 OA
ATOM     66  O   UNL A   1      38.964  30.219  32.654  1.00  0.00    -0.237 OA
ATOM     67  O   UNL A   1      36.603  30.884  32.647  1.00  0.00    -0.744 OA
ENDBRANCH  61  64
ENDBRANCH  43  57
BRANCH  44  68
ATOM     68  C   UNL A   1      44.812  26.406  33.694  1.00  0.00     0.023 A 
ATOM     69  C   UNL A   1      46.101  26.652  34.212  1.00  0.00     0.012 A 
ATOM     70  C   UNL A   1      43.748  26.248  34.607  1.00  0.00     0.148 A 
ATOM     71  C   UNL A   1      46.315  26.777  35.592  1.00  0.00     0.002 A 
ATOM     72  C   UNL A   1      43.965  26.372  35.977  1.00  0.00     0.091 A 
ATOM     73  F   UNL A   1      42.511  26.071  34.124  1.00  0.00    -0.205 F 
ATOM     74  C   UNL A   1      45.245  26.650  36.473  1.00  0.00     0.022 A 
BRANCH  72  75
ATOM     75  S   UNL A   1      42.627  26.264  37.175  1.00  0.00     0.127 S 
ATOM     76  O   UNL A   1      42.087  24.933  36.900  1.00  0.00    -0.237 OA
ATOM     77  O   UNL A   1      43.347  26.385  38.440  1.00  0.00    -0.237 OA
ATOM     78  O   UNL A   1      41.723  27.360  36.856  1.00  0.00    -0.744 OA
ENDBRANCH  72  75
ENDBRANCH  44  68
BRANCH  56  79
ATOM     79  C   UNL A   1      45.282  29.089  28.106  1.00  0.00     0.023 A 
ATOM     80  C   UNL A   1      46.260  30.104  28.168  1.00  0.00     0.012 A 
ATOM     81  C   UNL A   1      45.649  27.820  27.632  1.00  0.00     0.148 A 
ATOM     82  C   UNL A   1      47.572  29.858  27.750  1.00  0.00     0.002 A 
ATOM     83  C   UNL A   1      46.963  27.565  27.265  1.00  0.00     0.091 A 
ATOM     84  F   UNL A   1      44.705  26.870  27.574  1.00  0.00    -0.205 F 
ATOM     85  C   UNL A   1      47.927  28.583  27.312  1.00  0.00     0.022 A 
BRANCH  83  86
ATOM     86  S   UNL A   1      47.498  25.914  26.818  1.00  0.00     0.127 S 
ATOM     87  O   UNL A   1      48.934  26.101  26.623  1.00  0.00    -0.237 OA
ATOM     88  O   UNL A   1      47.136  25.135  28.003  1.00  0.00    -0.237 OA
ATOM     89  O   UNL A   1      46.743  25.558  25.622  1.00  0.00    -0.744 OA
ENDBRANCH  83  86
ENDBRANCH  56  79
ENDBRANCH  30  31
ENDBRANCH  22  25
ENDBRANCH  20  21
ENDBRANCH   1  20
TORSDOF 17
ENDMDL
MODEL 2
REMARK VINA RESULT:     -11.2      1.486      2.001
REMARK SMILES COCCn1nnc(C(=O)NCCCNC(=O)c2ccc(-c3c4nc(c(-c5cccc(S(=O)(=O)[O-])c5F)c5ccc([nH]5)c(-c5cccc(S(=O)(=O)[O-])c5F)c5nc(c(-c6cccc(S(=O)(=O)[O-])c6F)c6ccc3[nH]6)C=C5)C=C4)cc2)c1C(F)(F)F
REMARK SMILES IDX 13 1 12 2 11 3 9 4 10 5 8 7 5 8 6 9 81 10 7 11 4 12 3 13
REMARK SMILES IDX 2 14 1 15 82 16 83 17 84 18 85 19 14 20 15 21 16 22 17 24
REMARK SMILES IDX 18 25 19 26 80 27 20 28 79 29 21 30 22 31 23 32 73 33 24 34
REMARK SMILES IDX 78 35 72 36 74 37 25 38 77 39 71 40 70 41 26 43 58 44 38 45
REMARK SMILES IDX 57 46 39 47 42 48 56 49 75 50 40 51 41 52 55 54 76 55 43 56
REMARK SMILES IDX 27 57 28 58 36 59 29 60 31 61 37 62 30 63 32 64 33 65 34 66
REMARK SMILES IDX 35 67 59 68 60 69 68 70 61 71 63 72 69 73 62 74 64 75 65 76
REMARK SMILES IDX 66 77 67 78 44 79 45 80 53 81 46 82 48 83 54 84 47 85 49 86
REMARK SMILES IDX 50 87 51 88 52 89
REMARK H PARENT 11 6 15 23 74 42 42 53
REMARK Flexibility Score: inf
ROOT
ATOM      1  C   UNL A   1      37.966  19.863  25.399  1.00  0.00     0.042 C 
ENDROOT
BRANCH   1   2
ATOM      2  C   UNL A   1      36.875  20.932  25.388  1.00  0.00     0.118 C 
BRANCH   2   3
ATOM      3  N   UNL A   1      36.836  21.752  24.195  1.00  0.00    -0.351 N 
ATOM      4  C   UNL A   1      36.025  22.736  23.700  1.00  0.00     0.274 C 
ATOM      5  O   UNL A   1      36.445  23.298  22.685  1.00  0.00    -0.267 OA
ATOM      6  H   UNL A   1      37.583  21.549  23.586  1.00  0.00     0.163 HD
BRANCH   4   7
ATOM      7  C   UNL A   1      34.705  23.074  24.225  1.00  0.00     0.182 A 
ATOM      8  N   UNL A   1      32.650  23.384  24.853  1.00  0.00    -0.237 N 
ATOM      9  N   UNL A   1      33.313  24.500  25.170  1.00  0.00    -0.066 NA
ATOM     10  C   UNL A   1      33.495  22.409  24.380  1.00  0.00     0.175 A 
ATOM     11  N   UNL A   1      34.561  24.333  24.786  1.00  0.00    -0.124 NA
BRANCH   8  12
ATOM     12  C   UNL A   1      31.205  23.420  24.950  1.00  0.00     0.175 C 
BRANCH  12  13
ATOM     13  C   UNL A   1      30.723  24.566  25.832  1.00  0.00     0.183 C 
BRANCH  13  14
ATOM     14  O   UNL A   1      30.267  24.087  27.099  1.00  0.00    -0.383 OA
ATOM     15  C   UNL A   1      29.695  22.781  27.005  1.00  0.00     0.194 C 
ENDBRANCH  13  14
ENDBRANCH  12  13
ENDBRANCH   8  12
BRANCH  10  16
ATOM     16  C   UNL A   1      33.051  21.033  24.165  1.00  0.00     0.435 C 
ATOM     17  F   UNL A   1      34.058  20.135  24.257  1.00  0.00    -0.164 F 
ATOM     18  F   UNL A   1      32.098  20.662  25.055  1.00  0.00    -0.164 F 
ATOM     19  F   UNL A   1      32.492  20.838  22.943  1.00  0.00    -0.164 F 
ENDBRANCH  10  16
ENDBRANCH   4   7
ENDBRANCH   2   3
ENDBRANCH   1   2
BRANCH   1  20
ATOM     20  C   UNL A   1      39.329  20.439  25.759  1.00  0.00     0.118 C 
BRANCH  20  21
ATOM     21  N   UNL A   1      40.394  19.421  25.774  1.00  0.00    -0.352 N 
ATOM     22  C   UNL A   1      41.759  19.611  25.894  1.00  0.00     0.251 C 
ATOM     23  H   UNL A   1      40.097  18.487  25.688  1.00  0.00     0.163 HD
ATOM     24  O   UNL A   1      42.556  18.742  25.536  1.00  0.00    -0.269 OA
BRANCH  22  25
ATOM     25  C   UNL A   1      42.241  20.874  26.469  1.00  0.00     0.039 A 
ATOM     26  C   UNL A   1      42.566  21.984  25.684  1.00  0.00     0.014 A 
ATOM     27  C   UNL A   1      42.250  20.950  27.858  1.00  0.00     0.014 A 
ATOM     28  C   UNL A   1      42.794  23.201  26.320  1.00  0.00     0.010 A 
ATOM     29  C   UNL A   1      42.237  22.179  28.452  1.00  0.00     0.010 A 
ATOM     30  C   UNL A   1      42.588  23.295  27.707  1.00  0.00    -0.014 A 
BRANCH  30  31
ATOM     31  C   UNL A   1      42.574  24.577  28.398  1.00  0.00     0.031 A 
ATOM     32  C   UNL A   1      41.320  25.341  28.172  1.00  0.00     0.074 A 
ATOM     33  C   UNL A   1      43.498  24.907  29.331  1.00  0.00     0.049 A 
ATOM     34  N   UNL A   1      41.158  26.362  27.399  1.00  0.00    -0.248 NA
ATOM     35  C   UNL A   1      40.053  24.775  28.670  1.00  0.00     0.031 C 
ATOM     36  C   UNL A   1      44.579  24.063  29.865  1.00  0.00     0.029 A 
ATOM     37  N   UNL A   1      43.590  26.019  30.108  1.00  0.00    -0.354 N 
ATOM     38  C   UNL A   1      39.830  26.744  27.570  1.00  0.00     0.074 A 
ATOM     39  C   UNL A   1      39.160  25.593  28.106  1.00  0.00     0.031 C 
ATOM     40  C   UNL A   1      45.035  24.583  31.025  1.00  0.00     0.029 A 
ATOM     41  C   UNL A   1      44.418  25.879  31.223  1.00  0.00     0.049 A 
ATOM     42  H   UNL A   1      43.112  26.854  29.902  1.00  0.00     0.167 HD
ATOM     43  C   UNL A   1      39.491  28.065  27.583  1.00  0.00     0.034 A 
ATOM     44  C   UNL A   1      44.562  26.753  32.250  1.00  0.00     0.034 A 
ATOM     45  C   UNL A   1      40.595  28.866  27.103  1.00  0.00     0.049 A 
ATOM     46  C   UNL A   1      44.081  28.062  31.762  1.00  0.00     0.074 A 
ATOM     47  C   UNL A   1      41.319  28.958  25.932  1.00  0.00     0.029 A 
ATOM     48  N   UNL A   1      41.365  29.439  28.086  1.00  0.00    -0.354 N 
ATOM     49  N   UNL A   1      44.672  28.734  30.816  1.00  0.00    -0.248 NA
ATOM     50  C   UNL A   1      42.696  28.418  32.018  1.00  0.00     0.031 C 
ATOM     51  C   UNL A   1      42.659  29.226  26.344  1.00  0.00     0.029 A 
ATOM     52  C   UNL A   1      42.681  29.372  27.733  1.00  0.00     0.049 A 
ATOM     53  H   UNL A   1      41.019  29.836  28.919  1.00  0.00     0.167 HD
ATOM     54  C   UNL A   1      43.625  29.220  30.048  1.00  0.00     0.074 A 
ATOM     55  C   UNL A   1      42.449  29.124  30.912  1.00  0.00     0.031 C 
ATOM     56  C   UNL A   1      43.764  29.355  28.696  1.00  0.00     0.034 A 
BRANCH  43  57
ATOM     57  C   UNL A   1      38.402  28.699  28.441  1.00  0.00     0.023 A 
ATOM     58  C   UNL A   1      37.500  29.562  27.772  1.00  0.00     0.012 A 
ATOM     59  C   UNL A   1      38.378  28.741  29.854  1.00  0.00     0.148 A 
ATOM     60  C   UNL A   1      36.695  30.476  28.462  1.00  0.00     0.002 A 
ATOM     61  C   UNL A   1      37.529  29.605  30.540  1.00  0.00     0.091 A 
ATOM     62  F   UNL A   1      39.248  28.031  30.568  1.00  0.00    -0.205 F 
ATOM     63  C   UNL A   1      36.711  30.500  29.849  1.00  0.00     0.022 A 
BRANCH  61  64
ATOM     64  S   UNL A   1      37.479  29.658  32.339  1.00  0.00     0.127 S 
ATOM     65  O   UNL A   1      38.714  30.373  32.644  1.00  0.00    -0.237 OA
ATOM     66  O   UNL A   1      36.248  30.413  32.576  1.00  0.00    -0.237 OA
ATOM     67  O   UNL A   1      37.423  28.269  32.778  1.00  0.00    -0.744 OA
ENDBRANCH  61  64
ENDBRANCH  43  57
BRANCH  44  68
ATOM     68  C   UNL A   1      44.852  26.523  33.685  1.00  0.00     0.023 A 
ATOM     69  C   UNL A   1      46.130  26.823  34.201  1.00  0.00     0.012 A 
ATOM     70  C   UNL A   1      43.800  26.309  34.600  1.00  0.00     0.148 A 
ATOM     71  C   UNL A   1      46.343  26.945  35.581  1.00  0.00     0.002 A 
ATOM     72  C   UNL A   1      44.016  26.431  35.970  1.00  0.00     0.091 A 
ATOM     73  F   UNL A   1      42.570  26.081  34.119  1.00  0.00    -0.205 F 
ATOM     74  C   UNL A   1      45.284  26.762  36.465  1.00  0.00     0.022 A 
BRANCH  72  75
ATOM     75  S   UNL A   1      42.689  26.252  37.171  1.00  0.00     0.127 S 
ATOM     76  O   UNL A   1      43.411  26.384  38.436  1.00  0.00    -0.237 OA
ATOM     77  O   UNL A   1      41.826  27.382  36.835  1.00  0.00    -0.237 OA
ATOM     78  O   UNL A   1      42.119  24.932  36.935  1.00  0.00    -0.744 OA
ENDBRANCH  72  75
ENDBRANCH  44  68
BRANCH  56  79
ATOM     79  C   UNL A   1      45.160  29.291  28.127  1.00  0.00     0.023 A 
ATOM     80  C   UNL A   1      46.082  30.356  28.205  1.00  0.00     0.012 A 
ATOM     81  C   UNL A   1      45.595  28.052  27.632  1.00  0.00     0.148 A 
ATOM     82  C   UNL A   1      47.405  30.189  27.782  1.00  0.00     0.002 A 
ATOM     83  C   UNL A   1      46.920  27.874  27.260  1.00  0.00     0.091 A 
ATOM     84  F   UNL A   1      44.704  27.053  27.560  1.00  0.00    -0.205 F 
ATOM     85  C   UNL A   1      47.828  28.943  27.323  1.00  0.00     0.022 A 
BRANCH  83  86
ATOM     86  S   UNL A   1      47.543  26.263  26.786  1.00  0.00     0.127 S 
ATOM     87  O   UNL A   1      48.957  26.540  26.547  1.00  0.00    -0.237 OA
ATOM     88  O   UNL A   1      47.269  25.457  27.977  1.00  0.00    -0.237 OA
ATOM     89  O   UNL A   1      46.775  25.865  25.612  1.00  0.00    -0.744 OA
ENDBRANCH  83  86
ENDBRANCH  56  79
ENDBRANCH  30  31
ENDBRANCH  22  25
ENDBRANCH  20  21
ENDBRANCH   1  20
TORSDOF 17
ENDMDL
MODEL 3
REMARK VINA RESULT:     -11.1      1.760      2.098
REMARK SMILES COCCn1nnc(C(=O)NCCCNC(=O)c2ccc(-c3c4nc(c(-c5cccc(S(=O)(=O)[O-])c5F)c5ccc([nH]5)c(-c5cccc(S(=O)(=O)[O-])c5F)c5nc(c(-c6cccc(S(=O)(=O)[O-])c6F)c6ccc3[nH]6)C=C5)C=C4)cc2)c1C(F)(F)F
REMARK SMILES IDX 13 1 12 2 11 3 9 4 10 5 8 7 5 8 6 9 81 10 7 11 4 12 3 13
REMARK SMILES IDX 2 14 1 15 82 16 83 17 84 18 85 19 14 20 15 21 16 22 17 24
REMARK SMILES IDX 18 25 19 26 80 27 20 28 79 29 21 30 22 31 23 32 73 33 24 34
REMARK SMILES IDX 78 35 72 36 74 37 25 38 77 39 71 40 70 41 26 43 58 44 38 45
REMARK SMILES IDX 57 46 39 47 42 48 56 49 75 50 40 51 41 52 55 54 76 55 43 56
REMARK SMILES IDX 27 57 28 58 36 59 29 60 31 61 37 62 30 63 32 64 33 65 34 66
REMARK SMILES IDX 35 67 59 68 60 69 68 70 61 71 63 72 69 73 62 74 64 75 65 76
REMARK SMILES IDX 66 77 67 78 44 79 45 80 53 81 46 82 48 83 54 84 47 85 49 86
REMARK SMILES IDX 50 87 51 88 52 89
REMARK H PARENT 11 6 15 23 74 42 42 53
REMARK Flexibility Score: inf
ROOT
ATOM      1  C   UNL A   1      37.802  20.164  24.994  1.00  0.00     0.042 C 
ENDROOT
BRANCH   1   2
ATOM      2  C   UNL A   1      36.602  21.040  25.350  1.00  0.00     0.118 C 
BRANCH   2   3
ATOM      3  N   UNL A   1      35.326  20.355  25.356  1.00  0.00    -0.351 N 
ATOM      4  C   UNL A   1      34.009  20.722  25.345  1.00  0.00     0.274 C 
ATOM      5  O   UNL A   1      33.209  19.794  25.196  1.00  0.00    -0.267 OA
ATOM      6  H   UNL A   1      35.436  19.377  25.371  1.00  0.00     0.163 HD
BRANCH   4   7
ATOM      7  C   UNL A   1      33.516  22.076  25.589  1.00  0.00     0.182 A 
ATOM      8  N   UNL A   1      33.008  24.171  25.841  1.00  0.00    -0.237 N 
ATOM      9  N   UNL A   1      32.226  23.490  26.684  1.00  0.00    -0.066 NA
ATOM     10  C   UNL A   1      33.741  23.331  25.038  1.00  0.00     0.175 A 
ATOM     11  N   UNL A   1      32.529  22.215  26.552  1.00  0.00    -0.124 NA
BRANCH   8  12
ATOM     12  C   UNL A   1      33.038  25.613  25.982  1.00  0.00     0.175 C 
BRANCH  12  13
ATOM     13  C   UNL A   1      31.635  26.211  25.997  1.00  0.00     0.183 C 
BRANCH  13  14
ATOM     14  O   UNL A   1      31.338  26.862  24.760  1.00  0.00    -0.383 OA
ATOM     15  C   UNL A   1      30.659  25.999  23.847  1.00  0.00     0.194 C 
ENDBRANCH  13  14
ENDBRANCH  12  13
ENDBRANCH   8  12
BRANCH  10  16
ATOM     16  C   UNL A   1      34.510  23.822  23.896  1.00  0.00     0.435 C 
ATOM     17  F   UNL A   1      34.896  22.834  23.058  1.00  0.00    -0.164 F 
ATOM     18  F   UNL A   1      33.810  24.723  23.162  1.00  0.00    -0.164 F 
ATOM     19  F   UNL A   1      35.649  24.467  24.258  1.00  0.00    -0.164 F 
ENDBRANCH  10  16
ENDBRANCH   4   7
ENDBRANCH   2   3
ENDBRANCH   1   2
BRANCH   1  20
ATOM     20  C   UNL A   1      39.055  20.571  25.758  1.00  0.00     0.118 C 
BRANCH  20  21
ATOM     21  N   UNL A   1      40.074  19.507  25.793  1.00  0.00    -0.352 N 
ATOM     22  C   UNL A   1      41.443  19.637  25.939  1.00  0.00     0.251 C 
ATOM     23  H   UNL A   1      39.737  18.587  25.701  1.00  0.00     0.163 HD
ATOM     24  O   UNL A   1      42.208  18.733  25.596  1.00  0.00    -0.269 OA
BRANCH  22  25
ATOM     25  C   UNL A   1      41.969  20.877  26.525  1.00  0.00     0.039 A 
ATOM     26  C   UNL A   1      42.354  21.973  25.747  1.00  0.00     0.014 A 
ATOM     27  C   UNL A   1      41.958  20.951  27.913  1.00  0.00     0.014 A 
ATOM     28  C   UNL A   1      42.622  23.179  26.389  1.00  0.00     0.010 A 
ATOM     29  C   UNL A   1      41.988  22.179  28.510  1.00  0.00     0.010 A 
ATOM     30  C   UNL A   1      42.399  23.279  27.773  1.00  0.00    -0.014 A 
BRANCH  30  31
ATOM     31  C   UNL A   1      42.428  24.560  28.466  1.00  0.00     0.031 A 
ATOM     32  C   UNL A   1      41.216  25.382  28.213  1.00  0.00     0.074 A 
ATOM     33  C   UNL A   1      43.344  24.846  29.421  1.00  0.00     0.049 A 
ATOM     34  N   UNL A   1      41.121  26.411  27.438  1.00  0.00    -0.248 NA
ATOM     35  C   UNL A   1      39.914  24.875  28.680  1.00  0.00     0.031 C 
ATOM     36  C   UNL A   1      44.372  23.952  29.978  1.00  0.00     0.029 A 
ATOM     37  N   UNL A   1      43.470  25.951  30.202  1.00  0.00    -0.354 N 
ATOM     38  C   UNL A   1      39.808  26.853  27.580  1.00  0.00     0.074 A 
ATOM     39  C   UNL A   1      39.073  25.734  28.097  1.00  0.00     0.031 C 
ATOM     40  C   UNL A   1      44.825  24.449  31.150  1.00  0.00     0.029 A 
ATOM     41  C   UNL A   1      44.264  25.772  31.336  1.00  0.00     0.049 A 
ATOM     42  H   UNL A   1      43.036  26.808  29.987  1.00  0.00     0.167 HD
ATOM     43  C   UNL A   1      39.530  28.189  27.587  1.00  0.00     0.034 A 
ATOM     44  C   UNL A   1      44.424  26.638  32.368  1.00  0.00     0.034 A 
ATOM     45  C   UNL A   1      40.682  28.938  27.134  1.00  0.00     0.049 A 
ATOM     46  C   UNL A   1      44.016  27.968  31.872  1.00  0.00     0.074 A 
ATOM     47  C   UNL A   1      41.435  28.997  25.981  1.00  0.00     0.029 A 
ATOM     48  N   UNL A   1      41.454  29.473  28.137  1.00  0.00    -0.354 N 
ATOM     49  N   UNL A   1      44.660  28.612  30.941  1.00  0.00    -0.248 NA
ATOM     50  C   UNL A   1      42.644  28.387  32.096  1.00  0.00     0.031 C 
ATOM     51  C   UNL A   1      42.777  29.202  26.425  1.00  0.00     0.029 A 
ATOM     52  C   UNL A   1      42.773  29.346  27.814  1.00  0.00     0.049 A 
ATOM     53  H   UNL A   1      41.108  29.885  28.962  1.00  0.00     0.167 HD
ATOM     54  C   UNL A   1      43.654  29.148  30.150  1.00  0.00     0.074 A 
ATOM     55  C   UNL A   1      42.456  29.106  30.986  1.00  0.00     0.031 C 
ATOM     56  C   UNL A   1      43.832  29.277  28.801  1.00  0.00     0.034 A 
BRANCH  43  57
ATOM     57  C   UNL A   1      38.452  28.872  28.421  1.00  0.00     0.023 A 
ATOM     58  C   UNL A   1      37.592  29.759  27.728  1.00  0.00     0.012 A 
ATOM     59  C   UNL A   1      38.408  28.931  29.833  1.00  0.00     0.148 A 
ATOM     60  C   UNL A   1      36.811  30.709  28.396  1.00  0.00     0.002 A 
ATOM     61  C   UNL A   1      37.581  29.833  30.495  1.00  0.00     0.091 A 
ATOM     62  F   UNL A   1      39.242  28.199  30.568  1.00  0.00    -0.205 F 
ATOM     63  C   UNL A   1      36.806  30.749  29.782  1.00  0.00     0.022 A 
BRANCH  61  64
ATOM     64  S   UNL A   1      37.506  29.910  32.293  1.00  0.00     0.127 S 
ATOM     65  O   UNL A   1      36.408  30.849  32.499  1.00  0.00    -0.237 OA
ATOM     66  O   UNL A   1      37.206  28.519  32.634  1.00  0.00    -0.237 OA
ATOM     67  O   UNL A   1      38.821  30.363  32.729  1.00  0.00    -0.744 OA
ENDBRANCH  61  64
ENDBRANCH  43  57
BRANCH  44  68
ATOM     68  C   UNL A   1      44.670  26.393  33.809  1.00  0.00     0.023 A 
ATOM     69  C   UNL A   1      45.954  26.613  34.351  1.00  0.00     0.012 A 
ATOM     70  C   UNL A   1      43.588  26.247  34.702  1.00  0.00     0.148 A 
ATOM     71  C   UNL A   1      46.146  26.724  35.735  1.00  0.00     0.002 A 
ATOM     72  C   UNL A   1      43.783  26.357  36.076  1.00  0.00     0.091 A 
ATOM     73  F   UNL A   1      42.357  26.095  34.196  1.00  0.00    -0.205 F 
ATOM     74  C   UNL A   1      45.059  26.610  36.596  1.00  0.00     0.022 A 
BRANCH  72  75
ATOM     75  S   UNL A   1      42.423  26.264  37.249  1.00  0.00     0.127 S 
ATOM     76  O   UNL A   1      43.130  26.301  38.530  1.00  0.00    -0.237 OA
ATOM     77  O   UNL A   1      41.668  27.474  36.929  1.00  0.00    -0.237 OA
ATOM     78  O   UNL A   1      41.745  25.006  36.969  1.00  0.00    -0.744 OA
ENDBRANCH  72  75
ENDBRANCH  44  68
BRANCH  56  79
ATOM     79  C   UNL A   1      45.236  29.149  28.265  1.00  0.00     0.023 A 
ATOM     80  C   UNL A   1      45.782  27.937  27.795  1.00  0.00     0.012 A 
ATOM     81  C   UNL A   1      45.969  30.334  28.096  1.00  0.00     0.148 A 
ATOM     82  C   UNL A   1      47.040  27.909  27.183  1.00  0.00     0.002 A 
ATOM     83  C   UNL A   1      47.193  30.312  27.445  1.00  0.00     0.091 A 
ATOM     84  F   UNL A   1      45.436  31.477  28.555  1.00  0.00    -0.205 F 
ATOM     85  C   UNL A   1      47.740  29.100  26.995  1.00  0.00     0.022 A 
BRANCH  83  86
ATOM     86  S   UNL A   1      48.070  31.827  27.064  1.00  0.00     0.127 S 
ATOM     87  O   UNL A   1      48.210  32.439  28.383  1.00  0.00    -0.237 OA
ATOM     88  O   UNL A   1      49.318  31.331  26.482  1.00  0.00    -0.237 OA
ATOM     89  O   UNL A   1      47.226  32.553  26.122  1.00  0.00    -0.744 OA
ENDBRANCH  83  86
ENDBRANCH  56  79
ENDBRANCH  30  31
ENDBRANCH  22  25
ENDBRANCH  20  21
ENDBRANCH   1  20
TORSDOF 17
ENDMDL
