MODEL 1
REMARK VINA RESULT:     -11.2      0.000      0.000
REMARK SMILES C[NH+](C)[C@H]1COC[C@]1(C)C(=O)NCCCNC(=O)c1ccc(-c2c3nc(c(-c4cccc(S(=O)(=O)[O-])c4F)c4ccc([nH]4)c(-c4cccc(S(=O)(=O)[O-])c4F)c4nc(c(-c5cccc(S(=O)(=O)[O-])c5F)c5ccc2[nH]5)C=C4)C=C3)cc1
REMARK SMILES IDX 15 1 14 2 13 3 12 4 10 5 11 6 8 8 4 9 5 10 6 11 7 12 9 13
REMARK SMILES IDX 2 14 1 15 3 16 16 18 17 19 18 21 19 22 20 23 81 24 21 25
REMARK SMILES IDX 80 26 22 27 23 28 24 29 74 30 25 31 79 32 73 33 75 34 26 35
REMARK SMILES IDX 78 36 72 37 71 38 27 40 59 41 39 42 58 43 40 44 43 45 57 46
REMARK SMILES IDX 76 47 41 48 42 49 56 51 77 52 44 53 28 54 29 55 37 56 30 57
REMARK SMILES IDX 32 58 38 59 31 60 33 61 34 62 35 63 36 64 60 65 61 66 69 67
REMARK SMILES IDX 62 68 64 69 70 70 63 71 65 72 66 73 67 74 68 75 45 76 46 77
REMARK SMILES IDX 54 78 47 79 49 80 55 81 48 82 50 83 51 84 52 85 53 86
REMARK H PARENT 12 7 2 17 16 20 75 39 43 50
REMARK Flexibility Score: inf
ROOT
ATOM      1  C   UNL A   1      32.662  29.613  25.860  1.00  0.00     0.118 C 
ENDROOT
BRANCH   1   2
ATOM      2  C   UNL A   1      31.762  28.677  26.652  1.00  0.00     0.042 C 
BRANCH   2   3
ATOM      3  C   UNL A   1      31.166  27.548  25.823  1.00  0.00     0.117 C 
BRANCH   3   4
ATOM      4  N   UNL A   1      31.062  26.306  26.569  1.00  0.00    -0.355 N 
ATOM      5  C   UNL A   1      31.659  25.092  26.385  1.00  0.00     0.234 C 
ATOM      6  O   UNL A   1      31.380  24.220  27.211  1.00  0.00    -0.274 OA
ATOM      7  H   UNL A   1      30.453  26.347  27.342  1.00  0.00     0.163 HD
BRANCH   5   8
ATOM      8  C   UNL A   1      32.673  24.868  25.242  1.00  0.00     0.123 C 
ATOM      9  C   UNL A   1      32.074  25.410  23.923  1.00  0.00     0.227 C 
ATOM     10  C   UNL A   1      31.249  24.193  23.448  1.00  0.00     0.226 C 
ATOM     11  O   UNL A   1      31.875  23.002  23.928  1.00  0.00    -0.374 OA
ATOM     12  C   UNL A   1      32.798  23.361  24.961  1.00  0.00     0.183 C 
ATOM     13  C   UNL A   1      34.024  25.392  25.756  1.00  0.00     0.031 C 
BRANCH   9  14
ATOM     14  N   UNL A   1      32.881  25.895  22.784  1.00  0.00    -0.334 N 
ATOM     15  C   UNL A   1      33.307  27.279  22.756  1.00  0.00     0.332 C 
ATOM     16  C   UNL A   1      32.358  25.468  21.488  1.00  0.00     0.332 C 
ATOM     17  H   UNL A   1      33.759  25.413  22.978  1.00  0.00     0.347 HD
ENDBRANCH   9  14
ENDBRANCH   5   8
ENDBRANCH   3   4
ENDBRANCH   2   3
ENDBRANCH   1   2
BRANCH   1  18
ATOM     18  N   UNL A   1      32.478  31.009  26.231  1.00  0.00    -0.352 N 
ATOM     19  C   UNL A   1      33.168  31.780  27.133  1.00  0.00     0.251 C 
ATOM     20  H   UNL A   1      31.745  31.471  25.763  1.00  0.00     0.163 HD
ATOM     21  O   UNL A   1      32.721  32.884  27.445  1.00  0.00    -0.269 OA
BRANCH  19  22
ATOM     22  C   UNL A   1      34.424  31.289  27.737  1.00  0.00     0.039 A 
ATOM     23  C   UNL A   1      35.446  32.202  28.004  1.00  0.00     0.014 A 
ATOM     24  C   UNL A   1      34.604  29.935  28.032  1.00  0.00     0.014 A 
ATOM     25  C   UNL A   1      36.617  31.767  28.627  1.00  0.00     0.010 A 
ATOM     26  C   UNL A   1      35.728  29.520  28.739  1.00  0.00     0.010 A 
ATOM     27  C   UNL A   1      36.752  30.430  29.037  1.00  0.00    -0.014 A 
BRANCH  27  28
ATOM     28  C   UNL A   1      37.945  29.982  29.802  1.00  0.00     0.031 A 
ATOM     29  C   UNL A   1      38.196  30.484  31.198  1.00  0.00     0.074 A 
ATOM     30  C   UNL A   1      38.844  29.175  29.205  1.00  0.00     0.049 A 
ATOM     31  N   UNL A   1      39.186  30.205  32.006  1.00  0.00    -0.248 NA
ATOM     32  C   UNL A   1      37.226  31.444  31.752  1.00  0.00     0.031 C 
ATOM     33  C   UNL A   1      38.762  28.694  27.823  1.00  0.00     0.029 A 
ATOM     34  N   UNL A   1      40.013  28.631  29.674  1.00  0.00    -0.354 N 
ATOM     35  C   UNL A   1      38.978  30.973  33.145  1.00  0.00     0.074 A 
ATOM     36  C   UNL A   1      37.788  31.761  32.909  1.00  0.00     0.031 C 
ATOM     37  C   UNL A   1      39.821  27.912  27.564  1.00  0.00     0.029 A 
ATOM     38  C   UNL A   1      40.678  27.865  28.745  1.00  0.00     0.049 A 
ATOM     39  H   UNL A   1      40.345  28.775  30.590  1.00  0.00     0.167 HD
ATOM     40  C   UNL A   1      39.693  31.000  34.295  1.00  0.00     0.034 A 
ATOM     41  C   UNL A   1      41.847  27.201  28.830  1.00  0.00     0.034 A 
ATOM     42  C   UNL A   1      40.858  30.193  34.537  1.00  0.00     0.049 A 
ATOM     43  C   UNL A   1      42.603  27.219  30.129  1.00  0.00     0.074 A 
ATOM     44  C   UNL A   1      41.600  30.078  35.700  1.00  0.00     0.029 A 
ATOM     45  N   UNL A   1      41.463  29.373  33.596  1.00  0.00    -0.354 N 
ATOM     46  N   UNL A   1      42.297  27.819  31.254  1.00  0.00    -0.248 NA
ATOM     47  C   UNL A   1      43.846  26.438  30.185  1.00  0.00     0.031 C 
ATOM     48  C   UNL A   1      42.673  29.217  35.451  1.00  0.00     0.029 A 
ATOM     49  C   UNL A   1      42.578  28.763  34.146  1.00  0.00     0.049 A 
ATOM     50  H   UNL A   1      41.146  29.244  32.673  1.00  0.00     0.167 HD
ATOM     51  C   UNL A   1      43.289  27.462  32.159  1.00  0.00     0.074 A 
ATOM     52  C   UNL A   1      44.192  26.573  31.457  1.00  0.00     0.031 C 
ATOM     53  C   UNL A   1      43.447  27.848  33.450  1.00  0.00     0.034 A 
BRANCH  40  54
ATOM     54  C   UNL A   1      39.209  31.904  35.401  1.00  0.00     0.023 A 
ATOM     55  C   UNL A   1      38.263  31.426  36.332  1.00  0.00     0.012 A 
ATOM     56  C   UNL A   1      39.729  33.205  35.554  1.00  0.00     0.148 A 
ATOM     57  C   UNL A   1      37.813  32.238  37.372  1.00  0.00     0.002 A 
ATOM     58  C   UNL A   1      39.314  33.991  36.623  1.00  0.00     0.091 A 
ATOM     59  F   UNL A   1      40.612  33.652  34.650  1.00  0.00    -0.205 F 
ATOM     60  C   UNL A   1      38.346  33.515  37.523  1.00  0.00     0.022 A 
BRANCH  58  61
ATOM     61  S   UNL A   1      39.999  35.618  36.955  1.00  0.00     0.127 S 
ATOM     62  O   UNL A   1      39.328  35.970  38.206  1.00  0.00    -0.237 OA
ATOM     63  O   UNL A   1      41.426  35.326  37.091  1.00  0.00    -0.237 OA
ATOM     64  O   UNL A   1      39.652  36.442  35.806  1.00  0.00    -0.744 OA
ENDBRANCH  58  61
ENDBRANCH  40  54
BRANCH  41  65
ATOM     65  C   UNL A   1      42.341  26.415  27.665  1.00  0.00     0.023 A 
ATOM     66  C   UNL A   1      43.213  27.019  26.739  1.00  0.00     0.012 A 
ATOM     67  C   UNL A   1      41.978  25.066  27.486  1.00  0.00     0.148 A 
ATOM     68  C   UNL A   1      43.689  26.305  25.638  1.00  0.00     0.002 A 
ATOM     69  C   UNL A   1      42.502  24.343  26.422  1.00  0.00     0.091 A 
ATOM     70  F   UNL A   1      41.140  24.512  28.374  1.00  0.00    -0.205 F 
ATOM     71  C   UNL A   1      43.342  24.966  25.485  1.00  0.00     0.022 A 
BRANCH  69  72
ATOM     72  S   UNL A   1      42.222  22.581  26.224  1.00  0.00     0.127 S 
ATOM     73  O   UNL A   1      42.956  22.297  24.993  1.00  0.00    -0.237 OA
ATOM     74  O   UNL A   1      42.827  22.042  27.442  1.00  0.00    -0.237 OA
ATOM     75  O   UNL A   1      40.776  22.416  26.150  1.00  0.00    -0.744 OA
ENDBRANCH  69  72
ENDBRANCH  41  65
BRANCH  53  76
ATOM     76  C   UNL A   1      44.623  27.283  34.206  1.00  0.00     0.023 A 
ATOM     77  C   UNL A   1      45.853  27.971  34.212  1.00  0.00     0.012 A 
ATOM     78  C   UNL A   1      44.489  26.100  34.958  1.00  0.00     0.148 A 
ATOM     79  C   UNL A   1      46.943  27.468  34.922  1.00  0.00     0.002 A 
ATOM     80  C   UNL A   1      45.562  25.634  35.707  1.00  0.00     0.091 A 
ATOM     81  F   UNL A   1      43.316  25.450  34.927  1.00  0.00    -0.205 F 
ATOM     82  C   UNL A   1      46.794  26.308  35.677  1.00  0.00     0.022 A 
BRANCH  80  83
ATOM     83  S   UNL A   1      45.437  24.203  36.786  1.00  0.00     0.127 S 
ATOM     84  O   UNL A   1      46.813  24.066  37.260  1.00  0.00    -0.237 OA
ATOM     85  O   UNL A   1      44.485  24.663  37.799  1.00  0.00    -0.237 OA
ATOM     86  O   UNL A   1      44.952  23.112  35.952  1.00  0.00    -0.744 OA
ENDBRANCH  80  83
ENDBRANCH  53  76
ENDBRANCH  27  28
ENDBRANCH  19  22
ENDBRANCH   1  18
TORSDOF 14
ENDMDL
MODEL 2
REMARK VINA RESULT:     -11.1      3.505      6.015
REMARK SMILES C[NH+](C)[C@H]1COC[C@]1(C)C(=O)NCCCNC(=O)c1ccc(-c2c3nc(c(-c4cccc(S(=O)(=O)[O-])c4F)c4ccc([nH]4)c(-c4cccc(S(=O)(=O)[O-])c4F)c4nc(c(-c5cccc(S(=O)(=O)[O-])c5F)c5ccc2[nH]5)C=C4)C=C3)cc1
REMARK SMILES IDX 15 1 14 2 13 3 12 4 10 5 11 6 8 8 4 9 5 10 6 11 7 12 9 13
REMARK SMILES IDX 2 14 1 15 3 16 16 18 17 19 18 21 19 22 20 23 81 24 21 25
REMARK SMILES IDX 80 26 22 27 23 28 24 29 74 30 25 31 79 32 73 33 75 34 26 35
REMARK SMILES IDX 78 36 72 37 71 38 27 40 59 41 39 42 58 43 40 44 43 45 57 46
REMARK SMILES IDX 76 47 41 48 42 49 56 51 77 52 44 53 28 54 29 55 37 56 30 57
REMARK SMILES IDX 32 58 38 59 31 60 33 61 34 62 35 63 36 64 60 65 61 66 69 67
REMARK SMILES IDX 62 68 64 69 70 70 63 71 65 72 66 73 67 74 68 75 45 76 46 77
REMARK SMILES IDX 54 78 47 79 49 80 55 81 48 82 50 83 51 84 52 85 53 86
REMARK H PARENT 12 7 2 17 16 20 75 39 43 50
REMARK Flexibility Score: inf
ROOT
ATOM      1  C   UNL A   1      35.289  33.226  27.972  1.00  0.00     0.118 C 
ENDROOT
BRANCH   1   2
ATOM      2  C   UNL A   1      35.621  33.374  29.449  1.00  0.00     0.042 C 
BRANCH   2   3
ATOM      3  C   UNL A   1      34.723  34.357  30.186  1.00  0.00     0.117 C 
BRANCH   3   4
ATOM      4  N   UNL A   1      33.959  33.723  31.247  1.00  0.00    -0.355 N 
ATOM      5  C   UNL A   1      34.144  33.699  32.600  1.00  0.00     0.234 C 
ATOM      6  O   UNL A   1      33.300  33.079  33.251  1.00  0.00    -0.274 OA
ATOM      7  H   UNL A   1      33.171  33.221  30.936  1.00  0.00     0.163 HD
BRANCH   5   8
ATOM      8  C   UNL A   1      35.310  34.469  33.259  1.00  0.00     0.123 C 
ATOM      9  C   UNL A   1      36.648  33.847  32.797  1.00  0.00     0.227 C 
ATOM     10  C   UNL A   1      36.811  32.698  33.818  1.00  0.00     0.226 C 
ATOM     11  O   UNL A   1      36.173  33.079  35.038  1.00  0.00    -0.374 OA
ATOM     12  C   UNL A   1      35.312  34.190  34.771  1.00  0.00     0.183 C 
ATOM     13  C   UNL A   1      35.025  35.962  33.028  1.00  0.00     0.031 C 
BRANCH   9  14
ATOM     14  N   UNL A   1      37.926  34.587  32.726  1.00  0.00    -0.334 N 
ATOM     15  C   UNL A   1      38.690  34.564  31.496  1.00  0.00     0.332 C 
ATOM     16  C   UNL A   1      38.779  34.371  33.893  1.00  0.00     0.332 C 
ATOM     17  H   UNL A   1      37.570  35.543  32.731  1.00  0.00     0.347 HD
ENDBRANCH   9  14
ENDBRANCH   5   8
ENDBRANCH   3   4
ENDBRANCH   2   3
ENDBRANCH   1   2
BRANCH   1  18
ATOM     18  N   UNL A   1      34.310  32.177  27.723  1.00  0.00    -0.352 N 
ATOM     19  C   UNL A   1      34.470  30.815  27.679  1.00  0.00     0.251 C 
ATOM     20  H   UNL A   1      33.392  32.494  27.562  1.00  0.00     0.163 HD
ATOM     21  O   UNL A   1      33.552  30.116  27.252  1.00  0.00    -0.269 OA
BRANCH  19  22
ATOM     22  C   UNL A   1      35.735  30.191  28.122  1.00  0.00     0.039 A 
ATOM     23  C   UNL A   1      36.817  30.161  27.239  1.00  0.00     0.014 A 
ATOM     24  C   UNL A   1      35.858  29.629  29.396  1.00  0.00     0.014 A 
ATOM     25  C   UNL A   1      38.037  29.628  27.659  1.00  0.00     0.010 A 
ATOM     26  C   UNL A   1      37.099  29.189  29.844  1.00  0.00     0.010 A 
ATOM     27  C   UNL A   1      38.201  29.175  28.979  1.00  0.00    -0.014 A 
BRANCH  27  28
ATOM     28  C   UNL A   1      39.525  28.713  29.469  1.00  0.00     0.031 A 
ATOM     29  C   UNL A   1      40.229  29.440  30.583  1.00  0.00     0.074 A 
ATOM     30  C   UNL A   1      40.129  27.676  28.855  1.00  0.00     0.049 A 
ATOM     31  N   UNL A   1      41.390  29.181  31.129  1.00  0.00    -0.248 NA
ATOM     32  C   UNL A   1      39.559  30.627  31.139  1.00  0.00     0.031 C 
ATOM     33  C   UNL A   1      39.591  26.946  27.703  1.00  0.00     0.029 A 
ATOM     34  N   UNL A   1      41.333  27.065  29.098  1.00  0.00    -0.354 N 
ATOM     35  C   UNL A   1      41.603  30.183  32.066  1.00  0.00     0.074 A 
ATOM     36  C   UNL A   1      40.470  31.079  31.988  1.00  0.00     0.031 C 
ATOM     37  C   UNL A   1      40.451  25.977  27.354  1.00  0.00     0.029 A 
ATOM     38  C   UNL A   1      41.616  26.037  28.230  1.00  0.00     0.049 A 
ATOM     39  H   UNL A   1      41.938  27.337  29.826  1.00  0.00     0.167 HD
ATOM     40  C   UNL A   1      42.631  30.330  32.935  1.00  0.00     0.034 A 
ATOM     41  C   UNL A   1      42.694  25.233  28.144  1.00  0.00     0.034 A 
ATOM     42  C   UNL A   1      43.741  29.420  33.030  1.00  0.00     0.049 A 
ATOM     43  C   UNL A   1      43.806  25.395  29.142  1.00  0.00     0.074 A 
ATOM     44  C   UNL A   1      44.786  29.428  33.937  1.00  0.00     0.029 A 
ATOM     45  N   UNL A   1      43.960  28.346  32.180  1.00  0.00    -0.354 N 
ATOM     46  N   UNL A   1      43.908  26.248  30.133  1.00  0.00    -0.248 NA
ATOM     47  C   UNL A   1      44.935  24.461  29.036  1.00  0.00     0.031 C 
ATOM     48  C   UNL A   1      45.655  28.382  33.612  1.00  0.00     0.029 A 
ATOM     49  C   UNL A   1      45.131  27.696  32.529  1.00  0.00     0.049 A 
ATOM     50  H   UNL A   1      43.368  28.085  31.437  1.00  0.00     0.167 HD
ATOM     51  C   UNL A   1      45.093  25.932  30.788  1.00  0.00     0.074 A 
ATOM     52  C   UNL A   1      45.661  24.794  30.095  1.00  0.00     0.031 C 
ATOM     53  C   UNL A   1      45.666  26.539  31.857  1.00  0.00     0.034 A 
BRANCH  40  54
ATOM     54  C   UNL A   1      42.585  31.499  33.886  1.00  0.00     0.023 A 
ATOM     55  C   UNL A   1      43.108  32.747  33.487  1.00  0.00     0.012 A 
ATOM     56  C   UNL A   1      41.975  31.382  35.151  1.00  0.00     0.148 A 
ATOM     57  C   UNL A   1      43.061  33.847  34.343  1.00  0.00     0.002 A 
ATOM     58  C   UNL A   1      41.887  32.495  35.980  1.00  0.00     0.091 A 
ATOM     59  F   UNL A   1      41.500  30.185  35.524  1.00  0.00    -0.205 F 
ATOM     60  C   UNL A   1      42.442  33.723  35.584  1.00  0.00     0.022 A 
BRANCH  58  61
ATOM     61  S   UNL A   1      41.037  32.462  37.561  1.00  0.00     0.127 S 
ATOM     62  O   UNL A   1      41.903  31.580  38.343  1.00  0.00    -0.237 OA
ATOM     63  O   UNL A   1      41.080  33.869  37.961  1.00  0.00    -0.237 OA
ATOM     64  O   UNL A   1      39.702  31.947  37.290  1.00  0.00    -0.744 OA
ENDBRANCH  58  61
ENDBRANCH  40  54
BRANCH  41  65
ATOM     65  C   UNL A   1      42.743  24.165  27.107  1.00  0.00     0.023 A 
ATOM     66  C   UNL A   1      43.517  24.358  25.946  1.00  0.00     0.012 A 
ATOM     67  C   UNL A   1      42.054  22.948  27.278  1.00  0.00     0.148 A 
ATOM     68  C   UNL A   1      43.578  23.372  24.960  1.00  0.00     0.002 A 
ATOM     69  C   UNL A   1      42.167  21.948  26.320  1.00  0.00     0.091 A 
ATOM     70  F   UNL A   1      41.317  22.788  28.385  1.00  0.00    -0.205 F 
ATOM     71  C   UNL A   1      42.912  22.166  25.150  1.00  0.00     0.022 A 
BRANCH  69  72
ATOM     72  S   UNL A   1      41.458  20.314  26.546  1.00  0.00     0.127 S 
ATOM     73  O   UNL A   1      40.026  20.601  26.515  1.00  0.00    -0.237 OA
ATOM     74  O   UNL A   1      41.971  19.600  25.376  1.00  0.00    -0.237 OA
ATOM     75  O   UNL A   1      41.978  19.830  27.818  1.00  0.00    -0.744 OA
ENDBRANCH  69  72
ENDBRANCH  41  65
BRANCH  53  76
ATOM     76  C   UNL A   1      46.962  25.965  32.371  1.00  0.00     0.023 A 
ATOM     77  C   UNL A   1      48.191  26.434  31.865  1.00  0.00     0.012 A 
ATOM     78  C   UNL A   1      46.960  25.000  33.398  1.00  0.00     0.148 A 
ATOM     79  C   UNL A   1      49.396  25.923  32.345  1.00  0.00     0.002 A 
ATOM     80  C   UNL A   1      48.166  24.536  33.909  1.00  0.00     0.091 A 
ATOM     81  F   UNL A   1      45.781  24.553  33.854  1.00  0.00    -0.205 F 
ATOM     82  C   UNL A   1      49.384  24.985  33.373  1.00  0.00     0.022 A 
BRANCH  80  83
ATOM     83  S   UNL A   1      48.250  23.400  35.298  1.00  0.00     0.127 S 
ATOM     84  O   UNL A   1      47.611  22.207  34.746  1.00  0.00    -0.237 OA
ATOM     85  O   UNL A   1      49.693  23.279  35.510  1.00  0.00    -0.237 OA
ATOM     86  O   UNL A   1      47.532  24.046  36.388  1.00  0.00    -0.744 OA
ENDBRANCH  80  83
ENDBRANCH  53  76
ENDBRANCH  27  28
ENDBRANCH  19  22
ENDBRANCH   1  18
TORSDOF 14
ENDMDL
MODEL 3
REMARK VINA RESULT:     -11.0      2.058      2.716
REMARK SMILES C[NH+](C)[C@H]1COC[C@]1(C)C(=O)NCCCNC(=O)c1ccc(-c2c3nc(c(-c4cccc(S(=O)(=O)[O-])c4F)c4ccc([nH]4)c(-c4cccc(S(=O)(=O)[O-])c4F)c4nc(c(-c5cccc(S(=O)(=O)[O-])c5F)c5ccc2[nH]5)C=C4)C=C3)cc1
REMARK SMILES IDX 15 1 14 2 13 3 12 4 10 5 11 6 8 8 4 9 5 10 6 11 7 12 9 13
REMARK SMILES IDX 2 14 1 15 3 16 16 18 17 19 18 21 19 22 20 23 81 24 21 25
REMARK SMILES IDX 80 26 22 27 23 28 24 29 74 30 25 31 79 32 73 33 75 34 26 35
REMARK SMILES IDX 78 36 72 37 71 38 27 40 59 41 39 42 58 43 40 44 43 45 57 46
REMARK SMILES IDX 76 47 41 48 42 49 56 51 77 52 44 53 28 54 29 55 37 56 30 57
REMARK SMILES IDX 32 58 38 59 31 60 33 61 34 62 35 63 36 64 60 65 61 66 69 67
REMARK SMILES IDX 62 68 64 69 70 70 63 71 65 72 66 73 67 74 68 75 45 76 46 77
REMARK SMILES IDX 54 78 47 79 49 80 55 81 48 82 50 83 51 84 52 85 53 86
REMARK H PARENT 12 7 2 17 16 20 75 39 43 50
REMARK Flexibility Score: inf
ROOT
ATOM      1  C   UNL A   1      33.554  28.918  26.643  1.00  0.00     0.118 C 
ENDROOT
BRANCH   1   2
ATOM      2  C   UNL A   1      32.380  28.244  27.337  1.00  0.00     0.042 C 
BRANCH   2   3
ATOM      3  C   UNL A   1      31.511  27.411  26.406  1.00  0.00     0.117 C 
BRANCH   3   4
ATOM      4  N   UNL A   1      31.207  26.101  26.954  1.00  0.00    -0.355 N 
ATOM      5  C   UNL A   1      31.560  24.847  26.542  1.00  0.00     0.234 C 
ATOM      6  O   UNL A   1      31.156  23.914  27.240  1.00  0.00    -0.274 OA
ATOM      7  H   UNL A   1      30.647  26.119  27.764  1.00  0.00     0.163 HD
BRANCH   5   8
ATOM      8  C   UNL A   1      32.471  24.640  25.313  1.00  0.00     0.123 C 
ATOM      9  C   UNL A   1      31.900  25.444  24.122  1.00  0.00     0.227 C 
ATOM     10  C   UNL A   1      30.873  24.442  23.549  1.00  0.00     0.226 C 
ATOM     11  O   UNL A   1      31.329  23.116  23.823  1.00  0.00    -0.374 OA
ATOM     12  C   UNL A   1      32.346  23.186  24.827  1.00  0.00     0.183 C 
ATOM     13  C   UNL A   1      33.910  24.881  25.796  1.00  0.00     0.031 C 
BRANCH   9  14
ATOM     14  N   UNL A   1      32.716  25.961  23.003  1.00  0.00    -0.334 N 
ATOM     15  C   UNL A   1      33.273  27.295  23.090  1.00  0.00     0.332 C 
ATOM     16  C   UNL A   1      32.115  25.714  21.694  1.00  0.00     0.332 C 
ATOM     17  H   UNL A   1      33.548  25.382  23.116  1.00  0.00     0.347 HD
ENDBRANCH   9  14
ENDBRANCH   5   8
ENDBRANCH   3   4
ENDBRANCH   2   3
ENDBRANCH   1   2
BRANCH   1  18
ATOM     18  N   UNL A   1      33.646  30.337  26.956  1.00  0.00    -0.352 N 
ATOM     19  C   UNL A   1      34.576  31.017  27.704  1.00  0.00     0.251 C 
ATOM     20  H   UNL A   1      32.932  30.895  26.572  1.00  0.00     0.163 HD
ATOM     21  O   UNL A   1      34.357  32.187  28.014  1.00  0.00    -0.269 OA
BRANCH  19  22
ATOM     22  C   UNL A   1      35.817  30.349  28.148  1.00  0.00     0.039 A 
ATOM     23  C   UNL A   1      36.936  30.382  27.313  1.00  0.00     0.014 A 
ATOM     24  C   UNL A   1      35.882  29.685  29.376  1.00  0.00     0.014 A 
ATOM     25  C   UNL A   1      38.134  29.807  27.740  1.00  0.00     0.010 A 
ATOM     26  C   UNL A   1      37.100  29.199  29.840  1.00  0.00     0.010 A 
ATOM     27  C   UNL A   1      38.239  29.247  29.024  1.00  0.00    -0.014 A 
BRANCH  27  28
ATOM     28  C   UNL A   1      39.539  28.736  29.531  1.00  0.00     0.031 A 
ATOM     29  C   UNL A   1      40.248  29.429  30.663  1.00  0.00     0.074 A 
ATOM     30  C   UNL A   1      40.118  27.685  28.917  1.00  0.00     0.049 A 
ATOM     31  N   UNL A   1      41.390  29.126  31.226  1.00  0.00    -0.248 NA
ATOM     32  C   UNL A   1      39.610  30.632  31.221  1.00  0.00     0.031 C 
ATOM     33  C   UNL A   1      39.574  26.984  27.750  1.00  0.00     0.029 A 
ATOM     34  N   UNL A   1      41.296  27.032  29.175  1.00  0.00    -0.354 N 
ATOM     35  C   UNL A   1      41.621  30.112  32.176  1.00  0.00     0.074 A 
ATOM     36  C   UNL A   1      40.521  31.047  32.088  1.00  0.00     0.031 C 
ATOM     37  C   UNL A   1      40.407  25.990  27.406  1.00  0.00     0.029 A 
ATOM     38  C   UNL A   1      41.559  26.002  28.301  1.00  0.00     0.049 A 
ATOM     39  H   UNL A   1      41.897  27.276  29.915  1.00  0.00     0.167 HD
ATOM     40  C   UNL A   1      42.640  30.216  33.063  1.00  0.00     0.034 A 
ATOM     41  C   UNL A   1      42.611  25.163  28.224  1.00  0.00     0.034 A 
ATOM     42  C   UNL A   1      43.716  29.268  33.167  1.00  0.00     0.049 A 
ATOM     43  C   UNL A   1      43.711  25.279  29.243  1.00  0.00     0.074 A 
ATOM     44  C   UNL A   1      44.746  29.233  34.091  1.00  0.00     0.029 A 
ATOM     45  N   UNL A   1      43.913  28.195  32.311  1.00  0.00    -0.354 N 
ATOM     46  N   UNL A   1      43.825  26.118  30.243  1.00  0.00    -0.248 NA
ATOM     47  C   UNL A   1      44.809  24.308  29.146  1.00  0.00     0.031 C 
ATOM     48  C   UNL A   1      45.585  28.161  33.771  1.00  0.00     0.029 A 
ATOM     49  C   UNL A   1      45.056  27.503  32.672  1.00  0.00     0.049 A 
ATOM     50  H   UNL A   1      43.325  27.961  31.556  1.00  0.00     0.167 HD
ATOM     51  C   UNL A   1      44.987  25.757  30.914  1.00  0.00     0.074 A 
ATOM     52  C   UNL A   1      45.528  24.607  30.219  1.00  0.00     0.031 C 
ATOM     53  C   UNL A   1      45.563  26.335  31.998  1.00  0.00     0.034 A 
BRANCH  40  54
ATOM     54  C   UNL A   1      42.617  31.378  34.024  1.00  0.00     0.023 A 
ATOM     55  C   UNL A   1      43.286  32.574  33.691  1.00  0.00     0.012 A 
ATOM     56  C   UNL A   1      41.889  31.308  35.229  1.00  0.00     0.148 A 
ATOM     57  C   UNL A   1      43.265  33.667  34.557  1.00  0.00     0.002 A 
ATOM     58  C   UNL A   1      41.831  32.418  36.064  1.00  0.00     0.091 A 
ATOM     59  F   UNL A   1      41.275  30.157  35.541  1.00  0.00    -0.205 F 
ATOM     60  C   UNL A   1      42.529  33.593  35.737  1.00  0.00     0.022 A 
BRANCH  58  61
ATOM     61  S   UNL A   1      40.844  32.454  37.564  1.00  0.00     0.127 S 
ATOM     62  O   UNL A   1      39.668  31.685  37.160  1.00  0.00    -0.237 OA
ATOM     63  O   UNL A   1      41.717  31.773  38.521  1.00  0.00    -0.237 OA
ATOM     64  O   UNL A   1      40.603  33.860  37.853  1.00  0.00    -0.744 OA
ENDBRANCH  58  61
ENDBRANCH  40  54
BRANCH  41  65
ATOM     65  C   UNL A   1      42.641  24.103  27.179  1.00  0.00     0.023 A 
ATOM     66  C   UNL A   1      43.335  24.334  25.975  1.00  0.00     0.012 A 
ATOM     67  C   UNL A   1      42.013  22.859  27.381  1.00  0.00     0.148 A 
ATOM     68  C   UNL A   1      43.377  23.357  24.979  1.00  0.00     0.002 A 
ATOM     69  C   UNL A   1      42.108  21.869  26.410  1.00  0.00     0.091 A 
ATOM     70  F   UNL A   1      41.350  22.662  28.529  1.00  0.00    -0.205 F 
ATOM     71  C   UNL A   1      42.773  22.123  25.200  1.00  0.00     0.022 A 
BRANCH  69  72
ATOM     72  S   UNL A   1      41.482  20.206  26.666  1.00  0.00     0.127 S 
ATOM     73  O   UNL A   1      41.911  19.533  25.443  1.00  0.00    -0.237 OA
ATOM     74  O   UNL A   1      42.195  19.800  27.877  1.00  0.00    -0.237 OA
ATOM     75  O   UNL A   1      40.042  20.348  26.838  1.00  0.00    -0.744 OA
ENDBRANCH  69  72
ENDBRANCH  41  65
BRANCH  53  76
ATOM     76  C   UNL A   1      46.830  25.712  32.527  1.00  0.00     0.023 A 
ATOM     77  C   UNL A   1      48.081  26.124  32.026  1.00  0.00     0.012 A 
ATOM     78  C   UNL A   1      46.781  24.760  33.564  1.00  0.00     0.148 A 
ATOM     79  C   UNL A   1      49.260  25.569  32.519  1.00  0.00     0.002 A 
ATOM     80  C   UNL A   1      47.962  24.251  34.089  1.00  0.00     0.091 A 
ATOM     81  F   UNL A   1      45.581  24.367  34.017  1.00  0.00    -0.205 F 
ATOM     82  C   UNL A   1      49.202  24.643  33.557  1.00  0.00     0.022 A 
BRANCH  80  83
ATOM     83  S   UNL A   1      47.990  23.128  35.491  1.00  0.00     0.127 S 
ATOM     84  O   UNL A   1      49.425  22.938  35.691  1.00  0.00    -0.237 OA
ATOM     85  O   UNL A   1      47.326  23.915  36.530  1.00  0.00    -0.237 OA
ATOM     86  O   UNL A   1      47.256  21.942  35.069  1.00  0.00    -0.744 OA
ENDBRANCH  80  83
ENDBRANCH  53  76
ENDBRANCH  27  28
ENDBRANCH  19  22
ENDBRANCH   1  18
TORSDOF 14
ENDMDL
