MODEL 1
REMARK VINA RESULT:     -13.4      0.000      0.000
REMARK SMILES Cc1ccc(C(=O)C[C@@H](C(=O)NCCCNC(=O)c2ccc(-c3c4nc(c(-c5cccc(S(=O)(=O)[O-])c5F)c5ccc([nH]5)c(-c5cccc(S(=O)(=O)[O-])c5F)c5nc(c(-c6cccc(S(=O)(=O)[O-])c6F)c6ccc3[nH]6)C=C5)C=C4)cc2)[NH+]2CC[NH+](Cc3ccccc3)CC2)cc1
REMARK SMILES IDX 14 1 13 2 12 3 10 4 11 5 9 7 8 8 6 9 7 10 5 11 1 12 2 13
REMARK SMILES IDX 3 14 96 15 4 16 95 17 82 18 83 19 94 20 84 22 93 23 85 24
REMARK SMILES IDX 86 26 87 27 88 28 92 29 89 30 91 31 90 32 15 33 16 34 17 35
REMARK SMILES IDX 18 37 19 38 20 39 81 40 21 41 80 42 22 43 23 44 24 45 74 46
REMARK SMILES IDX 25 47 79 48 73 49 75 50 26 51 78 52 72 53 71 54 27 56 59 57
REMARK SMILES IDX 39 58 58 59 40 60 43 61 57 62 76 63 41 64 42 65 56 67 77 68
REMARK SMILES IDX 44 69 28 70 29 71 37 72 30 73 32 74 38 75 31 76 33 77 34 78
REMARK SMILES IDX 35 79 36 80 60 81 61 82 69 83 62 84 64 85 70 86 63 87 65 88
REMARK SMILES IDX 66 89 67 90 68 91 45 92 46 93 54 94 47 95 49 96 55 97 48 98
REMARK SMILES IDX 50 99 51 100 52 101 53 102
REMARK H PARENT 12 6 82 21 85 25 16 36 75 55 43 66
REMARK Flexibility Score: inf
ROOT
ATOM      1  C   UNL A   1      33.011  29.360  27.681  1.00  0.00     0.042 C 
ENDROOT
BRANCH   1   2
ATOM      2  C   UNL A   1      31.985  28.749  26.718  1.00  0.00     0.118 C 
BRANCH   2   3
ATOM      3  N   UNL A   1      31.522  27.420  27.076  1.00  0.00    -0.351 N 
ATOM      4  C   UNL A   1      31.337  26.284  26.336  1.00  0.00     0.278 C 
ATOM      5  O   UNL A   1      31.108  25.249  26.974  1.00  0.00    -0.268 OA
ATOM      6  H   UNL A   1      31.299  27.317  28.030  1.00  0.00     0.163 HD
BRANCH   4   7
ATOM      7  C   UNL A   1      31.429  26.265  24.775  1.00  0.00     0.282 C 
BRANCH   7   8
ATOM      8  C   UNL A   1      30.071  26.438  24.060  1.00  0.00     0.156 C 
BRANCH   8   9
ATOM      9  C   UNL A   1      30.046  27.532  23.013  1.00  0.00     0.169 C 
ATOM     10  O   UNL A   1      30.685  27.449  21.967  1.00  0.00    -0.294 OA
BRANCH   9  11
ATOM     11  C   UNL A   1      29.332  28.782  23.355  1.00  0.00     0.018 A 
ATOM     12  C   UNL A   1      28.304  32.651  22.131  1.00  0.00     0.044 C 
ATOM     13  C   UNL A   1      28.503  31.332  22.801  1.00  0.00    -0.051 A 
ATOM     14  C   UNL A   1      27.678  30.251  22.482  1.00  0.00     0.004 A 
ATOM     15  C   UNL A   1      29.599  31.148  23.638  1.00  0.00     0.004 A 
ATOM     16  C   UNL A   1      28.085  28.959  22.768  1.00  0.00     0.012 A 
ATOM     17  C   UNL A   1      30.018  29.858  23.924  1.00  0.00     0.012 A 
ENDBRANCH   9  11
ENDBRANCH   8   9
ENDBRANCH   7   8
BRANCH   7  18
ATOM     18  N   UNL A   1      31.951  24.963  24.270  1.00  0.00    -0.315 N 
ATOM     19  C   UNL A   1      30.940  24.020  23.812  1.00  0.00     0.325 C 
ATOM     20  C   UNL A   1      33.186  24.971  23.477  1.00  0.00     0.325 C 
ATOM     21  H   UNL A   1      32.298  24.572  25.146  1.00  0.00     0.349 HD
ATOM     22  C   UNL A   1      31.491  22.838  22.983  1.00  0.00     0.324 C 
ATOM     23  C   UNL A   1      33.802  23.569  23.210  1.00  0.00     0.324 C 
ATOM     24  N   UNL A   1      32.872  22.443  23.242  1.00  0.00    -0.322 N 
ATOM     25  H   UNL A   1      33.118  21.882  22.426  1.00  0.00     0.348 HD
BRANCH  24  26
ATOM     26  C   UNL A   1      33.106  21.421  24.258  1.00  0.00     0.299 C 
BRANCH  26  27
ATOM     27  C   UNL A   1      33.241  19.952  23.896  1.00  0.00     0.006 A 
ATOM     28  C   UNL A   1      34.130  19.153  24.641  1.00  0.00     0.009 A 
ATOM     29  C   UNL A   1      32.422  19.300  22.966  1.00  0.00     0.009 A 
ATOM     30  C   UNL A   1      34.221  17.772  24.430  1.00  0.00     0.001 A 
ATOM     31  C   UNL A   1      32.523  17.924  22.738  1.00  0.00     0.001 A 
ATOM     32  C   UNL A   1      33.424  17.159  23.469  1.00  0.00     0.000 A 
ENDBRANCH  26  27
ENDBRANCH  24  26
ENDBRANCH   7  18
ENDBRANCH   4   7
ENDBRANCH   2   3
ENDBRANCH   1   2
BRANCH   1  33
ATOM     33  C   UNL A   1      33.710  30.648  27.204  1.00  0.00     0.118 C 
BRANCH  33  34
ATOM     34  N   UNL A   1      34.094  31.472  28.364  1.00  0.00    -0.352 N 
ATOM     35  C   UNL A   1      35.182  31.381  29.210  1.00  0.00     0.251 C 
ATOM     36  H   UNL A   1      33.474  32.208  28.570  1.00  0.00     0.163 HD
ATOM     37  O   UNL A   1      35.370  32.212  30.094  1.00  0.00    -0.269 OA
BRANCH  35  38
ATOM     38  C   UNL A   1      36.080  30.230  29.060  1.00  0.00     0.039 A 
ATOM     39  C   UNL A   1      36.540  29.551  30.188  1.00  0.00     0.014 A 
ATOM     40  C   UNL A   1      36.613  29.977  27.803  1.00  0.00     0.014 A 
ATOM     41  C   UNL A   1      37.712  28.802  30.100  1.00  0.00     0.010 A 
ATOM     42  C   UNL A   1      37.781  29.235  27.717  1.00  0.00     0.010 A 
ATOM     43  C   UNL A   1      38.389  28.741  28.883  1.00  0.00    -0.014 A 
BRANCH  43  44
ATOM     44  C   UNL A   1      39.803  28.376  28.796  1.00  0.00     0.031 A 
ATOM     45  C   UNL A   1      40.256  26.993  28.551  1.00  0.00     0.074 A 
ATOM     46  C   UNL A   1      40.755  29.340  28.841  1.00  0.00     0.049 A 
ATOM     47  N   UNL A   1      41.408  26.547  28.936  1.00  0.00    -0.248 NA
ATOM     48  C   UNL A   1      39.443  26.002  27.870  1.00  0.00     0.031 C 
ATOM     49  C   UNL A   1      42.133  29.204  28.371  1.00  0.00     0.029 A 
ATOM     50  N   UNL A   1      40.709  30.620  29.403  1.00  0.00    -0.354 N 
ATOM     51  C   UNL A   1      41.601  25.319  28.343  1.00  0.00     0.074 A 
ATOM     52  C   UNL A   1      40.315  24.994  27.761  1.00  0.00     0.031 C 
ATOM     53  C   UNL A   1      42.861  30.212  28.862  1.00  0.00     0.029 A 
ATOM     54  C   UNL A   1      42.020  30.971  29.766  1.00  0.00     0.049 A 
ATOM     55  H   UNL A   1      39.905  31.174  29.522  1.00  0.00     0.167 HD
ATOM     56  C   UNL A   1      42.856  24.781  28.294  1.00  0.00     0.034 A 
ATOM     57  C   UNL A   1      42.406  31.454  30.976  1.00  0.00     0.034 A 
ATOM     58  C   UNL A   1      43.863  25.680  28.887  1.00  0.00     0.049 A 
ATOM     59  C   UNL A   1      43.414  30.566  31.673  1.00  0.00     0.074 A 
ATOM     60  C   UNL A   1      44.801  26.537  28.329  1.00  0.00     0.029 A 
ATOM     61  N   UNL A   1      43.872  25.932  30.254  1.00  0.00    -0.354 N 
ATOM     62  N   UNL A   1      43.971  29.515  31.136  1.00  0.00    -0.248 NA
ATOM     63  C   UNL A   1      43.820  30.748  33.065  1.00  0.00     0.031 C 
ATOM     64  C   UNL A   1      45.346  27.335  29.367  1.00  0.00     0.029 A 
ATOM     65  C   UNL A   1      44.747  26.965  30.559  1.00  0.00     0.049 A 
ATOM     66  H   UNL A   1      43.331  25.442  30.915  1.00  0.00     0.167 HD
ATOM     67  C   UNL A   1      44.559  28.763  32.122  1.00  0.00     0.074 A 
ATOM     68  C   UNL A   1      44.560  29.646  33.275  1.00  0.00     0.031 C 
ATOM     69  C   UNL A   1      44.883  27.445  31.933  1.00  0.00     0.034 A 
BRANCH  56  70
ATOM     70  C   UNL A   1      43.271  23.576  27.453  1.00  0.00     0.023 A 
ATOM     71  C   UNL A   1      44.337  23.745  26.536  1.00  0.00     0.012 A 
ATOM     72  C   UNL A   1      42.674  22.298  27.457  1.00  0.00     0.148 A 
ATOM     73  C   UNL A   1      44.696  22.767  25.601  1.00  0.00     0.002 A 
ATOM     74  C   UNL A   1      42.967  21.351  26.469  1.00  0.00     0.091 A 
ATOM     75  F   UNL A   1      41.901  21.930  28.481  1.00  0.00    -0.205 F 
ATOM     76  C   UNL A   1      43.977  21.585  25.535  1.00  0.00     0.022 A 
BRANCH  74  77
ATOM     77  S   UNL A   1      42.006  19.839  26.280  1.00  0.00     0.127 S 
ATOM     78  O   UNL A   1      42.602  19.244  25.082  1.00  0.00    -0.237 OA
ATOM     79  O   UNL A   1      42.292  19.125  27.522  1.00  0.00    -0.237 OA
ATOM     80  O   UNL A   1      40.622  20.266  26.102  1.00  0.00    -0.744 OA
ENDBRANCH  74  77
ENDBRANCH  56  70
BRANCH  57  81
ATOM     81  C   UNL A   1      41.400  32.312  31.645  1.00  0.00     0.023 A 
ATOM     82  C   UNL A   1      41.133  33.564  31.050  1.00  0.00     0.012 A 
ATOM     83  C   UNL A   1      40.488  31.782  32.572  1.00  0.00     0.148 A 
ATOM     84  C   UNL A   1      39.942  34.242  31.309  1.00  0.00     0.002 A 
ATOM     85  C   UNL A   1      39.279  32.437  32.784  1.00  0.00     0.091 A 
ATOM     86  F   UNL A   1      40.765  30.597  33.131  1.00  0.00    -0.205 F 
ATOM     87  C   UNL A   1      39.002  33.660  32.150  1.00  0.00     0.022 A 
BRANCH  85  88
ATOM     88  S   UNL A   1      37.921  31.661  33.664  1.00  0.00     0.127 S 
ATOM     89  O   UNL A   1      36.774  32.417  33.172  1.00  0.00    -0.237 OA
ATOM     90  O   UNL A   1      38.010  30.284  33.180  1.00  0.00    -0.237 OA
ATOM     91  O   UNL A   1      38.242  31.823  35.074  1.00  0.00    -0.744 OA
ENDBRANCH  85  88
ENDBRANCH  57  81
BRANCH  69  92
ATOM     92  C   UNL A   1      45.323  26.483  33.028  1.00  0.00     0.023 A 
ATOM     93  C   UNL A   1      46.670  26.117  33.218  1.00  0.00     0.012 A 
ATOM     94  C   UNL A   1      44.398  26.001  33.993  1.00  0.00     0.148 A 
ATOM     95  C   UNL A   1      47.075  25.261  34.251  1.00  0.00     0.002 A 
ATOM     96  C   UNL A   1      44.822  25.234  35.080  1.00  0.00     0.091 A 
ATOM     97  F   UNL A   1      43.091  26.264  33.852  1.00  0.00    -0.205 F 
ATOM     98  C   UNL A   1      46.154  24.835  35.195  1.00  0.00     0.022 A 
BRANCH  96  99
ATOM     99  S   UNL A   1      43.705  24.859  36.440  1.00  0.00     0.127 S 
ATOM    100  O   UNL A   1      44.571  24.111  37.348  1.00  0.00    -0.237 OA
ATOM    101  O   UNL A   1      43.327  26.190  36.919  1.00  0.00    -0.237 OA
ATOM    102  O   UNL A   1      42.612  24.115  35.827  1.00  0.00    -0.744 OA
ENDBRANCH  96  99
ENDBRANCH  69  92
ENDBRANCH  43  44
ENDBRANCH  35  38
ENDBRANCH  33  34
ENDBRANCH   1  33
TORSDOF 19
ENDMDL
MODEL 2
REMARK VINA RESULT:     -13.4      1.944      2.706
REMARK SMILES Cc1ccc(C(=O)C[C@@H](C(=O)NCCCNC(=O)c2ccc(-c3c4nc(c(-c5cccc(S(=O)(=O)[O-])c5F)c5ccc([nH]5)c(-c5cccc(S(=O)(=O)[O-])c5F)c5nc(c(-c6cccc(S(=O)(=O)[O-])c6F)c6ccc3[nH]6)C=C5)C=C4)cc2)[NH+]2CC[NH+](Cc3ccccc3)CC2)cc1
REMARK SMILES IDX 14 1 13 2 12 3 10 4 11 5 9 7 8 8 6 9 7 10 5 11 1 12 2 13
REMARK SMILES IDX 3 14 96 15 4 16 95 17 82 18 83 19 94 20 84 22 93 23 85 24
REMARK SMILES IDX 86 26 87 27 88 28 92 29 89 30 91 31 90 32 15 33 16 34 17 35
REMARK SMILES IDX 18 37 19 38 20 39 81 40 21 41 80 42 22 43 23 44 24 45 74 46
REMARK SMILES IDX 25 47 79 48 73 49 75 50 26 51 78 52 72 53 71 54 27 56 59 57
REMARK SMILES IDX 39 58 58 59 40 60 43 61 57 62 76 63 41 64 42 65 56 67 77 68
REMARK SMILES IDX 44 69 28 70 29 71 37 72 30 73 32 74 38 75 31 76 33 77 34 78
REMARK SMILES IDX 35 79 36 80 60 81 61 82 69 83 62 84 64 85 70 86 63 87 65 88
REMARK SMILES IDX 66 89 67 90 68 91 45 92 46 93 54 94 47 95 49 96 55 97 48 98
REMARK SMILES IDX 50 99 51 100 52 101 53 102
REMARK H PARENT 12 6 82 21 85 25 16 36 75 55 43 66
REMARK Flexibility Score: inf
ROOT
ATOM      1  C   UNL A   1      34.276  29.077  27.573  1.00  0.00     0.042 C 
ENDROOT
BRANCH   1   2
ATOM      2  C   UNL A   1      33.444  28.483  26.429  1.00  0.00     0.118 C 
BRANCH   2   3
ATOM      3  N   UNL A   1      32.545  27.410  26.817  1.00  0.00    -0.351 N 
ATOM      4  C   UNL A   1      32.074  26.320  26.137  1.00  0.00     0.278 C 
ATOM      5  O   UNL A   1      31.464  25.480  26.810  1.00  0.00    -0.268 OA
ATOM      6  H   UNL A   1      32.214  27.480  27.741  1.00  0.00     0.163 HD
BRANCH   4   7
ATOM      7  C   UNL A   1      32.299  26.114  24.604  1.00  0.00     0.282 C 
BRANCH   7   8
ATOM      8  C   UNL A   1      31.028  26.302  23.747  1.00  0.00     0.156 C 
BRANCH   8   9
ATOM      9  C   UNL A   1      30.952  27.626  23.015  1.00  0.00     0.169 C 
ATOM     10  O   UNL A   1      31.752  27.932  22.134  1.00  0.00    -0.294 OA
BRANCH   9  11
ATOM     11  C   UNL A   1      29.959  28.611  23.497  1.00  0.00     0.018 A 
ATOM     12  C   UNL A   1      27.924  32.181  22.696  1.00  0.00     0.044 C 
ATOM     13  C   UNL A   1      28.482  30.901  23.223  1.00  0.00    -0.051 A 
ATOM     14  C   UNL A   1      27.947  29.678  22.810  1.00  0.00     0.004 A 
ATOM     15  C   UNL A   1      29.625  30.928  24.016  1.00  0.00     0.004 A 
ATOM     16  C   UNL A   1      28.683  28.514  22.954  1.00  0.00     0.012 A 
ATOM     17  C   UNL A   1      30.372  29.770  24.160  1.00  0.00     0.012 A 
ENDBRANCH   9  11
ENDBRANCH   8   9
ENDBRANCH   7   8
BRANCH   7  18
ATOM     18  N   UNL A   1      32.754  24.729  24.295  1.00  0.00    -0.315 N 
ATOM     19  C   UNL A   1      32.066  24.078  23.189  1.00  0.00     0.325 C 
ATOM     20  C   UNL A   1      34.188  24.432  24.383  1.00  0.00     0.325 C 
ATOM     21  H   UNL A   1      32.416  24.253  25.131  1.00  0.00     0.349 HD
ATOM     22  C   UNL A   1      32.761  22.804  22.657  1.00  0.00     0.324 C 
ATOM     23  C   UNL A   1      34.552  22.922  24.302  1.00  0.00     0.324 C 
ATOM     24  N   UNL A   1      33.594  22.069  23.603  1.00  0.00    -0.322 N 
ATOM     25  H   UNL A   1      34.167  21.473  23.006  1.00  0.00     0.348 HD
BRANCH  24  26
ATOM     26  C   UNL A   1      32.960  21.010  24.384  1.00  0.00     0.299 C 
BRANCH  26  27
ATOM     27  C   UNL A   1      33.278  19.544  24.144  1.00  0.00     0.006 A 
ATOM     28  C   UNL A   1      32.469  18.815  23.251  1.00  0.00     0.009 A 
ATOM     29  C   UNL A   1      34.422  18.904  24.637  1.00  0.00     0.009 A 
ATOM     30  C   UNL A   1      32.772  17.494  22.904  1.00  0.00     0.001 A 
ATOM     31  C   UNL A   1      34.719  17.578  24.308  1.00  0.00     0.001 A 
ATOM     32  C   UNL A   1      33.893  16.871  23.443  1.00  0.00     0.000 A 
ENDBRANCH  26  27
ENDBRANCH  24  26
ENDBRANCH   7  18
ENDBRANCH   4   7
ENDBRANCH   2   3
ENDBRANCH   1   2
BRANCH   1  33
ATOM     33  C   UNL A   1      34.991  30.410  27.275  1.00  0.00     0.118 C 
BRANCH  33  34
ATOM     34  N   UNL A   1      34.146  31.541  27.697  1.00  0.00    -0.352 N 
ATOM     35  C   UNL A   1      34.422  32.604  28.536  1.00  0.00     0.251 C 
ATOM     36  H   UNL A   1      33.237  31.540  27.322  1.00  0.00     0.163 HD
ATOM     37  O   UNL A   1      33.601  33.497  28.718  1.00  0.00    -0.269 OA
BRANCH  35  38
ATOM     38  C   UNL A   1      35.705  32.608  29.247  1.00  0.00     0.039 A 
ATOM     39  C   UNL A   1      36.780  33.339  28.743  1.00  0.00     0.014 A 
ATOM     40  C   UNL A   1      35.874  31.714  30.296  1.00  0.00     0.014 A 
ATOM     41  C   UNL A   1      38.077  32.988  29.117  1.00  0.00     0.010 A 
ATOM     42  C   UNL A   1      37.164  31.362  30.664  1.00  0.00     0.010 A 
ATOM     43  C   UNL A   1      38.265  31.922  29.995  1.00  0.00    -0.014 A 
BRANCH  43  44
ATOM     44  C   UNL A   1      39.539  31.209  30.094  1.00  0.00     0.031 A 
ATOM     45  C   UNL A   1      39.777  29.909  29.439  1.00  0.00     0.074 A 
ATOM     46  C   UNL A   1      40.591  31.786  30.724  1.00  0.00     0.049 A 
ATOM     47  N   UNL A   1      40.642  29.047  29.869  1.00  0.00    -0.248 NA
ATOM     48  C   UNL A   1      39.050  29.469  28.262  1.00  0.00     0.031 C 
ATOM     49  C   UNL A   1      41.995  31.412  30.563  1.00  0.00     0.029 A 
ATOM     50  N   UNL A   1      40.611  32.775  31.714  1.00  0.00    -0.354 N 
ATOM     51  C   UNL A   1      40.778  28.074  28.906  1.00  0.00     0.074 A 
ATOM     52  C   UNL A   1      39.707  28.341  27.969  1.00  0.00     0.031 C 
ATOM     53  C   UNL A   1      42.706  31.952  31.558  1.00  0.00     0.029 A 
ATOM     54  C   UNL A   1      41.780  32.593  32.471  1.00  0.00     0.049 A 
ATOM     55  H   UNL A   1      39.930  33.470  31.855  1.00  0.00     0.167 HD
ATOM     56  C   UNL A   1      41.860  27.238  28.936  1.00  0.00     0.034 A 
ATOM     57  C   UNL A   1      41.846  32.530  33.827  1.00  0.00     0.034 A 
ATOM     58  C   UNL A   1      42.777  27.566  30.043  1.00  0.00     0.049 A 
ATOM     59  C   UNL A   1      42.396  31.212  34.331  1.00  0.00     0.074 A 
ATOM     60  C   UNL A   1      43.986  28.243  30.089  1.00  0.00     0.029 A 
ATOM     61  N   UNL A   1      42.399  27.353  31.363  1.00  0.00    -0.354 N 
ATOM     62  N   UNL A   1      42.885  30.275  33.568  1.00  0.00    -0.248 NA
ATOM     63  C   UNL A   1      42.366  30.814  35.737  1.00  0.00     0.031 C 
ATOM     64  C   UNL A   1      44.315  28.473  31.451  1.00  0.00     0.029 A 
ATOM     65  C   UNL A   1      43.310  27.933  32.236  1.00  0.00     0.049 A 
ATOM     66  H   UNL A   1      41.594  26.858  31.641  1.00  0.00     0.167 HD
ATOM     67  C   UNL A   1      42.977  29.110  34.289  1.00  0.00     0.074 A 
ATOM     68  C   UNL A   1      42.779  29.537  35.663  1.00  0.00     0.031 C 
ATOM     69  C   UNL A   1      43.091  27.887  33.680  1.00  0.00     0.034 A 
BRANCH  56  70
ATOM     70  C   UNL A   1      42.285  26.299  27.809  1.00  0.00     0.023 A 
ATOM     71  C   UNL A   1      42.815  26.878  26.631  1.00  0.00     0.012 A 
ATOM     72  C   UNL A   1      42.170  24.893  27.794  1.00  0.00     0.148 A 
ATOM     73  C   UNL A   1      43.085  26.134  25.476  1.00  0.00     0.002 A 
ATOM     74  C   UNL A   1      42.352  24.158  26.617  1.00  0.00     0.091 A 
ATOM     75  F   UNL A   1      41.999  24.228  28.938  1.00  0.00    -0.205 F 
ATOM     76  C   UNL A   1      42.807  24.778  25.452  1.00  0.00     0.022 A 
BRANCH  74  77
ATOM     77  S   UNL A   1      41.922  22.412  26.505  1.00  0.00     0.127 S 
ATOM     78  O   UNL A   1      42.681  21.836  27.616  1.00  0.00    -0.237 OA
ATOM     79  O   UNL A   1      40.474  22.431  26.702  1.00  0.00    -0.237 OA
ATOM     80  O   UNL A   1      42.374  21.974  25.189  1.00  0.00    -0.744 OA
ENDBRANCH  74  77
ENDBRANCH  56  70
BRANCH  57  81
ATOM     81  C   UNL A   1      40.860  33.382  34.531  1.00  0.00     0.023 A 
ATOM     82  C   UNL A   1      41.195  34.745  34.691  1.00  0.00     0.012 A 
ATOM     83  C   UNL A   1      39.525  32.979  34.688  1.00  0.00     0.148 A 
ATOM     84  C   UNL A   1      40.209  35.704  34.922  1.00  0.00     0.002 A 
ATOM     85  C   UNL A   1      38.541  33.946  34.865  1.00  0.00     0.091 A 
ATOM     86  F   UNL A   1      39.231  31.682  34.541  1.00  0.00    -0.205 F 
ATOM     87  C   UNL A   1      38.879  35.306  34.975  1.00  0.00     0.022 A 
BRANCH  85  88
ATOM     88  S   UNL A   1      36.794  33.562  34.717  1.00  0.00     0.127 S 
ATOM     89  O   UNL A   1      36.426  33.304  36.105  1.00  0.00    -0.237 OA
ATOM     90  O   UNL A   1      36.270  34.808  34.158  1.00  0.00    -0.237 OA
ATOM     91  O   UNL A   1      36.732  32.425  33.812  1.00  0.00    -0.744 OA
ENDBRANCH  85  88
ENDBRANCH  57  81
BRANCH  69  92
ATOM     92  C   UNL A   1      42.971  26.541  34.383  1.00  0.00     0.023 A 
ATOM     93  C   UNL A   1      41.741  26.042  34.857  1.00  0.00     0.012 A 
ATOM     94  C   UNL A   1      44.086  25.668  34.485  1.00  0.00     0.148 A 
ATOM     95  C   UNL A   1      41.629  24.787  35.468  1.00  0.00     0.002 A 
ATOM     96  C   UNL A   1      43.948  24.377  35.000  1.00  0.00     0.091 A 
ATOM     97  F   UNL A   1      45.300  26.090  34.103  1.00  0.00    -0.205 F 
ATOM     98  C   UNL A   1      42.729  23.945  35.522  1.00  0.00     0.022 A 
BRANCH  96  99
ATOM     99  S   UNL A   1      45.288  23.182  34.875  1.00  0.00     0.127 S 
ATOM    100  O   UNL A   1      44.572  21.912  34.968  1.00  0.00    -0.237 OA
ATOM    101  O   UNL A   1      45.849  23.469  33.554  1.00  0.00    -0.237 OA
ATOM    102  O   UNL A   1      46.177  23.508  35.983  1.00  0.00    -0.744 OA
ENDBRANCH  96  99
ENDBRANCH  69  92
ENDBRANCH  43  44
ENDBRANCH  35  38
ENDBRANCH  33  34
ENDBRANCH   1  33
TORSDOF 19
ENDMDL
MODEL 3
REMARK VINA RESULT:     -13.3      1.847      2.428
REMARK SMILES Cc1ccc(C(=O)C[C@@H](C(=O)NCCCNC(=O)c2ccc(-c3c4nc(c(-c5cccc(S(=O)(=O)[O-])c5F)c5ccc([nH]5)c(-c5cccc(S(=O)(=O)[O-])c5F)c5nc(c(-c6cccc(S(=O)(=O)[O-])c6F)c6ccc3[nH]6)C=C5)C=C4)cc2)[NH+]2CC[NH+](Cc3ccccc3)CC2)cc1
REMARK SMILES IDX 14 1 13 2 12 3 10 4 11 5 9 7 8 8 6 9 7 10 5 11 1 12 2 13
REMARK SMILES IDX 3 14 96 15 4 16 95 17 82 18 83 19 94 20 84 22 93 23 85 24
REMARK SMILES IDX 86 26 87 27 88 28 92 29 89 30 91 31 90 32 15 33 16 34 17 35
REMARK SMILES IDX 18 37 19 38 20 39 81 40 21 41 80 42 22 43 23 44 24 45 74 46
REMARK SMILES IDX 25 47 79 48 73 49 75 50 26 51 78 52 72 53 71 54 27 56 59 57
REMARK SMILES IDX 39 58 58 59 40 60 43 61 57 62 76 63 41 64 42 65 56 67 77 68
REMARK SMILES IDX 44 69 28 70 29 71 37 72 30 73 32 74 38 75 31 76 33 77 34 78
REMARK SMILES IDX 35 79 36 80 60 81 61 82 69 83 62 84 64 85 70 86 63 87 65 88
REMARK SMILES IDX 66 89 67 90 68 91 45 92 46 93 54 94 47 95 49 96 55 97 48 98
REMARK SMILES IDX 50 99 51 100 52 101 53 102
REMARK H PARENT 12 6 82 21 85 25 16 36 75 55 43 66
REMARK Flexibility Score: inf
ROOT
ATOM      1  C   UNL A   1      33.403  28.918  27.406  1.00  0.00     0.042 C 
ENDROOT
BRANCH   1   2
ATOM      2  C   UNL A   1      31.996  28.586  26.891  1.00  0.00     0.118 C 
BRANCH   2   3
ATOM      3  N   UNL A   1      31.543  27.235  27.171  1.00  0.00    -0.351 N 
ATOM      4  C   UNL A   1      31.584  26.085  26.431  1.00  0.00     0.278 C 
ATOM      5  O   UNL A   1      31.284  25.043  27.027  1.00  0.00    -0.268 OA
ATOM      6  H   UNL A   1      31.129  27.127  28.057  1.00  0.00     0.163 HD
BRANCH   4   7
ATOM      7  C   UNL A   1      32.007  26.058  24.926  1.00  0.00     0.282 C 
BRANCH   7   8
ATOM      8  C   UNL A   1      30.868  26.404  23.944  1.00  0.00     0.156 C 
BRANCH   8   9
ATOM      9  C   UNL A   1      31.142  27.601  23.057  1.00  0.00     0.169 C 
ATOM     10  O   UNL A   1      32.283  27.975  22.799  1.00  0.00    -0.294 OA
BRANCH   9  11
ATOM     11  C   UNL A   1      29.977  28.403  22.621  1.00  0.00     0.018 A 
ATOM     12  C   UNL A   1      27.353  31.526  23.560  1.00  0.00     0.044 C 
ATOM     13  C   UNL A   1      28.142  30.404  22.971  1.00  0.00    -0.051 A 
ATOM     14  C   UNL A   1      29.328  30.666  22.281  1.00  0.00     0.004 A 
ATOM     15  C   UNL A   1      27.763  29.091  23.232  1.00  0.00     0.004 A 
ATOM     16  C   UNL A   1      30.257  29.657  22.091  1.00  0.00     0.012 A 
ATOM     17  C   UNL A   1      28.689  28.075  23.051  1.00  0.00     0.012 A 
ENDBRANCH   9  11
ENDBRANCH   8   9
ENDBRANCH   7   8
BRANCH   7  18
ATOM     18  N   UNL A   1      32.462  24.702  24.505  1.00  0.00    -0.315 N 
ATOM     19  C   UNL A   1      31.748  24.128  23.373  1.00  0.00     0.325 C 
ATOM     20  C   UNL A   1      33.900  24.412  24.534  1.00  0.00     0.325 C 
ATOM     21  H   UNL A   1      32.149  24.164  25.313  1.00  0.00     0.349 HD
ATOM     22  C   UNL A   1      32.437  22.902  22.732  1.00  0.00     0.324 C 
ATOM     23  C   UNL A   1      34.270  22.915  24.334  1.00  0.00     0.324 C 
ATOM     24  N   UNL A   1      33.299  22.107  23.600  1.00  0.00    -0.322 N 
ATOM     25  H   UNL A   1      33.860  21.561  22.946  1.00  0.00     0.348 HD
BRANCH  24  26
ATOM     26  C   UNL A   1      32.694  20.988  24.318  1.00  0.00     0.299 C 
BRANCH  26  27
ATOM     27  C   UNL A   1      33.159  19.558  24.104  1.00  0.00     0.006 A 
ATOM     28  C   UNL A   1      32.467  18.755  23.178  1.00  0.00     0.009 A 
ATOM     29  C   UNL A   1      34.332  19.030  24.657  1.00  0.00     0.009 A 
ATOM     30  C   UNL A   1      32.909  17.467  22.855  1.00  0.00     0.001 A 
ATOM     31  C   UNL A   1      34.767  17.736  24.353  1.00  0.00     0.001 A 
ATOM     32  C   UNL A   1      34.055  16.953  23.453  1.00  0.00     0.000 A 
ENDBRANCH  26  27
ENDBRANCH  24  26
ENDBRANCH   7  18
ENDBRANCH   4   7
ENDBRANCH   2   3
ENDBRANCH   1   2
BRANCH   1  33
ATOM     33  C   UNL A   1      34.012  30.246  26.916  1.00  0.00     0.118 C 
BRANCH  33  34
ATOM     34  N   UNL A   1      34.272  31.135  28.062  1.00  0.00    -0.352 N 
ATOM     35  C   UNL A   1      35.352  31.200  28.922  1.00  0.00     0.251 C 
ATOM     36  H   UNL A   1      33.560  31.789  28.247  1.00  0.00     0.163 HD
ATOM     37  O   UNL A   1      35.420  32.066  29.790  1.00  0.00    -0.269 OA
BRANCH  35  38
ATOM     38  C   UNL A   1      36.392  30.172  28.805  1.00  0.00     0.039 A 
ATOM     39  C   UNL A   1      36.572  29.242  29.828  1.00  0.00     0.014 A 
ATOM     40  C   UNL A   1      37.307  30.283  27.766  1.00  0.00     0.014 A 
ATOM     41  C   UNL A   1      37.802  28.596  29.951  1.00  0.00     0.010 A 
ATOM     42  C   UNL A   1      38.531  29.644  27.891  1.00  0.00     0.010 A 
ATOM     43  C   UNL A   1      38.816  28.888  29.041  1.00  0.00    -0.014 A 
BRANCH  43  44
ATOM     44  C   UNL A   1      40.225  28.624  29.333  1.00  0.00     0.031 A 
ATOM     45  C   UNL A   1      40.929  27.423  28.843  1.00  0.00     0.074 A 
ATOM     46  C   UNL A   1      40.964  29.546  29.996  1.00  0.00     0.049 A 
ATOM     47  N   UNL A   1      41.957  26.912  29.441  1.00  0.00    -0.248 NA
ATOM     48  C   UNL A   1      40.521  26.694  27.656  1.00  0.00     0.031 C 
ATOM     49  C   UNL A   1      42.424  29.626  30.007  1.00  0.00     0.029 A 
ATOM     50  N   UNL A   1      40.559  30.557  30.874  1.00  0.00    -0.354 N 
ATOM     51  C   UNL A   1      42.502  25.967  28.602  1.00  0.00     0.074 A 
ATOM     52  C   UNL A   1      41.523  25.815  27.545  1.00  0.00     0.031 C 
ATOM     53  C   UNL A   1      42.808  30.431  31.002  1.00  0.00     0.029 A 
ATOM     54  C   UNL A   1      41.626  30.809  31.752  1.00  0.00     0.049 A 
ATOM     55  H   UNL A   1      39.685  31.009  30.877  1.00  0.00     0.167 HD
ATOM     56  C   UNL A   1      43.776  25.521  28.820  1.00  0.00     0.034 A 
ATOM     57  C   UNL A   1      41.542  30.865  33.108  1.00  0.00     0.034 A 
ATOM     58  C   UNL A   1      44.406  26.199  29.968  1.00  0.00     0.049 A 
ATOM     59  C   UNL A   1      42.404  29.828  33.796  1.00  0.00     0.074 A 
ATOM     60  C   UNL A   1      45.334  27.226  30.057  1.00  0.00     0.029 A 
ATOM     61  N   UNL A   1      43.954  25.971  31.262  1.00  0.00    -0.354 N 
ATOM     62  N   UNL A   1      43.247  29.042  33.185  1.00  0.00    -0.248 NA
ATOM     63  C   UNL A   1      42.327  29.540  35.227  1.00  0.00     0.031 C 
ATOM     64  C   UNL A   1      45.407  27.642  31.411  1.00  0.00     0.029 A 
ATOM     65  C   UNL A   1      44.529  26.868  32.151  1.00  0.00     0.049 A 
ATOM     66  H   UNL A   1      43.312  25.267  31.513  1.00  0.00     0.167 HD
ATOM     67  C   UNL A   1      43.604  28.020  34.029  1.00  0.00     0.074 A 
ATOM     68  C   UNL A   1      43.118  28.458  35.326  1.00  0.00     0.031 C 
ATOM     69  C   UNL A   1      44.161  26.856  33.565  1.00  0.00     0.034 A 
BRANCH  56  70
ATOM     70  C   UNL A   1      44.603  24.689  27.843  1.00  0.00     0.023 A 
ATOM     71  C   UNL A   1      45.923  25.116  27.564  1.00  0.00     0.012 A 
ATOM     72  C   UNL A   1      44.177  23.541  27.141  1.00  0.00     0.148 A 
ATOM     73  C   UNL A   1      46.715  24.532  26.568  1.00  0.00     0.002 A 
ATOM     74  C   UNL A   1      44.927  23.011  26.086  1.00  0.00     0.091 A 
ATOM     75  F   UNL A   1      43.100  22.871  27.556  1.00  0.00    -0.205 F 
ATOM     76  C   UNL A   1      46.198  23.507  25.793  1.00  0.00     0.022 A 
BRANCH  74  77
ATOM     77  S   UNL A   1      44.268  21.741  24.989  1.00  0.00     0.127 S 
ATOM     78  O   UNL A   1      43.317  22.501  24.176  1.00  0.00    -0.237 OA
ATOM     79  O   UNL A   1      45.460  21.293  24.272  1.00  0.00    -0.237 OA
ATOM     80  O   UNL A   1      43.644  20.749  25.858  1.00  0.00    -0.744 OA
ENDBRANCH  74  77
ENDBRANCH  56  70
BRANCH  57  81
ATOM     81  C   UNL A   1      40.264  31.408  33.623  1.00  0.00     0.023 A 
ATOM     82  C   UNL A   1      39.212  30.486  33.819  1.00  0.00     0.012 A 
ATOM     83  C   UNL A   1      40.203  32.665  34.247  1.00  0.00     0.148 A 
ATOM     84  C   UNL A   1      38.156  30.776  34.682  1.00  0.00     0.002 A 
ATOM     85  C   UNL A   1      39.175  32.925  35.147  1.00  0.00     0.091 A 
ATOM     86  F   UNL A   1      41.207  33.526  34.041  1.00  0.00    -0.205 F 
ATOM     87  C   UNL A   1      38.157  31.982  35.371  1.00  0.00     0.022 A 
BRANCH  85  88
ATOM     88  S   UNL A   1      39.212  34.344  36.246  1.00  0.00     0.127 S 
ATOM     89  O   UNL A   1      39.072  35.453  35.308  1.00  0.00    -0.237 OA
ATOM     90  O   UNL A   1      38.042  34.090  37.085  1.00  0.00    -0.237 OA
ATOM     91  O   UNL A   1      40.485  34.249  36.945  1.00  0.00    -0.744 OA
ENDBRANCH  85  88
ENDBRANCH  57  81
BRANCH  69  92
ATOM     92  C   UNL A   1      44.375  25.595  34.390  1.00  0.00     0.023 A 
ATOM     93  C   UNL A   1      43.341  24.671  34.642  1.00  0.00     0.012 A 
ATOM     94  C   UNL A   1      45.669  25.230  34.845  1.00  0.00     0.148 A 
ATOM     95  C   UNL A   1      43.551  23.492  35.369  1.00  0.00     0.002 A 
ATOM     96  C   UNL A   1      45.894  24.006  35.478  1.00  0.00     0.091 A 
ATOM     97  F   UNL A   1      46.695  26.080  34.689  1.00  0.00    -0.205 F 
ATOM     98  C   UNL A   1      44.833  23.149  35.771  1.00  0.00     0.022 A 
BRANCH  96  99
ATOM     99  S   UNL A   1      47.566  23.425  35.805  1.00  0.00     0.127 S 
ATOM    100  O   UNL A   1      48.013  24.352  36.842  1.00  0.00    -0.237 OA
ATOM    101  O   UNL A   1      47.343  22.055  36.270  1.00  0.00    -0.237 OA
ATOM    102  O   UNL A   1      48.246  23.514  34.519  1.00  0.00    -0.744 OA
ENDBRANCH  96  99
ENDBRANCH  69  92
ENDBRANCH  43  44
ENDBRANCH  35  38
ENDBRANCH  33  34
ENDBRANCH   1  33
TORSDOF 19
ENDMDL
