MODEL 1
REMARK VINA RESULT:     -13.1      0.000      0.000
REMARK SMILES O=C(NCCCNC(=O)[C@@H](Cc1ccccc1)Nc1ccc(Cl)c(Br)c1)c1ccc(-c2c3nc(c(-c4cccc(S(=O)(=O)[O-])c4F)c4ccc([nH]4)c(-c4cccc(S(=O)(=O)[O-])c4F)c4nc(c(-c5cccc(S(=O)(=O)[O-])c5F)c5ccc2[nH]5)C=C4)C=C3)cc1
REMARK SMILES IDX 4 1 3 2 1 3 2 4 27 6 28 7 89 8 29 9 88 10 30 11 31 12 32 13
REMARK SMILES IDX 82 14 33 15 87 16 81 17 83 18 34 19 86 20 80 21 79 22 35 24
REMARK SMILES IDX 67 25 47 26 66 27 48 28 51 29 65 30 84 31 49 32 50 33 64 35
REMARK SMILES IDX 85 36 52 37 36 38 37 39 45 40 38 41 40 42 46 43 39 44 41 45
REMARK SMILES IDX 42 46 43 47 44 48 68 49 69 50 77 51 70 52 72 53 78 54 71 55
REMARK SMILES IDX 73 56 74 57 75 58 76 59 53 60 54 61 62 62 55 63 57 64 63 65
REMARK SMILES IDX 56 66 58 67 59 68 60 69 61 70 5 71 6 72 7 73 8 74 9 76 10 77
REMARK SMILES IDX 11 78 12 79 13 80 17 81 14 82 16 83 15 84 18 85 19 87 20 88
REMARK SMILES IDX 26 89 21 90 24 91 22 92 25 93 23 94
REMARK H PARENT 3 5 83 23 51 34 7 75 18 86
REMARK Flexibility Score: inf
ROOT
ATOM      1  C   UNL A   1      31.745  30.979  26.853  1.00  0.00     0.118 C 
ENDROOT
BRANCH   1   2
ATOM      2  N   UNL A   1      31.950  32.408  27.000  1.00  0.00    -0.352 N 
ATOM      3  O   UNL A   1      32.709  34.320  27.843  1.00  0.00    -0.269 OA
ATOM      4  C   UNL A   1      32.948  33.135  27.604  1.00  0.00     0.251 C 
ATOM      5  H   UNL A   1      31.245  32.959  26.589  1.00  0.00     0.163 HD
BRANCH   4   6
ATOM      6  C   UNL A   1      34.275  32.568  27.981  1.00  0.00     0.039 A 
ATOM      7  C   UNL A   1      35.399  33.351  28.249  1.00  0.00     0.014 A 
ATOM      8  C   UNL A   1      34.354  31.187  28.230  1.00  0.00     0.014 A 
ATOM      9  C   UNL A   1      36.594  32.769  28.681  1.00  0.00     0.010 A 
ATOM     10  C   UNL A   1      35.520  30.616  28.760  1.00  0.00     0.010 A 
ATOM     11  C   UNL A   1      36.653  31.404  28.999  1.00  0.00    -0.014 A 
BRANCH  11  12
ATOM     12  C   UNL A   1      37.831  30.866  29.737  1.00  0.00     0.031 A 
ATOM     13  C   UNL A   1      38.765  29.861  29.123  1.00  0.00     0.074 A 
ATOM     14  C   UNL A   1      38.020  31.256  31.017  1.00  0.00     0.049 A 
ATOM     15  N   UNL A   1      39.824  29.299  29.650  1.00  0.00    -0.248 NA
ATOM     16  C   UNL A   1      38.475  29.419  27.750  1.00  0.00     0.031 C 
ATOM     17  C   UNL A   1      37.141  32.164  31.758  1.00  0.00     0.029 A 
ATOM     18  N   UNL A   1      38.994  30.929  31.929  1.00  0.00    -0.354 N 
ATOM     19  C   UNL A   1      40.300  28.406  28.697  1.00  0.00     0.074 A 
ATOM     20  C   UNL A   1      39.418  28.503  27.555  1.00  0.00     0.031 C 
ATOM     21  C   UNL A   1      37.619  32.331  32.999  1.00  0.00     0.029 A 
ATOM     22  C   UNL A   1      38.808  31.504  33.165  1.00  0.00     0.049 A 
ATOM     23  H   UNL A   1      39.754  30.339  31.718  1.00  0.00     0.167 HD
ATOM     24  C   UNL A   1      41.383  27.593  28.765  1.00  0.00     0.034 A 
ATOM     25  C   UNL A   1      39.493  31.367  34.317  1.00  0.00     0.034 A 
ATOM     26  C   UNL A   1      42.290  27.535  29.883  1.00  0.00     0.049 A 
ATOM     27  C   UNL A   1      40.703  30.478  34.348  1.00  0.00     0.074 A 
ATOM     28  C   UNL A   1      43.481  26.838  29.984  1.00  0.00     0.029 A 
ATOM     29  N   UNL A   1      42.098  28.175  31.096  1.00  0.00    -0.354 N 
ATOM     30  N   UNL A   1      41.245  29.795  33.370  1.00  0.00    -0.248 NA
ATOM     31  C   UNL A   1      41.407  30.356  35.633  1.00  0.00     0.031 C 
ATOM     32  C   UNL A   1      43.997  27.033  31.269  1.00  0.00     0.029 A 
ATOM     33  C   UNL A   1      43.134  27.865  31.963  1.00  0.00     0.049 A 
ATOM     34  H   UNL A   1      41.338  28.763  31.311  1.00  0.00     0.167 HD
ATOM     35  C   UNL A   1      42.361  29.173  33.917  1.00  0.00     0.074 A 
ATOM     36  C   UNL A   1      42.437  29.588  35.302  1.00  0.00     0.031 C 
ATOM     37  C   UNL A   1      43.228  28.315  33.327  1.00  0.00     0.034 A 
BRANCH  24  38
ATOM     38  C   UNL A   1      41.692  26.719  27.579  1.00  0.00     0.023 A 
ATOM     39  C   UNL A   1      42.364  27.269  26.470  1.00  0.00     0.012 A 
ATOM     40  C   UNL A   1      41.418  25.337  27.610  1.00  0.00     0.148 A 
ATOM     41  C   UNL A   1      42.746  26.459  25.400  1.00  0.00     0.002 A 
ATOM     42  C   UNL A   1      41.832  24.530  26.555  1.00  0.00     0.091 A 
ATOM     43  F   UNL A   1      40.762  24.838  28.667  1.00  0.00    -0.205 F 
ATOM     44  C   UNL A   1      42.490  25.091  25.448  1.00  0.00     0.022 A 
BRANCH  42  45
ATOM     45  S   UNL A   1      41.613  22.747  26.554  1.00  0.00     0.127 S 
ATOM     46  O   UNL A   1      42.252  22.373  27.815  1.00  0.00    -0.237 OA
ATOM     47  O   UNL A   1      40.156  22.614  26.547  1.00  0.00    -0.237 OA
ATOM     48  O   UNL A   1      42.273  22.263  25.349  1.00  0.00    -0.744 OA
ENDBRANCH  42  45
ENDBRANCH  24  38
BRANCH  25  49
ATOM     49  C   UNL A   1      39.058  32.115  35.531  1.00  0.00     0.023 A 
ATOM     50  C   UNL A   1      39.276  33.503  35.606  1.00  0.00     0.012 A 
ATOM     51  C   UNL A   1      38.393  31.466  36.590  1.00  0.00     0.148 A 
ATOM     52  C   UNL A   1      38.858  34.228  36.724  1.00  0.00     0.002 A 
ATOM     53  C   UNL A   1      37.927  32.203  37.672  1.00  0.00     0.091 A 
ATOM     54  F   UNL A   1      38.216  30.139  36.515  1.00  0.00    -0.205 F 
ATOM     55  C   UNL A   1      38.172  33.582  37.749  1.00  0.00     0.022 A 
BRANCH  53  56
ATOM     56  S   UNL A   1      36.904  31.461  38.949  1.00  0.00     0.127 S 
ATOM     57  O   UNL A   1      37.735  31.634  40.136  1.00  0.00    -0.237 OA
ATOM     58  O   UNL A   1      35.703  32.298  38.911  1.00  0.00    -0.237 OA
ATOM     59  O   UNL A   1      36.684  30.090  38.511  1.00  0.00    -0.744 OA
ENDBRANCH  53  56
ENDBRANCH  25  49
BRANCH  37  60
ATOM     60  C   UNL A   1      44.341  27.760  34.173  1.00  0.00     0.023 A 
ATOM     61  C   UNL A   1      45.544  28.483  34.295  1.00  0.00     0.012 A 
ATOM     62  C   UNL A   1      44.172  26.569  34.906  1.00  0.00     0.148 A 
ATOM     63  C   UNL A   1      46.571  28.019  35.115  1.00  0.00     0.002 A 
ATOM     64  C   UNL A   1      45.184  26.134  35.756  1.00  0.00     0.091 A 
ATOM     65  F   UNL A   1      43.028  25.886  34.762  1.00  0.00    -0.205 F 
ATOM     66  C   UNL A   1      46.387  26.853  35.854  1.00  0.00     0.022 A 
BRANCH  64  67
ATOM     67  S   UNL A   1      45.004  24.692  36.812  1.00  0.00     0.127 S 
ATOM     68  O   UNL A   1      46.321  24.618  37.442  1.00  0.00    -0.237 OA
ATOM     69  O   UNL A   1      43.921  25.096  37.708  1.00  0.00    -0.237 OA
ATOM     70  O   UNL A   1      44.674  23.585  35.925  1.00  0.00    -0.744 OA
ENDBRANCH  64  67
ENDBRANCH  37  60
ENDBRANCH  11  12
ENDBRANCH   4   6
ENDBRANCH   1   2
BRANCH   1  71
ATOM     71  C   UNL A   1      31.394  30.607  25.421  1.00  0.00     0.042 C 
BRANCH  71  72
ATOM     72  C   UNL A   1      31.844  29.199  25.043  1.00  0.00     0.117 C 
BRANCH  72  73
ATOM     73  N   UNL A   1      31.560  28.933  23.641  1.00  0.00    -0.354 N 
ATOM     74  C   UNL A   1      30.549  28.250  23.033  1.00  0.00     0.242 C 
ATOM     75  H   UNL A   1      32.218  29.317  23.017  1.00  0.00     0.163 HD
ATOM     76  O   UNL A   1      30.744  27.921  21.856  1.00  0.00    -0.273 OA
BRANCH  74  77
ATOM     77  C   UNL A   1      29.198  27.925  23.712  1.00  0.00     0.173 C 
BRANCH  77  78
ATOM     78  C   UNL A   1      27.971  28.594  23.067  1.00  0.00     0.070 C 
BRANCH  78  79
ATOM     79  C   UNL A   1      28.039  30.036  22.624  1.00  0.00    -0.045 A 
ATOM     80  C   UNL A   1      28.180  31.074  23.557  1.00  0.00     0.004 A 
ATOM     81  C   UNL A   1      28.031  30.358  21.258  1.00  0.00     0.004 A 
ATOM     82  C   UNL A   1      28.244  32.404  23.136  1.00  0.00     0.000 A 
ATOM     83  C   UNL A   1      28.102  31.690  20.838  1.00  0.00     0.000 A 
ATOM     84  C   UNL A   1      28.197  32.713  21.778  1.00  0.00     0.000 A 
ENDBRANCH  78  79
ENDBRANCH  77  78
BRANCH  77  85
ATOM     85  N   UNL A   1      29.057  26.483  23.991  1.00  0.00    -0.373 N 
ATOM     86  H   UNL A   1      28.184  26.064  23.820  1.00  0.00     0.161 HD
BRANCH  85  87
ATOM     87  C   UNL A   1      30.076  25.684  24.479  1.00  0.00     0.036 A 
ATOM     88  C   UNL A   1      30.590  25.958  25.753  1.00  0.00     0.027 A 
ATOM     89  C   UNL A   1      30.636  24.617  23.769  1.00  0.00     0.043 A 
ATOM     90  C   UNL A   1      31.593  25.169  26.323  1.00  0.00     0.024 A 
ATOM     91  C   UNL A   1      31.647  23.821  24.328  1.00  0.00     0.038 A 
ATOM     92  C   UNL A   1      32.121  24.092  25.613  1.00  0.00     0.055 A 
ATOM     93  Br  UNL A   1      32.317  22.387  23.274  1.00  0.00    -0.049 Br
ATOM     94  Cl  UNL A   1      33.346  23.149  26.383  1.00  0.00    -0.083 Cl
ENDBRANCH  85  87
ENDBRANCH  77  85
ENDBRANCH  74  77
ENDBRANCH  72  73
ENDBRANCH  71  72
ENDBRANCH   1  71
TORSDOF 17
ENDMDL
MODEL 2
REMARK VINA RESULT:     -13.0      1.296      1.698
REMARK SMILES O=C(NCCCNC(=O)[C@@H](Cc1ccccc1)Nc1ccc(Cl)c(Br)c1)c1ccc(-c2c3nc(c(-c4cccc(S(=O)(=O)[O-])c4F)c4ccc([nH]4)c(-c4cccc(S(=O)(=O)[O-])c4F)c4nc(c(-c5cccc(S(=O)(=O)[O-])c5F)c5ccc2[nH]5)C=C4)C=C3)cc1
REMARK SMILES IDX 4 1 3 2 1 3 2 4 27 6 28 7 89 8 29 9 88 10 30 11 31 12 32 13
REMARK SMILES IDX 82 14 33 15 87 16 81 17 83 18 34 19 86 20 80 21 79 22 35 24
REMARK SMILES IDX 67 25 47 26 66 27 48 28 51 29 65 30 84 31 49 32 50 33 64 35
REMARK SMILES IDX 85 36 52 37 36 38 37 39 45 40 38 41 40 42 46 43 39 44 41 45
REMARK SMILES IDX 42 46 43 47 44 48 68 49 69 50 77 51 70 52 72 53 78 54 71 55
REMARK SMILES IDX 73 56 74 57 75 58 76 59 53 60 54 61 62 62 55 63 57 64 63 65
REMARK SMILES IDX 56 66 58 67 59 68 60 69 61 70 5 71 6 72 7 73 8 74 9 76 10 77
REMARK SMILES IDX 11 78 12 79 13 80 17 81 14 82 16 83 15 84 18 85 19 87 20 88
REMARK SMILES IDX 26 89 21 90 24 91 22 92 25 93 23 94
REMARK H PARENT 3 5 83 23 51 34 7 75 18 86
REMARK Flexibility Score: inf
ROOT
ATOM      1  C   UNL A   1      31.819  30.624  26.696  1.00  0.00     0.118 C 
ENDROOT
BRANCH   1   2
ATOM      2  N   UNL A   1      31.980  32.055  26.874  1.00  0.00    -0.352 N 
ATOM      3  O   UNL A   1      32.669  33.970  27.769  1.00  0.00    -0.269 OA
ATOM      4  C   UNL A   1      32.947  32.797  27.510  1.00  0.00     0.251 C 
ATOM      5  H   UNL A   1      31.265  32.593  26.464  1.00  0.00     0.163 HD
BRANCH   4   6
ATOM      6  C   UNL A   1      34.283  32.261  27.897  1.00  0.00     0.039 A 
ATOM      7  C   UNL A   1      35.390  33.070  28.160  1.00  0.00     0.014 A 
ATOM      8  C   UNL A   1      34.388  30.885  28.162  1.00  0.00     0.014 A 
ATOM      9  C   UNL A   1      36.595  32.516  28.602  1.00  0.00     0.010 A 
ATOM     10  C   UNL A   1      35.564  30.343  28.702  1.00  0.00     0.010 A 
ATOM     11  C   UNL A   1      36.680  31.157  28.936  1.00  0.00    -0.014 A 
BRANCH  11  12
ATOM     12  C   UNL A   1      37.866  30.651  29.683  1.00  0.00     0.031 A 
ATOM     13  C   UNL A   1      38.815  29.648  29.089  1.00  0.00     0.074 A 
ATOM     14  C   UNL A   1      38.050  31.068  30.956  1.00  0.00     0.049 A 
ATOM     15  N   UNL A   1      39.882  29.112  29.626  1.00  0.00    -0.248 NA
ATOM     16  C   UNL A   1      38.531  29.175  27.725  1.00  0.00     0.031 C 
ATOM     17  C   UNL A   1      37.158  31.978  31.680  1.00  0.00     0.029 A 
ATOM     18  N   UNL A   1      39.029  30.774  31.873  1.00  0.00    -0.354 N 
ATOM     19  C   UNL A   1      40.371  28.208  28.691  1.00  0.00     0.074 A 
ATOM     20  C   UNL A   1      39.487  28.269  27.547  1.00  0.00     0.031 C 
ATOM     21  C   UNL A   1      37.634  32.176  32.917  1.00  0.00     0.029 A 
ATOM     22  C   UNL A   1      38.834  31.370  33.098  1.00  0.00     0.049 A 
ATOM     23  H   UNL A   1      39.797  30.191  31.674  1.00  0.00     0.167 HD
ATOM     24  C   UNL A   1      41.466  27.412  28.774  1.00  0.00     0.034 A 
ATOM     25  C   UNL A   1      39.522  31.265  34.253  1.00  0.00     0.034 A 
ATOM     26  C   UNL A   1      42.374  27.390  29.892  1.00  0.00     0.049 A 
ATOM     27  C   UNL A   1      40.744  30.396  34.300  1.00  0.00     0.074 A 
ATOM     28  C   UNL A   1      43.575  26.712  30.006  1.00  0.00     0.029 A 
ATOM     29  N   UNL A   1      42.173  28.050  31.093  1.00  0.00    -0.354 N 
ATOM     30  N   UNL A   1      41.297  29.702  33.336  1.00  0.00    -0.248 NA
ATOM     31  C   UNL A   1      41.451  30.309  35.587  1.00  0.00     0.031 C 
ATOM     32  C   UNL A   1      44.088  26.940  31.287  1.00  0.00     0.029 A 
ATOM     33  C   UNL A   1      43.214  27.772  31.965  1.00  0.00     0.049 A 
ATOM     34  H   UNL A   1      41.405  28.631  31.297  1.00  0.00     0.167 HD
ATOM     35  C   UNL A   1      42.421  29.107  33.894  1.00  0.00     0.074 A 
ATOM     36  C   UNL A   1      42.492  29.550  35.270  1.00  0.00     0.031 C 
ATOM     37  C   UNL A   1      43.301  28.250  33.320  1.00  0.00     0.034 A 
BRANCH  24  38
ATOM     38  C   UNL A   1      41.788  26.520  27.605  1.00  0.00     0.023 A 
ATOM     39  C   UNL A   1      42.521  27.038  26.520  1.00  0.00     0.012 A 
ATOM     40  C   UNL A   1      41.462  25.149  27.632  1.00  0.00     0.148 A 
ATOM     41  C   UNL A   1      42.914  26.208  25.469  1.00  0.00     0.002 A 
ATOM     42  C   UNL A   1      41.886  24.321  26.598  1.00  0.00     0.091 A 
ATOM     43  F   UNL A   1      40.748  24.682  28.666  1.00  0.00    -0.205 F 
ATOM     44  C   UNL A   1      42.607  24.850  25.514  1.00  0.00     0.022 A 
BRANCH  42  45
ATOM     45  S   UNL A   1      41.602  22.547  26.598  1.00  0.00     0.127 S 
ATOM     46  O   UNL A   1      40.143  22.483  26.532  1.00  0.00    -0.237 OA
ATOM     47  O   UNL A   1      42.286  22.124  25.376  1.00  0.00    -0.237 OA
ATOM     48  O   UNL A   1      42.196  22.046  27.830  1.00  0.00    -0.744 OA
ENDBRANCH  42  45
ENDBRANCH  24  38
BRANCH  25  49
ATOM     49  C   UNL A   1      39.075  32.031  35.452  1.00  0.00     0.023 A 
ATOM     50  C   UNL A   1      38.192  31.432  36.368  1.00  0.00     0.012 A 
ATOM     51  C   UNL A   1      39.553  33.331  35.708  1.00  0.00     0.148 A 
ATOM     52  C   UNL A   1      37.776  32.121  37.509  1.00  0.00     0.002 A 
ATOM     53  C   UNL A   1      39.183  33.988  36.875  1.00  0.00     0.091 A 
ATOM     54  F   UNL A   1      40.374  33.898  34.812  1.00  0.00    -0.205 F 
ATOM     55  C   UNL A   1      38.282  33.393  37.769  1.00  0.00     0.022 A 
BRANCH  53  56
ATOM     56  S   UNL A   1      39.916  35.560  37.346  1.00  0.00     0.127 S 
ATOM     57  O   UNL A   1      39.211  35.858  38.590  1.00  0.00    -0.237 OA
ATOM     58  O   UNL A   1      41.327  35.208  37.507  1.00  0.00    -0.237 OA
ATOM     59  O   UNL A   1      39.652  36.453  36.226  1.00  0.00    -0.744 OA
ENDBRANCH  53  56
ENDBRANCH  25  49
BRANCH  37  60
ATOM     60  C   UNL A   1      44.423  27.728  34.177  1.00  0.00     0.023 A 
ATOM     61  C   UNL A   1      45.623  28.461  34.267  1.00  0.00     0.012 A 
ATOM     62  C   UNL A   1      44.265  26.561  34.948  1.00  0.00     0.148 A 
ATOM     63  C   UNL A   1      46.657  28.030  35.096  1.00  0.00     0.002 A 
ATOM     64  C   UNL A   1      45.284  26.159  35.805  1.00  0.00     0.091 A 
ATOM     65  F   UNL A   1      43.123  25.867  34.833  1.00  0.00    -0.205 F 
ATOM     66  C   UNL A   1      46.484  26.887  35.873  1.00  0.00     0.022 A 
BRANCH  64  67
ATOM     67  S   UNL A   1      45.119  24.750  36.908  1.00  0.00     0.127 S 
ATOM     68  O   UNL A   1      43.954  25.130  37.704  1.00  0.00    -0.237 OA
ATOM     69  O   UNL A   1      44.886  23.649  35.972  1.00  0.00    -0.237 OA
ATOM     70  O   UNL A   1      46.375  24.665  37.640  1.00  0.00    -0.744 OA
ENDBRANCH  64  67
ENDBRANCH  37  60
ENDBRANCH  11  12
ENDBRANCH   4   6
ENDBRANCH   1   2
BRANCH   1  71
ATOM     71  C   UNL A   1      31.404  30.279  25.274  1.00  0.00     0.042 C 
BRANCH  71  72
ATOM     72  C   UNL A   1      32.007  28.969  24.776  1.00  0.00     0.117 C 
BRANCH  72  73
ATOM     73  N   UNL A   1      31.625  28.725  23.394  1.00  0.00    -0.354 N 
ATOM     74  C   UNL A   1      30.546  28.098  22.847  1.00  0.00     0.242 C 
ATOM     75  H   UNL A   1      32.264  29.078  22.732  1.00  0.00     0.163 HD
ATOM     76  O   UNL A   1      30.653  27.766  21.659  1.00  0.00    -0.273 OA
BRANCH  74  77
ATOM     77  C   UNL A   1      29.224  27.839  23.606  1.00  0.00     0.173 C 
BRANCH  77  78
ATOM     78  C   UNL A   1      28.000  28.587  23.048  1.00  0.00     0.070 C 
BRANCH  78  79
ATOM     79  C   UNL A   1      28.128  30.022  22.595  1.00  0.00    -0.045 A 
ATOM     80  C   UNL A   1      28.028  30.365  21.239  1.00  0.00     0.004 A 
ATOM     81  C   UNL A   1      28.284  31.051  23.537  1.00  0.00     0.004 A 
ATOM     82  C   UNL A   1      28.146  31.695  20.831  1.00  0.00     0.000 A 
ATOM     83  C   UNL A   1      28.396  32.383  23.128  1.00  0.00     0.000 A 
ATOM     84  C   UNL A   1      28.338  32.703  21.774  1.00  0.00     0.000 A 
ENDBRANCH  78  79
ENDBRANCH  77  78
BRANCH  77  85
ATOM     85  N   UNL A   1      29.018  26.404  23.876  1.00  0.00    -0.373 N 
ATOM     86  H   UNL A   1      28.132  26.021  23.682  1.00  0.00     0.161 HD
BRANCH  85  87
ATOM     87  C   UNL A   1      29.992  25.562  24.384  1.00  0.00     0.036 A 
ATOM     88  C   UNL A   1      30.401  25.738  25.713  1.00  0.00     0.027 A 
ATOM     89  C   UNL A   1      30.605  24.546  23.644  1.00  0.00     0.043 A 
ATOM     90  C   UNL A   1      31.353  24.900  26.301  1.00  0.00     0.024 A 
ATOM     91  C   UNL A   1      31.565  23.702  24.224  1.00  0.00     0.038 A 
ATOM     92  C   UNL A   1      31.933  23.874  25.559  1.00  0.00     0.055 A 
ATOM     93  Br  UNL A   1      32.315  22.344  23.124  1.00  0.00    -0.049 Br
ATOM     94  Cl  UNL A   1      33.089  22.867  26.354  1.00  0.00    -0.083 Cl
ENDBRANCH  85  87
ENDBRANCH  77  85
ENDBRANCH  74  77
ENDBRANCH  72  73
ENDBRANCH  71  72
ENDBRANCH   1  71
TORSDOF 17
ENDMDL
MODEL 3
REMARK VINA RESULT:     -12.8      5.454     10.271
REMARK SMILES O=C(NCCCNC(=O)[C@@H](Cc1ccccc1)Nc1ccc(Cl)c(Br)c1)c1ccc(-c2c3nc(c(-c4cccc(S(=O)(=O)[O-])c4F)c4ccc([nH]4)c(-c4cccc(S(=O)(=O)[O-])c4F)c4nc(c(-c5cccc(S(=O)(=O)[O-])c5F)c5ccc2[nH]5)C=C4)C=C3)cc1
REMARK SMILES IDX 4 1 3 2 1 3 2 4 27 6 28 7 89 8 29 9 88 10 30 11 31 12 32 13
REMARK SMILES IDX 82 14 33 15 87 16 81 17 83 18 34 19 86 20 80 21 79 22 35 24
REMARK SMILES IDX 67 25 47 26 66 27 48 28 51 29 65 30 84 31 49 32 50 33 64 35
REMARK SMILES IDX 85 36 52 37 36 38 37 39 45 40 38 41 40 42 46 43 39 44 41 45
REMARK SMILES IDX 42 46 43 47 44 48 68 49 69 50 77 51 70 52 72 53 78 54 71 55
REMARK SMILES IDX 73 56 74 57 75 58 76 59 53 60 54 61 62 62 55 63 57 64 63 65
REMARK SMILES IDX 56 66 58 67 59 68 60 69 61 70 5 71 6 72 7 73 8 74 9 76 10 77
REMARK SMILES IDX 11 78 12 79 13 80 17 81 14 82 16 83 15 84 18 85 19 87 20 88
REMARK SMILES IDX 26 89 21 90 24 91 22 92 25 93 23 94
REMARK H PARENT 3 5 83 23 51 34 7 75 18 86
REMARK Flexibility Score: inf
ROOT
ATOM      1  C   UNL A   1      36.593  21.767  24.892  1.00  0.00     0.118 C 
ENDROOT
BRANCH   1   2
ATOM      2  N   UNL A   1      37.619  20.814  25.272  1.00  0.00    -0.352 N 
ATOM      3  O   UNL A   1      39.640  20.023  25.753  1.00  0.00    -0.269 OA
ATOM      4  C   UNL A   1      38.868  20.980  25.822  1.00  0.00     0.251 C 
ATOM      5  H   UNL A   1      37.375  19.874  25.107  1.00  0.00     0.163 HD
BRANCH   4   6
ATOM      6  C   UNL A   1      39.324  22.240  26.476  1.00  0.00     0.039 A 
ATOM      7  C   UNL A   1      40.408  22.302  27.354  1.00  0.00     0.014 A 
ATOM      8  C   UNL A   1      38.732  23.446  26.067  1.00  0.00     0.014 A 
ATOM      9  C   UNL A   1      40.844  23.526  27.872  1.00  0.00     0.010 A 
ATOM     10  C   UNL A   1      39.233  24.681  26.506  1.00  0.00     0.010 A 
ATOM     11  C   UNL A   1      40.302  24.734  27.409  1.00  0.00    -0.014 A 
BRANCH  11  12
ATOM     12  C   UNL A   1      40.976  26.022  27.739  1.00  0.00     0.031 A 
ATOM     13  C   UNL A   1      40.280  27.113  28.504  1.00  0.00     0.074 A 
ATOM     14  C   UNL A   1      42.231  26.227  27.280  1.00  0.00     0.049 A 
ATOM     15  N   UNL A   1      40.738  28.288  28.854  1.00  0.00    -0.248 NA
ATOM     16  C   UNL A   1      38.891  26.865  28.921  1.00  0.00     0.031 C 
ATOM     17  C   UNL A   1      42.991  25.282  26.458  1.00  0.00     0.029 A 
ATOM     18  N   UNL A   1      43.083  27.296  27.419  1.00  0.00    -0.354 N 
ATOM     19  C   UNL A   1      39.688  28.938  29.489  1.00  0.00     0.074 A 
ATOM     20  C   UNL A   1      38.565  28.024  29.483  1.00  0.00     0.031 C 
ATOM     21  C   UNL A   1      44.193  25.803  26.177  1.00  0.00     0.029 A 
ATOM     22  C   UNL A   1      44.276  27.140  26.751  1.00  0.00     0.049 A 
ATOM     23  H   UNL A   1      42.860  28.097  27.946  1.00  0.00     0.167 HD
ATOM     24  C   UNL A   1      39.667  30.176  30.041  1.00  0.00     0.034 A 
ATOM     25  C   UNL A   1      45.315  27.982  26.588  1.00  0.00     0.034 A 
ATOM     26  C   UNL A   1      40.800  31.064  30.092  1.00  0.00     0.049 A 
ATOM     27  C   UNL A   1      45.268  29.335  27.236  1.00  0.00     0.074 A 
ATOM     28  C   UNL A   1      40.905  32.281  30.744  1.00  0.00     0.029 A 
ATOM     29  N   UNL A   1      42.009  30.848  29.453  1.00  0.00    -0.354 N 
ATOM     30  N   UNL A   1      44.337  29.849  28.000  1.00  0.00    -0.248 NA
ATOM     31  C   UNL A   1      46.424  30.219  27.018  1.00  0.00     0.031 C 
ATOM     32  C   UNL A   1      42.170  32.814  30.476  1.00  0.00     0.029 A 
ATOM     33  C   UNL A   1      42.857  31.923  29.670  1.00  0.00     0.049 A 
ATOM     34  H   UNL A   1      42.233  30.050  28.923  1.00  0.00     0.167 HD
ATOM     35  C   UNL A   1      44.797  31.108  28.365  1.00  0.00     0.074 A 
ATOM     36  C   UNL A   1      46.106  31.266  27.768  1.00  0.00     0.031 C 
ATOM     37  C   UNL A   1      44.176  32.056  29.108  1.00  0.00     0.034 A 
BRANCH  24  38
ATOM     38  C   UNL A   1      38.390  30.647  30.686  1.00  0.00     0.023 A 
ATOM     39  C   UNL A   1      38.197  30.448  32.067  1.00  0.00     0.012 A 
ATOM     40  C   UNL A   1      37.438  31.381  29.950  1.00  0.00     0.148 A 
ATOM     41  C   UNL A   1      37.067  30.958  32.705  1.00  0.00     0.002 A 
ATOM     42  C   UNL A   1      36.331  31.916  30.600  1.00  0.00     0.091 A 
ATOM     43  F   UNL A   1      37.634  31.543  28.634  1.00  0.00    -0.205 F 
ATOM     44  C   UNL A   1      36.142  31.701  31.975  1.00  0.00     0.022 A 
BRANCH  42  45
ATOM     45  S   UNL A   1      35.119  32.946  29.764  1.00  0.00     0.127 S 
ATOM     46  O   UNL A   1      34.538  32.001  28.812  1.00  0.00    -0.237 OA
ATOM     47  O   UNL A   1      34.231  33.331  30.860  1.00  0.00    -0.237 OA
ATOM     48  O   UNL A   1      35.868  34.047  29.174  1.00  0.00    -0.744 OA
ENDBRANCH  42  45
ENDBRANCH  24  38
BRANCH  25  49
ATOM     49  C   UNL A   1      46.500  27.550  25.793  1.00  0.00     0.023 A 
ATOM     50  C   UNL A   1      46.551  27.830  24.415  1.00  0.00     0.012 A 
ATOM     51  C   UNL A   1      47.592  26.902  26.403  1.00  0.00     0.148 A 
ATOM     52  C   UNL A   1      47.659  27.454  23.654  1.00  0.00     0.002 A 
ATOM     53  C   UNL A   1      48.717  26.584  25.652  1.00  0.00     0.091 A 
ATOM     54  F   UNL A   1      47.517  26.619  27.712  1.00  0.00    -0.205 F 
ATOM     55  C   UNL A   1      48.747  26.844  24.274  1.00  0.00     0.022 A 
BRANCH  53  56
ATOM     56  S   UNL A   1      50.210  25.939  26.415  1.00  0.00     0.127 S 
ATOM     57  O   UNL A   1      49.765  24.630  26.885  1.00  0.00    -0.237 OA
ATOM     58  O   UNL A   1      51.145  25.904  25.289  1.00  0.00    -0.237 OA
ATOM     59  O   UNL A   1      50.560  26.908  27.445  1.00  0.00    -0.744 OA
ENDBRANCH  53  56
ENDBRANCH  25  49
BRANCH  37  60
ATOM     60  C   UNL A   1      44.901  33.357  29.322  1.00  0.00     0.023 A 
ATOM     61  C   UNL A   1      45.741  33.504  30.444  1.00  0.00     0.012 A 
ATOM     62  C   UNL A   1      44.813  34.401  28.381  1.00  0.00     0.148 A 
ATOM     63  C   UNL A   1      46.467  34.679  30.637  1.00  0.00     0.002 A 
ATOM     64  C   UNL A   1      45.572  35.553  28.558  1.00  0.00     0.091 A 
ATOM     65  F   UNL A   1      43.993  34.249  27.331  1.00  0.00    -0.205 F 
ATOM     66  C   UNL A   1      46.392  35.697  29.690  1.00  0.00     0.022 A 
BRANCH  64  67
ATOM     67  S   UNL A   1      45.608  36.881  27.348  1.00  0.00     0.127 S 
ATOM     68  O   UNL A   1      44.210  37.310  27.336  1.00  0.00    -0.237 OA
ATOM     69  O   UNL A   1      46.534  37.834  27.960  1.00  0.00    -0.237 OA
ATOM     70  O   UNL A   1      46.087  36.282  26.110  1.00  0.00    -0.744 OA
ENDBRANCH  64  67
ENDBRANCH  37  60
ENDBRANCH  11  12
ENDBRANCH   4   6
ENDBRANCH   1   2
BRANCH   1  71
ATOM     71  C   UNL A   1      35.362  21.649  25.779  1.00  0.00     0.042 C 
BRANCH  71  72
ATOM     72  C   UNL A   1      34.295  22.691  25.459  1.00  0.00     0.117 C 
BRANCH  72  73
ATOM     73  N   UNL A   1      34.465  23.195  24.106  1.00  0.00    -0.354 N 
ATOM     74  C   UNL A   1      33.856  24.212  23.433  1.00  0.00     0.242 C 
ATOM     75  H   UNL A   1      35.144  22.714  23.579  1.00  0.00     0.163 HD
ATOM     76  O   UNL A   1      33.978  24.200  22.200  1.00  0.00    -0.273 OA
BRANCH  74  77
ATOM     77  C   UNL A   1      33.090  25.365  24.122  1.00  0.00     0.173 C 
BRANCH  77  78
ATOM     78  C   UNL A   1      33.818  26.001  25.320  1.00  0.00     0.070 C 
BRANCH  78  79
ATOM     79  C   UNL A   1      33.249  27.231  25.987  1.00  0.00    -0.045 A 
ATOM     80  C   UNL A   1      32.098  27.155  26.784  1.00  0.00     0.004 A 
ATOM     81  C   UNL A   1      33.908  28.465  25.876  1.00  0.00     0.004 A 
ATOM     82  C   UNL A   1      31.582  28.298  27.399  1.00  0.00     0.000 A 
ATOM     83  C   UNL A   1      33.394  29.608  26.497  1.00  0.00     0.000 A 
ATOM     84  C   UNL A   1      32.225  29.526  27.249  1.00  0.00     0.000 A 
ENDBRANCH  78  79
ENDBRANCH  77  78
BRANCH  77  85
ATOM     85  N   UNL A   1      32.535  26.318  23.142  1.00  0.00    -0.373 N 
ATOM     86  H   UNL A   1      33.123  26.627  22.415  1.00  0.00     0.161 HD
BRANCH  85  87
ATOM     87  C   UNL A   1      31.241  26.804  23.180  1.00  0.00     0.036 A 
ATOM     88  C   UNL A   1      30.246  26.015  23.773  1.00  0.00     0.027 A 
ATOM     89  C   UNL A   1      30.858  28.041  22.650  1.00  0.00     0.043 A 
ATOM     90  C   UNL A   1      28.926  26.460  23.879  1.00  0.00     0.024 A 
ATOM     91  C   UNL A   1      29.534  28.496  22.747  1.00  0.00     0.038 A 
ATOM     92  C   UNL A   1      28.567  27.707  23.371  1.00  0.00     0.055 A 
ATOM     93  Br  UNL A   1      29.138  30.202  22.007  1.00  0.00    -0.049 Br
ATOM     94  Cl  UNL A   1      26.922  28.201  23.552  1.00  0.00    -0.083 Cl
ENDBRANCH  85  87
ENDBRANCH  77  85
ENDBRANCH  74  77
ENDBRANCH  72  73
ENDBRANCH  71  72
ENDBRANCH   1  71
TORSDOF 17
ENDMDL
