MODEL 1
REMARK VINA RESULT:     -10.9      0.000      0.000
REMARK SMILES CC[C@@](O)(C(=O)NCCCNC(=O)c1ccc(-c2c3nc(c(-c4cccc(S(=O)(=O)[O-])c4F)c4ccc([nH]4)c(-c4cccc(S(=O)(=O)[O-])c4F)c4nc(c(-c5cccc(S(=O)(=O)[O-])c5F)c5ccc2[nH]5)C=C4)C=C3)cc1)[C@H]1CCCc2ccccc21
REMARK SMILES IDX 10 1 9 2 8 3 7 4 5 5 6 6 3 8 2 9 1 10 4 11 77 13 78 14 86 15
REMARK SMILES IDX 79 16 81 17 85 18 80 19 82 20 84 21 83 22 11 23 12 24 13 26
REMARK SMILES IDX 14 27 15 28 76 29 16 30 75 31 17 32 18 33 19 34 69 35 20 36
REMARK SMILES IDX 74 37 68 38 70 39 21 40 73 41 67 42 66 43 22 45 54 46 34 47
REMARK SMILES IDX 53 48 35 49 38 50 52 51 71 52 36 53 37 54 51 56 72 57 39 58
REMARK SMILES IDX 23 59 24 60 32 61 25 62 27 63 33 64 26 65 28 66 29 67 30 68
REMARK SMILES IDX 31 69 55 70 56 71 64 72 57 73 59 74 65 75 58 76 60 77 61 78
REMARK SMILES IDX 62 79 63 80 40 81 41 82 49 83 42 84 44 85 50 86 43 87 45 88
REMARK SMILES IDX 46 89 47 90 48 91
REMARK H PARENT 7 7 4 12 11 25 70 44 38 55
REMARK Flexibility Score: inf
ROOT
ATOM      1  C   UNL A   1      34.755  33.009  28.053  1.00  0.00     0.118 C 
ENDROOT
BRANCH   1   2
ATOM      2  C   UNL A   1      33.886  34.037  28.763  1.00  0.00     0.042 C 
BRANCH   2   3
ATOM      3  C   UNL A   1      34.340  34.314  30.191  1.00  0.00     0.117 C 
BRANCH   3   4
ATOM      4  N   UNL A   1      34.360  33.075  30.942  1.00  0.00    -0.354 N 
ATOM      5  C   UNL A   1      35.052  32.858  32.097  1.00  0.00     0.252 C 
ATOM      6  O   UNL A   1      35.644  31.785  32.216  1.00  0.00    -0.272 OA
ATOM      7  H   UNL A   1      33.828  32.325  30.588  1.00  0.00     0.163 HD
BRANCH   5   8
ATOM      8  C   UNL A   1      35.002  33.930  33.224  1.00  0.00     0.149 C 
BRANCH   8   9
ATOM      9  C   UNL A   1      33.981  34.995  32.778  1.00  0.00     0.043 C 
ATOM     10  C   UNL A   1      34.229  36.415  33.262  1.00  0.00     0.007 C 
ENDBRANCH   8   9
BRANCH   8  11
ATOM     11  O   UNL A   1      34.468  33.375  34.457  1.00  0.00    -0.379 OA
ATOM     12  H   UNL A   1      34.635  32.420  34.480  1.00  0.00     0.212 HD
ENDBRANCH   8  11
BRANCH   8  13
ATOM     13  C   UNL A   1      36.496  34.294  33.591  1.00  0.00     0.061 C 
ATOM     14  C   UNL A   1      36.985  33.218  34.634  1.00  0.00     0.012 C 
ATOM     15  C   UNL A   1      37.638  34.413  32.583  1.00  0.00    -0.038 A 
ATOM     16  C   UNL A   1      38.263  33.584  35.375  1.00  0.00     0.006 C 
ATOM     17  C   UNL A   1      38.957  34.425  33.111  1.00  0.00    -0.044 A 
ATOM     18  C   UNL A   1      37.496  34.453  31.196  1.00  0.00     0.004 A 
ATOM     19  C   UNL A   1      39.151  34.543  34.602  1.00  0.00     0.036 C 
ATOM     20  C   UNL A   1      40.069  34.349  32.265  1.00  0.00     0.004 A 
ATOM     21  C   UNL A   1      38.613  34.405  30.355  1.00  0.00     0.000 A 
ATOM     22  C   UNL A   1      39.895  34.317  30.888  1.00  0.00     0.000 A 
ENDBRANCH   8  13
ENDBRANCH   5   8
ENDBRANCH   3   4
ENDBRANCH   2   3
ENDBRANCH   1   2
BRANCH   1  23
ATOM     23  N   UNL A   1      33.983  31.851  27.614  1.00  0.00    -0.352 N 
ATOM     24  C   UNL A   1      34.397  30.554  27.479  1.00  0.00     0.251 C 
ATOM     25  H   UNL A   1      33.042  32.026  27.385  1.00  0.00     0.163 HD
ATOM     26  O   UNL A   1      33.705  29.739  26.871  1.00  0.00    -0.269 OA
BRANCH  24  27
ATOM     27  C   UNL A   1      35.689  30.159  28.065  1.00  0.00     0.039 A 
ATOM     28  C   UNL A   1      35.724  29.688  29.375  1.00  0.00     0.014 A 
ATOM     29  C   UNL A   1      36.854  30.222  27.292  1.00  0.00     0.014 A 
ATOM     30  C   UNL A   1      36.933  29.238  29.902  1.00  0.00     0.010 A 
ATOM     31  C   UNL A   1      38.032  29.682  27.786  1.00  0.00     0.010 A 
ATOM     32  C   UNL A   1      38.090  29.206  29.103  1.00  0.00    -0.014 A 
BRANCH  32  33
ATOM     33  C   UNL A   1      39.370  28.687  29.637  1.00  0.00     0.031 A 
ATOM     34  C   UNL A   1      40.004  29.337  30.837  1.00  0.00     0.074 A 
ATOM     35  C   UNL A   1      39.985  27.670  29.006  1.00  0.00     0.049 A 
ATOM     36  N   UNL A   1      41.121  29.030  31.442  1.00  0.00    -0.248 NA
ATOM     37  C   UNL A   1      39.311  30.502  31.415  1.00  0.00     0.031 C 
ATOM     38  C   UNL A   1      39.512  27.023  27.779  1.00  0.00     0.029 A 
ATOM     39  N   UNL A   1      41.154  27.013  29.297  1.00  0.00    -0.354 N 
ATOM     40  C   UNL A   1      41.275  29.972  32.453  1.00  0.00     0.074 A 
ATOM     41  C   UNL A   1      40.167  30.894  32.345  1.00  0.00     0.031 C 
ATOM     42  C   UNL A   1      40.374  26.056  27.431  1.00  0.00     0.029 A 
ATOM     43  C   UNL A   1      41.475  26.032  28.389  1.00  0.00     0.049 A 
ATOM     44  H   UNL A   1      41.709  27.224  30.082  1.00  0.00     0.167 HD
ATOM     45  C   UNL A   1      42.233  30.043  33.407  1.00  0.00     0.034 A 
ATOM     46  C   UNL A   1      42.540  25.210  28.333  1.00  0.00     0.034 A 
ATOM     47  C   UNL A   1      43.315  29.104  33.524  1.00  0.00     0.049 A 
ATOM     48  C   UNL A   1      43.568  25.283  29.428  1.00  0.00     0.074 A 
ATOM     49  C   UNL A   1      44.297  29.041  34.495  1.00  0.00     0.029 A 
ATOM     50  N   UNL A   1      43.562  28.070  32.635  1.00  0.00    -0.354 N 
ATOM     51  N   UNL A   1      43.613  26.081  30.468  1.00  0.00    -0.248 NA
ATOM     52  C   UNL A   1      44.672  24.314  29.367  1.00  0.00     0.031 C 
ATOM     53  C   UNL A   1      45.155  27.983  34.177  1.00  0.00     0.029 A 
ATOM     54  C   UNL A   1      44.686  27.365  33.030  1.00  0.00     0.049 A 
ATOM     55  H   UNL A   1      43.019  27.867  31.839  1.00  0.00     0.167 HD
ATOM     56  C   UNL A   1      44.726  25.690  31.201  1.00  0.00     0.074 A 
ATOM     57  C   UNL A   1      45.312  24.565  30.499  1.00  0.00     0.031 C 
ATOM     58  C   UNL A   1      45.228  26.220  32.344  1.00  0.00     0.034 A 
BRANCH  45  59
ATOM     59  C   UNL A   1      42.115  31.140  34.432  1.00  0.00     0.023 A 
ATOM     60  C   UNL A   1      41.453  30.885  35.652  1.00  0.00     0.012 A 
ATOM     61  C   UNL A   1      42.700  32.403  34.218  1.00  0.00     0.148 A 
ATOM     62  C   UNL A   1      41.340  31.879  36.623  1.00  0.00     0.002 A 
ATOM     63  C   UNL A   1      42.626  33.374  35.211  1.00  0.00     0.091 A 
ATOM     64  F   UNL A   1      43.307  32.636  33.045  1.00  0.00    -0.205 F 
ATOM     65  C   UNL A   1      41.936  33.118  36.407  1.00  0.00     0.022 A 
BRANCH  63  66
ATOM     66  S   UNL A   1      43.430  34.973  35.067  1.00  0.00     0.127 S 
ATOM     67  O   UNL A   1      43.057  35.606  36.331  1.00  0.00    -0.237 OA
ATOM     68  O   UNL A   1      44.840  34.598  34.967  1.00  0.00    -0.237 OA
ATOM     69  O   UNL A   1      42.880  35.596  33.872  1.00  0.00    -0.744 OA
ENDBRANCH  63  66
ENDBRANCH  45  59
BRANCH  46  70
ATOM     70  C   UNL A   1      42.655  24.212  27.232  1.00  0.00     0.023 A 
ATOM     71  C   UNL A   1      43.387  24.534  26.072  1.00  0.00     0.012 A 
ATOM     72  C   UNL A   1      42.062  22.940  27.339  1.00  0.00     0.148 A 
ATOM     73  C   UNL A   1      43.491  23.621  25.022  1.00  0.00     0.002 A 
ATOM     74  C   UNL A   1      42.221  22.013  26.316  1.00  0.00     0.091 A 
ATOM     75  F   UNL A   1      41.364  22.655  28.448  1.00  0.00    -0.205 F 
ATOM     76  C   UNL A   1      42.919  22.359  25.147  1.00  0.00     0.022 A 
BRANCH  74  77
ATOM     77  S   UNL A   1      41.634  20.322  26.450  1.00  0.00     0.127 S 
ATOM     78  O   UNL A   1      40.187  20.499  26.363  1.00  0.00    -0.237 OA
ATOM     79  O   UNL A   1      42.250  19.695  25.280  1.00  0.00    -0.237 OA
ATOM     80  O   UNL A   1      42.137  19.831  27.726  1.00  0.00    -0.744 OA
ENDBRANCH  74  77
ENDBRANCH  46  70
BRANCH  58  81
ATOM     81  C   UNL A   1      46.453  25.568  32.932  1.00  0.00     0.023 A 
ATOM     82  C   UNL A   1      47.735  26.061  32.616  1.00  0.00     0.012 A 
ATOM     83  C   UNL A   1      46.326  24.503  33.845  1.00  0.00     0.148 A 
ATOM     84  C   UNL A   1      48.874  25.475  33.167  1.00  0.00     0.002 A 
ATOM     85  C   UNL A   1      47.463  23.961  34.432  1.00  0.00     0.091 A 
ATOM     86  F   UNL A   1      45.099  24.037  34.121  1.00  0.00    -0.205 F 
ATOM     87  C   UNL A   1      48.738  24.434  34.082  1.00  0.00     0.022 A 
BRANCH  85  88
ATOM     88  S   UNL A   1      47.378  22.687  35.695  1.00  0.00     0.127 S 
ATOM     89  O   UNL A   1      48.784  22.547  36.072  1.00  0.00    -0.237 OA
ATOM     90  O   UNL A   1      46.533  23.315  36.711  1.00  0.00    -0.237 OA
ATOM     91  O   UNL A   1      46.785  21.522  35.052  1.00  0.00    -0.744 OA
ENDBRANCH  85  88
ENDBRANCH  58  81
ENDBRANCH  32  33
ENDBRANCH  24  27
ENDBRANCH   1  23
TORSDOF 16
ENDMDL
MODEL 2
REMARK VINA RESULT:     -10.8      3.475      6.508
REMARK SMILES CC[C@@](O)(C(=O)NCCCNC(=O)c1ccc(-c2c3nc(c(-c4cccc(S(=O)(=O)[O-])c4F)c4ccc([nH]4)c(-c4cccc(S(=O)(=O)[O-])c4F)c4nc(c(-c5cccc(S(=O)(=O)[O-])c5F)c5ccc2[nH]5)C=C4)C=C3)cc1)[C@H]1CCCc2ccccc21
REMARK SMILES IDX 10 1 9 2 8 3 7 4 5 5 6 6 3 8 2 9 1 10 4 11 77 13 78 14 86 15
REMARK SMILES IDX 79 16 81 17 85 18 80 19 82 20 84 21 83 22 11 23 12 24 13 26
REMARK SMILES IDX 14 27 15 28 76 29 16 30 75 31 17 32 18 33 19 34 69 35 20 36
REMARK SMILES IDX 74 37 68 38 70 39 21 40 73 41 67 42 66 43 22 45 54 46 34 47
REMARK SMILES IDX 53 48 35 49 38 50 52 51 71 52 36 53 37 54 51 56 72 57 39 58
REMARK SMILES IDX 23 59 24 60 32 61 25 62 27 63 33 64 26 65 28 66 29 67 30 68
REMARK SMILES IDX 31 69 55 70 56 71 64 72 57 73 59 74 65 75 58 76 60 77 61 78
REMARK SMILES IDX 62 79 63 80 40 81 41 82 49 83 42 84 44 85 50 86 43 87 45 88
REMARK SMILES IDX 46 89 47 90 48 91
REMARK H PARENT 7 7 4 12 11 25 70 44 38 55
REMARK Flexibility Score: inf
ROOT
ATOM      1  C   UNL A   1      33.003  29.693  25.841  1.00  0.00     0.118 C 
ENDROOT
BRANCH   1   2
ATOM      2  C   UNL A   1      31.842  28.760  26.153  1.00  0.00     0.042 C 
BRANCH   2   3
ATOM      3  C   UNL A   1      32.271  27.510  26.912  1.00  0.00     0.117 C 
BRANCH   3   4
ATOM      4  N   UNL A   1      31.282  26.468  26.727  1.00  0.00    -0.354 N 
ATOM      5  C   UNL A   1      31.030  25.811  25.558  1.00  0.00     0.252 C 
ATOM      6  O   UNL A   1      29.853  25.609  25.258  1.00  0.00    -0.272 OA
ATOM      7  H   UNL A   1      30.745  26.211  27.512  1.00  0.00     0.163 HD
BRANCH   5   8
ATOM      8  C   UNL A   1      32.225  25.290  24.708  1.00  0.00     0.149 C 
BRANCH   8   9
ATOM      9  C   UNL A   1      31.628  24.722  23.405  1.00  0.00     0.043 C 
ATOM     10  C   UNL A   1      32.253  25.205  22.107  1.00  0.00     0.007 C 
ENDBRANCH   8   9
BRANCH   8  11
ATOM     11  O   UNL A   1      33.093  26.380  24.293  1.00  0.00    -0.379 OA
ATOM     12  H   UNL A   1      33.651  26.085  23.558  1.00  0.00     0.212 HD
ENDBRANCH   8  11
BRANCH   8  13
ATOM     13  C   UNL A   1      33.138  24.424  25.665  1.00  0.00     0.061 C 
ATOM     14  C   UNL A   1      32.221  23.295  26.272  1.00  0.00     0.012 C 
ATOM     15  C   UNL A   1      34.417  23.705  25.236  1.00  0.00    -0.038 A 
ATOM     16  C   UNL A   1      32.811  22.574  27.476  1.00  0.00     0.006 C 
ATOM     17  C   UNL A   1      34.926  22.723  26.127  1.00  0.00    -0.044 A 
ATOM     18  C   UNL A   1      35.087  23.893  24.027  1.00  0.00     0.004 A 
ATOM     19  C   UNL A   1      34.330  22.602  27.506  1.00  0.00     0.036 C 
ATOM     20  C   UNL A   1      35.983  21.888  25.746  1.00  0.00     0.004 A 
ATOM     21  C   UNL A   1      36.161  23.073  23.663  1.00  0.00     0.000 A 
ATOM     22  C   UNL A   1      36.585  22.050  24.505  1.00  0.00     0.000 A 
ENDBRANCH   8  13
ENDBRANCH   5   8
ENDBRANCH   3   4
ENDBRANCH   2   3
ENDBRANCH   1   2
BRANCH   1  23
ATOM     23  N   UNL A   1      32.709  31.074  26.213  1.00  0.00    -0.352 N 
ATOM     24  C   UNL A   1      33.304  31.840  27.177  1.00  0.00     0.251 C 
ATOM     25  H   UNL A   1      31.988  31.509  25.703  1.00  0.00     0.163 HD
ATOM     26  O   UNL A   1      32.790  32.898  27.537  1.00  0.00    -0.269 OA
BRANCH  24  27
ATOM     27  C   UNL A   1      34.562  31.369  27.780  1.00  0.00     0.039 A 
ATOM     28  C   UNL A   1      35.619  32.263  27.931  1.00  0.00     0.014 A 
ATOM     29  C   UNL A   1      34.669  30.047  28.228  1.00  0.00     0.014 A 
ATOM     30  C   UNL A   1      36.780  31.839  28.574  1.00  0.00     0.010 A 
ATOM     31  C   UNL A   1      35.785  29.659  28.954  1.00  0.00     0.010 A 
ATOM     32  C   UNL A   1      36.861  30.543  29.114  1.00  0.00    -0.014 A 
BRANCH  32  33
ATOM     33  C   UNL A   1      38.072  30.096  29.841  1.00  0.00     0.031 A 
ATOM     34  C   UNL A   1      38.345  30.600  31.232  1.00  0.00     0.074 A 
ATOM     35  C   UNL A   1      38.951  29.285  29.223  1.00  0.00     0.049 A 
ATOM     36  N   UNL A   1      39.351  30.328  32.020  1.00  0.00    -0.248 NA
ATOM     37  C   UNL A   1      37.379  31.556  31.802  1.00  0.00     0.031 C 
ATOM     38  C   UNL A   1      38.838  28.808  27.842  1.00  0.00     0.029 A 
ATOM     39  N   UNL A   1      40.124  28.731  29.669  1.00  0.00    -0.354 N 
ATOM     40  C   UNL A   1      39.153  31.093  33.164  1.00  0.00     0.074 A 
ATOM     41  C   UNL A   1      37.960  31.880  32.946  1.00  0.00     0.031 C 
ATOM     42  C   UNL A   1      39.892  28.026  27.560  1.00  0.00     0.029 A 
ATOM     43  C   UNL A   1      40.768  27.969  28.725  1.00  0.00     0.049 A 
ATOM     44  H   UNL A   1      40.471  28.868  30.581  1.00  0.00     0.167 HD
ATOM     45  C   UNL A   1      39.877  31.111  34.308  1.00  0.00     0.034 A 
ATOM     46  C   UNL A   1      41.936  27.302  28.791  1.00  0.00     0.034 A 
ATOM     47  C   UNL A   1      41.046  30.302  34.527  1.00  0.00     0.049 A 
ATOM     48  C   UNL A   1      42.700  27.306  30.086  1.00  0.00     0.074 A 
ATOM     49  C   UNL A   1      41.810  30.190  35.674  1.00  0.00     0.029 A 
ATOM     50  N   UNL A   1      41.622  29.475  33.577  1.00  0.00    -0.354 N 
ATOM     51  N   UNL A   1      42.412  27.911  31.213  1.00  0.00    -0.248 NA
ATOM     52  C   UNL A   1      43.929  26.502  30.134  1.00  0.00     0.031 C 
ATOM     53  C   UNL A   1      42.867  29.313  35.406  1.00  0.00     0.029 A 
ATOM     54  C   UNL A   1      42.739  28.852  34.107  1.00  0.00     0.049 A 
ATOM     55  H   UNL A   1      41.287  29.349  32.659  1.00  0.00     0.167 HD
ATOM     56  C   UNL A   1      43.402  27.536  32.112  1.00  0.00     0.074 A 
ATOM     57  C   UNL A   1      44.282  26.628  31.404  1.00  0.00     0.031 C 
ATOM     58  C   UNL A   1      43.577  27.916  33.402  1.00  0.00     0.034 A 
BRANCH  45  59
ATOM     59  C   UNL A   1      39.389  31.993  35.428  1.00  0.00     0.023 A 
ATOM     60  C   UNL A   1      38.495  31.469  36.386  1.00  0.00     0.012 A 
ATOM     61  C   UNL A   1      39.848  33.316  35.566  1.00  0.00     0.148 A 
ATOM     62  C   UNL A   1      38.037  32.259  37.440  1.00  0.00     0.002 A 
ATOM     63  C   UNL A   1      39.425  34.082  36.647  1.00  0.00     0.091 A 
ATOM     64  F   UNL A   1      40.681  33.805  34.636  1.00  0.00    -0.205 F 
ATOM     65  C   UNL A   1      38.511  33.560  37.576  1.00  0.00     0.022 A 
BRANCH  63  66
ATOM     66  S   UNL A   1      40.039  35.741  36.960  1.00  0.00     0.127 S 
ATOM     67  O   UNL A   1      39.362  36.074  38.213  1.00  0.00    -0.237 OA
ATOM     68  O   UNL A   1      41.478  35.515  37.087  1.00  0.00    -0.237 OA
ATOM     69  O   UNL A   1      39.647  36.540  35.809  1.00  0.00    -0.744 OA
ENDBRANCH  63  66
ENDBRANCH  45  59
BRANCH  46  70
ATOM     70  C   UNL A   1      42.422  26.531  27.611  1.00  0.00     0.023 A 
ATOM     71  C   UNL A   1      43.237  27.162  26.652  1.00  0.00     0.012 A 
ATOM     72  C   UNL A   1      42.098  25.170  27.448  1.00  0.00     0.148 A 
ATOM     73  C   UNL A   1      43.688  26.463  25.532  1.00  0.00     0.002 A 
ATOM     74  C   UNL A   1      42.599  24.464  26.362  1.00  0.00     0.091 A 
ATOM     75  F   UNL A   1      41.314  24.589  28.368  1.00  0.00    -0.205 F 
ATOM     76  C   UNL A   1      43.378  25.114  25.391  1.00  0.00     0.022 A 
BRANCH  74  77
ATOM     77  S   UNL A   1      42.363  22.694  26.173  1.00  0.00     0.127 S 
ATOM     78  O   UNL A   1      43.031  22.174  27.364  1.00  0.00    -0.237 OA
ATOM     79  O   UNL A   1      40.905  22.581  26.184  1.00  0.00    -0.237 OA
ATOM     80  O   UNL A   1      42.981  22.349  24.899  1.00  0.00    -0.744 OA
ENDBRANCH  74  77
ENDBRANCH  46  70
BRANCH  58  81
ATOM     81  C   UNL A   1      44.743  27.323  34.148  1.00  0.00     0.023 A 
ATOM     82  C   UNL A   1      46.000  27.961  34.115  1.00  0.00     0.012 A 
ATOM     83  C   UNL A   1      44.576  26.164  34.931  1.00  0.00     0.148 A 
ATOM     84  C   UNL A   1      47.082  27.430  34.814  1.00  0.00     0.002 A 
ATOM     85  C   UNL A   1      45.646  25.672  35.669  1.00  0.00     0.091 A 
ATOM     86  F   UNL A   1      43.378  25.562  34.938  1.00  0.00    -0.205 F 
ATOM     87  C   UNL A   1      46.903  26.294  35.600  1.00  0.00     0.022 A 
BRANCH  85  88
ATOM     88  S   UNL A   1      45.482  24.274  36.785  1.00  0.00     0.127 S 
ATOM     89  O   UNL A   1      45.046  23.216  35.874  1.00  0.00    -0.237 OA
ATOM     90  O   UNL A   1      46.846  24.120  37.290  1.00  0.00    -0.237 OA
ATOM     91  O   UNL A   1      44.507  24.674  37.791  1.00  0.00    -0.744 OA
ENDBRANCH  85  88
ENDBRANCH  58  81
ENDBRANCH  32  33
ENDBRANCH  24  27
ENDBRANCH   1  23
TORSDOF 16
ENDMDL
MODEL 3
REMARK VINA RESULT:     -10.8      3.733      6.735
REMARK SMILES CC[C@@](O)(C(=O)NCCCNC(=O)c1ccc(-c2c3nc(c(-c4cccc(S(=O)(=O)[O-])c4F)c4ccc([nH]4)c(-c4cccc(S(=O)(=O)[O-])c4F)c4nc(c(-c5cccc(S(=O)(=O)[O-])c5F)c5ccc2[nH]5)C=C4)C=C3)cc1)[C@H]1CCCc2ccccc21
REMARK SMILES IDX 10 1 9 2 8 3 7 4 5 5 6 6 3 8 2 9 1 10 4 11 77 13 78 14 86 15
REMARK SMILES IDX 79 16 81 17 85 18 80 19 82 20 84 21 83 22 11 23 12 24 13 26
REMARK SMILES IDX 14 27 15 28 76 29 16 30 75 31 17 32 18 33 19 34 69 35 20 36
REMARK SMILES IDX 74 37 68 38 70 39 21 40 73 41 67 42 66 43 22 45 54 46 34 47
REMARK SMILES IDX 53 48 35 49 38 50 52 51 71 52 36 53 37 54 51 56 72 57 39 58
REMARK SMILES IDX 23 59 24 60 32 61 25 62 27 63 33 64 26 65 28 66 29 67 30 68
REMARK SMILES IDX 31 69 55 70 56 71 64 72 57 73 59 74 65 75 58 76 60 77 61 78
REMARK SMILES IDX 62 79 63 80 40 81 41 82 49 83 42 84 44 85 50 86 43 87 45 88
REMARK SMILES IDX 46 89 47 90 48 91
REMARK H PARENT 7 7 4 12 11 25 70 44 38 55
REMARK Flexibility Score: inf
ROOT
ATOM      1  C   UNL A   1      32.932  30.790  27.251  1.00  0.00     0.118 C 
ENDROOT
BRANCH   1   2
ATOM      2  C   UNL A   1      32.322  30.289  25.949  1.00  0.00     0.042 C 
BRANCH   2   3
ATOM      3  C   UNL A   1      33.097  29.129  25.338  1.00  0.00     0.117 C 
BRANCH   3   4
ATOM      4  N   UNL A   1      33.342  29.395  23.935  1.00  0.00    -0.354 N 
ATOM      5  C   UNL A   1      32.938  28.609  22.896  1.00  0.00     0.252 C 
ATOM      6  O   UNL A   1      33.737  28.418  21.979  1.00  0.00    -0.272 OA
ATOM      7  H   UNL A   1      33.842  30.214  23.711  1.00  0.00     0.163 HD
BRANCH   5   8
ATOM      8  C   UNL A   1      31.481  28.060  22.881  1.00  0.00     0.149 C 
BRANCH   8   9
ATOM      9  C   UNL A   1      30.548  29.275  23.061  1.00  0.00     0.043 C 
ATOM     10  C   UNL A   1      29.626  29.597  21.896  1.00  0.00     0.007 C 
ENDBRANCH   8   9
BRANCH   8  11
ATOM     11  O   UNL A   1      31.141  27.500  21.584  1.00  0.00    -0.379 OA
ATOM     12  H   UNL A   1      31.485  26.595  21.523  1.00  0.00     0.212 HD
ENDBRANCH   8  11
BRANCH   8  13
ATOM     13  C   UNL A   1      31.441  26.814  23.853  1.00  0.00     0.061 C 
ATOM     14  C   UNL A   1      29.932  26.599  24.256  1.00  0.00     0.012 C 
ATOM     15  C   UNL A   1      31.958  25.419  23.505  1.00  0.00    -0.038 A 
ATOM     16  C   UNL A   1      29.716  25.679  25.450  1.00  0.00     0.006 C 
ATOM     17  C   UNL A   1      31.553  24.357  24.358  1.00  0.00    -0.044 A 
ATOM     18  C   UNL A   1      32.742  25.096  22.397  1.00  0.00     0.004 A 
ATOM     19  C   UNL A   1      30.843  24.681  25.648  1.00  0.00     0.036 C 
ATOM     20  C   UNL A   1      31.824  23.025  24.023  1.00  0.00     0.004 A 
ATOM     21  C   UNL A   1      33.033  23.764  22.083  1.00  0.00     0.000 A 
ATOM     22  C   UNL A   1      32.545  22.730  22.874  1.00  0.00     0.000 A 
ENDBRANCH   8  13
ENDBRANCH   5   8
ENDBRANCH   3   4
ENDBRANCH   2   3
ENDBRANCH   1   2
BRANCH   1  23
ATOM     23  N   UNL A   1      33.072  32.243  27.265  1.00  0.00    -0.352 N 
ATOM     24  C   UNL A   1      34.033  32.998  27.877  1.00  0.00     0.251 C 
ATOM     25  H   UNL A   1      32.383  32.743  26.771  1.00  0.00     0.163 HD
ATOM     26  O   UNL A   1      33.885  34.213  28.004  1.00  0.00    -0.269 OA
BRANCH  24  27
ATOM     27  C   UNL A   1      35.241  32.329  28.389  1.00  0.00     0.039 A 
ATOM     28  C   UNL A   1      36.457  33.007  28.359  1.00  0.00     0.014 A 
ATOM     29  C   UNL A   1      35.149  31.042  28.932  1.00  0.00     0.014 A 
ATOM     30  C   UNL A   1      37.583  32.405  28.917  1.00  0.00     0.010 A 
ATOM     31  C   UNL A   1      36.248  30.489  29.572  1.00  0.00     0.010 A 
ATOM     32  C   UNL A   1      37.481  31.154  29.551  1.00  0.00    -0.014 A 
BRANCH  32  33
ATOM     33  C   UNL A   1      38.662  30.525  30.188  1.00  0.00     0.031 A 
ATOM     34  C   UNL A   1      39.090  30.950  31.566  1.00  0.00     0.074 A 
ATOM     35  C   UNL A   1      39.377  29.616  29.499  1.00  0.00     0.049 A 
ATOM     36  N   UNL A   1      40.096  30.521  32.281  1.00  0.00    -0.248 NA
ATOM     37  C   UNL A   1      38.305  32.014  32.216  1.00  0.00     0.031 C 
ATOM     38  C   UNL A   1      39.112  29.197  28.121  1.00  0.00     0.029 A 
ATOM     39  N   UNL A   1      40.487  28.895  29.857  1.00  0.00    -0.354 N 
ATOM     40  C   UNL A   1      40.079  31.275  33.449  1.00  0.00     0.074 A 
ATOM     41  C   UNL A   1      38.997  32.225  33.324  1.00  0.00     0.031 C 
ATOM     42  C   UNL A   1      40.025  28.284  27.755  1.00  0.00     0.029 A 
ATOM     43  C   UNL A   1      40.957  28.075  28.859  1.00  0.00     0.049 A 
ATOM     44  H   UNL A   1      40.907  28.958  30.746  1.00  0.00     0.167 HD
ATOM     45  C   UNL A   1      40.870  31.163  34.542  1.00  0.00     0.034 A 
ATOM     46  C   UNL A   1      42.022  27.252  28.835  1.00  0.00     0.034 A 
ATOM     47  C   UNL A   1      41.925  30.195  34.669  1.00  0.00     0.049 A 
ATOM     48  C   UNL A   1      42.860  27.116  30.077  1.00  0.00     0.074 A 
ATOM     49  C   UNL A   1      42.738  29.948  35.760  1.00  0.00     0.029 A 
ATOM     50  N   UNL A   1      42.319  29.321  33.668  1.00  0.00    -0.354 N 
ATOM     51  N   UNL A   1      42.731  27.726  31.231  1.00  0.00    -0.248 NA
ATOM     52  C   UNL A   1      43.965  26.149  30.029  1.00  0.00     0.031 C 
ATOM     53  C   UNL A   1      43.643  28.941  35.408  1.00  0.00     0.029 A 
ATOM     54  C   UNL A   1      43.369  28.536  34.113  1.00  0.00     0.049 A 
ATOM     55  H   UNL A   1      41.913  29.267  32.773  1.00  0.00     0.167 HD
ATOM     56  C   UNL A   1      43.714  27.193  32.055  1.00  0.00     0.074 A 
ATOM     57  C   UNL A   1      44.412  26.191  31.275  1.00  0.00     0.031 C 
ATOM     58  C   UNL A   1      44.022  27.512  33.338  1.00  0.00     0.034 A 
BRANCH  45  59
ATOM     59  C   UNL A   1      40.582  32.074  35.707  1.00  0.00     0.023 A 
ATOM     60  C   UNL A   1      41.426  33.177  35.953  1.00  0.00     0.012 A 
ATOM     61  C   UNL A   1      39.454  31.874  36.526  1.00  0.00     0.148 A 
ATOM     62  C   UNL A   1      41.176  34.043  37.017  1.00  0.00     0.002 A 
ATOM     63  C   UNL A   1      39.184  32.769  37.555  1.00  0.00     0.091 A 
ATOM     64  F   UNL A   1      38.674  30.809  36.292  1.00  0.00    -0.205 F 
ATOM     65  C   UNL A   1      40.050  33.845  37.810  1.00  0.00     0.022 A 
BRANCH  63  66
ATOM     66  S   UNL A   1      37.715  32.652  38.583  1.00  0.00     0.127 S 
ATOM     67  O   UNL A   1      37.993  33.654  39.610  1.00  0.00    -0.237 OA
ATOM     68  O   UNL A   1      36.656  33.020  37.643  1.00  0.00    -0.237 OA
ATOM     69  O   UNL A   1      37.660  31.276  39.053  1.00  0.00    -0.744 OA
ENDBRANCH  63  66
ENDBRANCH  45  59
BRANCH  46  70
ATOM     70  C   UNL A   1      42.320  26.452  27.613  1.00  0.00     0.023 A 
ATOM     71  C   UNL A   1      42.997  27.053  26.534  1.00  0.00     0.012 A 
ATOM     72  C   UNL A   1      41.955  25.095  27.526  1.00  0.00     0.148 A 
ATOM     73  C   UNL A   1      43.269  26.327  25.374  1.00  0.00     0.002 A 
ATOM     74  C   UNL A   1      42.283  24.362  26.392  1.00  0.00     0.091 A 
ATOM     75  F   UNL A   1      41.306  24.544  28.560  1.00  0.00    -0.205 F 
ATOM     76  C   UNL A   1      42.922  24.981  25.306  1.00  0.00     0.022 A 
BRANCH  74  77
ATOM     77  S   UNL A   1      41.996  22.593  26.274  1.00  0.00     0.127 S 
ATOM     78  O   UNL A   1      40.537  22.527  26.257  1.00  0.00    -0.237 OA
ATOM     79  O   UNL A   1      42.644  22.267  25.004  1.00  0.00    -0.237 OA
ATOM     80  O   UNL A   1      42.644  22.011  27.443  1.00  0.00    -0.744 OA
ENDBRANCH  74  77
ENDBRANCH  46  70
BRANCH  58  81
ATOM     81  C   UNL A   1      45.139  26.744  33.994  1.00  0.00     0.023 A 
ATOM     82  C   UNL A   1      46.467  27.205  33.892  1.00  0.00     0.012 A 
ATOM     83  C   UNL A   1      44.862  25.596  34.763  1.00  0.00     0.148 A 
ATOM     84  C   UNL A   1      47.507  26.511  34.509  1.00  0.00     0.002 A 
ATOM     85  C   UNL A   1      45.897  24.942  35.420  1.00  0.00     0.091 A 
ATOM     86  F   UNL A   1      43.595  25.164  34.835  1.00  0.00    -0.205 F 
ATOM     87  C   UNL A   1      47.221  25.388  35.281  1.00  0.00     0.022 A 
BRANCH  85  88
ATOM     88  S   UNL A   1      45.610  23.548  36.515  1.00  0.00     0.127 S 
ATOM     89  O   UNL A   1      46.976  23.150  36.854  1.00  0.00    -0.237 OA
ATOM     90  O   UNL A   1      44.865  24.165  37.613  1.00  0.00    -0.237 OA
ATOM     91  O   UNL A   1      44.850  22.576  35.741  1.00  0.00    -0.744 OA
ENDBRANCH  85  88
ENDBRANCH  58  81
ENDBRANCH  32  33
ENDBRANCH  24  27
ENDBRANCH   1  23
TORSDOF 16
ENDMDL
