MODEL 1
REMARK VINA RESULT:     -12.2      0.000      0.000
REMARK SMILES CC(C)c1ccc(-c2cnc([C@@H]3[NH2+][C@H](C(=O)NCCCNC(=O)c4ccc(-c5c6nc(c(-c7cccc(S(=O)(=O)[O-])c7F)c7ccc([nH]7)c(-c7cccc(S(=O)(=O)[O-])c7F)c7nc(c(-c8cccc(S(=O)(=O)[O-])c8F)c8ccc5[nH]8)C=C7)C=C6)cc4)C(C)(C)S3)s2)cc1
REMARK SMILES IDX 19 1 18 2 17 3 15 4 16 5 14 7 12 8 13 9 90 10 87 13 88 14
REMARK SMILES IDX 89 15 11 16 8 17 9 18 91 19 10 20 7 21 4 22 5 23 93 24 6 25
REMARK SMILES IDX 92 26 2 27 1 28 3 29 20 30 21 31 22 32 23 34 24 35 25 36
REMARK SMILES IDX 86 37 26 38 85 39 27 40 28 41 29 42 79 43 30 44 84 45 78 46
REMARK SMILES IDX 80 47 31 48 83 49 77 50 76 51 32 53 64 54 44 55 63 56 45 57
REMARK SMILES IDX 48 58 62 59 81 60 46 61 47 62 61 64 82 65 49 66 33 67 34 68
REMARK SMILES IDX 42 69 35 70 37 71 43 72 36 73 38 74 39 75 40 76 41 77 65 78
REMARK SMILES IDX 66 79 74 80 67 81 69 82 75 83 68 84 70 85 71 86 72 87 73 88
REMARK SMILES IDX 50 89 51 90 59 91 52 92 54 93 60 94 53 95 55 96 56 97 57 98
REMARK SMILES IDX 58 99
REMARK H PARENT 17 6 13 11 13 12 21 33 80 52 48 63
REMARK Flexibility Score: inf
ROOT
ATOM      1  C   UNL A   1      33.523  28.894  27.623  1.00  0.00     0.042 C 
ENDROOT
BRANCH   1   2
ATOM      2  C   UNL A   1      32.028  28.613  27.436  1.00  0.00     0.118 C 
BRANCH   2   3
ATOM      3  N   UNL A   1      31.802  27.332  26.795  1.00  0.00    -0.351 N 
ATOM      4  C   UNL A   1      31.032  27.139  25.678  1.00  0.00     0.279 C 
ATOM      5  O   UNL A   1      30.162  26.280  25.774  1.00  0.00    -0.268 OA
ATOM      6  H   UNL A   1      32.234  26.543  27.192  1.00  0.00     0.163 HD
BRANCH   4   7
ATOM      7  C   UNL A   1      31.332  27.982  24.413  1.00  0.00     0.289 C 
ATOM      8  C   UNL A   1      32.923  26.752  23.050  1.00  0.00     0.304 C 
ATOM      9  N   UNL A   1      32.777  27.865  24.018  1.00  0.00    -0.318 N 
ATOM     10  S   UNL A   1      31.365  26.575  22.130  1.00  0.00    -0.079 SA
ATOM     11  H   UNL A   1      33.085  28.735  23.586  1.00  0.00     0.348 HD
ATOM     12  H   UNL A   1      33.348  27.681  24.843  1.00  0.00     0.348 HD
ATOM     13  C   UNL A   1      30.436  27.743  23.179  1.00  0.00     0.078 C 
ATOM     14  C   UNL A   1      30.294  29.047  22.369  1.00  0.00     0.030 C 
ATOM     15  C   UNL A   1      29.040  27.202  23.487  1.00  0.00     0.030 C 
BRANCH   8  16
ATOM     16  C   UNL A   1      33.383  25.444  23.660  1.00  0.00     0.162 A 
ATOM     17  C   UNL A   1      33.840  23.100  24.178  1.00  0.00     0.055 A 
ATOM     18  C   UNL A   1      34.310  24.031  25.083  1.00  0.00     0.132 A 
ATOM     19  S   UNL A   1      33.085  23.929  22.875  1.00  0.00    -0.112 S 
ATOM     20  N   UNL A   1      33.992  25.333  24.819  1.00  0.00    -0.242 NA
BRANCH  17  21
ATOM     21  C   UNL A   1      33.901  21.643  24.296  1.00  0.00    -0.007 A 
ATOM     22  C   UNL A   1      33.835  18.817  24.597  1.00  0.00    -0.045 A 
ATOM     23  C   UNL A   1      35.001  19.557  24.873  1.00  0.00     0.004 A 
ATOM     24  C   UNL A   1      32.707  19.518  24.167  1.00  0.00     0.004 A 
ATOM     25  C   UNL A   1      35.038  20.950  24.718  1.00  0.00     0.010 A 
ATOM     26  C   UNL A   1      32.740  20.906  24.019  1.00  0.00     0.010 A 
BRANCH  22  27
ATOM     27  C   UNL A   1      33.833  17.306  24.791  1.00  0.00     0.013 C 
ATOM     28  C   UNL A   1      32.535  16.727  25.374  1.00  0.00     0.012 C 
ATOM     29  C   UNL A   1      34.149  16.587  23.474  1.00  0.00     0.012 C 
ENDBRANCH  22  27
ENDBRANCH  17  21
ENDBRANCH   8  16
ENDBRANCH   4   7
ENDBRANCH   2   3
ENDBRANCH   1   2
BRANCH   1  30
ATOM     30  C   UNL A   1      34.045  30.134  26.894  1.00  0.00     0.118 C 
BRANCH  30  31
ATOM     31  N   UNL A   1      33.957  31.341  27.702  1.00  0.00    -0.352 N 
ATOM     32  C   UNL A   1      34.726  31.764  28.757  1.00  0.00     0.251 C 
ATOM     33  H   UNL A   1      33.228  31.954  27.450  1.00  0.00     0.163 HD
ATOM     34  O   UNL A   1      34.367  32.746  29.402  1.00  0.00    -0.269 OA
BRANCH  32  35
ATOM     35  C   UNL A   1      35.961  31.042  29.142  1.00  0.00     0.039 A 
ATOM     36  C   UNL A   1      37.169  31.426  28.551  1.00  0.00     0.014 A 
ATOM     37  C   UNL A   1      35.938  29.973  30.042  1.00  0.00     0.014 A 
ATOM     38  C   UNL A   1      38.358  30.782  28.907  1.00  0.00     0.010 A 
ATOM     39  C   UNL A   1      37.133  29.376  30.447  1.00  0.00     0.010 A 
ATOM     40  C   UNL A   1      38.356  29.771  29.883  1.00  0.00    -0.014 A 
BRANCH  40  41
ATOM     41  C   UNL A   1      39.624  29.141  30.338  1.00  0.00     0.031 A 
ATOM     42  C   UNL A   1      40.347  29.659  31.553  1.00  0.00     0.074 A 
ATOM     43  C   UNL A   1      40.171  28.148  29.609  1.00  0.00     0.049 A 
ATOM     44  N   UNL A   1      41.481  29.261  32.069  1.00  0.00    -0.248 NA
ATOM     45  C   UNL A   1      39.726  30.785  32.270  1.00  0.00     0.031 C 
ATOM     46  C   UNL A   1      39.613  27.605  28.368  1.00  0.00     0.029 A 
ATOM     47  N   UNL A   1      41.331  27.435  29.789  1.00  0.00    -0.354 N 
ATOM     48  C   UNL A   1      41.730  30.107  33.144  1.00  0.00     0.074 A 
ATOM     49  C   UNL A   1      40.641  31.058  33.190  1.00  0.00     0.031 C 
ATOM     50  C   UNL A   1      40.430  26.649  27.899  1.00  0.00     0.029 A 
ATOM     51  C   UNL A   1      41.581  26.525  28.788  1.00  0.00     0.049 A 
ATOM     52  H   UNL A   1      41.928  27.564  30.561  1.00  0.00     0.167 HD
ATOM     53  C   UNL A   1      42.756  30.079  34.029  1.00  0.00     0.034 A 
ATOM     54  C   UNL A   1      42.621  25.689  28.601  1.00  0.00     0.034 A 
ATOM     55  C   UNL A   1      43.814  29.105  34.011  1.00  0.00     0.049 A 
ATOM     56  C   UNL A   1      43.723  25.647  29.624  1.00  0.00     0.074 A 
ATOM     57  C   UNL A   1      44.845  28.937  34.919  1.00  0.00     0.029 A 
ATOM     58  N   UNL A   1      43.984  28.138  33.032  1.00  0.00    -0.354 N 
ATOM     59  N   UNL A   1      43.851  26.343  30.728  1.00  0.00    -0.248 NA
ATOM     60  C   UNL A   1      44.805  24.677  29.398  1.00  0.00     0.031 C 
ATOM     61  C   UNL A   1      45.650  27.881  34.479  1.00  0.00     0.029 A 
ATOM     62  C   UNL A   1      45.108  27.376  33.309  1.00  0.00     0.049 A 
ATOM     63  H   UNL A   1      43.394  28.011  32.254  1.00  0.00     0.167 HD
ATOM     64  C   UNL A   1      45.005  25.873  31.344  1.00  0.00     0.074 A 
ATOM     65  C   UNL A   1      45.528  24.816  30.502  1.00  0.00     0.031 C 
ATOM     66  C   UNL A   1      45.588  26.289  32.495  1.00  0.00     0.034 A 
BRANCH  53  67
ATOM     67  C   UNL A   1      42.752  31.100  35.138  1.00  0.00     0.023 A 
ATOM     68  C   UNL A   1      42.178  30.771  36.382  1.00  0.00     0.012 A 
ATOM     69  C   UNL A   1      43.373  32.354  34.974  1.00  0.00     0.148 A 
ATOM     70  C   UNL A   1      42.189  31.684  37.435  1.00  0.00     0.002 A 
ATOM     71  C   UNL A   1      43.418  33.244  36.043  1.00  0.00     0.091 A 
ATOM     72  F   UNL A   1      43.898  32.659  33.780  1.00  0.00    -0.205 F 
ATOM     73  C   UNL A   1      42.817  32.916  37.270  1.00  0.00     0.022 A 
BRANCH  71  74
ATOM     74  S   UNL A   1      44.275  34.821  35.956  1.00  0.00     0.127 S 
ATOM     75  O   UNL A   1      44.368  35.185  37.369  1.00  0.00    -0.237 OA
ATOM     76  O   UNL A   1      45.548  34.448  35.338  1.00  0.00    -0.237 OA
ATOM     77  O   UNL A   1      43.436  35.687  35.139  1.00  0.00    -0.744 OA
ENDBRANCH  71  74
ENDBRANCH  53  67
BRANCH  54  78
ATOM     78  C   UNL A   1      42.633  24.769  27.427  1.00  0.00     0.023 A 
ATOM     79  C   UNL A   1      43.240  25.188  26.228  1.00  0.00     0.012 A 
ATOM     80  C   UNL A   1      42.078  23.477  27.501  1.00  0.00     0.148 A 
ATOM     81  C   UNL A   1      43.266  24.350  25.113  1.00  0.00     0.002 A 
ATOM     82  C   UNL A   1      42.158  22.626  26.404  1.00  0.00     0.091 A 
ATOM     83  F   UNL A   1      41.493  23.100  28.647  1.00  0.00    -0.205 F 
ATOM     84  C   UNL A   1      42.735  23.067  25.204  1.00  0.00     0.022 A 
BRANCH  82  85
ATOM     85  S   UNL A   1      41.622  20.912  26.476  1.00  0.00     0.127 S 
ATOM     86  O   UNL A   1      40.190  21.034  26.216  1.00  0.00    -0.237 OA
ATOM     87  O   UNL A   1      42.396  20.308  25.390  1.00  0.00    -0.237 OA
ATOM     88  O   UNL A   1      41.989  20.442  27.804  1.00  0.00    -0.744 OA
ENDBRANCH  82  85
ENDBRANCH  54  78
BRANCH  66  89
ATOM     89  C   UNL A   1      46.844  25.584  32.939  1.00  0.00     0.023 A 
ATOM     90  C   UNL A   1      48.099  26.038  32.490  1.00  0.00     0.012 A 
ATOM     91  C   UNL A   1      46.783  24.517  33.858  1.00  0.00     0.148 A 
ATOM     92  C   UNL A   1      49.273  25.422  32.922  1.00  0.00     0.002 A 
ATOM     93  C   UNL A   1      47.959  23.939  34.323  1.00  0.00     0.091 A 
ATOM     94  F   UNL A   1      45.579  24.085  34.260  1.00  0.00    -0.205 F 
ATOM     95  C   UNL A   1      49.204  24.382  33.846  1.00  0.00     0.022 A 
BRANCH  93  96
ATOM     96  S   UNL A   1      47.970  22.659  35.583  1.00  0.00     0.127 S 
ATOM     97  O   UNL A   1      49.402  22.422  35.756  1.00  0.00    -0.237 OA
ATOM     98  O   UNL A   1      47.323  23.328  36.713  1.00  0.00    -0.237 OA
ATOM     99  O   UNL A   1      47.212  21.546  35.028  1.00  0.00    -0.744 OA
ENDBRANCH  93  96
ENDBRANCH  66  89
ENDBRANCH  40  41
ENDBRANCH  32  35
ENDBRANCH  30  31
ENDBRANCH   1  30
TORSDOF 16
ENDMDL
MODEL 2
REMARK VINA RESULT:     -12.1      4.271      9.958
REMARK SMILES CC(C)c1ccc(-c2cnc([C@@H]3[NH2+][C@H](C(=O)NCCCNC(=O)c4ccc(-c5c6nc(c(-c7cccc(S(=O)(=O)[O-])c7F)c7ccc([nH]7)c(-c7cccc(S(=O)(=O)[O-])c7F)c7nc(c(-c8cccc(S(=O)(=O)[O-])c8F)c8ccc5[nH]8)C=C7)C=C6)cc4)C(C)(C)S3)s2)cc1
REMARK SMILES IDX 19 1 18 2 17 3 15 4 16 5 14 7 12 8 13 9 90 10 87 13 88 14
REMARK SMILES IDX 89 15 11 16 8 17 9 18 91 19 10 20 7 21 4 22 5 23 93 24 6 25
REMARK SMILES IDX 92 26 2 27 1 28 3 29 20 30 21 31 22 32 23 34 24 35 25 36
REMARK SMILES IDX 86 37 26 38 85 39 27 40 28 41 29 42 79 43 30 44 84 45 78 46
REMARK SMILES IDX 80 47 31 48 83 49 77 50 76 51 32 53 64 54 44 55 63 56 45 57
REMARK SMILES IDX 48 58 62 59 81 60 46 61 47 62 61 64 82 65 49 66 33 67 34 68
REMARK SMILES IDX 42 69 35 70 37 71 43 72 36 73 38 74 39 75 40 76 41 77 65 78
REMARK SMILES IDX 66 79 74 80 67 81 69 82 75 83 68 84 70 85 71 86 72 87 73 88
REMARK SMILES IDX 50 89 51 90 59 91 52 92 54 93 60 94 53 95 55 96 56 97 57 98
REMARK SMILES IDX 58 99
REMARK H PARENT 17 6 13 11 13 12 21 33 80 52 48 63
REMARK Flexibility Score: inf
ROOT
ATOM      1  C   UNL A   1      37.404  23.536  24.761  1.00  0.00     0.042 C 
ENDROOT
BRANCH   1   2
ATOM      2  C   UNL A   1      36.701  22.901  23.557  1.00  0.00     0.118 C 
BRANCH   2   3
ATOM      3  N   UNL A   1      35.370  23.445  23.369  1.00  0.00    -0.351 N 
ATOM      4  C   UNL A   1      34.220  22.701  23.308  1.00  0.00     0.279 C 
ATOM      5  O   UNL A   1      33.510  22.898  22.328  1.00  0.00    -0.268 OA
ATOM      6  H   UNL A   1      35.286  24.421  23.278  1.00  0.00     0.163 HD
BRANCH   4   7
ATOM      7  C   UNL A   1      33.908  21.719  24.465  1.00  0.00     0.289 C 
ATOM      8  C   UNL A   1      32.642  22.921  26.153  1.00  0.00     0.304 C 
ATOM      9  N   UNL A   1      33.986  22.411  25.796  1.00  0.00    -0.318 N 
ATOM     10  S   UNL A   1      31.391  21.853  25.380  1.00  0.00    -0.079 SA
ATOM     11  H   UNL A   1      34.301  21.751  26.507  1.00  0.00     0.348 HD
ATOM     12  H   UNL A   1      34.647  23.186  25.745  1.00  0.00     0.348 HD
ATOM     13  C   UNL A   1      32.591  20.919  24.373  1.00  0.00     0.078 C 
ATOM     14  C   UNL A   1      32.759  19.544  25.050  1.00  0.00     0.030 C 
ATOM     15  C   UNL A   1      32.059  20.706  22.956  1.00  0.00     0.030 C 
BRANCH   8  16
ATOM     16  C   UNL A   1      32.422  24.387  25.837  1.00  0.00     0.162 A 
ATOM     17  C   UNL A   1      31.544  26.553  25.125  1.00  0.00     0.055 A 
ATOM     18  C   UNL A   1      32.824  26.550  25.642  1.00  0.00     0.132 A 
ATOM     19  S   UNL A   1      30.917  24.954  25.195  1.00  0.00    -0.112 S 
ATOM     20  N   UNL A   1      33.330  25.326  25.975  1.00  0.00    -0.242 NA
BRANCH  17  21
ATOM     21  C   UNL A   1      30.825  27.690  24.549  1.00  0.00    -0.007 A 
ATOM     22  C   UNL A   1      29.417  29.797  23.261  1.00  0.00    -0.045 A 
ATOM     23  C   UNL A   1      30.474  30.060  24.152  1.00  0.00     0.004 A 
ATOM     24  C   UNL A   1      29.078  28.462  23.030  1.00  0.00     0.004 A 
ATOM     25  C   UNL A   1      31.167  29.022  24.794  1.00  0.00     0.010 A 
ATOM     26  C   UNL A   1      29.770  27.428  23.663  1.00  0.00     0.010 A 
BRANCH  22  27
ATOM     27  C   UNL A   1      28.699  30.952  22.575  1.00  0.00     0.013 C 
ATOM     28  C   UNL A   1      28.027  30.598  21.239  1.00  0.00     0.012 C 
ATOM     29  C   UNL A   1      27.653  31.576  23.506  1.00  0.00     0.012 C 
ENDBRANCH  22  27
ENDBRANCH  17  21
ENDBRANCH   8  16
ENDBRANCH   4   7
ENDBRANCH   2   3
ENDBRANCH   1   2
BRANCH   1  30
ATOM     30  C   UNL A   1      37.556  22.623  25.979  1.00  0.00     0.118 C 
BRANCH  30  31
ATOM     31  N   UNL A   1      38.822  21.907  25.993  1.00  0.00    -0.352 N 
ATOM     32  C   UNL A   1      40.099  22.360  26.212  1.00  0.00     0.251 C 
ATOM     33  H   UNL A   1      38.752  20.941  25.815  1.00  0.00     0.163 HD
ATOM     34  O   UNL A   1      41.045  21.603  26.011  1.00  0.00    -0.269 OA
BRANCH  32  35
ATOM     35  C   UNL A   1      40.351  23.749  26.662  1.00  0.00     0.039 A 
ATOM     36  C   UNL A   1      40.421  24.002  28.037  1.00  0.00     0.014 A 
ATOM     37  C   UNL A   1      40.481  24.804  25.756  1.00  0.00     0.014 A 
ATOM     38  C   UNL A   1      40.679  25.297  28.497  1.00  0.00     0.010 A 
ATOM     39  C   UNL A   1      40.806  26.082  26.214  1.00  0.00     0.010 A 
ATOM     40  C   UNL A   1      40.906  26.344  27.589  1.00  0.00    -0.014 A 
BRANCH  40  41
ATOM     41  C   UNL A   1      41.273  27.705  28.063  1.00  0.00     0.031 A 
ATOM     42  C   UNL A   1      42.715  28.130  28.136  1.00  0.00     0.074 A 
ATOM     43  C   UNL A   1      40.309  28.537  28.505  1.00  0.00     0.049 A 
ATOM     44  N   UNL A   1      43.221  29.259  28.562  1.00  0.00    -0.248 NA
ATOM     45  C   UNL A   1      43.723  27.153  27.694  1.00  0.00     0.031 C 
ATOM     46  C   UNL A   1      38.879  28.218  28.562  1.00  0.00     0.029 A 
ATOM     47  N   UNL A   1      40.385  29.808  29.017  1.00  0.00    -0.354 N 
ATOM     48  C   UNL A   1      44.601  29.117  28.475  1.00  0.00     0.074 A 
ATOM     49  C   UNL A   1      44.855  27.782  27.981  1.00  0.00     0.031 C 
ATOM     50  C   UNL A   1      38.216  29.264  29.079  1.00  0.00     0.029 A 
ATOM     51  C   UNL A   1      39.169  30.316  29.415  1.00  0.00     0.049 A 
ATOM     52  H   UNL A   1      41.228  30.309  29.093  1.00  0.00     0.167 HD
ATOM     53  C   UNL A   1      45.569  30.024  28.754  1.00  0.00     0.034 A 
ATOM     54  C   UNL A   1      38.856  31.494  29.992  1.00  0.00     0.034 A 
ATOM     55  C   UNL A   1      45.315  31.367  29.201  1.00  0.00     0.049 A 
ATOM     56  C   UNL A   1      39.946  32.499  30.248  1.00  0.00     0.074 A 
ATOM     57  C   UNL A   1      46.225  32.387  29.420  1.00  0.00     0.029 A 
ATOM     58  N   UNL A   1      44.063  31.878  29.506  1.00  0.00    -0.354 N 
ATOM     59  N   UNL A   1      41.229  32.406  29.999  1.00  0.00    -0.248 NA
ATOM     60  C   UNL A   1      39.539  33.788  30.828  1.00  0.00     0.031 C 
ATOM     61  C   UNL A   1      45.524  33.509  29.876  1.00  0.00     0.029 A 
ATOM     62  C   UNL A   1      44.176  33.195  29.920  1.00  0.00     0.049 A 
ATOM     63  H   UNL A   1      43.217  31.378  29.439  1.00  0.00     0.167 HD
ATOM     64  C   UNL A   1      41.778  33.631  30.359  1.00  0.00     0.074 A 
ATOM     65  C   UNL A   1      40.683  34.460  30.821  1.00  0.00     0.031 C 
ATOM     66  C   UNL A   1      43.074  34.030  30.324  1.00  0.00     0.034 A 
BRANCH  53  67
ATOM     67  C   UNL A   1      47.001  29.613  28.524  1.00  0.00     0.023 A 
ATOM     68  C   UNL A   1      47.602  29.864  27.274  1.00  0.00     0.012 A 
ATOM     69  C   UNL A   1      47.770  29.043  29.558  1.00  0.00     0.148 A 
ATOM     70  C   UNL A   1      48.934  29.524  27.044  1.00  0.00     0.002 A 
ATOM     71  C   UNL A   1      49.110  28.746  29.334  1.00  0.00     0.091 A 
ATOM     72  F   UNL A   1      47.178  28.793  30.734  1.00  0.00    -0.205 F 
ATOM     73  C   UNL A   1      49.691  28.974  28.076  1.00  0.00     0.022 A 
BRANCH  71  74
ATOM     74  S   UNL A   1      50.191  28.111  30.622  1.00  0.00     0.127 S 
ATOM     75  O   UNL A   1      49.595  26.803  30.890  1.00  0.00    -0.237 OA
ATOM     76  O   UNL A   1      51.486  28.062  29.943  1.00  0.00    -0.237 OA
ATOM     77  O   UNL A   1      50.116  29.071  31.716  1.00  0.00    -0.744 OA
ENDBRANCH  71  74
ENDBRANCH  53  67
BRANCH  54  78
ATOM     78  C   UNL A   1      37.433  31.814  30.301  1.00  0.00     0.023 A 
ATOM     79  C   UNL A   1      36.957  31.646  31.615  1.00  0.00     0.012 A 
ATOM     80  C   UNL A   1      36.561  32.313  29.314  1.00  0.00     0.148 A 
ATOM     81  C   UNL A   1      35.631  31.936  31.935  1.00  0.00     0.002 A 
ATOM     82  C   UNL A   1      35.256  32.654  29.652  1.00  0.00     0.091 A 
ATOM     83  F   UNL A   1      37.028  32.455  28.065  1.00  0.00    -0.205 F 
ATOM     84  C   UNL A   1      34.784  32.449  30.957  1.00  0.00     0.022 A 
BRANCH  82  85
ATOM     85  S   UNL A   1      34.139  33.448  28.491  1.00  0.00     0.127 S 
ATOM     86  O   UNL A   1      35.060  34.242  27.682  1.00  0.00    -0.237 OA
ATOM     87  O   UNL A   1      33.551  32.298  27.802  1.00  0.00    -0.237 OA
ATOM     88  O   UNL A   1      33.197  34.201  29.305  1.00  0.00    -0.744 OA
ENDBRANCH  82  85
ENDBRANCH  54  78
BRANCH  66  89
ATOM     89  C   UNL A   1      43.386  35.436  30.767  1.00  0.00     0.023 A 
ATOM     90  C   UNL A   1      43.740  35.686  32.107  1.00  0.00     0.012 A 
ATOM     91  C   UNL A   1      43.400  36.496  29.839  1.00  0.00     0.148 A 
ATOM     92  C   UNL A   1      44.071  36.975  32.524  1.00  0.00     0.002 A 
ATOM     93  C   UNL A   1      43.777  37.769  30.251  1.00  0.00     0.091 A 
ATOM     94  F   UNL A   1      43.041  36.243  28.571  1.00  0.00    -0.205 F 
ATOM     95  C   UNL A   1      44.101  38.012  31.596  1.00  0.00     0.022 A 
BRANCH  93  96
ATOM     96  S   UNL A   1      43.935  39.144  29.106  1.00  0.00     0.127 S 
ATOM     97  O   UNL A   1      44.390  40.217  29.988  1.00  0.00    -0.237 OA
ATOM     98  O   UNL A   1      44.949  38.656  28.170  1.00  0.00    -0.237 OA
ATOM     99  O   UNL A   1      42.614  39.330  28.520  1.00  0.00    -0.744 OA
ENDBRANCH  93  96
ENDBRANCH  66  89
ENDBRANCH  40  41
ENDBRANCH  32  35
ENDBRANCH  30  31
ENDBRANCH   1  30
TORSDOF 16
ENDMDL
MODEL 3
REMARK VINA RESULT:     -12.1      1.779      2.221
REMARK SMILES CC(C)c1ccc(-c2cnc([C@@H]3[NH2+][C@H](C(=O)NCCCNC(=O)c4ccc(-c5c6nc(c(-c7cccc(S(=O)(=O)[O-])c7F)c7ccc([nH]7)c(-c7cccc(S(=O)(=O)[O-])c7F)c7nc(c(-c8cccc(S(=O)(=O)[O-])c8F)c8ccc5[nH]8)C=C7)C=C6)cc4)C(C)(C)S3)s2)cc1
REMARK SMILES IDX 19 1 18 2 17 3 15 4 16 5 14 7 12 8 13 9 90 10 87 13 88 14
REMARK SMILES IDX 89 15 11 16 8 17 9 18 91 19 10 20 7 21 4 22 5 23 93 24 6 25
REMARK SMILES IDX 92 26 2 27 1 28 3 29 20 30 21 31 22 32 23 34 24 35 25 36
REMARK SMILES IDX 86 37 26 38 85 39 27 40 28 41 29 42 79 43 30 44 84 45 78 46
REMARK SMILES IDX 80 47 31 48 83 49 77 50 76 51 32 53 64 54 44 55 63 56 45 57
REMARK SMILES IDX 48 58 62 59 81 60 46 61 47 62 61 64 82 65 49 66 33 67 34 68
REMARK SMILES IDX 42 69 35 70 37 71 43 72 36 73 38 74 39 75 40 76 41 77 65 78
REMARK SMILES IDX 66 79 74 80 67 81 69 82 75 83 68 84 70 85 71 86 72 87 73 88
REMARK SMILES IDX 50 89 51 90 59 91 52 92 54 93 60 94 53 95 55 96 56 97 57 98
REMARK SMILES IDX 58 99
REMARK H PARENT 17 6 13 11 13 12 21 33 80 52 48 63
REMARK Flexibility Score: inf
ROOT
ATOM      1  C   UNL A   1      33.927  28.381  27.284  1.00  0.00     0.042 C 
ENDROOT
BRANCH   1   2
ATOM      2  C   UNL A   1      32.401  28.248  27.321  1.00  0.00     0.118 C 
BRANCH   2   3
ATOM      3  N   UNL A   1      31.952  27.052  26.635  1.00  0.00    -0.351 N 
ATOM      4  C   UNL A   1      31.033  27.028  25.619  1.00  0.00     0.279 C 
ATOM      5  O   UNL A   1      30.090  26.260  25.773  1.00  0.00    -0.268 OA
ATOM      6  H   UNL A   1      32.338  26.192  26.921  1.00  0.00     0.163 HD
BRANCH   4   7
ATOM      7  C   UNL A   1      31.269  27.930  24.382  1.00  0.00     0.289 C 
ATOM      8  C   UNL A   1      32.859  26.812  22.926  1.00  0.00     0.304 C 
ATOM      9  N   UNL A   1      32.704  27.879  23.942  1.00  0.00    -0.318 N 
ATOM     10  S   UNL A   1      31.282  26.618  22.043  1.00  0.00    -0.079 SA
ATOM     11  H   UNL A   1      32.971  28.776  23.539  1.00  0.00     0.348 HD
ATOM     12  H   UNL A   1      33.305  27.682  24.744  1.00  0.00     0.348 HD
ATOM     13  C   UNL A   1      30.346  27.711  23.164  1.00  0.00     0.078 C 
ATOM     14  C   UNL A   1      30.137  29.040  22.412  1.00  0.00     0.030 C 
ATOM     15  C   UNL A   1      28.978  27.110  23.488  1.00  0.00     0.030 C 
BRANCH   8  16
ATOM     16  C   UNL A   1      33.380  25.497  23.470  1.00  0.00     0.162 A 
ATOM     17  C   UNL A   1      33.795  23.147  23.999  1.00  0.00     0.055 A 
ATOM     18  C   UNL A   1      34.575  24.072  24.662  1.00  0.00     0.132 A 
ATOM     19  S   UNL A   1      32.755  23.981  22.912  1.00  0.00    -0.112 S 
ATOM     20  N   UNL A   1      34.291  25.385  24.410  1.00  0.00    -0.242 NA
BRANCH  17  21
ATOM     21  C   UNL A   1      33.779  21.698  24.197  1.00  0.00    -0.007 A 
ATOM     22  C   UNL A   1      33.937  18.878  24.523  1.00  0.00    -0.045 A 
ATOM     23  C   UNL A   1      32.781  19.492  24.006  1.00  0.00     0.004 A 
ATOM     24  C   UNL A   1      35.009  19.702  24.874  1.00  0.00     0.004 A 
ATOM     25  C   UNL A   1      32.698  20.884  23.850  1.00  0.00     0.010 A 
ATOM     26  C   UNL A   1      34.930  21.086  24.714  1.00  0.00     0.010 A 
BRANCH  22  27
ATOM     27  C   UNL A   1      33.992  17.362  24.664  1.00  0.00     0.013 C 
ATOM     28  C   UNL A   1      32.887  16.751  25.538  1.00  0.00     0.012 C 
ATOM     29  C   UNL A   1      33.967  16.685  23.288  1.00  0.00     0.012 C 
ENDBRANCH  22  27
ENDBRANCH  17  21
ENDBRANCH   8  16
ENDBRANCH   4   7
ENDBRANCH   2   3
ENDBRANCH   1   2
BRANCH   1  30
ATOM     30  C   UNL A   1      34.452  29.626  26.567  1.00  0.00     0.118 C 
BRANCH  30  31
ATOM     31  N   UNL A   1      34.135  30.859  27.273  1.00  0.00    -0.352 N 
ATOM     32  C   UNL A   1      34.766  31.467  28.329  1.00  0.00     0.251 C 
ATOM     33  H   UNL A   1      33.338  31.332  26.940  1.00  0.00     0.163 HD
ATOM     34  O   UNL A   1      34.226  32.425  28.877  1.00  0.00    -0.269 OA
BRANCH  32  35
ATOM     35  C   UNL A   1      36.071  30.974  28.828  1.00  0.00     0.039 A 
ATOM     36  C   UNL A   1      36.083  29.859  29.672  1.00  0.00     0.014 A 
ATOM     37  C   UNL A   1      37.271  31.615  28.509  1.00  0.00     0.014 A 
ATOM     38  C   UNL A   1      37.298  29.353  30.145  1.00  0.00     0.010 A 
ATOM     39  C   UNL A   1      38.486  31.070  28.925  1.00  0.00     0.010 A 
ATOM     40  C   UNL A   1      38.514  29.934  29.749  1.00  0.00    -0.014 A 
BRANCH  40  41
ATOM     41  C   UNL A   1      39.816  29.351  30.169  1.00  0.00     0.031 A 
ATOM     42  C   UNL A   1      40.611  29.969  31.288  1.00  0.00     0.074 A 
ATOM     43  C   UNL A   1      40.325  28.305  29.487  1.00  0.00     0.049 A 
ATOM     44  N   UNL A   1      41.781  29.621  31.757  1.00  0.00    -0.248 NA
ATOM     45  C   UNL A   1      40.026  31.145  31.952  1.00  0.00     0.031 C 
ATOM     46  C   UNL A   1      39.694  27.662  28.332  1.00  0.00     0.029 A 
ATOM     47  N   UNL A   1      41.503  27.617  29.646  1.00  0.00    -0.354 N 
ATOM     48  C   UNL A   1      42.090  30.552  32.743  1.00  0.00     0.074 A 
ATOM     49  C   UNL A   1      40.995  31.497  32.785  1.00  0.00     0.031 C 
ATOM     50  C   UNL A   1      40.489  26.675  27.889  1.00  0.00     0.029 A 
ATOM     51  C   UNL A   1      41.697  26.631  28.706  1.00  0.00     0.049 A 
ATOM     52  H   UNL A   1      42.148  27.810  30.364  1.00  0.00     0.167 HD
ATOM     53  C   UNL A   1      43.172  30.601  33.558  1.00  0.00     0.034 A 
ATOM     54  C   UNL A   1      42.733  25.788  28.517  1.00  0.00     0.034 A 
ATOM     55  C   UNL A   1      44.238  29.635  33.547  1.00  0.00     0.049 A 
ATOM     56  C   UNL A   1      43.899  25.836  29.466  1.00  0.00     0.074 A 
ATOM     57  C   UNL A   1      45.328  29.548  34.396  1.00  0.00     0.029 A 
ATOM     58  N   UNL A   1      44.355  28.593  32.640  1.00  0.00    -0.354 N 
ATOM     59  N   UNL A   1      44.091  26.619  30.500  1.00  0.00    -0.248 NA
ATOM     60  C   UNL A   1      44.975  24.857  29.246  1.00  0.00     0.031 C 
ATOM     61  C   UNL A   1      46.114  28.464  33.989  1.00  0.00     0.029 A 
ATOM     62  C   UNL A   1      45.502  27.864  32.901  1.00  0.00     0.049 A 
ATOM     63  H   UNL A   1      43.716  28.401  31.915  1.00  0.00     0.167 HD
ATOM     64  C   UNL A   1      45.289  26.207  31.073  1.00  0.00     0.074 A 
ATOM     65  C   UNL A   1      45.767  25.089  30.286  1.00  0.00     0.031 C 
ATOM     66  C   UNL A   1      45.941  26.717  32.147  1.00  0.00     0.034 A 
BRANCH  53  67
ATOM     67  C   UNL A   1      43.229  31.708  34.579  1.00  0.00     0.023 A 
ATOM     68  C   UNL A   1      43.858  32.925  34.248  1.00  0.00     0.012 A 
ATOM     69  C   UNL A   1      42.606  31.573  35.836  1.00  0.00     0.148 A 
ATOM     70  C   UNL A   1      43.898  33.978  35.161  1.00  0.00     0.002 A 
ATOM     71  C   UNL A   1      42.612  32.642  36.725  1.00  0.00     0.091 A 
ATOM     72  F   UNL A   1      42.028  30.403  36.143  1.00  0.00    -0.205 F 
ATOM     73  C   UNL A   1      43.267  33.840  36.395  1.00  0.00     0.022 A 
BRANCH  71  74
ATOM     74  S   UNL A   1      41.759  32.594  38.306  1.00  0.00     0.127 S 
ATOM     75  O   UNL A   1      40.396  32.259  37.896  1.00  0.00    -0.237 OA
ATOM     76  O   UNL A   1      42.465  31.521  39.006  1.00  0.00    -0.237 OA
ATOM     77  O   UNL A   1      41.930  33.916  38.893  1.00  0.00    -0.744 OA
ENDBRANCH  71  74
ENDBRANCH  53  67
BRANCH  54  78
ATOM     78  C   UNL A   1      42.678  24.777  27.423  1.00  0.00     0.023 A 
ATOM     79  C   UNL A   1      43.256  25.079  26.175  1.00  0.00     0.012 A 
ATOM     80  C   UNL A   1      42.088  23.513  27.619  1.00  0.00     0.148 A 
ATOM     81  C   UNL A   1      43.220  24.154  25.132  1.00  0.00     0.002 A 
ATOM     82  C   UNL A   1      42.106  22.575  26.593  1.00  0.00     0.091 A 
ATOM     83  F   UNL A   1      41.531  23.248  28.810  1.00  0.00    -0.205 F 
ATOM     84  C   UNL A   1      42.655  22.900  25.343  1.00  0.00     0.022 A 
BRANCH  82  85
ATOM     85  S   UNL A   1      41.524  20.891  26.821  1.00  0.00     0.127 S 
ATOM     86  O   UNL A   1      41.814  20.294  25.520  1.00  0.00    -0.237 OA
ATOM     87  O   UNL A   1      42.374  20.422  27.917  1.00  0.00    -0.237 OA
ATOM     88  O   UNL A   1      40.114  21.006  27.166  1.00  0.00    -0.744 OA
ENDBRANCH  82  85
ENDBRANCH  54  78
BRANCH  66  89
ATOM     89  C   UNL A   1      47.231  26.058  32.562  1.00  0.00     0.023 A 
ATOM     90  C   UNL A   1      47.220  25.064  33.560  1.00  0.00     0.012 A 
ATOM     91  C   UNL A   1      48.441  26.371  31.911  1.00  0.00     0.148 A 
ATOM     92  C   UNL A   1      48.399  24.416  33.927  1.00  0.00     0.002 A 
ATOM     93  C   UNL A   1      49.603  25.687  32.248  1.00  0.00     0.091 A 
ATOM     94  F   UNL A   1      48.435  27.334  30.977  1.00  0.00    -0.205 F 
ATOM     95  C   UNL A   1      49.586  24.718  33.265  1.00  0.00     0.022 A 
BRANCH  93  96
ATOM     96  S   UNL A   1      51.156  25.944  31.383  1.00  0.00     0.127 S 
ATOM     97  O   UNL A   1      52.040  25.005  32.072  1.00  0.00    -0.237 OA
ATOM     98  O   UNL A   1      50.816  25.565  30.011  1.00  0.00    -0.237 OA
ATOM     99  O   UNL A   1      51.481  27.353  31.556  1.00  0.00    -0.744 OA
ENDBRANCH  93  96
ENDBRANCH  66  89
ENDBRANCH  40  41
ENDBRANCH  32  35
ENDBRANCH  30  31
ENDBRANCH   1  30
TORSDOF 16
ENDMDL
