MODEL 1
REMARK VINA RESULT:     -12.6      0.000      0.000
REMARK SMILES C[C@H](C(=O)NCCCNC(=O)c1ccc(-c2c3nc(c(-c4cccc(S(=O)(=O)[O-])c4F)c4ccc([nH]4)c(-c4cccc(S(=O)(=O)[O-])c4F)c4nc(c(-c5cccc(S(=O)(=O)[O-])c5F)c5ccc2[nH]5)C=C4)C=C3)cc1)c1ccc(-c2ccccc2)c(F)c1
REMARK SMILES IDX 7 1 6 2 5 3 3 4 4 5 2 7 1 8 75 9 76 10 87 11 77 12 85 13
REMARK SMILES IDX 78 14 86 15 79 16 80 17 84 18 81 19 83 20 82 21 8 22 9 23
REMARK SMILES IDX 10 24 11 26 12 27 13 28 74 29 14 30 73 31 15 32 16 33 17 34
REMARK SMILES IDX 67 35 18 36 72 37 66 38 68 39 19 40 71 41 65 42 64 43 20 45
REMARK SMILES IDX 52 46 32 47 51 48 33 49 36 50 50 51 69 52 34 53 35 54 49 56
REMARK SMILES IDX 70 57 37 58 21 59 22 60 30 61 23 62 25 63 31 64 24 65 26 66
REMARK SMILES IDX 27 67 28 68 29 69 53 70 54 71 62 72 55 73 57 74 63 75 56 76
REMARK SMILES IDX 58 77 59 78 60 79 61 80 38 81 39 82 47 83 40 84 42 85 48 86
REMARK SMILES IDX 41 87 43 88 44 89 45 90 46 91
REMARK H PARENT 5 6 9 25 68 44 36 55
REMARK Flexibility Score: inf
ROOT
ATOM      1  C   UNL A   1      31.972  28.470  26.444  1.00  0.00     0.042 C 
ENDROOT
BRANCH   1   2
ATOM      2  C   UNL A   1      32.566  27.074  26.501  1.00  0.00     0.117 C 
BRANCH   2   3
ATOM      3  N   UNL A   1      31.566  26.050  26.755  1.00  0.00    -0.356 N 
ATOM      4  C   UNL A   1      30.905  25.224  25.895  1.00  0.00     0.227 C 
ATOM      5  O   UNL A   1      30.181  24.356  26.393  1.00  0.00    -0.274 OA
ATOM      6  H   UNL A   1      31.327  25.934  27.702  1.00  0.00     0.163 HD
BRANCH   4   7
ATOM      7  C   UNL A   1      31.058  25.339  24.376  1.00  0.00     0.105 C 
ATOM      8  C   UNL A   1      30.596  24.058  23.670  1.00  0.00     0.023 C 
BRANCH   7   9
ATOM      9  C   UNL A   1      30.495  26.608  23.745  1.00  0.00    -0.033 A 
ATOM     10  C   UNL A   1      31.287  27.530  23.048  1.00  0.00     0.005 A 
ATOM     11  C   UNL A   1      29.127  26.894  23.869  1.00  0.00     0.044 A 
ATOM     12  C   UNL A   1      30.758  28.736  22.585  1.00  0.00     0.012 A 
ATOM     13  C   UNL A   1      28.596  28.087  23.369  1.00  0.00     0.131 A 
ATOM     14  C   UNL A   1      29.399  29.045  22.738  1.00  0.00     0.017 A 
ATOM     15  F   UNL A   1      27.278  28.295  23.513  1.00  0.00    -0.206 F 
BRANCH  14  16
ATOM     16  C   UNL A   1      28.878  30.335  22.257  1.00  0.00    -0.015 A 
ATOM     17  C   UNL A   1      28.457  30.488  20.923  1.00  0.00     0.009 A 
ATOM     18  C   UNL A   1      28.835  31.464  23.091  1.00  0.00     0.009 A 
ATOM     19  C   UNL A   1      28.024  31.722  20.437  1.00  0.00     0.001 A 
ATOM     20  C   UNL A   1      28.400  32.701  22.607  1.00  0.00     0.001 A 
ATOM     21  C   UNL A   1      27.999  32.830  21.279  1.00  0.00     0.000 A 
ENDBRANCH  14  16
ENDBRANCH   7   9
ENDBRANCH   4   7
ENDBRANCH   2   3
ENDBRANCH   1   2
BRANCH   1  22
ATOM     22  C   UNL A   1      32.899  29.501  25.820  1.00  0.00     0.118 C 
BRANCH  22  23
ATOM     23  N   UNL A   1      32.625  30.858  26.277  1.00  0.00    -0.352 N 
ATOM     24  C   UNL A   1      33.255  31.601  27.246  1.00  0.00     0.251 C 
ATOM     25  H   UNL A   1      31.878  31.311  25.822  1.00  0.00     0.163 HD
ATOM     26  O   UNL A   1      32.763  32.668  27.607  1.00  0.00    -0.269 OA
BRANCH  24  27
ATOM     27  C   UNL A   1      34.505  31.110  27.864  1.00  0.00     0.039 A 
ATOM     28  C   UNL A   1      35.586  31.984  27.999  1.00  0.00     0.014 A 
ATOM     29  C   UNL A   1      34.612  29.790  28.311  1.00  0.00     0.014 A 
ATOM     30  C   UNL A   1      36.750  31.551  28.639  1.00  0.00     0.010 A 
ATOM     31  C   UNL A   1      35.727  29.395  29.039  1.00  0.00     0.010 A 
ATOM     32  C   UNL A   1      36.817  30.264  29.195  1.00  0.00    -0.014 A 
BRANCH  32  33
ATOM     33  C   UNL A   1      38.021  29.795  29.928  1.00  0.00     0.031 A 
ATOM     34  C   UNL A   1      38.309  30.312  31.313  1.00  0.00     0.074 A 
ATOM     35  C   UNL A   1      38.900  28.974  29.319  1.00  0.00     0.049 A 
ATOM     36  N   UNL A   1      39.333  30.067  32.088  1.00  0.00    -0.248 NA
ATOM     37  C   UNL A   1      37.334  31.254  31.891  1.00  0.00     0.031 C 
ATOM     38  C   UNL A   1      38.774  28.464  27.952  1.00  0.00     0.029 A 
ATOM     39  N   UNL A   1      40.085  28.445  29.762  1.00  0.00    -0.354 N 
ATOM     40  C   UNL A   1      39.150  30.854  33.219  1.00  0.00     0.074 A 
ATOM     41  C   UNL A   1      37.938  31.615  33.013  1.00  0.00     0.031 C 
ATOM     42  C   UNL A   1      39.830  27.685  27.674  1.00  0.00     0.029 A 
ATOM     43  C   UNL A   1      40.727  27.668  28.826  1.00  0.00     0.049 A 
ATOM     44  H   UNL A   1      40.442  28.605  30.665  1.00  0.00     0.167 HD
ATOM     45  C   UNL A   1      39.904  30.919  34.342  1.00  0.00     0.034 A 
ATOM     46  C   UNL A   1      41.908  27.021  28.885  1.00  0.00     0.034 A 
ATOM     47  C   UNL A   1      41.086  30.130  34.560  1.00  0.00     0.049 A 
ATOM     48  C   UNL A   1      42.711  27.082  30.156  1.00  0.00     0.074 A 
ATOM     49  C   UNL A   1      41.869  30.050  35.698  1.00  0.00     0.029 A 
ATOM     50  N   UNL A   1      41.666  29.297  33.617  1.00  0.00    -0.354 N 
ATOM     51  N   UNL A   1      42.441  27.709  31.275  1.00  0.00    -0.248 NA
ATOM     52  C   UNL A   1      43.964  26.315  30.186  1.00  0.00     0.031 C 
ATOM     53  C   UNL A   1      42.944  29.198  35.428  1.00  0.00     0.029 A 
ATOM     54  C   UNL A   1      42.806  28.711  34.138  1.00  0.00     0.049 A 
ATOM     55  H   UNL A   1      41.318  29.145  32.708  1.00  0.00     0.167 HD
ATOM     56  C   UNL A   1      43.465  27.379  32.155  1.00  0.00     0.074 A 
ATOM     57  C   UNL A   1      44.354  26.484  31.442  1.00  0.00     0.031 C 
ATOM     58  C   UNL A   1      43.655  27.783  33.435  1.00  0.00     0.034 A 
BRANCH  45  59
ATOM     59  C   UNL A   1      39.451  31.853  35.435  1.00  0.00     0.023 A 
ATOM     60  C   UNL A   1      39.821  33.214  35.396  1.00  0.00     0.012 A 
ATOM     61  C   UNL A   1      38.628  31.393  36.482  1.00  0.00     0.148 A 
ATOM     62  C   UNL A   1      39.421  34.090  36.405  1.00  0.00     0.002 A 
ATOM     63  C   UNL A   1      38.190  32.283  37.455  1.00  0.00     0.091 A 
ATOM     64  F   UNL A   1      38.302  30.093  36.516  1.00  0.00    -0.205 F 
ATOM     65  C   UNL A   1      38.598  33.627  37.429  1.00  0.00     0.022 A 
BRANCH  63  66
ATOM     66  S   UNL A   1      37.058  31.804  38.765  1.00  0.00     0.127 S 
ATOM     67  O   UNL A   1      36.813  30.398  38.444  1.00  0.00    -0.237 OA
ATOM     68  O   UNL A   1      37.867  32.023  39.965  1.00  0.00    -0.237 OA
ATOM     69  O   UNL A   1      35.905  32.684  38.642  1.00  0.00    -0.744 OA
ENDBRANCH  63  66
ENDBRANCH  45  59
BRANCH  46  70
ATOM     70  C   UNL A   1      42.364  26.201  27.729  1.00  0.00     0.023 A 
ATOM     71  C   UNL A   1      43.275  26.754  26.807  1.00  0.00     0.012 A 
ATOM     72  C   UNL A   1      41.930  24.873  27.552  1.00  0.00     0.148 A 
ATOM     73  C   UNL A   1      43.719  26.012  25.712  1.00  0.00     0.002 A 
ATOM     74  C   UNL A   1      42.420  24.120  26.491  1.00  0.00     0.091 A 
ATOM     75  F   UNL A   1      41.060  24.368  28.438  1.00  0.00    -0.205 F 
ATOM     76  C   UNL A   1      43.300  24.692  25.560  1.00  0.00     0.022 A 
BRANCH  74  77
ATOM     77  S   UNL A   1      42.038  22.377  26.285  1.00  0.00     0.127 S 
ATOM     78  O   UNL A   1      40.577  22.392  26.260  1.00  0.00    -0.237 OA
ATOM     79  O   UNL A   1      42.674  22.082  25.001  1.00  0.00    -0.237 OA
ATOM     80  O   UNL A   1      42.641  21.701  27.426  1.00  0.00    -0.744 OA
ENDBRANCH  74  77
ENDBRANCH  46  70
BRANCH  58  81
ATOM     81  C   UNL A   1      44.842  27.225  34.177  1.00  0.00     0.023 A 
ATOM     82  C   UNL A   1      46.075  27.905  34.158  1.00  0.00     0.012 A 
ATOM     83  C   UNL A   1      44.707  26.059  34.959  1.00  0.00     0.148 A 
ATOM     84  C   UNL A   1      47.167  27.412  34.875  1.00  0.00     0.002 A 
ATOM     85  C   UNL A   1      45.782  25.606  35.713  1.00  0.00     0.091 A 
ATOM     86  F   UNL A   1      43.530  25.416  34.950  1.00  0.00    -0.205 F 
ATOM     87  C   UNL A   1      47.016  26.272  35.661  1.00  0.00     0.022 A 
BRANCH  85  88
ATOM     88  S   UNL A   1      45.650  24.207  36.833  1.00  0.00     0.127 S 
ATOM     89  O   UNL A   1      45.139  23.164  35.947  1.00  0.00    -0.237 OA
ATOM     90  O   UNL A   1      47.037  24.022  37.259  1.00  0.00    -0.237 OA
ATOM     91  O   UNL A   1      44.743  24.625  37.893  1.00  0.00    -0.744 OA
ENDBRANCH  85  88
ENDBRANCH  58  81
ENDBRANCH  32  33
ENDBRANCH  24  27
ENDBRANCH  22  23
ENDBRANCH   1  22
TORSDOF 15
ENDMDL
MODEL 2
REMARK VINA RESULT:     -12.5      2.731      4.986
REMARK SMILES C[C@H](C(=O)NCCCNC(=O)c1ccc(-c2c3nc(c(-c4cccc(S(=O)(=O)[O-])c4F)c4ccc([nH]4)c(-c4cccc(S(=O)(=O)[O-])c4F)c4nc(c(-c5cccc(S(=O)(=O)[O-])c5F)c5ccc2[nH]5)C=C4)C=C3)cc1)c1ccc(-c2ccccc2)c(F)c1
REMARK SMILES IDX 7 1 6 2 5 3 3 4 4 5 2 7 1 8 75 9 76 10 87 11 77 12 85 13
REMARK SMILES IDX 78 14 86 15 79 16 80 17 84 18 81 19 83 20 82 21 8 22 9 23
REMARK SMILES IDX 10 24 11 26 12 27 13 28 74 29 14 30 73 31 15 32 16 33 17 34
REMARK SMILES IDX 67 35 18 36 72 37 66 38 68 39 19 40 71 41 65 42 64 43 20 45
REMARK SMILES IDX 52 46 32 47 51 48 33 49 36 50 50 51 69 52 34 53 35 54 49 56
REMARK SMILES IDX 70 57 37 58 21 59 22 60 30 61 23 62 25 63 31 64 24 65 26 66
REMARK SMILES IDX 27 67 28 68 29 69 53 70 54 71 62 72 55 73 57 74 63 75 56 76
REMARK SMILES IDX 58 77 59 78 60 79 61 80 38 81 39 82 47 83 40 84 42 85 48 86
REMARK SMILES IDX 41 87 43 88 44 89 45 90 46 91
REMARK H PARENT 5 6 9 25 68 44 36 55
REMARK Flexibility Score: inf
ROOT
ATOM      1  C   UNL A   1      31.724  28.576  26.414  1.00  0.00     0.042 C 
ENDROOT
BRANCH   1   2
ATOM      2  C   UNL A   1      31.499  27.324  25.585  1.00  0.00     0.117 C 
BRANCH   2   3
ATOM      3  N   UNL A   1      31.202  26.158  26.402  1.00  0.00    -0.356 N 
ATOM      4  C   UNL A   1      31.756  24.913  26.403  1.00  0.00     0.227 C 
ATOM      5  O   UNL A   1      31.390  24.135  27.289  1.00  0.00    -0.274 OA
ATOM      6  H   UNL A   1      30.482  26.289  27.060  1.00  0.00     0.163 HD
BRANCH   4   7
ATOM      7  C   UNL A   1      32.804  24.487  25.372  1.00  0.00     0.105 C 
ATOM      8  C   UNL A   1      34.160  25.152  25.646  1.00  0.00     0.023 C 
BRANCH   7   9
ATOM      9  C   UNL A   1      32.913  22.988  25.112  1.00  0.00    -0.033 A 
ATOM     10  C   UNL A   1      31.881  22.237  24.534  1.00  0.00     0.005 A 
ATOM     11  C   UNL A   1      34.084  22.307  25.477  1.00  0.00     0.044 A 
ATOM     12  C   UNL A   1      31.972  20.849  24.419  1.00  0.00     0.012 A 
ATOM     13  C   UNL A   1      34.183  20.920  25.324  1.00  0.00     0.131 A 
ATOM     14  C   UNL A   1      33.125  20.156  24.815  1.00  0.00     0.017 A 
ATOM     15  F   UNL A   1      35.333  20.331  25.684  1.00  0.00    -0.206 F 
BRANCH  14  16
ATOM     16  C   UNL A   1      33.179  18.690  24.701  1.00  0.00    -0.015 A 
ATOM     17  C   UNL A   1      32.803  17.870  25.781  1.00  0.00     0.009 A 
ATOM     18  C   UNL A   1      33.656  18.063  23.538  1.00  0.00     0.009 A 
ATOM     19  C   UNL A   1      32.912  16.480  25.708  1.00  0.00     0.001 A 
ATOM     20  C   UNL A   1      33.765  16.672  23.463  1.00  0.00     0.001 A 
ATOM     21  C   UNL A   1      33.397  15.882  24.549  1.00  0.00     0.000 A 
ENDBRANCH  14  16
ENDBRANCH   7   9
ENDBRANCH   4   7
ENDBRANCH   2   3
ENDBRANCH   1   2
BRANCH   1  22
ATOM     22  C   UNL A   1      32.785  29.503  25.841  1.00  0.00     0.118 C 
BRANCH  22  23
ATOM     23  N   UNL A   1      32.559  30.902  26.183  1.00  0.00    -0.352 N 
ATOM     24  C   UNL A   1      33.230  31.707  27.070  1.00  0.00     0.251 C 
ATOM     25  H   UNL A   1      31.814  31.335  25.705  1.00  0.00     0.163 HD
ATOM     26  O   UNL A   1      32.775  32.816  27.347  1.00  0.00    -0.269 OA
BRANCH  24  27
ATOM     27  C   UNL A   1      34.480  31.235  27.703  1.00  0.00     0.039 A 
ATOM     28  C   UNL A   1      35.481  32.162  28.006  1.00  0.00     0.014 A 
ATOM     29  C   UNL A   1      34.665  29.883  28.000  1.00  0.00     0.014 A 
ATOM     30  C   UNL A   1      36.639  31.738  28.663  1.00  0.00     0.010 A 
ATOM     31  C   UNL A   1      35.767  29.483  28.746  1.00  0.00     0.010 A 
ATOM     32  C   UNL A   1      36.776  30.401  29.069  1.00  0.00    -0.014 A 
BRANCH  32  33
ATOM     33  C   UNL A   1      37.972  29.935  29.816  1.00  0.00     0.031 A 
ATOM     34  C   UNL A   1      38.227  30.429  31.216  1.00  0.00     0.074 A 
ATOM     35  C   UNL A   1      38.873  29.137  29.209  1.00  0.00     0.049 A 
ATOM     36  N   UNL A   1      39.239  30.183  32.007  1.00  0.00    -0.248 NA
ATOM     37  C   UNL A   1      37.229  31.347  31.792  1.00  0.00     0.031 C 
ATOM     38  C   UNL A   1      38.780  28.651  27.831  1.00  0.00     0.029 A 
ATOM     39  N   UNL A   1      40.056  28.614  29.666  1.00  0.00    -0.354 N 
ATOM     40  C   UNL A   1      39.024  30.946  33.148  1.00  0.00     0.074 A 
ATOM     41  C   UNL A   1      37.806  31.695  32.932  1.00  0.00     0.031 C 
ATOM     42  C   UNL A   1      39.852  27.890  27.559  1.00  0.00     0.029 A 
ATOM     43  C   UNL A   1      40.726  27.863  28.728  1.00  0.00     0.049 A 
ATOM     44  H   UNL A   1      40.394  28.762  30.578  1.00  0.00     0.167 HD
ATOM     45  C   UNL A   1      39.756  30.999  34.286  1.00  0.00     0.034 A 
ATOM     46  C   UNL A   1      41.914  27.230  28.798  1.00  0.00     0.034 A 
ATOM     47  C   UNL A   1      40.944  30.222  34.512  1.00  0.00     0.049 A 
ATOM     48  C   UNL A   1      42.692  27.278  30.085  1.00  0.00     0.074 A 
ATOM     49  C   UNL A   1      41.705  30.131  35.663  1.00  0.00     0.029 A 
ATOM     50  N   UNL A   1      41.553  29.414  33.565  1.00  0.00    -0.354 N 
ATOM     51  N   UNL A   1      42.392  27.881  31.210  1.00  0.00    -0.248 NA
ATOM     52  C   UNL A   1      43.955  26.526  30.124  1.00  0.00     0.031 C 
ATOM     53  C   UNL A   1      42.797  29.297  35.399  1.00  0.00     0.029 A 
ATOM     54  C   UNL A   1      42.690  28.833  34.097  1.00  0.00     0.049 A 
ATOM     55  H   UNL A   1      41.224  29.274  32.647  1.00  0.00     0.167 HD
ATOM     56  C   UNL A   1      43.404  27.547  32.103  1.00  0.00     0.074 A 
ATOM     57  C   UNL A   1      44.318  26.677  31.391  1.00  0.00     0.031 C 
ATOM     58  C   UNL A   1      43.565  27.930  33.393  1.00  0.00     0.034 A 
BRANCH  45  59
ATOM     59  C   UNL A   1      39.269  31.907  35.387  1.00  0.00     0.023 A 
ATOM     60  C   UNL A   1      38.334  31.431  36.330  1.00  0.00     0.012 A 
ATOM     61  C   UNL A   1      39.764  33.220  35.512  1.00  0.00     0.148 A 
ATOM     62  C   UNL A   1      37.863  32.261  37.347  1.00  0.00     0.002 A 
ATOM     63  C   UNL A   1      39.330  34.023  36.559  1.00  0.00     0.091 A 
ATOM     64  F   UNL A   1      40.638  33.664  34.597  1.00  0.00    -0.205 F 
ATOM     65  C   UNL A   1      38.368  33.552  37.468  1.00  0.00     0.022 A 
BRANCH  63  66
ATOM     66  S   UNL A   1      39.985  35.670  36.851  1.00  0.00     0.127 S 
ATOM     67  O   UNL A   1      41.418  35.402  36.967  1.00  0.00    -0.237 OA
ATOM     68  O   UNL A   1      39.594  36.376  35.630  1.00  0.00    -0.237 OA
ATOM     69  O   UNL A   1      39.339  36.151  38.063  1.00  0.00    -0.744 OA
ENDBRANCH  63  66
ENDBRANCH  45  59
BRANCH  46  70
ATOM     70  C   UNL A   1      42.403  26.438  27.635  1.00  0.00     0.023 A 
ATOM     71  C   UNL A   1      43.301  27.030  26.725  1.00  0.00     0.012 A 
ATOM     72  C   UNL A   1      42.013  25.099  27.442  1.00  0.00     0.148 A 
ATOM     73  C   UNL A   1      43.775  26.314  25.625  1.00  0.00     0.002 A 
ATOM     74  C   UNL A   1      42.533  24.374  26.376  1.00  0.00     0.091 A 
ATOM     75  F   UNL A   1      41.154  24.557  28.317  1.00  0.00    -0.205 F 
ATOM     76  C   UNL A   1      43.399  24.984  25.456  1.00  0.00     0.022 A 
BRANCH  74  77
ATOM     77  S   UNL A   1      42.208  22.622  26.148  1.00  0.00     0.127 S 
ATOM     78  O   UNL A   1      40.748  22.591  26.106  1.00  0.00    -0.237 OA
ATOM     79  O   UNL A   1      42.868  22.359  24.870  1.00  0.00    -0.237 OA
ATOM     80  O   UNL A   1      42.818  21.954  27.290  1.00  0.00    -0.744 OA
ENDBRANCH  74  77
ENDBRANCH  46  70
BRANCH  58  81
ATOM     81  C   UNL A   1      44.744  27.373  34.148  1.00  0.00     0.023 A 
ATOM     82  C   UNL A   1      45.987  28.035  34.111  1.00  0.00     0.012 A 
ATOM     83  C   UNL A   1      44.593  26.228  34.958  1.00  0.00     0.148 A 
ATOM     84  C   UNL A   1      47.072  27.543  34.839  1.00  0.00     0.002 A 
ATOM     85  C   UNL A   1      45.663  25.778  35.722  1.00  0.00     0.091 A 
ATOM     86  F   UNL A   1      43.408  25.602  34.965  1.00  0.00    -0.205 F 
ATOM     87  C   UNL A   1      46.907  26.425  35.653  1.00  0.00     0.022 A 
BRANCH  85  88
ATOM     88  S   UNL A   1      45.512  24.409  36.875  1.00  0.00     0.127 S 
ATOM     89  O   UNL A   1      45.183  23.301  35.981  1.00  0.00    -0.237 OA
ATOM     90  O   UNL A   1      46.853  24.347  37.456  1.00  0.00    -0.237 OA
ATOM     91  O   UNL A   1      44.464  24.786  37.813  1.00  0.00    -0.744 OA
ENDBRANCH  85  88
ENDBRANCH  58  81
ENDBRANCH  32  33
ENDBRANCH  24  27
ENDBRANCH  22  23
ENDBRANCH   1  22
TORSDOF 15
ENDMDL
MODEL 3
REMARK VINA RESULT:     -12.4      5.828     10.600
REMARK SMILES C[C@H](C(=O)NCCCNC(=O)c1ccc(-c2c3nc(c(-c4cccc(S(=O)(=O)[O-])c4F)c4ccc([nH]4)c(-c4cccc(S(=O)(=O)[O-])c4F)c4nc(c(-c5cccc(S(=O)(=O)[O-])c5F)c5ccc2[nH]5)C=C4)C=C3)cc1)c1ccc(-c2ccccc2)c(F)c1
REMARK SMILES IDX 7 1 6 2 5 3 3 4 4 5 2 7 1 8 75 9 76 10 87 11 77 12 85 13
REMARK SMILES IDX 78 14 86 15 79 16 80 17 84 18 81 19 83 20 82 21 8 22 9 23
REMARK SMILES IDX 10 24 11 26 12 27 13 28 74 29 14 30 73 31 15 32 16 33 17 34
REMARK SMILES IDX 67 35 18 36 72 37 66 38 68 39 19 40 71 41 65 42 64 43 20 45
REMARK SMILES IDX 52 46 32 47 51 48 33 49 36 50 50 51 69 52 34 53 35 54 49 56
REMARK SMILES IDX 70 57 37 58 21 59 22 60 30 61 23 62 25 63 31 64 24 65 26 66
REMARK SMILES IDX 27 67 28 68 29 69 53 70 54 71 62 72 55 73 57 74 63 75 56 76
REMARK SMILES IDX 58 77 59 78 60 79 61 80 38 81 39 82 47 83 40 84 42 85 48 86
REMARK SMILES IDX 41 87 43 88 44 89 45 90 46 91
REMARK H PARENT 5 6 9 25 68 44 36 55
REMARK Flexibility Score: inf
ROOT
ATOM      1  C   UNL A   1      35.836  23.690  24.719  1.00  0.00     0.042 C 
ENDROOT
BRANCH   1   2
ATOM      2  C   UNL A   1      34.800  24.796  24.643  1.00  0.00     0.117 C 
BRANCH   2   3
ATOM      3  N   UNL A   1      34.229  24.939  23.313  1.00  0.00    -0.356 N 
ATOM      4  C   UNL A   1      32.982  24.647  22.848  1.00  0.00     0.227 C 
ATOM      5  O   UNL A   1      32.722  24.976  21.687  1.00  0.00    -0.274 OA
ATOM      6  H   UNL A   1      34.844  25.306  22.639  1.00  0.00     0.163 HD
BRANCH   4   7
ATOM      7  C   UNL A   1      31.928  23.959  23.721  1.00  0.00     0.105 C 
ATOM      8  C   UNL A   1      30.507  24.307  23.260  1.00  0.00     0.023 C 
BRANCH   7   9
ATOM      9  C   UNL A   1      32.132  22.466  23.959  1.00  0.00    -0.033 A 
ATOM     10  C   UNL A   1      32.491  21.934  25.205  1.00  0.00     0.005 A 
ATOM     11  C   UNL A   1      31.976  21.569  22.892  1.00  0.00     0.044 A 
ATOM     12  C   UNL A   1      32.781  20.577  25.356  1.00  0.00     0.012 A 
ATOM     13  C   UNL A   1      32.232  20.205  23.060  1.00  0.00     0.131 A 
ATOM     14  C   UNL A   1      32.663  19.680  24.285  1.00  0.00     0.017 A 
ATOM     15  F   UNL A   1      32.055  19.398  22.002  1.00  0.00    -0.206 F 
BRANCH  14  16
ATOM     16  C   UNL A   1      32.998  18.259  24.474  1.00  0.00    -0.015 A 
ATOM     17  C   UNL A   1      32.458  17.530  25.550  1.00  0.00     0.009 A 
ATOM     18  C   UNL A   1      33.905  17.601  23.627  1.00  0.00     0.009 A 
ATOM     19  C   UNL A   1      32.821  16.202  25.780  1.00  0.00     0.001 A 
ATOM     20  C   UNL A   1      34.267  16.271  23.853  1.00  0.00     0.001 A 
ATOM     21  C   UNL A   1      33.728  15.574  24.932  1.00  0.00     0.000 A 
ENDBRANCH  14  16
ENDBRANCH   7   9
ENDBRANCH   4   7
ENDBRANCH   2   3
ENDBRANCH   1   2
BRANCH   1  22
ATOM     22  C   UNL A   1      36.487  23.558  26.086  1.00  0.00     0.118 C 
BRANCH  22  23
ATOM     23  N   UNL A   1      37.537  22.547  26.119  1.00  0.00    -0.352 N 
ATOM     24  C   UNL A   1      38.883  22.689  26.356  1.00  0.00     0.251 C 
ATOM     25  H   UNL A   1      37.238  21.625  25.946  1.00  0.00     0.163 HD
ATOM     26  O   UNL A   1      39.636  21.735  26.167  1.00  0.00    -0.269 OA
BRANCH  24  27
ATOM     27  C   UNL A   1      39.425  23.985  26.816  1.00  0.00     0.039 A 
ATOM     28  C   UNL A   1      39.992  24.856  25.882  1.00  0.00     0.014 A 
ATOM     29  C   UNL A   1      39.372  24.344  28.166  1.00  0.00     0.014 A 
ATOM     30  C   UNL A   1      40.447  26.110  26.295  1.00  0.00     0.010 A 
ATOM     31  C   UNL A   1      39.727  25.629  28.554  1.00  0.00     0.010 A 
ATOM     32  C   UNL A   1      40.288  26.521  27.628  1.00  0.00    -0.014 A 
BRANCH  32  33
ATOM     33  C   UNL A   1      40.714  27.869  28.082  1.00  0.00     0.031 A 
ATOM     34  C   UNL A   1      42.175  28.234  28.096  1.00  0.00     0.074 A 
ATOM     35  C   UNL A   1      39.799  28.734  28.563  1.00  0.00     0.049 A 
ATOM     36  N   UNL A   1      42.748  29.334  28.509  1.00  0.00    -0.248 NA
ATOM     37  C   UNL A   1      43.122  27.214  27.611  1.00  0.00     0.031 C 
ATOM     38  C   UNL A   1      38.363  28.473  28.675  1.00  0.00     0.029 A 
ATOM     39  N   UNL A   1      39.946  30.000  29.072  1.00  0.00    -0.354 N 
ATOM     40  C   UNL A   1      44.114  29.124  28.377  1.00  0.00     0.074 A 
ATOM     41  C   UNL A   1      44.290  27.776  27.884  1.00  0.00     0.031 C 
ATOM     42  C   UNL A   1      37.759  29.549  29.203  1.00  0.00     0.029 A 
ATOM     43  C   UNL A   1      38.766  30.562  29.502  1.00  0.00     0.049 A 
ATOM     44  H   UNL A   1      40.813  30.463  29.123  1.00  0.00     0.167 HD
ATOM     45  C   UNL A   1      45.135  29.983  28.616  1.00  0.00     0.034 A 
ATOM     46  C   UNL A   1      38.524  31.756  30.080  1.00  0.00     0.034 A 
ATOM     47  C   UNL A   1      44.954  31.336  29.067  1.00  0.00     0.049 A 
ATOM     48  C   UNL A   1      39.670  32.705  30.305  1.00  0.00     0.074 A 
ATOM     49  C   UNL A   1      45.913  32.316  29.250  1.00  0.00     0.029 A 
ATOM     50  N   UNL A   1      43.737  31.895  29.423  1.00  0.00    -0.354 N 
ATOM     51  N   UNL A   1      40.941  32.545  30.027  1.00  0.00    -0.248 NA
ATOM     52  C   UNL A   1      39.342  34.013  30.888  1.00  0.00     0.031 C 
ATOM     53  C   UNL A   1      45.278  33.457  29.753  1.00  0.00     0.029 A 
ATOM     54  C   UNL A   1      43.919  33.202  29.840  1.00  0.00     0.049 A 
ATOM     55  H   UNL A   1      42.870  31.431  29.384  1.00  0.00     0.167 HD
ATOM     56  C   UNL A   1      41.558  33.746  30.361  1.00  0.00     0.074 A 
ATOM     57  C   UNL A   1      40.517  34.627  30.847  1.00  0.00     0.031 C 
ATOM     58  C   UNL A   1      42.867  34.085  30.276  1.00  0.00     0.034 A 
BRANCH  45  59
ATOM     59  C   UNL A   1      46.536  29.490  28.361  1.00  0.00     0.023 A 
ATOM     60  C   UNL A   1      47.137  29.700  27.102  1.00  0.00     0.012 A 
ATOM     61  C   UNL A   1      47.273  28.852  29.377  1.00  0.00     0.148 A 
ATOM     62  C   UNL A   1      48.428  29.240  26.843  1.00  0.00     0.002 A 
ATOM     63  C   UNL A   1      48.578  28.443  29.128  1.00  0.00     0.091 A 
ATOM     64  F   UNL A   1      46.681  28.641  30.561  1.00  0.00    -0.205 F 
ATOM     65  C   UNL A   1      49.152  28.621  27.859  1.00  0.00     0.022 A 
BRANCH  63  66
ATOM     66  S   UNL A   1      49.621  27.715  30.396  1.00  0.00     0.127 S 
ATOM     67  O   UNL A   1      50.777  27.279  29.614  1.00  0.00    -0.237 OA
ATOM     68  O   UNL A   1      49.876  28.855  31.277  1.00  0.00    -0.237 OA
ATOM     69  O   UNL A   1      48.836  26.647  30.999  1.00  0.00    -0.744 OA
ENDBRANCH  63  66
ENDBRANCH  45  59
BRANCH  46  70
ATOM     70  C   UNL A   1      37.127  32.147  30.418  1.00  0.00     0.023 A 
ATOM     71  C   UNL A   1      36.642  31.915  31.720  1.00  0.00     0.012 A 
ATOM     72  C   UNL A   1      36.290  32.772  29.474  1.00  0.00     0.148 A 
ATOM     73  C   UNL A   1      35.337  32.268  32.067  1.00  0.00     0.002 A 
ATOM     74  C   UNL A   1      35.011  33.173  29.842  1.00  0.00     0.091 A 
ATOM     75  F   UNL A   1      36.770  32.979  28.240  1.00  0.00    -0.205 F 
ATOM     76  C   UNL A   1      34.525  32.906  31.132  1.00  0.00     0.022 A 
BRANCH  74  77
ATOM     77  S   UNL A   1      33.940  34.112  28.749  1.00  0.00     0.127 S 
ATOM     78  O   UNL A   1      34.838  35.165  28.282  1.00  0.00    -0.237 OA
ATOM     79  O   UNL A   1      33.587  33.111  27.743  1.00  0.00    -0.237 OA
ATOM     80  O   UNL A   1      32.824  34.557  29.573  1.00  0.00    -0.744 OA
ENDBRANCH  74  77
ENDBRANCH  46  70
BRANCH  58  81
ATOM     81  C   UNL A   1      43.255  35.488  30.668  1.00  0.00     0.023 A 
ATOM     82  C   UNL A   1      43.669  35.768  31.984  1.00  0.00     0.012 A 
ATOM     83  C   UNL A   1      43.278  36.515  29.702  1.00  0.00     0.148 A 
ATOM     84  C   UNL A   1      44.065  37.058  32.342  1.00  0.00     0.002 A 
ATOM     85  C   UNL A   1      43.725  37.783  30.052  1.00  0.00     0.091 A 
ATOM     86  F   UNL A   1      42.862  36.233  28.459  1.00  0.00    -0.205 F 
ATOM     87  C   UNL A   1      44.105  38.060  31.375  1.00  0.00     0.022 A 
BRANCH  85  88
ATOM     88  S   UNL A   1      43.907  39.106  28.851  1.00  0.00     0.127 S 
ATOM     89  O   UNL A   1      44.702  38.456  27.811  1.00  0.00    -0.237 OA
ATOM     90  O   UNL A   1      42.519  39.377  28.478  1.00  0.00    -0.237 OA
ATOM     91  O   UNL A   1      44.570  40.197  29.552  1.00  0.00    -0.744 OA
ENDBRANCH  85  88
ENDBRANCH  58  81
ENDBRANCH  32  33
ENDBRANCH  24  27
ENDBRANCH  22  23
ENDBRANCH   1  22
TORSDOF 15
ENDMDL
