MODEL 1
REMARK VINA RESULT:     -12.4      0.000      0.000
REMARK SMILES CC1=C2C(=O)N(C[C@H]3CCCO3)C(=O)N=C2S[C@@H]1C(=O)NCCCNC(=O)c1ccc(-c2c3nc(c(-c4cccc(S(=O)(=O)[O-])c4F)c4ccc([nH]4)c(-c4cccc(S(=O)(=O)[O-])c4F)c4nc(c(-c5cccc(S(=O)(=O)[O-])c5F)c5ccc2[nH]5)C=C4)C=C3)cc1
REMARK SMILES IDX 23 1 22 2 21 3 19 4 20 5 18 7 1 8 2 9 3 10 4 11 16 12 17 13
REMARK SMILES IDX 5 14 6 15 15 16 13 17 14 18 7 19 8 20 9 21 12 22 10 23 11 24
REMARK SMILES IDX 24 25 25 26 26 27 27 29 28 30 29 31 90 32 30 33 89 34 31 35
REMARK SMILES IDX 32 36 33 37 83 38 34 39 88 40 82 41 84 42 35 43 87 44 81 45
REMARK SMILES IDX 80 46 36 48 68 49 48 50 67 51 49 52 52 53 66 54 85 55 50 56
REMARK SMILES IDX 51 57 65 59 86 60 53 61 37 62 38 63 46 64 39 65 41 66 47 67
REMARK SMILES IDX 40 68 42 69 43 70 44 71 45 72 69 73 70 74 78 75 71 76 73 77
REMARK SMILES IDX 79 78 72 79 74 80 75 81 76 82 77 83 54 84 55 85 63 86 56 87
REMARK SMILES IDX 58 88 64 89 57 90 59 91 60 92 61 93 62 94
REMARK H PARENT 21 6 25 28 84 47 52 58
REMARK Flexibility Score: inf
ROOT
ATOM      1  C   UNL A   1      31.400  32.331  26.594  1.00  0.00     0.042 C 
ENDROOT
BRANCH   1   2
ATOM      2  C   UNL A   1      31.442  30.828  26.368  1.00  0.00     0.117 C 
BRANCH   2   3
ATOM      3  N   UNL A   1      31.093  30.458  25.007  1.00  0.00    -0.355 N 
ATOM      4  C   UNL A   1      31.369  29.340  24.276  1.00  0.00     0.237 C 
ATOM      5  O   UNL A   1      30.892  29.284  23.137  1.00  0.00    -0.273 OA
ATOM      6  H   UNL A   1      30.564  31.135  24.527  1.00  0.00     0.163 HD
BRANCH   4   7
ATOM      7  C   UNL A   1      32.170  28.151  24.829  1.00  0.00     0.169 C 
ATOM      8  C   UNL A   1      34.052  28.269  23.072  1.00  0.00     0.042 C 
ATOM      9  C   UNL A   1      33.038  27.455  23.815  1.00  0.00    -0.035 C 
ATOM     10  C   UNL A   1      32.815  26.139  23.682  1.00  0.00     0.073 C 
ATOM     11  C   UNL A   1      33.407  25.169  22.768  1.00  0.00     0.264 C 
ATOM     12  C   UNL A   1      31.830  25.608  24.608  1.00  0.00     0.116 C 
ATOM     13  S   UNL A   1      31.068  26.873  25.520  1.00  0.00    -0.087 SA
ATOM     14  O   UNL A   1      33.787  25.499  21.653  1.00  0.00    -0.268 OA
ATOM     15  N   UNL A   1      33.389  23.896  23.279  1.00  0.00    -0.256 N 
ATOM     16  N   UNL A   1      31.557  24.369  24.754  1.00  0.00    -0.186 NA
ATOM     17  C   UNL A   1      32.325  23.445  24.076  1.00  0.00     0.351 C 
ATOM     18  O   UNL A   1      32.100  22.248  24.198  1.00  0.00    -0.246 OA
BRANCH  15  19
ATOM     19  C   UNL A   1      34.509  22.983  23.059  1.00  0.00     0.163 C 
BRANCH  19  20
ATOM     20  C   UNL A   1      35.859  23.183  23.778  1.00  0.00     0.138 C 
ATOM     21  C   UNL A   1      35.867  23.978  25.079  1.00  0.00     0.036 C 
ATOM     22  O   UNL A   1      36.275  21.859  24.223  1.00  0.00    -0.376 OA
ATOM     23  C   UNL A   1      35.343  23.000  26.093  1.00  0.00     0.031 C 
ATOM     24  C   UNL A   1      35.928  21.694  25.610  1.00  0.00     0.160 C 
ENDBRANCH  19  20
ENDBRANCH  15  19
ENDBRANCH   4   7
ENDBRANCH   2   3
ENDBRANCH   1   2
BRANCH   1  25
ATOM     25  C   UNL A   1      32.689  32.882  27.184  1.00  0.00     0.118 C 
BRANCH  25  26
ATOM     26  N   UNL A   1      32.514  34.217  27.744  1.00  0.00    -0.352 N 
ATOM     27  C   UNL A   1      33.151  34.809  28.807  1.00  0.00     0.251 C 
ATOM     28  H   UNL A   1      31.842  34.777  27.294  1.00  0.00     0.163 HD
ATOM     29  O   UNL A   1      32.730  35.874  29.250  1.00  0.00    -0.269 OA
BRANCH  27  30
ATOM     30  C   UNL A   1      34.329  34.160  29.418  1.00  0.00     0.039 A 
ATOM     31  C   UNL A   1      35.606  34.499  28.962  1.00  0.00     0.014 A 
ATOM     32  C   UNL A   1      34.172  33.214  30.434  1.00  0.00     0.014 A 
ATOM     33  C   UNL A   1      36.730  33.932  29.568  1.00  0.00     0.010 A 
ATOM     34  C   UNL A   1      35.291  32.714  31.088  1.00  0.00     0.010 A 
ATOM     35  C   UNL A   1      36.580  33.059  30.656  1.00  0.00    -0.014 A 
BRANCH  35  36
ATOM     36  C   UNL A   1      37.747  32.478  31.363  1.00  0.00     0.031 A 
ATOM     37  C   UNL A   1      38.499  31.332  30.744  1.00  0.00     0.074 A 
ATOM     38  C   UNL A   1      38.050  32.898  32.607  1.00  0.00     0.049 A 
ATOM     39  N   UNL A   1      39.452  30.598  31.255  1.00  0.00    -0.248 NA
ATOM     40  C   UNL A   1      38.100  30.933  29.382  1.00  0.00     0.031 C 
ATOM     41  C   UNL A   1      37.342  33.947  33.345  1.00  0.00     0.029 A 
ATOM     42  N   UNL A   1      39.011  32.466  33.486  1.00  0.00    -0.354 N 
ATOM     43  C   UNL A   1      39.731  29.624  30.304  1.00  0.00     0.074 A 
ATOM     44  C   UNL A   1      38.830  29.844  29.194  1.00  0.00     0.031 C 
ATOM     45  C   UNL A   1      37.890  34.073  34.564  1.00  0.00     0.029 A 
ATOM     46  C   UNL A   1      38.968  33.099  34.705  1.00  0.00     0.049 A 
ATOM     47  H   UNL A   1      39.670  31.768  33.265  1.00  0.00     0.167 HD
ATOM     48  C   UNL A   1      40.673  28.652  30.338  1.00  0.00     0.034 A 
ATOM     49  C   UNL A   1      39.710  32.913  35.814  1.00  0.00     0.034 A 
ATOM     50  C   UNL A   1      41.615  28.487  31.411  1.00  0.00     0.049 A 
ATOM     51  C   UNL A   1      40.805  31.881  35.794  1.00  0.00     0.074 A 
ATOM     52  C   UNL A   1      42.669  27.595  31.498  1.00  0.00     0.029 A 
ATOM     53  N   UNL A   1      41.623  29.236  32.576  1.00  0.00    -0.354 N 
ATOM     54  N   UNL A   1      41.152  31.068  34.825  1.00  0.00    -0.248 NA
ATOM     55  C   UNL A   1      41.635  31.766  37.001  1.00  0.00     0.031 C 
ATOM     56  C   UNL A   1      43.318  27.808  32.720  1.00  0.00     0.029 A 
ATOM     57  C   UNL A   1      42.669  28.835  33.388  1.00  0.00     0.049 A 
ATOM     58  H   UNL A   1      40.980  29.948  32.794  1.00  0.00     0.167 HD
ATOM     59  C   UNL A   1      42.260  30.371  35.291  1.00  0.00     0.074 A 
ATOM     60  C   UNL A   1      42.537  30.869  36.623  1.00  0.00     0.031 C 
ATOM     61  C   UNL A   1      42.973  29.393  34.680  1.00  0.00     0.034 A 
BRANCH  48  62
ATOM     62  C   UNL A   1      40.779  27.742  29.145  1.00  0.00     0.023 A 
ATOM     63  C   UNL A   1      39.951  26.604  29.070  1.00  0.00     0.012 A 
ATOM     64  C   UNL A   1      41.653  28.033  28.079  1.00  0.00     0.148 A 
ATOM     65  C   UNL A   1      40.011  25.752  27.968  1.00  0.00     0.002 A 
ATOM     66  C   UNL A   1      41.678  27.200  26.966  1.00  0.00     0.091 A 
ATOM     67  F   UNL A   1      42.453  29.104  28.179  1.00  0.00    -0.205 F 
ATOM     68  C   UNL A   1      40.866  26.056  26.913  1.00  0.00     0.022 A 
BRANCH  66  69
ATOM     69  S   UNL A   1      42.696  27.550  25.526  1.00  0.00     0.127 S 
ATOM     70  O   UNL A   1      42.117  28.805  25.052  1.00  0.00    -0.237 OA
ATOM     71  O   UNL A   1      44.032  27.678  26.112  1.00  0.00    -0.237 OA
ATOM     72  O   UNL A   1      42.535  26.405  24.640  1.00  0.00    -0.744 OA
ENDBRANCH  66  69
ENDBRANCH  48  62
BRANCH  49  73
ATOM     73  C   UNL A   1      39.499  33.786  37.003  1.00  0.00     0.023 A 
ATOM     74  C   UNL A   1      39.918  35.129  36.946  1.00  0.00     0.012 A 
ATOM     75  C   UNL A   1      38.853  33.315  38.161  1.00  0.00     0.148 A 
ATOM     76  C   UNL A   1      39.721  35.982  38.032  1.00  0.00     0.002 A 
ATOM     77  C   UNL A   1      38.617  34.184  39.221  1.00  0.00     0.091 A 
ATOM     78  F   UNL A   1      38.476  32.029  38.203  1.00  0.00    -0.205 F 
ATOM     79  C   UNL A   1      39.061  35.513  39.164  1.00  0.00     0.022 A 
BRANCH  77  80
ATOM     80  S   UNL A   1      37.664  33.692  40.663  1.00  0.00     0.127 S 
ATOM     81  O   UNL A   1      36.460  33.136  40.052  1.00  0.00    -0.237 OA
ATOM     82  O   UNL A   1      38.545  32.708  41.294  1.00  0.00    -0.237 OA
ATOM     83  O   UNL A   1      37.482  34.913  41.438  1.00  0.00    -0.744 OA
ENDBRANCH  77  80
ENDBRANCH  49  73
BRANCH  61  84
ATOM     84  C   UNL A   1      44.148  28.818  35.420  1.00  0.00     0.023 A 
ATOM     85  C   UNL A   1      45.426  29.382  35.239  1.00  0.00     0.012 A 
ATOM     86  C   UNL A   1      43.971  27.786  36.362  1.00  0.00     0.148 A 
ATOM     87  C   UNL A   1      46.516  28.913  35.972  1.00  0.00     0.002 A 
ATOM     88  C   UNL A   1      45.053  27.352  37.118  1.00  0.00     0.091 A 
ATOM     89  F   UNL A   1      42.750  27.249  36.503  1.00  0.00    -0.205 F 
ATOM     90  C   UNL A   1      46.327  27.908  36.919  1.00  0.00     0.022 A 
BRANCH  88  91
ATOM     91  S   UNL A   1      44.878  26.126  38.421  1.00  0.00     0.127 S 
ATOM     92  O   UNL A   1      43.995  26.813  39.361  1.00  0.00    -0.237 OA
ATOM     93  O   UNL A   1      44.260  25.003  37.715  1.00  0.00    -0.237 OA
ATOM     94  O   UNL A   1      46.228  25.863  38.901  1.00  0.00    -0.744 OA
ENDBRANCH  88  91
ENDBRANCH  61  84
ENDBRANCH  35  36
ENDBRANCH  27  30
ENDBRANCH  25  26
ENDBRANCH   1  25
TORSDOF 15
ENDMDL
MODEL 2
REMARK VINA RESULT:     -12.4      5.705      8.881
REMARK SMILES CC1=C2C(=O)N(C[C@H]3CCCO3)C(=O)N=C2S[C@@H]1C(=O)NCCCNC(=O)c1ccc(-c2c3nc(c(-c4cccc(S(=O)(=O)[O-])c4F)c4ccc([nH]4)c(-c4cccc(S(=O)(=O)[O-])c4F)c4nc(c(-c5cccc(S(=O)(=O)[O-])c5F)c5ccc2[nH]5)C=C4)C=C3)cc1
REMARK SMILES IDX 23 1 22 2 21 3 19 4 20 5 18 7 1 8 2 9 3 10 4 11 16 12 17 13
REMARK SMILES IDX 5 14 6 15 15 16 13 17 14 18 7 19 8 20 9 21 12 22 10 23 11 24
REMARK SMILES IDX 24 25 25 26 26 27 27 29 28 30 29 31 90 32 30 33 89 34 31 35
REMARK SMILES IDX 32 36 33 37 83 38 34 39 88 40 82 41 84 42 35 43 87 44 81 45
REMARK SMILES IDX 80 46 36 48 68 49 48 50 67 51 49 52 52 53 66 54 85 55 50 56
REMARK SMILES IDX 51 57 65 59 86 60 53 61 37 62 38 63 46 64 39 65 41 66 47 67
REMARK SMILES IDX 40 68 42 69 43 70 44 71 45 72 69 73 70 74 78 75 71 76 73 77
REMARK SMILES IDX 79 78 72 79 74 80 75 81 76 82 77 83 54 84 55 85 63 86 56 87
REMARK SMILES IDX 58 88 64 89 57 90 59 91 60 92 61 93 62 94
REMARK H PARENT 21 6 25 28 84 47 52 58
REMARK Flexibility Score: inf
ROOT
ATOM      1  C   UNL A   1      36.006  21.521  24.613  1.00  0.00     0.042 C 
ENDROOT
BRANCH   1   2
ATOM      2  C   UNL A   1      35.236  21.177  25.877  1.00  0.00     0.117 C 
BRANCH   2   3
ATOM      3  N   UNL A   1      34.166  20.223  25.637  1.00  0.00    -0.355 N 
ATOM      4  C   UNL A   1      32.842  20.400  25.364  1.00  0.00     0.237 C 
ATOM      5  O   UNL A   1      32.171  19.382  25.158  1.00  0.00    -0.273 OA
ATOM      6  H   UNL A   1      34.448  19.281  25.680  1.00  0.00     0.163 HD
BRANCH   4   7
ATOM      7  C   UNL A   1      32.187  21.784  25.240  1.00  0.00     0.169 C 
ATOM      8  C   UNL A   1      32.462  21.970  22.684  1.00  0.00     0.042 C 
ATOM      9  C   UNL A   1      32.630  22.580  24.041  1.00  0.00    -0.035 C 
ATOM     10  C   UNL A   1      33.134  23.793  24.318  1.00  0.00     0.073 C 
ATOM     11  C   UNL A   1      33.713  24.797  23.434  1.00  0.00     0.264 C 
ATOM     12  C   UNL A   1      33.082  24.150  25.724  1.00  0.00     0.116 C 
ATOM     13  S   UNL A   1      32.542  22.819  26.699  1.00  0.00    -0.087 SA
ATOM     14  O   UNL A   1      34.306  24.477  22.413  1.00  0.00    -0.268 OA
ATOM     15  N   UNL A   1      33.583  26.067  23.935  1.00  0.00    -0.256 N 
ATOM     16  N   UNL A   1      33.380  25.298  26.198  1.00  0.00    -0.186 NA
ATOM     17  C   UNL A   1      33.661  26.318  25.314  1.00  0.00     0.351 C 
ATOM     18  O   UNL A   1      33.942  27.435  25.731  1.00  0.00    -0.246 OA
BRANCH  15  19
ATOM     19  C   UNL A   1      33.297  27.197  23.053  1.00  0.00     0.163 C 
BRANCH  19  20
ATOM     20  C   UNL A   1      31.894  27.404  22.445  1.00  0.00     0.138 C 
ATOM     21  C   UNL A   1      30.708  26.742  23.137  1.00  0.00     0.036 C 
ATOM     22  O   UNL A   1      31.594  28.821  22.605  1.00  0.00    -0.376 OA
ATOM     23  C   UNL A   1      30.449  27.632  24.321  1.00  0.00     0.031 C 
ATOM     24  C   UNL A   1      30.763  29.001  23.766  1.00  0.00     0.160 C 
ENDBRANCH  19  20
ENDBRANCH  15  19
ENDBRANCH   4   7
ENDBRANCH   2   3
ENDBRANCH   1   2
BRANCH   1  25
ATOM     25  C   UNL A   1      37.427  21.987  24.889  1.00  0.00     0.118 C 
BRANCH  25  26
ATOM     26  N   UNL A   1      38.218  20.972  25.576  1.00  0.00    -0.352 N 
ATOM     27  C   UNL A   1      39.357  21.113  26.329  1.00  0.00     0.251 C 
ATOM     28  H   UNL A   1      37.885  20.050  25.487  1.00  0.00     0.163 HD
ATOM     29  O   UNL A   1      39.988  20.116  26.668  1.00  0.00    -0.269 OA
BRANCH  27  30
ATOM     30  C   UNL A   1      39.822  22.459  26.721  1.00  0.00     0.039 A 
ATOM     31  C   UNL A   1      40.814  22.579  27.699  1.00  0.00     0.014 A 
ATOM     32  C   UNL A   1      39.275  23.601  26.129  1.00  0.00     0.014 A 
ATOM     33  C   UNL A   1      41.300  23.844  28.039  1.00  0.00     0.010 A 
ATOM     34  C   UNL A   1      39.816  24.849  26.410  1.00  0.00     0.010 A 
ATOM     35  C   UNL A   1      40.825  24.985  27.373  1.00  0.00    -0.014 A 
BRANCH  35  36
ATOM     36  C   UNL A   1      41.353  26.340  27.665  1.00  0.00     0.031 A 
ATOM     37  C   UNL A   1      42.772  26.682  27.300  1.00  0.00     0.074 A 
ATOM     38  C   UNL A   1      40.602  27.212  28.365  1.00  0.00     0.049 A 
ATOM     39  N   UNL A   1      43.464  27.753  27.589  1.00  0.00    -0.248 NA
ATOM     40  C   UNL A   1      43.525  25.670  26.538  1.00  0.00     0.031 C 
ATOM     41  C   UNL A   1      39.241  26.964  28.847  1.00  0.00     0.029 A 
ATOM     42  N   UNL A   1      40.892  28.472  28.826  1.00  0.00    -0.354 N 
ATOM     43  C   UNL A   1      44.741  27.523  27.093  1.00  0.00     0.074 A 
ATOM     44  C   UNL A   1      44.738  26.202  26.506  1.00  0.00     0.031 C 
ATOM     45  C   UNL A   1      38.817  28.034  29.538  1.00  0.00     0.029 A 
ATOM     46  C   UNL A   1      39.882  29.031  29.572  1.00  0.00     0.049 A 
ATOM     47  H   UNL A   1      41.742  28.931  28.641  1.00  0.00     0.167 HD
ATOM     48  C   UNL A   1      45.813  28.350  27.100  1.00  0.00     0.034 A 
ATOM     49  C   UNL A   1      39.822  30.214  30.215  1.00  0.00     0.034 A 
ATOM     50  C   UNL A   1      45.788  29.691  27.618  1.00  0.00     0.049 A 
ATOM     51  C   UNL A   1      41.000  31.148  30.135  1.00  0.00     0.074 A 
ATOM     52  C   UNL A   1      46.791  30.643  27.586  1.00  0.00     0.029 A 
ATOM     53  N   UNL A   1      44.701  30.272  28.252  1.00  0.00    -0.354 N 
ATOM     54  N   UNL A   1      42.150  30.972  29.531  1.00  0.00    -0.248 NA
ATOM     55  C   UNL A   1      40.859  32.456  30.790  1.00  0.00     0.031 C 
ATOM     56  C   UNL A   1      46.308  31.804  28.200  1.00  0.00     0.029 A 
ATOM     57  C   UNL A   1      45.003  31.573  28.609  1.00  0.00     0.049 A 
ATOM     58  H   UNL A   1      43.841  29.824  28.422  1.00  0.00     0.167 HD
ATOM     59  C   UNL A   1      42.855  32.157  29.702  1.00  0.00     0.074 A 
ATOM     60  C   UNL A   1      41.996  33.050  30.452  1.00  0.00     0.031 C 
ATOM     61  C   UNL A   1      44.109  32.471  29.291  1.00  0.00     0.034 A 
BRANCH  48  62
ATOM     62  C   UNL A   1      47.081  27.854  26.459  1.00  0.00     0.023 A 
ATOM     63  C   UNL A   1      48.068  27.248  27.262  1.00  0.00     0.012 A 
ATOM     64  C   UNL A   1      47.276  27.936  25.066  1.00  0.00     0.148 A 
ATOM     65  C   UNL A   1      49.244  26.760  26.696  1.00  0.00     0.002 A 
ATOM     66  C   UNL A   1      48.435  27.411  24.504  1.00  0.00     0.091 A 
ATOM     67  F   UNL A   1      46.339  28.539  24.321  1.00  0.00    -0.205 F 
ATOM     68  C   UNL A   1      49.422  26.831  25.317  1.00  0.00     0.022 A 
BRANCH  66  69
ATOM     69  S   UNL A   1      48.720  27.394  22.730  1.00  0.00     0.127 S 
ATOM     70  O   UNL A   1      50.142  27.721  22.656  1.00  0.00    -0.237 OA
ATOM     71  O   UNL A   1      48.395  26.012  22.375  1.00  0.00    -0.237 OA
ATOM     72  O   UNL A   1      47.813  28.388  22.173  1.00  0.00    -0.744 OA
ENDBRANCH  66  69
ENDBRANCH  48  62
BRANCH  49  73
ATOM     73  C   UNL A   1      38.569  30.616  30.913  1.00  0.00     0.023 A 
ATOM     74  C   UNL A   1      38.426  30.320  32.283  1.00  0.00     0.012 A 
ATOM     75  C   UNL A   1      37.548  31.322  30.252  1.00  0.00     0.148 A 
ATOM     76  C   UNL A   1      37.275  30.697  32.975  1.00  0.00     0.002 A 
ATOM     77  C   UNL A   1      36.425  31.737  30.960  1.00  0.00     0.091 A 
ATOM     78  F   UNL A   1      37.694  31.580  28.945  1.00  0.00    -0.205 F 
ATOM     79  C   UNL A   1      36.280  31.414  32.318  1.00  0.00     0.022 A 
BRANCH  77  80
ATOM     80  S   UNL A   1      35.157  32.771  30.217  1.00  0.00     0.127 S 
ATOM     81  O   UNL A   1      35.930  33.935  29.795  1.00  0.00    -0.237 OA
ATOM     82  O   UNL A   1      34.669  31.927  29.126  1.00  0.00    -0.237 OA
ATOM     83  O   UNL A   1      34.181  33.001  31.274  1.00  0.00    -0.744 OA
ENDBRANCH  77  80
ENDBRANCH  49  73
BRANCH  61  84
ATOM     84  C   UNL A   1      44.622  33.849  29.605  1.00  0.00     0.023 A 
ATOM     85  C   UNL A   1      45.337  34.068  30.800  1.00  0.00     0.012 A 
ATOM     86  C   UNL A   1      44.480  34.900  28.678  1.00  0.00     0.148 A 
ATOM     87  C   UNL A   1      45.886  35.319  31.075  1.00  0.00     0.002 A 
ATOM     88  C   UNL A   1      45.065  36.132  28.940  1.00  0.00     0.091 A 
ATOM     89  F   UNL A   1      43.777  34.675  27.558  1.00  0.00    -0.205 F 
ATOM     90  C   UNL A   1      45.761  36.346  30.141  1.00  0.00     0.022 A 
BRANCH  88  91
ATOM     91  S   UNL A   1      45.028  37.479  27.751  1.00  0.00     0.127 S 
ATOM     92  O   UNL A   1      45.741  38.532  28.470  1.00  0.00    -0.237 OA
ATOM     93  O   UNL A   1      45.758  36.916  26.615  1.00  0.00    -0.237 OA
ATOM     94  O   UNL A   1      43.618  37.737  27.489  1.00  0.00    -0.744 OA
ENDBRANCH  88  91
ENDBRANCH  61  84
ENDBRANCH  35  36
ENDBRANCH  27  30
ENDBRANCH  25  26
ENDBRANCH   1  25
TORSDOF 15
ENDMDL
MODEL 3
REMARK VINA RESULT:     -12.2      1.911      2.523
REMARK SMILES CC1=C2C(=O)N(C[C@H]3CCCO3)C(=O)N=C2S[C@@H]1C(=O)NCCCNC(=O)c1ccc(-c2c3nc(c(-c4cccc(S(=O)(=O)[O-])c4F)c4ccc([nH]4)c(-c4cccc(S(=O)(=O)[O-])c4F)c4nc(c(-c5cccc(S(=O)(=O)[O-])c5F)c5ccc2[nH]5)C=C4)C=C3)cc1
REMARK SMILES IDX 23 1 22 2 21 3 19 4 20 5 18 7 1 8 2 9 3 10 4 11 16 12 17 13
REMARK SMILES IDX 5 14 6 15 15 16 13 17 14 18 7 19 8 20 9 21 12 22 10 23 11 24
REMARK SMILES IDX 24 25 25 26 26 27 27 29 28 30 29 31 90 32 30 33 89 34 31 35
REMARK SMILES IDX 32 36 33 37 83 38 34 39 88 40 82 41 84 42 35 43 87 44 81 45
REMARK SMILES IDX 80 46 36 48 68 49 48 50 67 51 49 52 52 53 66 54 85 55 50 56
REMARK SMILES IDX 51 57 65 59 86 60 53 61 37 62 38 63 46 64 39 65 41 66 47 67
REMARK SMILES IDX 40 68 42 69 43 70 44 71 45 72 69 73 70 74 78 75 71 76 73 77
REMARK SMILES IDX 79 78 72 79 74 80 75 81 76 82 77 83 54 84 55 85 63 86 56 87
REMARK SMILES IDX 58 88 64 89 57 90 59 91 60 92 61 93 62 94
REMARK H PARENT 21 6 25 28 84 47 52 58
REMARK Flexibility Score: inf
ROOT
ATOM      1  C   UNL A   1      31.081  31.060  25.942  1.00  0.00     0.042 C 
ENDROOT
BRANCH   1   2
ATOM      2  C   UNL A   1      31.378  29.945  24.952  1.00  0.00     0.117 C 
BRANCH   2   3
ATOM      3  N   UNL A   1      30.630  30.084  23.714  1.00  0.00    -0.355 N 
ATOM      4  C   UNL A   1      30.423  29.217  22.682  1.00  0.00     0.237 C 
ATOM      5  O   UNL A   1      29.690  29.603  21.764  1.00  0.00    -0.273 OA
ATOM      6  H   UNL A   1      30.197  30.960  23.600  1.00  0.00     0.163 HD
BRANCH   4   7
ATOM      7  C   UNL A   1      30.995  27.791  22.654  1.00  0.00     0.169 C 
ATOM      8  C   UNL A   1      29.013  26.693  23.882  1.00  0.00     0.042 C 
ATOM      9  C   UNL A   1      30.491  26.893  23.752  1.00  0.00    -0.035 C 
ATOM     10  C   UNL A   1      31.445  26.339  24.516  1.00  0.00     0.073 C 
ATOM     11  C   UNL A   1      31.333  25.484  25.692  1.00  0.00     0.264 C 
ATOM     12  C   UNL A   1      32.799  26.643  24.089  1.00  0.00     0.116 C 
ATOM     13  S   UNL A   1      32.813  27.804  22.798  1.00  0.00    -0.087 SA
ATOM     14  O   UNL A   1      30.384  25.582  26.459  1.00  0.00    -0.268 OA
ATOM     15  N   UNL A   1      32.425  24.670  25.848  1.00  0.00    -0.256 N 
ATOM     16  N   UNL A   1      33.855  26.120  24.581  1.00  0.00    -0.186 NA
ATOM     17  C   UNL A   1      33.715  25.107  25.506  1.00  0.00     0.351 C 
ATOM     18  O   UNL A   1      34.704  24.575  25.992  1.00  0.00    -0.246 OA
BRANCH  15  19
ATOM     19  C   UNL A   1      32.277  23.295  26.322  1.00  0.00     0.163 C 
BRANCH  19  20
ATOM     20  C   UNL A   1      31.615  22.213  25.445  1.00  0.00     0.138 C 
ATOM     21  C   UNL A   1      31.589  22.430  23.936  1.00  0.00     0.036 C 
ATOM     22  O   UNL A   1      32.454  21.028  25.571  1.00  0.00    -0.376 OA
ATOM     23  C   UNL A   1      32.987  22.085  23.506  1.00  0.00     0.031 C 
ATOM     24  C   UNL A   1      33.337  20.949  24.438  1.00  0.00     0.160 C 
ENDBRANCH  19  20
ENDBRANCH  15  19
ENDBRANCH   4   7
ENDBRANCH   2   3
ENDBRANCH   1   2
BRANCH   1  25
ATOM     25  C   UNL A   1      32.319  31.552  26.675  1.00  0.00     0.118 C 
BRANCH  25  26
ATOM     26  N   UNL A   1      32.236  32.968  27.012  1.00  0.00    -0.352 N 
ATOM     27  C   UNL A   1      32.987  33.702  27.896  1.00  0.00     0.251 C 
ATOM     28  H   UNL A   1      31.539  33.473  26.534  1.00  0.00     0.163 HD
ATOM     29  O   UNL A   1      32.640  34.844  28.185  1.00  0.00    -0.269 OA
BRANCH  27  30
ATOM     30  C   UNL A   1      34.200  33.115  28.501  1.00  0.00     0.039 A 
ATOM     31  C   UNL A   1      35.441  33.705  28.248  1.00  0.00     0.014 A 
ATOM     32  C   UNL A   1      34.111  31.980  29.311  1.00  0.00     0.014 A 
ATOM     33  C   UNL A   1      36.588  33.191  28.858  1.00  0.00     0.010 A 
ATOM     34  C   UNL A   1      35.239  31.520  29.979  1.00  0.00     0.010 A 
ATOM     35  C   UNL A   1      36.490  32.113  29.752  1.00  0.00    -0.014 A 
BRANCH  35  36
ATOM     36  C   UNL A   1      37.674  31.572  30.462  1.00  0.00     0.031 A 
ATOM     37  C   UNL A   1      38.525  30.522  29.801  1.00  0.00     0.074 A 
ATOM     38  C   UNL A   1      37.908  31.932  31.739  1.00  0.00     0.049 A 
ATOM     39  N   UNL A   1      39.513  29.826  30.298  1.00  0.00    -0.248 NA
ATOM     40  C   UNL A   1      38.198  30.185  28.404  1.00  0.00     0.031 C 
ATOM     41  C   UNL A   1      37.104  32.880  32.514  1.00  0.00     0.029 A 
ATOM     42  N   UNL A   1      38.871  31.514  32.623  1.00  0.00    -0.354 N 
ATOM     43  C   UNL A   1      39.890  28.936  29.300  1.00  0.00     0.074 A 
ATOM     44  C   UNL A   1      39.009  29.163  28.175  1.00  0.00     0.031 C 
ATOM     45  C   UNL A   1      37.604  32.966  33.758  1.00  0.00     0.029 A 
ATOM     46  C   UNL A   1      38.745  32.064  33.876  1.00  0.00     0.049 A 
ATOM     47  H   UNL A   1      39.584  30.879  32.383  1.00  0.00     0.167 HD
ATOM     48  C   UNL A   1      40.897  28.033  29.308  1.00  0.00     0.034 A 
ATOM     49  C   UNL A   1      39.464  31.860  34.997  1.00  0.00     0.034 A 
ATOM     50  C   UNL A   1      41.816  27.866  30.400  1.00  0.00     0.049 A 
ATOM     51  C   UNL A   1      40.632  30.910  34.952  1.00  0.00     0.074 A 
ATOM     52  C   UNL A   1      42.929  27.047  30.470  1.00  0.00     0.029 A 
ATOM     53  N   UNL A   1      41.735  28.538  31.609  1.00  0.00    -0.354 N 
ATOM     54  N   UNL A   1      41.065  30.187  33.948  1.00  0.00    -0.248 NA
ATOM     55  C   UNL A   1      41.431  30.777  36.178  1.00  0.00     0.031 C 
ATOM     56  C   UNL A   1      43.524  27.227  31.724  1.00  0.00     0.029 A 
ATOM     57  C   UNL A   1      42.782  28.161  32.431  1.00  0.00     0.049 A 
ATOM     58  H   UNL A   1      41.035  29.189  31.847  1.00  0.00     0.167 HD
ATOM     59  C   UNL A   1      42.206  29.541  34.409  1.00  0.00     0.074 A 
ATOM     60  C   UNL A   1      42.406  29.972  35.777  1.00  0.00     0.031 C 
ATOM     61  C   UNL A   1      43.005  28.656  33.764  1.00  0.00     0.034 A 
BRANCH  48  62
ATOM     62  C   UNL A   1      41.106  27.210  28.066  1.00  0.00     0.023 A 
ATOM     63  C   UNL A   1      41.665  27.816  26.923  1.00  0.00     0.012 A 
ATOM     64  C   UNL A   1      40.802  25.834  28.040  1.00  0.00     0.148 A 
ATOM     65  C   UNL A   1      41.890  27.076  25.763  1.00  0.00     0.002 A 
ATOM     66  C   UNL A   1      41.066  25.094  26.893  1.00  0.00     0.091 A 
ATOM     67  F   UNL A   1      40.246  25.280  29.126  1.00  0.00    -0.205 F 
ATOM     68  C   UNL A   1      41.600  25.715  25.752  1.00  0.00     0.022 A 
BRANCH  66  69
ATOM     69  S   UNL A   1      40.792  23.320  26.808  1.00  0.00     0.127 S 
ATOM     70  O   UNL A   1      39.364  23.255  26.504  1.00  0.00    -0.237 OA
ATOM     71  O   UNL A   1      41.669  22.921  25.706  1.00  0.00    -0.237 OA
ATOM     72  O   UNL A   1      41.185  22.796  28.110  1.00  0.00    -0.744 OA
ENDBRANCH  66  69
ENDBRANCH  48  62
BRANCH  49  73
ATOM     73  C   UNL A   1      39.155  32.638  36.229  1.00  0.00     0.023 A 
ATOM     74  C   UNL A   1      39.673  33.941  36.360  1.00  0.00     0.012 A 
ATOM     75  C   UNL A   1      38.324  32.123  37.240  1.00  0.00     0.148 A 
ATOM     76  C   UNL A   1      39.390  34.708  37.490  1.00  0.00     0.002 A 
ATOM     77  C   UNL A   1      38.007  32.911  38.342  1.00  0.00     0.091 A 
ATOM     78  F   UNL A   1      37.854  30.875  37.105  1.00  0.00    -0.205 F 
ATOM     79  C   UNL A   1      38.549  34.198  38.475  1.00  0.00     0.022 A 
BRANCH  77  80
ATOM     80  S   UNL A   1      36.832  32.375  39.592  1.00  0.00     0.127 S 
ATOM     81  O   UNL A   1      37.371  31.073  39.971  1.00  0.00    -0.237 OA
ATOM     82  O   UNL A   1      36.967  33.418  40.609  1.00  0.00    -0.237 OA
ATOM     83  O   UNL A   1      35.538  32.362  38.921  1.00  0.00    -0.744 OA
ENDBRANCH  77  80
ENDBRANCH  49  73
BRANCH  61  84
ATOM     84  C   UNL A   1      44.196  28.118  34.508  1.00  0.00     0.023 A 
ATOM     85  C   UNL A   1      45.410  28.832  34.482  1.00  0.00     0.012 A 
ATOM     86  C   UNL A   1      44.086  26.963  35.306  1.00  0.00     0.148 A 
ATOM     87  C   UNL A   1      46.504  28.392  35.226  1.00  0.00     0.002 A 
ATOM     88  C   UNL A   1      45.167  26.553  36.076  1.00  0.00     0.091 A 
ATOM     89  F   UNL A   1      42.927  26.288  35.298  1.00  0.00    -0.205 F 
ATOM     90  C   UNL A   1      46.378  27.261  36.031  1.00  0.00     0.022 A 
BRANCH  88  91
ATOM     91  S   UNL A   1      45.060  25.162  37.209  1.00  0.00     0.127 S 
ATOM     92  O   UNL A   1      44.846  24.045  36.291  1.00  0.00    -0.237 OA
ATOM     93  O   UNL A   1      46.374  25.178  37.852  1.00  0.00    -0.237 OA
ATOM     94  O   UNL A   1      43.951  25.465  38.104  1.00  0.00    -0.744 OA
ENDBRANCH  88  91
ENDBRANCH  61  84
ENDBRANCH  35  36
ENDBRANCH  27  30
ENDBRANCH  25  26
ENDBRANCH   1  25
TORSDOF 15
ENDMDL
