MODEL 1
REMARK VINA RESULT:     -12.3      0.000      0.000
REMARK SMILES O=C(NCCCNC(=O)[C@H]1C[NH2+]C[C@H]1c1ccc(C2CC2)cc1)c1ccc(-c2c3nc(c(-c4cccc(S(=O)(=O)[O-])c4F)c4ccc([nH]4)c(-c4cccc(S(=O)(=O)[O-])c4F)c4nc(c(-c5cccc(S(=O)(=O)[O-])c5F)c5ccc2[nH]5)C=C4)C=C3)cc1
REMARK SMILES IDX 4 1 3 2 1 3 2 4 24 6 25 7 86 8 26 9 85 10 27 11 28 12 29 13
REMARK SMILES IDX 79 14 30 15 84 16 78 17 80 18 31 19 83 20 77 21 76 22 32 24
REMARK SMILES IDX 64 25 44 26 63 27 45 28 48 29 62 30 81 31 46 32 47 33 61 35
REMARK SMILES IDX 82 36 49 37 33 38 34 39 42 40 35 41 37 42 43 43 36 44 38 45
REMARK SMILES IDX 39 46 40 47 41 48 65 49 66 50 74 51 67 52 69 53 75 54 68 55
REMARK SMILES IDX 70 56 71 57 72 58 73 59 50 60 51 61 59 62 52 63 54 64 60 65
REMARK SMILES IDX 53 66 55 67 56 68 57 69 58 70 5 71 6 72 7 73 8 74 9 76 10 77
REMARK SMILES IDX 11 78 14 79 12 80 13 81 15 84 16 85 23 86 17 87 22 88 18 89
REMARK SMILES IDX 19 90 20 91 21 92
REMARK H PARENT 3 5 80 23 48 34 7 75 12 82 12 83
REMARK Flexibility Score: inf
ROOT
ATOM      1  C   UNL A   1      32.574  30.000  25.671  1.00  0.00     0.118 C 
ENDROOT
BRANCH   1   2
ATOM      2  N   UNL A   1      32.244  31.353  26.095  1.00  0.00    -0.352 N 
ATOM      3  O   UNL A   1      32.230  33.178  27.405  1.00  0.00    -0.269 OA
ATOM      4  C   UNL A   1      32.808  32.149  27.070  1.00  0.00     0.251 C 
ATOM      5  H   UNL A   1      31.496  31.767  25.607  1.00  0.00     0.163 HD
BRANCH   4   6
ATOM      6  C   UNL A   1      34.082  31.763  27.726  1.00  0.00     0.039 A 
ATOM      7  C   UNL A   1      34.302  30.452  28.135  1.00  0.00     0.014 A 
ATOM      8  C   UNL A   1      35.096  32.712  27.901  1.00  0.00     0.014 A 
ATOM      9  C   UNL A   1      35.433  30.141  28.881  1.00  0.00     0.010 A 
ATOM     10  C   UNL A   1      36.291  32.360  28.552  1.00  0.00     0.010 A 
ATOM     11  C   UNL A   1      36.459  31.078  29.093  1.00  0.00    -0.014 A 
BRANCH  11  12
ATOM     12  C   UNL A   1      37.694  30.643  29.819  1.00  0.00     0.031 A 
ATOM     13  C   UNL A   1      37.998  31.078  31.235  1.00  0.00     0.074 A 
ATOM     14  C   UNL A   1      38.543  29.794  29.200  1.00  0.00     0.049 A 
ATOM     15  N   UNL A   1      39.016  30.750  31.993  1.00  0.00    -0.248 NA
ATOM     16  C   UNL A   1      37.055  32.004  31.881  1.00  0.00     0.031 C 
ATOM     17  C   UNL A   1      38.410  29.333  27.815  1.00  0.00     0.029 A 
ATOM     18  N   UNL A   1      39.671  29.150  29.650  1.00  0.00    -0.354 N 
ATOM     19  C   UNL A   1      38.863  31.458  33.182  1.00  0.00     0.074 A 
ATOM     20  C   UNL A   1      37.655  32.244  33.041  1.00  0.00     0.031 C 
ATOM     21  C   UNL A   1      39.368  28.437  27.549  1.00  0.00     0.029 A 
ATOM     22  C   UNL A   1      40.248  28.331  28.706  1.00  0.00     0.049 A 
ATOM     23  H   UNL A   1      40.031  29.265  30.558  1.00  0.00     0.167 HD
ATOM     24  C   UNL A   1      39.641  31.445  34.293  1.00  0.00     0.034 A 
ATOM     25  C   UNL A   1      41.378  27.599  28.737  1.00  0.00     0.034 A 
ATOM     26  C   UNL A   1      40.827  30.637  34.450  1.00  0.00     0.049 A 
ATOM     27  C   UNL A   1      42.206  27.588  29.988  1.00  0.00     0.074 A 
ATOM     28  C   UNL A   1      41.656  30.535  35.556  1.00  0.00     0.029 A 
ATOM     29  N   UNL A   1      41.356  29.798  33.482  1.00  0.00    -0.354 N 
ATOM     30  N   UNL A   1      41.986  28.196  31.126  1.00  0.00    -0.248 NA
ATOM     31  C   UNL A   1      43.426  26.770  29.965  1.00  0.00     0.031 C 
ATOM     32  C   UNL A   1      42.698  29.654  35.247  1.00  0.00     0.029 A 
ATOM     33  C   UNL A   1      42.499  29.177  33.962  1.00  0.00     0.049 A 
ATOM     34  H   UNL A   1      40.976  29.664  32.584  1.00  0.00     0.167 HD
ATOM     35  C   UNL A   1      43.032  27.824  31.961  1.00  0.00     0.074 A 
ATOM     36  C   UNL A   1      43.859  26.902  31.210  1.00  0.00     0.031 C 
ATOM     37  C   UNL A   1      43.296  28.231  33.226  1.00  0.00     0.034 A 
BRANCH  24  38
ATOM     38  C   UNL A   1      39.223  32.302  35.465  1.00  0.00     0.023 A 
ATOM     39  C   UNL A   1      38.400  31.754  36.470  1.00  0.00     0.012 A 
ATOM     40  C   UNL A   1      39.719  33.613  35.622  1.00  0.00     0.148 A 
ATOM     41  C   UNL A   1      38.056  32.502  37.596  1.00  0.00     0.002 A 
ATOM     42  C   UNL A   1      39.408  34.337  36.768  1.00  0.00     0.091 A 
ATOM     43  F   UNL A   1      40.493  34.124  34.654  1.00  0.00    -0.205 F 
ATOM     44  C   UNL A   1      38.567  33.788  37.750  1.00  0.00     0.022 A 
BRANCH  42  45
ATOM     45  S   UNL A   1      40.081  35.969  37.106  1.00  0.00     0.127 S 
ATOM     46  O   UNL A   1      41.509  35.678  37.231  1.00  0.00    -0.237 OA
ATOM     47  O   UNL A   1      39.714  36.710  35.899  1.00  0.00    -0.237 OA
ATOM     48  O   UNL A   1      39.432  36.430  38.325  1.00  0.00    -0.744 OA
ENDBRANCH  42  45
ENDBRANCH  24  38
BRANCH  25  49
ATOM     49  C   UNL A   1      41.794  26.826  27.532  1.00  0.00     0.023 A 
ATOM     50  C   UNL A   1      42.421  27.478  26.455  1.00  0.00     0.012 A 
ATOM     51  C   UNL A   1      41.590  25.433  27.467  1.00  0.00     0.148 A 
ATOM     52  C   UNL A   1      42.806  26.762  25.319  1.00  0.00     0.002 A 
ATOM     53  C   UNL A   1      42.043  24.716  26.369  1.00  0.00     0.091 A 
ATOM     54  F   UNL A   1      40.972  24.832  28.495  1.00  0.00    -0.205 F 
ATOM     55  C   UNL A   1      42.631  25.380  25.284  1.00  0.00     0.022 A 
BRANCH  53  56
ATOM     56  S   UNL A   1      42.005  22.922  26.324  1.00  0.00     0.127 S 
ATOM     57  O   UNL A   1      40.572  22.653  26.398  1.00  0.00    -0.237 OA
ATOM     58  O   UNL A   1      42.621  22.637  25.028  1.00  0.00    -0.237 OA
ATOM     59  O   UNL A   1      42.795  22.487  27.467  1.00  0.00    -0.744 OA
ENDBRANCH  53  56
ENDBRANCH  25  49
BRANCH  37  60
ATOM     60  C   UNL A   1      44.517  27.649  33.893  1.00  0.00     0.023 A 
ATOM     61  C   UNL A   1      45.768  28.281  33.748  1.00  0.00     0.012 A 
ATOM     62  C   UNL A   1      44.419  26.485  34.681  1.00  0.00     0.148 A 
ATOM     63  C   UNL A   1      46.911  27.738  34.333  1.00  0.00     0.002 A 
ATOM     64  C   UNL A   1      45.552  25.979  35.306  1.00  0.00     0.091 A 
ATOM     65  F   UNL A   1      43.225  25.886  34.793  1.00  0.00    -0.205 F 
ATOM     66  C   UNL A   1      46.802  26.593  35.119  1.00  0.00     0.022 A 
BRANCH  64  67
ATOM     67  S   UNL A   1      45.493  24.562  36.408  1.00  0.00     0.127 S 
ATOM     68  O   UNL A   1      44.929  23.531  35.538  1.00  0.00    -0.237 OA
ATOM     69  O   UNL A   1      46.904  24.372  36.745  1.00  0.00    -0.237 OA
ATOM     70  O   UNL A   1      44.652  24.962  37.530  1.00  0.00    -0.744 OA
ENDBRANCH  64  67
ENDBRANCH  37  60
ENDBRANCH  11  12
ENDBRANCH   4   6
ENDBRANCH   1   2
BRANCH   1  71
ATOM     71  C   UNL A   1      31.588  28.969  26.198  1.00  0.00     0.042 C 
BRANCH  71  72
ATOM     72  C   UNL A   1      32.242  27.720  26.773  1.00  0.00     0.117 C 
BRANCH  72  73
ATOM     73  N   UNL A   1      31.282  26.637  26.937  1.00  0.00    -0.356 N 
ATOM     74  C   UNL A   1      30.991  25.561  26.149  1.00  0.00     0.229 C 
ATOM     75  H   UNL A   1      30.748  26.690  27.763  1.00  0.00     0.163 HD
ATOM     76  O   UNL A   1      30.047  24.844  26.490  1.00  0.00    -0.275 OA
BRANCH  74  77
ATOM     77  C   UNL A   1      31.858  25.229  24.940  1.00  0.00     0.146 C 
ATOM     78  C   UNL A   1      32.172  23.734  24.958  1.00  0.00     0.274 C 
ATOM     79  C   UNL A   1      31.177  25.395  23.575  1.00  0.00     0.092 C 
ATOM     80  N   UNL A   1      31.049  23.064  24.283  1.00  0.00    -0.345 N 
ATOM     81  C   UNL A   1      30.526  24.029  23.295  1.00  0.00     0.269 C 
ATOM     82  H   UNL A   1      30.325  22.822  24.958  1.00  0.00     0.346 HD
ATOM     83  H   UNL A   1      31.349  22.199  23.835  1.00  0.00     0.346 HD
BRANCH  79  84
ATOM     84  C   UNL A   1      30.358  26.655  23.399  1.00  0.00    -0.038 A 
ATOM     85  C   UNL A   1      30.870  27.836  22.858  1.00  0.00     0.004 A 
ATOM     86  C   UNL A   1      29.002  26.642  23.756  1.00  0.00     0.004 A 
ATOM     87  C   UNL A   1      30.042  28.944  22.637  1.00  0.00     0.004 A 
ATOM     88  C   UNL A   1      28.178  27.753  23.518  1.00  0.00     0.004 A 
ATOM     89  C   UNL A   1      28.670  28.925  22.926  1.00  0.00    -0.045 A 
BRANCH  89  90
ATOM     90  C   UNL A   1      27.810  30.115  22.548  1.00  0.00     0.019 C 
ATOM     91  C   UNL A   1      27.527  31.178  23.580  1.00  0.00     0.009 C 
ATOM     92  C   UNL A   1      28.354  31.510  22.373  1.00  0.00     0.009 C 
ENDBRANCH  89  90
ENDBRANCH  79  84
ENDBRANCH  74  77
ENDBRANCH  72  73
ENDBRANCH  71  72
ENDBRANCH   1  71
TORSDOF 15
ENDMDL
MODEL 2
REMARK VINA RESULT:     -12.3      1.356      1.539
REMARK SMILES O=C(NCCCNC(=O)[C@H]1C[NH2+]C[C@H]1c1ccc(C2CC2)cc1)c1ccc(-c2c3nc(c(-c4cccc(S(=O)(=O)[O-])c4F)c4ccc([nH]4)c(-c4cccc(S(=O)(=O)[O-])c4F)c4nc(c(-c5cccc(S(=O)(=O)[O-])c5F)c5ccc2[nH]5)C=C4)C=C3)cc1
REMARK SMILES IDX 4 1 3 2 1 3 2 4 24 6 25 7 86 8 26 9 85 10 27 11 28 12 29 13
REMARK SMILES IDX 79 14 30 15 84 16 78 17 80 18 31 19 83 20 77 21 76 22 32 24
REMARK SMILES IDX 64 25 44 26 63 27 45 28 48 29 62 30 81 31 46 32 47 33 61 35
REMARK SMILES IDX 82 36 49 37 33 38 34 39 42 40 35 41 37 42 43 43 36 44 38 45
REMARK SMILES IDX 39 46 40 47 41 48 65 49 66 50 74 51 67 52 69 53 75 54 68 55
REMARK SMILES IDX 70 56 71 57 72 58 73 59 50 60 51 61 59 62 52 63 54 64 60 65
REMARK SMILES IDX 53 66 55 67 56 68 57 69 58 70 5 71 6 72 7 73 8 74 9 76 10 77
REMARK SMILES IDX 11 78 14 79 12 80 13 81 15 84 16 85 23 86 17 87 22 88 18 89
REMARK SMILES IDX 19 90 20 91 21 92
REMARK H PARENT 3 5 80 23 48 34 7 75 12 82 12 83
REMARK Flexibility Score: inf
ROOT
ATOM      1  C   UNL A   1      32.742  30.142  26.027  1.00  0.00     0.118 C 
ENDROOT
BRANCH   1   2
ATOM      2  N   UNL A   1      32.538  31.537  26.391  1.00  0.00    -0.352 N 
ATOM      3  O   UNL A   1      32.728  33.420  27.603  1.00  0.00    -0.269 OA
ATOM      4  C   UNL A   1      33.207  32.332  27.298  1.00  0.00     0.251 C 
ATOM      5  H   UNL A   1      31.803  31.985  25.914  1.00  0.00     0.163 HD
BRANCH   4   6
ATOM      6  C   UNL A   1      34.476  31.877  27.919  1.00  0.00     0.039 A 
ATOM      7  C   UNL A   1      34.600  30.586  28.418  1.00  0.00     0.014 A 
ATOM      8  C   UNL A   1      35.579  32.737  27.970  1.00  0.00     0.014 A 
ATOM      9  C   UNL A   1      35.738  30.225  29.131  1.00  0.00     0.010 A 
ATOM     10  C   UNL A   1      36.772  32.324  28.588  1.00  0.00     0.010 A 
ATOM     11  C   UNL A   1      36.854  31.075  29.219  1.00  0.00    -0.014 A 
BRANCH  11  12
ATOM     12  C   UNL A   1      38.084  30.581  29.916  1.00  0.00     0.031 A 
ATOM     13  C   UNL A   1      38.421  30.969  31.337  1.00  0.00     0.074 A 
ATOM     14  C   UNL A   1      38.896  29.720  29.263  1.00  0.00     0.049 A 
ATOM     15  N   UNL A   1      39.439  30.588  32.072  1.00  0.00    -0.248 NA
ATOM     16  C   UNL A   1      37.519  31.909  32.020  1.00  0.00     0.031 C 
ATOM     17  C   UNL A   1      38.728  29.300  27.869  1.00  0.00     0.029 A 
ATOM     18  N   UNL A   1      40.007  29.028  29.680  1.00  0.00    -0.354 N 
ATOM     19  C   UNL A   1      39.325  31.269  33.281  1.00  0.00     0.074 A 
ATOM     20  C   UNL A   1      38.143  32.098  33.177  1.00  0.00     0.031 C 
ATOM     21  C   UNL A   1      39.652  28.380  27.567  1.00  0.00     0.029 A 
ATOM     22  C   UNL A   1      40.543  28.215  28.707  1.00  0.00     0.049 A 
ATOM     23  H   UNL A   1      40.383  29.107  30.585  1.00  0.00     0.167 HD
ATOM     24  C   UNL A   1      40.118  31.202  34.380  1.00  0.00     0.034 A 
ATOM     25  C   UNL A   1      41.649  27.446  28.703  1.00  0.00     0.034 A 
ATOM     26  C   UNL A   1      41.278  30.352  34.499  1.00  0.00     0.049 A 
ATOM     27  C   UNL A   1      42.492  27.375  29.941  1.00  0.00     0.074 A 
ATOM     28  C   UNL A   1      42.118  30.193  35.589  1.00  0.00     0.029 A 
ATOM     29  N   UNL A   1      41.765  29.521  33.502  1.00  0.00    -0.354 N 
ATOM     30  N   UNL A   1      42.309  27.960  31.098  1.00  0.00    -0.248 NA
ATOM     31  C   UNL A   1      43.684  26.518  29.880  1.00  0.00     0.031 C 
ATOM     32  C   UNL A   1      43.126  29.286  35.243  1.00  0.00     0.029 A 
ATOM     33  C   UNL A   1      42.893  28.850  33.950  1.00  0.00     0.049 A 
ATOM     34  H   UNL A   1      41.369  29.422  32.607  1.00  0.00     0.167 HD
ATOM     35  C   UNL A   1      43.353  27.532  31.908  1.00  0.00     0.074 A 
ATOM     36  C   UNL A   1      44.138  26.603  31.122  1.00  0.00     0.031 C 
ATOM     37  C   UNL A   1      43.648  27.897  33.179  1.00  0.00     0.034 A 
BRANCH  24  38
ATOM     38  C   UNL A   1      39.745  32.042  35.579  1.00  0.00     0.023 A 
ATOM     39  C   UNL A   1      40.260  33.348  35.702  1.00  0.00     0.012 A 
ATOM     40  C   UNL A   1      38.812  31.578  36.531  1.00  0.00     0.148 A 
ATOM     41  C   UNL A   1      39.877  34.169  36.763  1.00  0.00     0.002 A 
ATOM     42  C   UNL A   1      38.402  32.417  37.562  1.00  0.00     0.091 A 
ATOM     43  F   UNL A   1      38.339  30.330  36.406  1.00  0.00    -0.205 F 
ATOM     44  C   UNL A   1      38.941  33.708  37.686  1.00  0.00     0.022 A 
BRANCH  42  45
ATOM     45  S   UNL A   1      37.140  31.954  38.754  1.00  0.00     0.127 S 
ATOM     46  O   UNL A   1      36.985  30.526  38.479  1.00  0.00    -0.237 OA
ATOM     47  O   UNL A   1      37.792  32.261  40.028  1.00  0.00    -0.237 OA
ATOM     48  O   UNL A   1      35.977  32.775  38.451  1.00  0.00    -0.744 OA
ENDBRANCH  42  45
ENDBRANCH  24  38
BRANCH  25  49
ATOM     49  C   UNL A   1      42.022  26.690  27.474  1.00  0.00     0.023 A 
ATOM     50  C   UNL A   1      42.627  27.355  26.391  1.00  0.00     0.012 A 
ATOM     51  C   UNL A   1      41.800  25.301  27.389  1.00  0.00     0.148 A 
ATOM     52  C   UNL A   1      42.971  26.656  25.232  1.00  0.00     0.002 A 
ATOM     53  C   UNL A   1      42.214  24.600  26.265  1.00  0.00     0.091 A 
ATOM     54  F   UNL A   1      41.204  24.688  28.422  1.00  0.00    -0.205 F 
ATOM     55  C   UNL A   1      42.779  25.277  25.177  1.00  0.00     0.022 A 
BRANCH  53  56
ATOM     56  S   UNL A   1      42.153  22.807  26.189  1.00  0.00     0.127 S 
ATOM     57  O   UNL A   1      40.718  22.554  26.267  1.00  0.00    -0.237 OA
ATOM     58  O   UNL A   1      42.758  22.538  24.884  1.00  0.00    -0.237 OA
ATOM     59  O   UNL A   1      42.946  22.342  27.319  1.00  0.00    -0.744 OA
ENDBRANCH  53  56
ENDBRANCH  25  49
BRANCH  37  60
ATOM     60  C   UNL A   1      44.857  27.258  33.813  1.00  0.00     0.023 A 
ATOM     61  C   UNL A   1      46.122  27.868  33.691  1.00  0.00     0.012 A 
ATOM     62  C   UNL A   1      44.736  26.062  34.548  1.00  0.00     0.148 A 
ATOM     63  C   UNL A   1      47.255  27.272  34.246  1.00  0.00     0.002 A 
ATOM     64  C   UNL A   1      45.860  25.503  35.144  1.00  0.00     0.091 A 
ATOM     65  F   UNL A   1      43.529  25.485  34.637  1.00  0.00    -0.205 F 
ATOM     66  C   UNL A   1      47.122  26.096  34.979  1.00  0.00     0.022 A 
BRANCH  64  67
ATOM     67  S   UNL A   1      45.772  24.039  36.180  1.00  0.00     0.127 S 
ATOM     68  O   UNL A   1      45.305  23.029  35.232  1.00  0.00    -0.237 OA
ATOM     69  O   UNL A   1      47.162  23.878  36.609  1.00  0.00    -0.237 OA
ATOM     70  O   UNL A   1      44.842  24.364  37.255  1.00  0.00    -0.744 OA
ENDBRANCH  64  67
ENDBRANCH  37  60
ENDBRANCH  11  12
ENDBRANCH   4   6
ENDBRANCH   1   2
BRANCH   1  71
ATOM     71  C   UNL A   1      31.759  29.210  26.721  1.00  0.00     0.042 C 
BRANCH  71  72
ATOM     72  C   UNL A   1      32.306  27.814  26.982  1.00  0.00     0.117 C 
BRANCH  72  73
ATOM     73  N   UNL A   1      31.238  26.826  27.069  1.00  0.00    -0.356 N 
ATOM     74  C   UNL A   1      30.868  25.820  26.224  1.00  0.00     0.229 C 
ATOM     75  H   UNL A   1      30.685  26.897  27.880  1.00  0.00     0.163 HD
ATOM     76  O   UNL A   1      29.847  25.187  26.504  1.00  0.00    -0.275 OA
BRANCH  74  77
ATOM     77  C   UNL A   1      31.738  25.454  25.026  1.00  0.00     0.146 C 
ATOM     78  C   UNL A   1      31.975  23.946  25.034  1.00  0.00     0.274 C 
ATOM     79  C   UNL A   1      31.088  25.666  23.651  1.00  0.00     0.092 C 
ATOM     80  N   UNL A   1      30.831  23.339  24.335  1.00  0.00    -0.345 N 
ATOM     81  C   UNL A   1      30.374  24.338  23.348  1.00  0.00     0.269 C 
ATOM     82  H   UNL A   1      30.085  23.128  24.997  1.00  0.00     0.346 HD
ATOM     83  H   UNL A   1      31.094  22.464  23.883  1.00  0.00     0.346 HD
BRANCH  79  84
ATOM     84  C   UNL A   1      30.337  26.968  23.474  1.00  0.00    -0.038 A 
ATOM     85  C   UNL A   1      30.963  28.188  23.213  1.00  0.00     0.004 A 
ATOM     86  C   UNL A   1      28.936  26.960  23.534  1.00  0.00     0.004 A 
ATOM     87  C   UNL A   1      30.211  29.345  22.970  1.00  0.00     0.004 A 
ATOM     88  C   UNL A   1      28.191  28.122  23.276  1.00  0.00     0.004 A 
ATOM     89  C   UNL A   1      28.809  29.340  22.959  1.00  0.00    -0.045 A 
BRANCH  89  90
ATOM     90  C   UNL A   1      28.061  30.600  22.569  1.00  0.00     0.019 C 
ATOM     91  C   UNL A   1      27.562  31.527  23.649  1.00  0.00     0.009 C 
ATOM     92  C   UNL A   1      28.637  31.985  22.709  1.00  0.00     0.009 C 
ENDBRANCH  89  90
ENDBRANCH  79  84
ENDBRANCH  74  77
ENDBRANCH  72  73
ENDBRANCH  71  72
ENDBRANCH   1  71
TORSDOF 15
ENDMDL
MODEL 3
REMARK VINA RESULT:     -11.9      5.535     10.817
REMARK SMILES O=C(NCCCNC(=O)[C@H]1C[NH2+]C[C@H]1c1ccc(C2CC2)cc1)c1ccc(-c2c3nc(c(-c4cccc(S(=O)(=O)[O-])c4F)c4ccc([nH]4)c(-c4cccc(S(=O)(=O)[O-])c4F)c4nc(c(-c5cccc(S(=O)(=O)[O-])c5F)c5ccc2[nH]5)C=C4)C=C3)cc1
REMARK SMILES IDX 4 1 3 2 1 3 2 4 24 6 25 7 86 8 26 9 85 10 27 11 28 12 29 13
REMARK SMILES IDX 79 14 30 15 84 16 78 17 80 18 31 19 83 20 77 21 76 22 32 24
REMARK SMILES IDX 64 25 44 26 63 27 45 28 48 29 62 30 81 31 46 32 47 33 61 35
REMARK SMILES IDX 82 36 49 37 33 38 34 39 42 40 35 41 37 42 43 43 36 44 38 45
REMARK SMILES IDX 39 46 40 47 41 48 65 49 66 50 74 51 67 52 69 53 75 54 68 55
REMARK SMILES IDX 70 56 71 57 72 58 73 59 50 60 51 61 59 62 52 63 54 64 60 65
REMARK SMILES IDX 53 66 55 67 56 68 57 69 58 70 5 71 6 72 7 73 8 74 9 76 10 77
REMARK SMILES IDX 11 78 14 79 12 80 13 81 15 84 16 85 23 86 17 87 22 88 18 89
REMARK SMILES IDX 19 90 20 91 21 92
REMARK H PARENT 3 5 80 23 48 34 7 75 12 82 12 83
REMARK Flexibility Score: inf
ROOT
ATOM      1  C   UNL A   1      37.377  21.337  24.573  1.00  0.00     0.118 C 
ENDROOT
BRANCH   1   2
ATOM      2  N   UNL A   1      38.183  20.232  25.074  1.00  0.00    -0.352 N 
ATOM      3  O   UNL A   1      40.015  19.160  25.812  1.00  0.00    -0.269 OA
ATOM      4  C   UNL A   1      39.430  20.229  25.663  1.00  0.00     0.251 C 
ATOM      5  H   UNL A   1      37.772  19.343  24.975  1.00  0.00     0.163 HD
BRANCH   4   6
ATOM      6  C   UNL A   1      40.073  21.496  26.092  1.00  0.00     0.039 A 
ATOM      7  C   UNL A   1      39.306  22.615  26.396  1.00  0.00     0.014 A 
ATOM      8  C   UNL A   1      41.464  21.562  26.237  1.00  0.00     0.014 A 
ATOM      9  C   UNL A   1      39.928  23.833  26.648  1.00  0.00     0.010 A 
ATOM     10  C   UNL A   1      42.081  22.769  26.610  1.00  0.00     0.010 A 
ATOM     11  C   UNL A   1      41.323  23.937  26.777  1.00  0.00    -0.014 A 
BRANCH  11  12
ATOM     12  C   UNL A   1      41.918  25.260  27.150  1.00  0.00     0.031 A 
ATOM     13  C   UNL A   1      43.285  25.696  26.677  1.00  0.00     0.074 A 
ATOM     14  C   UNL A   1      41.181  26.112  27.897  1.00  0.00     0.049 A 
ATOM     15  N   UNL A   1      43.907  26.829  26.900  1.00  0.00    -0.248 NA
ATOM     16  C   UNL A   1      44.062  24.746  25.866  1.00  0.00     0.031 C 
ATOM     17  C   UNL A   1      39.868  25.806  28.471  1.00  0.00     0.029 A 
ATOM     18  N   UNL A   1      41.414  27.408  28.289  1.00  0.00    -0.354 N 
ATOM     19  C   UNL A   1      45.157  26.715  26.299  1.00  0.00     0.074 A 
ATOM     20  C   UNL A   1      45.211  25.393  25.709  1.00  0.00     0.031 C 
ATOM     21  C   UNL A   1      39.383  26.895  29.080  1.00  0.00     0.029 A 
ATOM     22  C   UNL A   1      40.388  27.948  29.031  1.00  0.00     0.049 A 
ATOM     23  H   UNL A   1      42.234  27.901  28.061  1.00  0.00     0.167 HD
ATOM     24  C   UNL A   1      46.161  27.625  26.229  1.00  0.00     0.034 A 
ATOM     25  C   UNL A   1      40.269  29.142  29.644  1.00  0.00     0.034 A 
ATOM     26  C   UNL A   1      46.098  28.955  26.787  1.00  0.00     0.049 A 
ATOM     27  C   UNL A   1      41.387  30.136  29.529  1.00  0.00     0.074 A 
ATOM     28  C   UNL A   1      47.054  29.955  26.731  1.00  0.00     0.029 A 
ATOM     29  N   UNL A   1      45.029  29.471  27.501  1.00  0.00    -0.354 N 
ATOM     30  N   UNL A   1      42.518  30.032  28.877  1.00  0.00    -0.248 NA
ATOM     31  C   UNL A   1      41.200  31.422  30.215  1.00  0.00     0.031 C 
ATOM     32  C   UNL A   1      46.573  31.067  27.431  1.00  0.00     0.029 A 
ATOM     33  C   UNL A   1      45.301  30.773  27.893  1.00  0.00     0.049 A 
ATOM     34  H   UNL A   1      44.197  28.984  27.702  1.00  0.00     0.167 HD
ATOM     35  C   UNL A   1      43.173  31.242  29.062  1.00  0.00     0.074 A 
ATOM     36  C   UNL A   1      42.291  32.079  29.849  1.00  0.00     0.031 C 
ATOM     37  C   UNL A   1      44.405  31.616  28.641  1.00  0.00     0.034 A 
BRANCH  24  38
ATOM     38  C   UNL A   1      47.418  27.242  25.483  1.00  0.00     0.023 A 
ATOM     39  C   UNL A   1      48.379  26.424  26.112  1.00  0.00     0.012 A 
ATOM     40  C   UNL A   1      47.604  27.608  24.133  1.00  0.00     0.148 A 
ATOM     41  C   UNL A   1      49.514  26.000  25.422  1.00  0.00     0.002 A 
ATOM     42  C   UNL A   1      48.717  27.145  23.439  1.00  0.00     0.091 A 
ATOM     43  F   UNL A   1      46.687  28.394  23.552  1.00  0.00    -0.205 F 
ATOM     44  C   UNL A   1      49.678  26.351  24.085  1.00  0.00     0.022 A 
BRANCH  42  45
ATOM     45  S   UNL A   1      48.981  27.468  21.691  1.00  0.00     0.127 S 
ATOM     46  O   UNL A   1      48.747  28.910  21.619  1.00  0.00    -0.237 OA
ATOM     47  O   UNL A   1      50.377  27.068  21.512  1.00  0.00    -0.237 OA
ATOM     48  O   UNL A   1      48.015  26.646  20.977  1.00  0.00    -0.744 OA
ENDBRANCH  42  45
ENDBRANCH  24  38
BRANCH  25  49
ATOM     49  C   UNL A   1      39.043  29.452  30.432  1.00  0.00     0.023 A 
ATOM     50  C   UNL A   1      38.861  28.889  31.709  1.00  0.00     0.012 A 
ATOM     51  C   UNL A   1      38.065  30.330  29.923  1.00  0.00     0.148 A 
ATOM     52  C   UNL A   1      37.710  29.168  32.449  1.00  0.00     0.002 A 
ATOM     53  C   UNL A   1      36.961  30.661  30.696  1.00  0.00     0.091 A 
ATOM     54  F   UNL A   1      38.244  30.840  28.696  1.00  0.00    -0.205 F 
ATOM     55  C   UNL A   1      36.769  30.065  31.949  1.00  0.00     0.022 A 
BRANCH  53  56
ATOM     56  S   UNL A   1      35.796  31.932  30.192  1.00  0.00     0.127 S 
ATOM     57  O   UNL A   1      36.681  33.065  29.942  1.00  0.00    -0.237 OA
ATOM     58  O   UNL A   1      35.198  31.339  28.996  1.00  0.00    -0.237 OA
ATOM     59  O   UNL A   1      34.872  32.078  31.309  1.00  0.00    -0.744 OA
ENDBRANCH  53  56
ENDBRANCH  25  49
BRANCH  37  60
ATOM     60  C   UNL A   1      44.857  33.010  28.993  1.00  0.00     0.023 A 
ATOM     61  C   UNL A   1      45.455  33.262  30.245  1.00  0.00     0.012 A 
ATOM     62  C   UNL A   1      44.709  34.068  28.074  1.00  0.00     0.148 A 
ATOM     63  C   UNL A   1      45.850  34.552  30.596  1.00  0.00     0.002 A 
ATOM     64  C   UNL A   1      45.154  35.340  28.410  1.00  0.00     0.091 A 
ATOM     65  F   UNL A   1      44.121  33.814  26.896  1.00  0.00    -0.205 F 
ATOM     66  C   UNL A   1      45.708  35.588  29.677  1.00  0.00     0.022 A 
BRANCH  64  67
ATOM     67  S   UNL A   1      45.096  36.716  27.258  1.00  0.00     0.127 S 
ATOM     68  O   UNL A   1      45.942  36.231  26.170  1.00  0.00    -0.237 OA
ATOM     69  O   UNL A   1      43.670  36.790  26.936  1.00  0.00    -0.237 OA
ATOM     70  O   UNL A   1      45.612  37.870  27.984  1.00  0.00    -0.744 OA
ENDBRANCH  64  67
ENDBRANCH  37  60
ENDBRANCH  11  12
ENDBRANCH   4   6
ENDBRANCH   1   2
BRANCH   1  71
ATOM     71  C   UNL A   1      35.991  21.375  25.199  1.00  0.00     0.042 C 
BRANCH  71  72
ATOM     72  C   UNL A   1      35.461  22.780  25.447  1.00  0.00     0.117 C 
BRANCH  72  73
ATOM     73  N   UNL A   1      35.173  23.475  24.199  1.00  0.00    -0.356 N 
ATOM     74  C   UNL A   1      34.029  24.053  23.731  1.00  0.00     0.229 C 
ATOM     75  H   UNL A   1      35.939  23.538  23.584  1.00  0.00     0.163 HD
ATOM     76  O   UNL A   1      34.043  24.492  22.578  1.00  0.00    -0.275 OA
BRANCH  74  77
ATOM     77  C   UNL A   1      32.814  24.213  24.638  1.00  0.00     0.146 C 
ATOM     78  C   UNL A   1      32.176  25.574  24.368  1.00  0.00     0.274 C 
ATOM     79  C   UNL A   1      31.650  23.254  24.353  1.00  0.00     0.092 C 
ATOM     80  N   UNL A   1      31.254  25.386  23.237  1.00  0.00    -0.345 N 
ATOM     81  C   UNL A   1      30.784  23.989  23.315  1.00  0.00     0.269 C 
ATOM     82  H   UNL A   1      31.740  25.547  22.355  1.00  0.00     0.346 HD
ATOM     83  H   UNL A   1      30.475  26.043  23.280  1.00  0.00     0.346 HD
BRANCH  79  84
ATOM     84  C   UNL A   1      32.033  21.811  24.110  1.00  0.00    -0.038 A 
ATOM     85  C   UNL A   1      32.336  20.912  25.134  1.00  0.00     0.004 A 
ATOM     86  C   UNL A   1      32.051  21.323  22.795  1.00  0.00     0.004 A 
ATOM     87  C   UNL A   1      32.598  19.564  24.854  1.00  0.00     0.004 A 
ATOM     88  C   UNL A   1      32.301  19.968  22.526  1.00  0.00     0.004 A 
ATOM     89  C   UNL A   1      32.553  19.046  23.552  1.00  0.00    -0.045 A 
BRANCH  89  90
ATOM     90  C   UNL A   1      32.726  17.555  23.335  1.00  0.00     0.019 C 
ATOM     91  C   UNL A   1      34.112  16.993  23.138  1.00  0.00     0.009 C 
ATOM     92  C   UNL A   1      33.326  16.630  24.363  1.00  0.00     0.009 C 
ENDBRANCH  89  90
ENDBRANCH  79  84
ENDBRANCH  74  77
ENDBRANCH  72  73
ENDBRANCH  71  72
ENDBRANCH   1  71
TORSDOF 15
ENDMDL
