MODEL 1
REMARK VINA RESULT:     -14.2      0.000      0.000
REMARK SMILES Cc1c(CCC(=O)N2CCC(C(=O)NCCCNC(=O)c3ccc(-c4c5nc(c(-c6cccc(S(=O)(=O)[O-])c6F)c6ccc([nH]6)c(-c6cccc(S(=O)(=O)[O-])c6F)c6nc(c(-c7cccc(S(=O)(=O)[O-])c7F)c7ccc4[nH]7)C=C6)C=C5)cc3)CC2)c(=O)oc2cc3oc4c(c3cc12)CCCC4
REMARK SMILES IDX 16 1 15 2 14 3 12 4 13 5 11 7 6 8 7 9 8 10 9 11 85 12 10 13
REMARK SMILES IDX 84 14 5 15 4 16 3 17 1 18 2 19 97 20 86 21 89 22 96 23 87 24
REMARK SMILES IDX 88 25 90 26 95 27 91 28 94 29 92 30 93 31 98 32 101 33 99 34
REMARK SMILES IDX 100 35 17 36 18 37 19 38 20 40 21 41 22 42 83 43 23 44 82 45
REMARK SMILES IDX 24 46 25 47 26 48 76 49 27 50 81 51 75 52 77 53 28 54 80 55
REMARK SMILES IDX 74 56 73 57 29 59 61 60 41 61 60 62 42 63 45 64 59 65 78 66
REMARK SMILES IDX 43 67 44 68 58 70 79 71 46 72 30 73 31 74 39 75 32 76 34 77
REMARK SMILES IDX 40 78 33 79 35 80 36 81 37 82 38 83 62 84 63 85 71 86 64 87
REMARK SMILES IDX 66 88 72 89 65 90 67 91 68 92 69 93 70 94 47 95 48 96 56 97
REMARK SMILES IDX 49 98 51 99 57 100 50 101 52 102 53 103 54 104 55 105
REMARK H PARENT 14 6 18 39 77 58 45 69
REMARK Flexibility Score: inf
ROOT
ATOM      1  C   UNL A   1      45.837  20.666  35.112  1.00  0.00     0.042 C 
ENDROOT
BRANCH   1   2
ATOM      2  C   UNL A   1      47.194  21.247  34.732  1.00  0.00     0.117 C 
BRANCH   2   3
ATOM      3  N   UNL A   1      48.122  20.165  34.522  1.00  0.00    -0.356 N 
ATOM      4  C   UNL A   1      49.456  20.423  34.456  1.00  0.00     0.223 C 
ATOM      5  O   UNL A   1      50.030  20.138  33.401  1.00  0.00    -0.275 OA
ATOM      6  H   UNL A   1      47.793  19.243  34.427  1.00  0.00     0.163 HD
BRANCH   4   7
ATOM      7  C   UNL A   1      50.255  20.771  35.705  1.00  0.00     0.082 C 
ATOM      8  C   UNL A   1      49.516  20.956  39.631  1.00  0.00     0.222 C 
ATOM      9  O   UNL A   1      49.148  22.039  40.085  1.00  0.00    -0.275 OA
ATOM     10  N   UNL A   1      50.452  20.897  38.597  1.00  0.00    -0.343 N 
ATOM     11  C   UNL A   1      50.932  22.090  37.840  1.00  0.00     0.120 C 
ATOM     12  C   UNL A   1      50.585  19.693  37.855  1.00  0.00     0.120 C 
ATOM     13  C   UNL A   1      50.450  22.154  36.332  1.00  0.00     0.035 C 
ATOM     14  C   UNL A   1      49.585  19.935  36.765  1.00  0.00     0.035 C 
BRANCH   8  15
ATOM     15  C   UNL A   1      49.034  19.622  40.319  1.00  0.00     0.105 C 
BRANCH  15  16
ATOM     16  C   UNL A   1      47.616  19.417  40.966  1.00  0.00     0.053 C 
BRANCH  16  17
ATOM     17  C   UNL A   1      46.607  18.459  40.306  1.00  0.00     0.042 A 
ATOM     18  C   UNL A   1      47.246  16.356  41.596  1.00  0.00     0.046 C 
ATOM     19  C   UNL A   1      46.359  17.203  40.722  1.00  0.00    -0.030 A 
ATOM     20  C   UNL A   1      45.033  16.675  40.379  1.00  0.00     0.022 A 
ATOM     21  C   UNL A   1      45.967  18.813  38.986  1.00  0.00     0.339 A 
ATOM     22  C   UNL A   1      44.609  16.786  39.076  1.00  0.00     0.142 A 
ATOM     23  C   UNL A   1      44.131  16.170  41.314  1.00  0.00     0.024 A 
ATOM     24  O   UNL A   1      46.164  19.901  38.452  1.00  0.00    -0.246 OA
ATOM     25  O   UNL A   1      45.249  17.783  38.308  1.00  0.00    -0.422 OA
ATOM     26  C   UNL A   1      43.552  15.991  38.577  1.00  0.00     0.095 A 
ATOM     27  C   UNL A   1      42.958  15.557  40.905  1.00  0.00     0.025 A 
ATOM     28  C   UNL A   1      42.813  15.293  39.553  1.00  0.00     0.138 A 
ATOM     29  C   UNL A   1      41.896  14.947  41.588  1.00  0.00     0.001 A 
ATOM     30  O   UNL A   1      41.941  14.222  39.436  1.00  0.00    -0.461 OA
ATOM     31  C   UNL A   1      41.541  13.946  40.720  1.00  0.00     0.108 A 
ATOM     32  C   UNL A   1      41.524  14.900  43.025  1.00  0.00     0.040 C 
ATOM     33  C   UNL A   1      41.189  12.584  41.212  1.00  0.00     0.076 C 
ATOM     34  C   UNL A   1      41.720  13.491  43.611  1.00  0.00     0.005 C 
ATOM     35  C   UNL A   1      41.969  12.383  42.555  1.00  0.00     0.008 C 
ENDBRANCH  16  17
ENDBRANCH  15  16
ENDBRANCH   8  15
ENDBRANCH   4   7
ENDBRANCH   2   3
ENDBRANCH   1   2
BRANCH   1  36
ATOM     36  C   UNL A   1      44.663  21.649  34.958  1.00  0.00     0.118 C 
BRANCH  36  37
ATOM     37  N   UNL A   1      44.606  22.745  35.917  1.00  0.00    -0.352 N 
ATOM     38  C   UNL A   1      44.664  24.103  35.674  1.00  0.00     0.251 C 
ATOM     39  H   UNL A   1      44.516  22.482  36.860  1.00  0.00     0.163 HD
ATOM     40  O   UNL A   1      44.508  24.917  36.561  1.00  0.00    -0.269 OA
BRANCH  38  41
ATOM     41  C   UNL A   1      44.966  24.508  34.287  1.00  0.00     0.039 A 
ATOM     42  C   UNL A   1      46.249  24.981  33.991  1.00  0.00     0.014 A 
ATOM     43  C   UNL A   1      43.892  24.704  33.415  1.00  0.00     0.014 A 
ATOM     44  C   UNL A   1      46.427  25.793  32.880  1.00  0.00     0.010 A 
ATOM     45  C   UNL A   1      44.082  25.495  32.285  1.00  0.00     0.010 A 
ATOM     46  C   UNL A   1      45.336  26.081  32.048  1.00  0.00    -0.014 A 
BRANCH  46  47
ATOM     47  C   UNL A   1      45.588  26.944  30.887  1.00  0.00     0.031 A 
ATOM     48  C   UNL A   1      45.669  26.182  29.616  1.00  0.00     0.074 A 
ATOM     49  C   UNL A   1      45.273  28.256  30.847  1.00  0.00     0.049 A 
ATOM     50  N   UNL A   1      44.597  25.789  28.998  1.00  0.00    -0.248 NA
ATOM     51  C   UNL A   1      46.901  25.569  29.131  1.00  0.00     0.031 C 
ATOM     52  C   UNL A   1      44.233  28.890  31.668  1.00  0.00     0.029 A 
ATOM     53  N   UNL A   1      45.622  29.229  29.936  1.00  0.00    -0.354 N 
ATOM     54  C   UNL A   1      44.983  24.823  28.095  1.00  0.00     0.074 A 
ATOM     55  C   UNL A   1      46.426  24.740  28.188  1.00  0.00     0.031 C 
ATOM     56  C   UNL A   1      43.886  30.062  31.094  1.00  0.00     0.029 A 
ATOM     57  C   UNL A   1      44.783  30.341  29.976  1.00  0.00     0.049 A 
ATOM     58  H   UNL A   1      46.386  29.146  29.319  1.00  0.00     0.167 HD
ATOM     59  C   UNL A   1      44.090  24.136  27.337  1.00  0.00     0.034 A 
ATOM     60  C   UNL A   1      44.462  31.113  28.898  1.00  0.00     0.034 A 
ATOM     61  C   UNL A   1      42.710  24.468  27.552  1.00  0.00     0.049 A 
ATOM     62  C   UNL A   1      43.662  30.140  28.065  1.00  0.00     0.074 A 
ATOM     63  C   UNL A   1      41.673  23.983  28.321  1.00  0.00     0.029 A 
ATOM     64  N   UNL A   1      42.212  25.616  26.983  1.00  0.00    -0.354 N 
ATOM     65  N   UNL A   1      42.420  29.791  28.281  1.00  0.00    -0.248 NA
ATOM     66  C   UNL A   1      44.397  29.245  27.170  1.00  0.00     0.031 C 
ATOM     67  C   UNL A   1      40.785  25.090  28.514  1.00  0.00     0.029 A 
ATOM     68  C   UNL A   1      41.372  26.197  27.902  1.00  0.00     0.049 A 
ATOM     69  H   UNL A   1      42.420  25.959  26.084  1.00  0.00     0.167 HD
ATOM     70  C   UNL A   1      42.308  28.486  27.790  1.00  0.00     0.074 A 
ATOM     71  C   UNL A   1      43.555  28.224  27.100  1.00  0.00     0.031 C 
ATOM     72  C   UNL A   1      41.293  27.630  28.108  1.00  0.00     0.034 A 
BRANCH  59  73
ATOM     73  C   UNL A   1      44.483  23.239  26.234  1.00  0.00     0.023 A 
ATOM     74  C   UNL A   1      45.110  23.849  25.130  1.00  0.00     0.012 A 
ATOM     75  C   UNL A   1      44.132  21.881  26.176  1.00  0.00     0.148 A 
ATOM     76  C   UNL A   1      45.346  23.135  23.961  1.00  0.00     0.002 A 
ATOM     77  C   UNL A   1      44.378  21.169  25.006  1.00  0.00     0.091 A 
ATOM     78  F   UNL A   1      43.531  21.325  27.238  1.00  0.00    -0.205 F 
ATOM     79  C   UNL A   1      44.973  21.797  23.896  1.00  0.00     0.022 A 
BRANCH  77  80
ATOM     80  S   UNL A   1      43.959  19.434  24.813  1.00  0.00     0.127 S 
ATOM     81  O   UNL A   1      44.322  19.186  23.420  1.00  0.00    -0.237 OA
ATOM     82  O   UNL A   1      44.837  18.794  25.795  1.00  0.00    -0.237 OA
ATOM     83  O   UNL A   1      42.539  19.334  25.127  1.00  0.00    -0.744 OA
ENDBRANCH  77  80
ENDBRANCH  59  73
BRANCH  60  84
ATOM     84  C   UNL A   1      45.605  31.935  28.365  1.00  0.00     0.023 A 
ATOM     85  C   UNL A   1      46.910  31.551  28.763  1.00  0.00     0.012 A 
ATOM     86  C   UNL A   1      45.497  33.038  27.499  1.00  0.00     0.148 A 
ATOM     87  C   UNL A   1      48.054  32.153  28.233  1.00  0.00     0.002 A 
ATOM     88  C   UNL A   1      46.638  33.588  26.914  1.00  0.00     0.091 A 
ATOM     89  F   UNL A   1      44.290  33.558  27.250  1.00  0.00    -0.205 F 
ATOM     90  C   UNL A   1      47.917  33.149  27.277  1.00  0.00     0.022 A 
BRANCH  88  91
ATOM     91  S   UNL A   1      46.555  34.797  25.583  1.00  0.00     0.127 S 
ATOM     92  O   UNL A   1      45.543  34.213  24.706  1.00  0.00    -0.237 OA
ATOM     93  O   UNL A   1      46.131  35.994  26.307  1.00  0.00    -0.237 OA
ATOM     94  O   UNL A   1      47.899  34.862  25.025  1.00  0.00    -0.744 OA
ENDBRANCH  88  91
ENDBRANCH  60  84
BRANCH  72  95
ATOM     95  C   UNL A   1      40.140  28.205  28.876  1.00  0.00     0.023 A 
ATOM     96  C   UNL A   1      38.992  28.607  28.167  1.00  0.00     0.012 A 
ATOM     97  C   UNL A   1      40.126  28.261  30.284  1.00  0.00     0.148 A 
ATOM     98  C   UNL A   1      37.845  29.027  28.843  1.00  0.00     0.002 A 
ATOM     99  C   UNL A   1      38.963  28.630  30.954  1.00  0.00     0.091 A 
ATOM    100  F   UNL A   1      41.232  27.915  30.961  1.00  0.00    -0.205 F 
ATOM    101  C   UNL A   1      37.824  29.023  30.236  1.00  0.00     0.022 A 
BRANCH  99 102
ATOM    102  S   UNL A   1      38.843  28.543  32.747  1.00  0.00     0.127 S 
ATOM    103  O   UNL A   1      39.406  29.824  33.176  1.00  0.00    -0.237 OA
ATOM    104  O   UNL A   1      37.401  28.423  32.948  1.00  0.00    -0.237 OA
ATOM    105  O   UNL A   1      39.639  27.385  33.143  1.00  0.00    -0.744 OA
ENDBRANCH  99 102
ENDBRANCH  72  95
ENDBRANCH  46  47
ENDBRANCH  38  41
ENDBRANCH  36  37
ENDBRANCH   1  36
TORSDOF 16
ENDMDL
MODEL 2
REMARK VINA RESULT:     -12.6      6.543     14.509
REMARK SMILES Cc1c(CCC(=O)N2CCC(C(=O)NCCCNC(=O)c3ccc(-c4c5nc(c(-c6cccc(S(=O)(=O)[O-])c6F)c6ccc([nH]6)c(-c6cccc(S(=O)(=O)[O-])c6F)c6nc(c(-c7cccc(S(=O)(=O)[O-])c7F)c7ccc4[nH]7)C=C6)C=C5)cc3)CC2)c(=O)oc2cc3oc4c(c3cc12)CCCC4
REMARK SMILES IDX 16 1 15 2 14 3 12 4 13 5 11 7 6 8 7 9 8 10 9 11 85 12 10 13
REMARK SMILES IDX 84 14 5 15 4 16 3 17 1 18 2 19 97 20 86 21 89 22 96 23 87 24
REMARK SMILES IDX 88 25 90 26 95 27 91 28 94 29 92 30 93 31 98 32 101 33 99 34
REMARK SMILES IDX 100 35 17 36 18 37 19 38 20 40 21 41 22 42 83 43 23 44 82 45
REMARK SMILES IDX 24 46 25 47 26 48 76 49 27 50 81 51 75 52 77 53 28 54 80 55
REMARK SMILES IDX 74 56 73 57 29 59 61 60 41 61 60 62 42 63 45 64 59 65 78 66
REMARK SMILES IDX 43 67 44 68 58 70 79 71 46 72 30 73 31 74 39 75 32 76 34 77
REMARK SMILES IDX 40 78 33 79 35 80 36 81 37 82 38 83 62 84 63 85 71 86 64 87
REMARK SMILES IDX 66 88 72 89 65 90 67 91 68 92 69 93 70 94 47 95 48 96 56 97
REMARK SMILES IDX 49 98 51 99 57 100 50 101 52 102 53 103 54 104 55 105
REMARK H PARENT 14 6 18 39 77 58 45 69
REMARK Flexibility Score: inf
ROOT
ATOM      1  C   UNL A   1      34.233  31.914  28.831  1.00  0.00     0.042 C 
ENDROOT
BRANCH   1   2
ATOM      2  C   UNL A   1      33.429  31.659  27.561  1.00  0.00     0.117 C 
BRANCH   2   3
ATOM      3  N   UNL A   1      34.175  30.768  26.709  1.00  0.00    -0.356 N 
ATOM      4  C   UNL A   1      33.979  29.425  26.801  1.00  0.00     0.223 C 
ATOM      5  O   UNL A   1      34.952  28.738  27.125  1.00  0.00    -0.275 OA
ATOM      6  H   UNL A   1      34.825  31.129  26.063  1.00  0.00     0.163 HD
BRANCH   4   7
ATOM      7  C   UNL A   1      32.716  28.773  26.255  1.00  0.00     0.082 C 
ATOM      8  C   UNL A   1      31.818  25.332  24.425  1.00  0.00     0.222 C 
ATOM      9  O   UNL A   1      31.838  25.326  23.194  1.00  0.00    -0.275 OA
ATOM     10  N   UNL A   1      31.380  26.458  25.125  1.00  0.00    -0.343 N 
ATOM     11  C   UNL A   1      31.093  27.775  24.486  1.00  0.00     0.120 C 
ATOM     12  C   UNL A   1      31.702  26.581  26.503  1.00  0.00     0.120 C 
ATOM     13  C   UNL A   1      32.119  28.926  24.853  1.00  0.00     0.035 C 
ATOM     14  C   UNL A   1      33.013  27.303  26.412  1.00  0.00     0.035 C 
BRANCH   8  15
ATOM     15  C   UNL A   1      32.151  24.008  25.213  1.00  0.00     0.105 C 
BRANCH  15  16
ATOM     16  C   UNL A   1      32.649  22.676  24.543  1.00  0.00     0.053 C 
BRANCH  16  17
ATOM     17  C   UNL A   1      34.115  22.237  24.714  1.00  0.00     0.042 A 
ATOM     18  C   UNL A   1      35.194  24.171  23.452  1.00  0.00     0.046 C 
ATOM     19  C   UNL A   1      35.182  22.990  24.386  1.00  0.00    -0.030 A 
ATOM     20  C   UNL A   1      36.417  22.686  25.119  1.00  0.00     0.022 A 
ATOM     21  C   UNL A   1      34.450  20.813  25.081  1.00  0.00     0.339 A 
ATOM     22  C   UNL A   1      36.823  21.374  25.189  1.00  0.00     0.142 A 
ATOM     23  C   UNL A   1      37.145  23.628  25.844  1.00  0.00     0.024 A 
ATOM     24  O   UNL A   1      33.570  19.995  25.335  1.00  0.00    -0.246 OA
ATOM     25  O   UNL A   1      35.814  20.410  24.972  1.00  0.00    -0.422 OA
ATOM     26  C   UNL A   1      38.154  21.033  25.524  1.00  0.00     0.095 A 
ATOM     27  C   UNL A   1      38.375  23.305  26.390  1.00  0.00     0.025 A 
ATOM     28  C   UNL A   1      38.936  22.090  26.028  1.00  0.00     0.138 A 
ATOM     29  C   UNL A   1      39.327  24.024  27.129  1.00  0.00     0.001 A 
ATOM     30  O   UNL A   1      40.309  22.216  26.169  1.00  0.00    -0.461 OA
ATOM     31  C   UNL A   1      40.502  23.471  26.688  1.00  0.00     0.108 A 
ATOM     32  C   UNL A   1      39.289  25.358  27.781  1.00  0.00     0.040 C 
ATOM     33  C   UNL A   1      41.697  24.317  26.410  1.00  0.00     0.076 C 
ATOM     34  C   UNL A   1      40.197  26.365  27.053  1.00  0.00     0.005 C 
ATOM     35  C   UNL A   1      41.157  25.732  26.013  1.00  0.00     0.008 C 
ENDBRANCH  16  17
ENDBRANCH  15  16
ENDBRANCH   8  15
ENDBRANCH   4   7
ENDBRANCH   2   3
ENDBRANCH   1   2
BRANCH   1  36
ATOM     36  C   UNL A   1      34.549  33.398  29.090  1.00  0.00     0.118 C 
BRANCH  36  37
ATOM     37  N   UNL A   1      34.310  33.885  30.442  1.00  0.00    -0.352 N 
ATOM     38  C   UNL A   1      35.079  33.694  31.573  1.00  0.00     0.251 C 
ATOM     39  H   UNL A   1      33.493  34.419  30.566  1.00  0.00     0.163 HD
ATOM     40  O   UNL A   1      34.814  34.239  32.625  1.00  0.00    -0.269 OA
BRANCH  38  41
ATOM     41  C   UNL A   1      36.214  32.761  31.443  1.00  0.00     0.039 A 
ATOM     42  C   UNL A   1      36.017  31.414  31.768  1.00  0.00     0.014 A 
ATOM     43  C   UNL A   1      37.495  33.304  31.313  1.00  0.00     0.014 A 
ATOM     44  C   UNL A   1      37.113  30.639  32.117  1.00  0.00     0.010 A 
ATOM     45  C   UNL A   1      38.595  32.513  31.636  1.00  0.00     0.010 A 
ATOM     46  C   UNL A   1      38.398  31.198  32.088  1.00  0.00    -0.014 A 
BRANCH  46  47
ATOM     47  C   UNL A   1      39.517  30.326  32.466  1.00  0.00     0.031 A 
ATOM     48  C   UNL A   1      40.623  30.354  31.476  1.00  0.00     0.074 A 
ATOM     49  C   UNL A   1      39.785  29.959  33.738  1.00  0.00     0.049 A 
ATOM     50  N   UNL A   1      41.483  31.325  31.456  1.00  0.00    -0.248 NA
ATOM     51  C   UNL A   1      40.659  29.493  30.298  1.00  0.00     0.031 C 
ATOM     52  C   UNL A   1      39.375  30.717  34.928  1.00  0.00     0.029 A 
ATOM     53  N   UNL A   1      40.649  29.006  34.227  1.00  0.00    -0.354 N 
ATOM     54  C   UNL A   1      42.128  31.267  30.240  1.00  0.00     0.074 A 
ATOM     55  C   UNL A   1      41.608  30.096  29.565  1.00  0.00     0.031 C 
ATOM     56  C   UNL A   1      40.144  30.332  35.969  1.00  0.00     0.029 A 
ATOM     57  C   UNL A   1      40.972  29.198  35.570  1.00  0.00     0.049 A 
ATOM     58  H   UNL A   1      41.003  28.264  33.685  1.00  0.00     0.167 HD
ATOM     59  C   UNL A   1      43.039  32.198  29.853  1.00  0.00     0.034 A 
ATOM     60  C   UNL A   1      42.170  28.876  36.135  1.00  0.00     0.034 A 
ATOM     61  C   UNL A   1      43.273  33.261  30.788  1.00  0.00     0.049 A 
ATOM     62  C   UNL A   1      43.096  29.848  35.441  1.00  0.00     0.074 A 
ATOM     63  C   UNL A   1      42.796  34.540  30.989  1.00  0.00     0.029 A 
ATOM     64  N   UNL A   1      44.079  33.017  31.875  1.00  0.00    -0.354 N 
ATOM     65  N   UNL A   1      43.219  31.119  35.724  1.00  0.00    -0.248 NA
ATOM     66  C   UNL A   1      43.638  29.460  34.138  1.00  0.00     0.031 C 
ATOM     67  C   UNL A   1      42.988  34.809  32.382  1.00  0.00     0.029 A 
ATOM     68  C   UNL A   1      43.512  33.650  32.954  1.00  0.00     0.049 A 
ATOM     69  H   UNL A   1      44.909  32.487  31.878  1.00  0.00     0.167 HD
ATOM     70  C   UNL A   1      43.582  31.734  34.521  1.00  0.00     0.074 A 
ATOM     71  C   UNL A   1      43.846  30.651  33.596  1.00  0.00     0.031 C 
ATOM     72  C   UNL A   1      43.489  33.077  34.286  1.00  0.00     0.034 A 
BRANCH  59  73
ATOM     73  C   UNL A   1      43.879  32.058  28.648  1.00  0.00     0.023 A 
ATOM     74  C   UNL A   1      44.765  30.964  28.632  1.00  0.00     0.012 A 
ATOM     75  C   UNL A   1      43.938  33.021  27.628  1.00  0.00     0.148 A 
ATOM     76  C   UNL A   1      45.733  30.847  27.641  1.00  0.00     0.002 A 
ATOM     77  C   UNL A   1      44.903  32.894  26.635  1.00  0.00     0.091 A 
ATOM     78  F   UNL A   1      43.087  34.056  27.670  1.00  0.00    -0.205 F 
ATOM     79  C   UNL A   1      45.807  31.816  26.647  1.00  0.00     0.022 A 
BRANCH  77  80
ATOM     80  S   UNL A   1      45.081  34.072  25.291  1.00  0.00     0.127 S 
ATOM     81  O   UNL A   1      44.444  33.366  24.181  1.00  0.00    -0.237 OA
ATOM     82  O   UNL A   1      44.330  35.225  25.791  1.00  0.00    -0.237 OA
ATOM     83  O   UNL A   1      46.513  34.304  25.156  1.00  0.00    -0.744 OA
ENDBRANCH  77  80
ENDBRANCH  59  73
BRANCH  60  84
ATOM     84  C   UNL A   1      42.428  27.396  36.237  1.00  0.00     0.023 A 
ATOM     85  C   UNL A   1      41.457  26.537  35.664  1.00  0.00     0.012 A 
ATOM     86  C   UNL A   1      43.548  26.791  36.834  1.00  0.00     0.148 A 
ATOM     87  C   UNL A   1      41.647  25.155  35.580  1.00  0.00     0.002 A 
ATOM     88  C   UNL A   1      43.772  25.421  36.684  1.00  0.00     0.091 A 
ATOM     89  F   UNL A   1      44.391  27.541  37.553  1.00  0.00    -0.205 F 
ATOM     90  C   UNL A   1      42.825  24.601  36.058  1.00  0.00     0.022 A 
BRANCH  88  91
ATOM     91  S   UNL A   1      45.318  24.636  37.163  1.00  0.00     0.127 S 
ATOM     92  O   UNL A   1      46.305  25.459  36.467  1.00  0.00    -0.237 OA
ATOM     93  O   UNL A   1      45.288  24.804  38.615  1.00  0.00    -0.237 OA
ATOM     94  O   UNL A   1      45.221  23.258  36.703  1.00  0.00    -0.744 OA
ENDBRANCH  88  91
ENDBRANCH  60  84
BRANCH  72  95
ATOM     95  C   UNL A   1      43.156  33.947  35.461  1.00  0.00     0.023 A 
ATOM     96  C   UNL A   1      44.211  34.464  36.237  1.00  0.00     0.012 A 
ATOM     97  C   UNL A   1      41.837  34.348  35.753  1.00  0.00     0.148 A 
ATOM     98  C   UNL A   1      43.965  35.381  37.260  1.00  0.00     0.002 A 
ATOM     99  C   UNL A   1      41.601  35.301  36.739  1.00  0.00     0.091 A 
ATOM    100  F   UNL A   1      40.825  33.827  35.041  1.00  0.00    -0.205 F 
ATOM    101  C   UNL A   1      42.662  35.813  37.501  1.00  0.00     0.022 A 
BRANCH  99 102
ATOM    102  S   UNL A   1      39.956  35.973  37.023  1.00  0.00     0.127 S 
ATOM    103  O   UNL A   1      40.182  36.959  38.080  1.00  0.00    -0.237 OA
ATOM    104  O   UNL A   1      39.638  36.552  35.719  1.00  0.00    -0.237 OA
ATOM    105  O   UNL A   1      39.131  34.842  37.434  1.00  0.00    -0.744 OA
ENDBRANCH  99 102
ENDBRANCH  72  95
ENDBRANCH  46  47
ENDBRANCH  38  41
ENDBRANCH  36  37
ENDBRANCH   1  36
TORSDOF 16
ENDMDL
MODEL 3
REMARK VINA RESULT:     -12.4      6.656     11.396
REMARK SMILES Cc1c(CCC(=O)N2CCC(C(=O)NCCCNC(=O)c3ccc(-c4c5nc(c(-c6cccc(S(=O)(=O)[O-])c6F)c6ccc([nH]6)c(-c6cccc(S(=O)(=O)[O-])c6F)c6nc(c(-c7cccc(S(=O)(=O)[O-])c7F)c7ccc4[nH]7)C=C6)C=C5)cc3)CC2)c(=O)oc2cc3oc4c(c3cc12)CCCC4
REMARK SMILES IDX 16 1 15 2 14 3 12 4 13 5 11 7 6 8 7 9 8 10 9 11 85 12 10 13
REMARK SMILES IDX 84 14 5 15 4 16 3 17 1 18 2 19 97 20 86 21 89 22 96 23 87 24
REMARK SMILES IDX 88 25 90 26 95 27 91 28 94 29 92 30 93 31 98 32 101 33 99 34
REMARK SMILES IDX 100 35 17 36 18 37 19 38 20 40 21 41 22 42 83 43 23 44 82 45
REMARK SMILES IDX 24 46 25 47 26 48 76 49 27 50 81 51 75 52 77 53 28 54 80 55
REMARK SMILES IDX 74 56 73 57 29 59 61 60 41 61 60 62 42 63 45 64 59 65 78 66
REMARK SMILES IDX 43 67 44 68 58 70 79 71 46 72 30 73 31 74 39 75 32 76 34 77
REMARK SMILES IDX 40 78 33 79 35 80 36 81 37 82 38 83 62 84 63 85 71 86 64 87
REMARK SMILES IDX 66 88 72 89 65 90 67 91 68 92 69 93 70 94 47 95 48 96 56 97
REMARK SMILES IDX 49 98 51 99 57 100 50 101 52 102 53 103 54 104 55 105
REMARK H PARENT 14 6 18 39 77 58 45 69
REMARK Flexibility Score: inf
ROOT
ATOM      1  C   UNL A   1      43.613  20.382  25.394  1.00  0.00     0.042 C 
ENDROOT
BRANCH   1   2
ATOM      2  C   UNL A   1      45.137  20.350  25.358  1.00  0.00     0.117 C 
BRANCH   2   3
ATOM      3  N   UNL A   1      45.597  21.229  24.314  1.00  0.00    -0.356 N 
ATOM      4  C   UNL A   1      45.095  22.491  24.223  1.00  0.00     0.223 C 
ATOM      5  O   UNL A   1      44.494  22.780  23.186  1.00  0.00    -0.275 OA
ATOM      6  H   UNL A   1      46.272  20.919  23.668  1.00  0.00     0.163 HD
BRANCH   4   7
ATOM      7  C   UNL A   1      45.500  23.574  25.214  1.00  0.00     0.082 C 
ATOM      8  C   UNL A   1      48.932  25.255  26.392  1.00  0.00     0.222 C 
ATOM      9  O   UNL A   1      49.501  24.755  27.362  1.00  0.00    -0.275 OA
ATOM     10  N   UNL A   1      47.538  25.309  26.333  1.00  0.00    -0.343 N 
ATOM     11  C   UNL A   1      46.637  24.622  27.303  1.00  0.00     0.120 C 
ATOM     12  C   UNL A   1      46.910  25.546  25.081  1.00  0.00     0.120 C 
ATOM     13  C   UNL A   1      45.823  23.403  26.701  1.00  0.00     0.035 C 
ATOM     14  C   UNL A   1      46.750  24.138  24.589  1.00  0.00     0.035 C 
BRANCH   8  15
ATOM     15  C   UNL A   1      49.785  25.969  25.275  1.00  0.00     0.105 C 
BRANCH  15  16
ATOM     16  C   UNL A   1      49.869  27.526  25.078  1.00  0.00     0.053 C 
BRANCH  16  17
ATOM     17  C   UNL A   1      50.127  28.436  26.294  1.00  0.00     0.042 A 
ATOM     18  C   UNL A   1      47.699  29.026  26.795  1.00  0.00     0.046 C 
ATOM     19  C   UNL A   1      49.168  28.918  27.106  1.00  0.00    -0.030 A 
ATOM     20  C   UNL A   1      49.603  29.250  28.468  1.00  0.00     0.022 A 
ATOM     21  C   UNL A   1      51.495  29.025  26.531  1.00  0.00     0.339 A 
ATOM     22  C   UNL A   1      50.724  30.032  28.618  1.00  0.00     0.142 A 
ATOM     23  C   UNL A   1      49.018  28.729  29.621  1.00  0.00     0.024 A 
ATOM     24  O   UNL A   1      52.451  28.730  25.818  1.00  0.00    -0.246 OA
ATOM     25  O   UNL A   1      51.606  30.054  27.514  1.00  0.00    -0.422 OA
ATOM     26  C   UNL A   1      50.993  30.707  29.830  1.00  0.00     0.095 A 
ATOM     27  C   UNL A   1      49.384  29.195  30.873  1.00  0.00     0.025 A 
ATOM     28  C   UNL A   1      50.197  30.317  30.924  1.00  0.00     0.138 A 
ATOM     29  C   UNL A   1      48.969  28.895  32.178  1.00  0.00     0.001 A 
ATOM     30  O   UNL A   1      49.962  30.936  32.142  1.00  0.00    -0.461 OA
ATOM     31  C   UNL A   1      49.081  30.113  32.798  1.00  0.00     0.108 A 
ATOM     32  C   UNL A   1      48.114  27.813  32.733  1.00  0.00     0.040 C 
ATOM     33  C   UNL A   1      48.047  30.589  33.758  1.00  0.00     0.076 C 
ATOM     34  C   UNL A   1      46.769  28.364  33.237  1.00  0.00     0.005 C 
ATOM     35  C   UNL A   1      46.701  29.910  33.335  1.00  0.00     0.008 C 
ENDBRANCH  16  17
ENDBRANCH  15  16
ENDBRANCH   8  15
ENDBRANCH   4   7
ENDBRANCH   2   3
ENDBRANCH   1   2
BRANCH   1  36
ATOM     36  C   UNL A   1      43.023  20.840  26.739  1.00  0.00     0.118 C 
BRANCH  36  37
ATOM     37  N   UNL A   1      41.578  21.021  26.784  1.00  0.00    -0.352 N 
ATOM     38  C   UNL A   1      40.862  22.200  26.867  1.00  0.00     0.251 C 
ATOM     39  H   UNL A   1      41.042  20.197  26.752  1.00  0.00     0.163 HD
ATOM     40  O   UNL A   1      39.650  22.216  26.798  1.00  0.00    -0.269 OA
BRANCH  38  41
ATOM     41  C   UNL A   1      41.648  23.429  27.083  1.00  0.00     0.039 A 
ATOM     42  C   UNL A   1      41.658  24.003  28.360  1.00  0.00     0.014 A 
ATOM     43  C   UNL A   1      42.079  24.136  25.957  1.00  0.00     0.014 A 
ATOM     44  C   UNL A   1      41.959  25.351  28.489  1.00  0.00     0.010 A 
ATOM     45  C   UNL A   1      42.409  25.483  26.097  1.00  0.00     0.010 A 
ATOM     46  C   UNL A   1      42.297  26.100  27.353  1.00  0.00    -0.014 A 
BRANCH  46  47
ATOM     47  C   UNL A   1      42.608  27.520  27.555  1.00  0.00     0.031 A 
ATOM     48  C   UNL A   1      41.390  28.367  27.629  1.00  0.00     0.074 A 
ATOM     49  C   UNL A   1      43.751  27.965  28.121  1.00  0.00     0.049 A 
ATOM     50  N   UNL A   1      40.689  28.441  28.719  1.00  0.00    -0.248 NA
ATOM     51  C   UNL A   1      40.732  28.921  26.452  1.00  0.00     0.031 C 
ATOM     52  C   UNL A   1      44.585  27.180  29.041  1.00  0.00     0.029 A 
ATOM     53  N   UNL A   1      44.274  29.237  28.193  1.00  0.00    -0.354 N 
ATOM     54  C   UNL A   1      39.467  28.977  28.376  1.00  0.00     0.074 A 
ATOM     55  C   UNL A   1      39.547  29.290  26.964  1.00  0.00     0.031 C 
ATOM     56  C   UNL A   1      45.374  28.029  29.735  1.00  0.00     0.029 A 
ATOM     57  C   UNL A   1      45.228  29.379  29.200  1.00  0.00     0.049 A 
ATOM     58  H   UNL A   1      44.001  29.970  27.596  1.00  0.00     0.167 HD
ATOM     59  C   UNL A   1      38.455  29.114  29.271  1.00  0.00     0.034 A 
ATOM     60  C   UNL A   1      45.445  30.522  29.909  1.00  0.00     0.034 A 
ATOM     61  C   UNL A   1      38.734  28.645  30.599  1.00  0.00     0.049 A 
ATOM     62  C   UNL A   1      44.150  30.644  30.678  1.00  0.00     0.074 A 
ATOM     63  C   UNL A   1      38.536  27.481  31.310  1.00  0.00     0.029 A 
ATOM     64  N   UNL A   1      39.491  29.436  31.431  1.00  0.00    -0.354 N 
ATOM     65  N   UNL A   1      43.826  29.956  31.742  1.00  0.00    -0.248 NA
ATOM     66  C   UNL A   1      43.024  31.303  30.014  1.00  0.00     0.031 C 
ATOM     67  C   UNL A   1      39.545  27.473  32.326  1.00  0.00     0.029 A 
ATOM     68  C   UNL A   1      40.335  28.604  32.127  1.00  0.00     0.049 A 
ATOM     69  H   UNL A   1      39.439  30.416  31.512  1.00  0.00     0.167 HD
ATOM     70  C   UNL A   1      42.432  29.854  31.709  1.00  0.00     0.074 A 
ATOM     71  C   UNL A   1      42.004  30.726  30.634  1.00  0.00     0.031 C 
ATOM     72  C   UNL A   1      41.710  28.949  32.434  1.00  0.00     0.034 A 
BRANCH  59  73
ATOM     73  C   UNL A   1      37.211  29.854  28.982  1.00  0.00     0.023 A 
ATOM     74  C   UNL A   1      36.316  29.239  28.086  1.00  0.00     0.012 A 
ATOM     75  C   UNL A   1      36.966  31.163  29.428  1.00  0.00     0.148 A 
ATOM     76  C   UNL A   1      35.213  29.929  27.597  1.00  0.00     0.002 A 
ATOM     77  C   UNL A   1      35.856  31.845  28.941  1.00  0.00     0.091 A 
ATOM     78  F   UNL A   1      37.837  31.727  30.277  1.00  0.00    -0.205 F 
ATOM     79  C   UNL A   1      34.988  31.235  28.018  1.00  0.00     0.022 A 
BRANCH  77  80
ATOM     80  S   UNL A   1      35.453  33.526  29.428  1.00  0.00     0.127 S 
ATOM     81  O   UNL A   1      35.165  33.369  30.852  1.00  0.00    -0.237 OA
ATOM     82  O   UNL A   1      36.698  34.239  29.133  1.00  0.00    -0.237 OA
ATOM     83  O   UNL A   1      34.327  33.920  28.592  1.00  0.00    -0.744 OA
ENDBRANCH  77  80
ENDBRANCH  59  73
BRANCH  60  84
ATOM     84  C   UNL A   1      46.056  31.641  29.108  1.00  0.00     0.023 A 
ATOM     85  C   UNL A   1      47.387  32.007  29.431  1.00  0.00     0.012 A 
ATOM     86  C   UNL A   1      45.432  32.345  28.061  1.00  0.00     0.148 A 
ATOM     87  C   UNL A   1      48.104  32.938  28.674  1.00  0.00     0.002 A 
ATOM     88  C   UNL A   1      46.172  33.218  27.262  1.00  0.00     0.091 A 
ATOM     89  F   UNL A   1      44.123  32.173  27.848  1.00  0.00    -0.205 F 
ATOM     90  C   UNL A   1      47.506  33.516  27.565  1.00  0.00     0.022 A 
BRANCH  88  91
ATOM     91  S   UNL A   1      45.520  33.921  25.740  1.00  0.00     0.127 S 
ATOM     92  O   UNL A   1      44.957  32.745  25.079  1.00  0.00    -0.237 OA
ATOM     93  O   UNL A   1      44.535  34.869  26.259  1.00  0.00    -0.237 OA
ATOM     94  O   UNL A   1      46.659  34.529  25.066  1.00  0.00    -0.744 OA
ENDBRANCH  88  91
ENDBRANCH  60  84
BRANCH  72  95
ATOM     95  C   UNL A   1      42.460  28.155  33.463  1.00  0.00     0.023 A 
ATOM     96  C   UNL A   1      42.327  28.513  34.818  1.00  0.00     0.012 A 
ATOM     97  C   UNL A   1      43.206  27.006  33.131  1.00  0.00     0.148 A 
ATOM     98  C   UNL A   1      42.898  27.731  35.823  1.00  0.00     0.002 A 
ATOM     99  C   UNL A   1      43.729  26.201  34.139  1.00  0.00     0.091 A 
ATOM    100  F   UNL A   1      43.366  26.684  31.838  1.00  0.00    -0.205 F 
ATOM    101  C   UNL A   1      43.585  26.566  35.486  1.00  0.00     0.022 A 
BRANCH  99 102
ATOM    102  S   UNL A   1      44.532  24.635  33.769  1.00  0.00     0.127 S 
ATOM    103  O   UNL A   1      45.877  25.043  33.362  1.00  0.00    -0.237 OA
ATOM    104  O   UNL A   1      44.476  23.955  35.062  1.00  0.00    -0.237 OA
ATOM    105  O   UNL A   1      43.748  24.029  32.698  1.00  0.00    -0.744 OA
ENDBRANCH  99 102
ENDBRANCH  72  95
ENDBRANCH  46  47
ENDBRANCH  38  41
ENDBRANCH  36  37
ENDBRANCH   1  36
TORSDOF 16
ENDMDL
