MODEL 1
REMARK VINA RESULT:     -12.4      0.000      0.000
REMARK SMILES O=C(NCCCNC(=O)[C@H]1[C@@H]2CC[C@@H](C2)[C@@H]1C(=O)Nc1ccc([N+](=O)[O-])cc1)c1ccc(-c2c3nc(c(-c4cccc(S(=O)(=O)[O-])c4F)c4ccc([nH]4)c(-c4cccc(S(=O)(=O)[O-])c4F)c4nc(c(-c5cccc(S(=O)(=O)[O-])c5F)c5ccc2[nH]5)C=C4)C=C3)cc1
REMARK SMILES IDX 5 1 4 2 3 3 1 4 2 5 29 7 30 8 91 9 31 10 90 11 32 12 33 13
REMARK SMILES IDX 34 14 84 15 35 16 89 17 83 18 85 19 36 20 88 21 82 22 81 23
REMARK SMILES IDX 37 25 69 26 49 27 68 28 50 29 53 30 67 31 86 32 51 33 52 34
REMARK SMILES IDX 66 36 87 37 54 38 38 39 39 40 47 41 40 42 42 43 48 44 41 45
REMARK SMILES IDX 43 46 44 47 45 48 46 49 70 50 71 51 79 52 72 53 74 54 80 55
REMARK SMILES IDX 73 56 75 57 76 58 77 59 78 60 55 61 56 62 64 63 57 64 59 65
REMARK SMILES IDX 65 66 58 67 60 68 61 69 62 70 63 71 6 72 7 73 8 74 9 76
REMARK SMILES IDX 10 77 11 78 16 79 12 80 15 81 14 82 13 83 17 84 18 85 19 86
REMARK SMILES IDX 20 88 21 89 28 90 22 91 27 92 23 93 24 94 25 95 26 96
REMARK H PARENT 3 6 85 24 53 35 7 75 19 87
REMARK Flexibility Score: inf
ROOT
ATOM      1  C   UNL A   1      31.510  31.948  26.866  1.00  0.00     0.042 C 
ENDROOT
BRANCH   1   2
ATOM      2  C   UNL A   1      32.751  32.827  26.923  1.00  0.00     0.118 C 
BRANCH   2   3
ATOM      3  N   UNL A   1      32.542  34.087  27.622  1.00  0.00    -0.352 N 
ATOM      4  O   UNL A   1      32.708  35.621  29.258  1.00  0.00    -0.269 OA
ATOM      5  C   UNL A   1      33.158  34.608  28.741  1.00  0.00     0.251 C 
ATOM      6  H   UNL A   1      31.845  34.662  27.231  1.00  0.00     0.163 HD
BRANCH   5   7
ATOM      7  C   UNL A   1      34.324  33.916  29.336  1.00  0.00     0.039 A 
ATOM      8  C   UNL A   1      34.146  32.816  30.169  1.00  0.00     0.014 A 
ATOM      9  C   UNL A   1      35.618  34.369  29.061  1.00  0.00     0.014 A 
ATOM     10  C   UNL A   1      35.210  32.330  30.910  1.00  0.00     0.010 A 
ATOM     11  C   UNL A   1      36.717  33.767  29.688  1.00  0.00     0.010 A 
ATOM     12  C   UNL A   1      36.518  32.769  30.654  1.00  0.00    -0.014 A 
BRANCH  12  13
ATOM     13  C   UNL A   1      37.641  32.082  31.348  1.00  0.00     0.031 A 
ATOM     14  C   UNL A   1      38.416  30.968  30.699  1.00  0.00     0.074 A 
ATOM     15  C   UNL A   1      37.986  32.520  32.577  1.00  0.00     0.049 A 
ATOM     16  N   UNL A   1      39.454  30.320  31.162  1.00  0.00    -0.248 NA
ATOM     17  C   UNL A   1      37.971  30.509  29.373  1.00  0.00     0.031 C 
ATOM     18  C   UNL A   1      37.274  33.560  33.329  1.00  0.00     0.029 A 
ATOM     19  N   UNL A   1      39.027  32.178  33.402  1.00  0.00    -0.354 N 
ATOM     20  C   UNL A   1      39.758  29.350  30.213  1.00  0.00     0.074 A 
ATOM     21  C   UNL A   1      38.792  29.492  29.145  1.00  0.00     0.031 C 
ATOM     22  C   UNL A   1      37.932  33.819  34.464  1.00  0.00     0.029 A 
ATOM     23  C   UNL A   1      39.067  32.912  34.565  1.00  0.00     0.049 A 
ATOM     24  H   UNL A   1      39.680  31.477  33.182  1.00  0.00     0.167 HD
ATOM     25  C   UNL A   1      40.759  28.437  30.227  1.00  0.00     0.034 A 
ATOM     26  C   UNL A   1      39.911  32.855  35.612  1.00  0.00     0.034 A 
ATOM     27  C   UNL A   1      41.745  28.335  31.272  1.00  0.00     0.049 A 
ATOM     28  C   UNL A   1      41.037  31.866  35.572  1.00  0.00     0.074 A 
ATOM     29  C   UNL A   1      42.827  27.475  31.351  1.00  0.00     0.029 A 
ATOM     30  N   UNL A   1      41.774  29.117  32.416  1.00  0.00    -0.354 N 
ATOM     31  N   UNL A   1      41.365  31.033  34.614  1.00  0.00    -0.248 NA
ATOM     32  C   UNL A   1      41.917  31.818  36.745  1.00  0.00     0.031 C 
ATOM     33  C   UNL A   1      43.504  27.731  32.550  1.00  0.00     0.029 A 
ATOM     34  C   UNL A   1      42.852  28.760  33.209  1.00  0.00     0.049 A 
ATOM     35  H   UNL A   1      41.125  29.825  32.633  1.00  0.00     0.167 HD
ATOM     36  C   UNL A   1      42.494  30.365  35.066  1.00  0.00     0.074 A 
ATOM     37  C   UNL A   1      42.820  30.925  36.363  1.00  0.00     0.031 C 
ATOM     38  C   UNL A   1      43.183  29.358  34.477  1.00  0.00     0.034 A 
BRANCH  25  39
ATOM     39  C   UNL A   1      40.875  27.494  29.057  1.00  0.00     0.023 A 
ATOM     40  C   UNL A   1      40.016  26.380  28.978  1.00  0.00     0.012 A 
ATOM     41  C   UNL A   1      41.763  27.759  27.995  1.00  0.00     0.148 A 
ATOM     42  C   UNL A   1      40.051  25.533  27.870  1.00  0.00     0.002 A 
ATOM     43  C   UNL A   1      41.767  26.930  26.878  1.00  0.00     0.091 A 
ATOM     44  F   UNL A   1      42.586  28.813  28.097  1.00  0.00    -0.205 F 
ATOM     45  C   UNL A   1      40.916  25.814  26.817  1.00  0.00     0.022 A 
BRANCH  43  46
ATOM     46  S   UNL A   1      42.793  27.247  25.437  1.00  0.00     0.127 S 
ATOM     47  O   UNL A   1      44.101  27.473  26.050  1.00  0.00    -0.237 OA
ATOM     48  O   UNL A   1      42.678  25.992  24.694  1.00  0.00    -0.237 OA
ATOM     49  O   UNL A   1      42.207  28.403  24.772  1.00  0.00    -0.744 OA
ENDBRANCH  43  46
ENDBRANCH  25  39
BRANCH  26  50
ATOM     50  C   UNL A   1      39.731  33.786  36.761  1.00  0.00     0.023 A 
ATOM     51  C   UNL A   1      40.042  35.151  36.607  1.00  0.00     0.012 A 
ATOM     52  C   UNL A   1      39.199  33.338  37.986  1.00  0.00     0.148 A 
ATOM     53  C   UNL A   1      39.846  36.046  37.659  1.00  0.00     0.002 A 
ATOM     54  C   UNL A   1      38.944  34.247  39.004  1.00  0.00     0.091 A 
ATOM     55  F   UNL A   1      38.930  32.032  38.126  1.00  0.00    -0.205 F 
ATOM     56  C   UNL A   1      39.282  35.598  38.852  1.00  0.00     0.022 A 
BRANCH  54  57
ATOM     57  S   UNL A   1      38.065  33.761  40.494  1.00  0.00     0.127 S 
ATOM     58  O   UNL A   1      39.023  32.863  41.130  1.00  0.00    -0.237 OA
ATOM     59  O   UNL A   1      37.873  35.042  41.176  1.00  0.00    -0.237 OA
ATOM     60  O   UNL A   1      36.827  33.153  40.021  1.00  0.00    -0.744 OA
ENDBRANCH  54  57
ENDBRANCH  26  50
BRANCH  38  61
ATOM     61  C   UNL A   1      44.357  28.801  35.234  1.00  0.00     0.023 A 
ATOM     62  C   UNL A   1      45.645  29.319  34.991  1.00  0.00     0.012 A 
ATOM     63  C   UNL A   1      44.185  27.799  36.206  1.00  0.00     0.148 A 
ATOM     64  C   UNL A   1      46.750  28.823  35.680  1.00  0.00     0.002 A 
ATOM     65  C   UNL A   1      45.284  27.340  36.921  1.00  0.00     0.091 A 
ATOM     66  F   UNL A   1      42.954  27.303  36.405  1.00  0.00    -0.205 F 
ATOM     67  C   UNL A   1      46.568  27.841  36.651  1.00  0.00     0.022 A 
BRANCH  65  68
ATOM     68  S   UNL A   1      45.125  26.139  38.247  1.00  0.00     0.127 S 
ATOM     69  O   UNL A   1      46.457  26.181  38.848  1.00  0.00    -0.237 OA
ATOM     70  O   UNL A   1      44.065  26.720  39.073  1.00  0.00    -0.237 OA
ATOM     71  O   UNL A   1      44.763  24.884  37.603  1.00  0.00    -0.744 OA
ENDBRANCH  65  68
ENDBRANCH  38  61
ENDBRANCH  12  13
ENDBRANCH   5   7
ENDBRANCH   2   3
ENDBRANCH   1   2
BRANCH   1  72
ATOM     72  C   UNL A   1      31.798  30.463  26.733  1.00  0.00     0.117 C 
BRANCH  72  73
ATOM     73  N   UNL A   1      32.587  30.152  25.559  1.00  0.00    -0.356 N 
ATOM     74  C   UNL A   1      32.377  29.292  24.540  1.00  0.00     0.224 C 
ATOM     75  H   UNL A   1      33.426  30.660  25.490  1.00  0.00     0.163 HD
ATOM     76  O   UNL A   1      33.260  29.260  23.680  1.00  0.00    -0.275 OA
BRANCH  74  77
ATOM     77  C   UNL A   1      31.177  28.359  24.511  1.00  0.00     0.094 C 
ATOM     78  C   UNL A   1      30.410  28.327  23.159  1.00  0.00     0.002 C 
ATOM     79  C   UNL A   1      31.646  26.884  24.635  1.00  0.00     0.094 C 
ATOM     80  C   UNL A   1      29.020  27.736  23.431  1.00  0.00     0.005 C 
ATOM     81  C   UNL A   1      31.075  27.191  22.379  1.00  0.00     0.009 C 
ATOM     82  C   UNL A   1      30.864  26.177  23.501  1.00  0.00     0.002 C 
ATOM     83  C   UNL A   1      29.336  26.258  23.693  1.00  0.00     0.005 C 
BRANCH  79  84
ATOM     84  C   UNL A   1      31.439  26.215  25.990  1.00  0.00     0.228 C 
ATOM     85  O   UNL A   1      30.692  26.691  26.846  1.00  0.00    -0.274 OA
ATOM     86  N   UNL A   1      31.946  24.946  26.176  1.00  0.00    -0.326 N 
ATOM     87  H   UNL A   1      31.454  24.384  26.817  1.00  0.00     0.169 HD
BRANCH  86  88
ATOM     88  C   UNL A   1      33.066  24.345  25.580  1.00  0.00     0.041 A 
ATOM     89  C   UNL A   1      32.879  23.245  24.742  1.00  0.00     0.033 A 
ATOM     90  C   UNL A   1      34.367  24.778  25.849  1.00  0.00     0.033 A 
ATOM     91  C   UNL A   1      33.972  22.667  24.080  1.00  0.00     0.088 A 
ATOM     92  C   UNL A   1      35.468  24.216  25.199  1.00  0.00     0.088 A 
ATOM     93  C   UNL A   1      35.262  23.174  24.295  1.00  0.00     0.269 A 
BRANCH  93  94
ATOM     94  N   UNL A   1      36.404  22.608  23.567  1.00  0.00     0.062 N 
ATOM     95  O   UNL A   1      36.584  22.982  22.400  1.00  0.00    -0.258 OA
ATOM     96  O   UNL A   1      37.129  21.798  24.163  1.00  0.00    -0.258 OA
ENDBRANCH  93  94
ENDBRANCH  86  88
ENDBRANCH  79  84
ENDBRANCH  74  77
ENDBRANCH  72  73
ENDBRANCH   1  72
TORSDOF 16
ENDMDL
MODEL 2
REMARK VINA RESULT:     -12.3      6.400     11.399
REMARK SMILES O=C(NCCCNC(=O)[C@H]1[C@@H]2CC[C@@H](C2)[C@@H]1C(=O)Nc1ccc([N+](=O)[O-])cc1)c1ccc(-c2c3nc(c(-c4cccc(S(=O)(=O)[O-])c4F)c4ccc([nH]4)c(-c4cccc(S(=O)(=O)[O-])c4F)c4nc(c(-c5cccc(S(=O)(=O)[O-])c5F)c5ccc2[nH]5)C=C4)C=C3)cc1
REMARK SMILES IDX 5 1 4 2 3 3 1 4 2 5 29 7 30 8 91 9 31 10 90 11 32 12 33 13
REMARK SMILES IDX 34 14 84 15 35 16 89 17 83 18 85 19 36 20 88 21 82 22 81 23
REMARK SMILES IDX 37 25 69 26 49 27 68 28 50 29 53 30 67 31 86 32 51 33 52 34
REMARK SMILES IDX 66 36 87 37 54 38 38 39 39 40 47 41 40 42 42 43 48 44 41 45
REMARK SMILES IDX 43 46 44 47 45 48 46 49 70 50 71 51 79 52 72 53 74 54 80 55
REMARK SMILES IDX 73 56 75 57 76 58 77 59 78 60 55 61 56 62 64 63 57 64 59 65
REMARK SMILES IDX 65 66 58 67 60 68 61 69 62 70 63 71 6 72 7 73 8 74 9 76
REMARK SMILES IDX 10 77 11 78 16 79 12 80 15 81 14 82 13 83 17 84 18 85 19 86
REMARK SMILES IDX 20 88 21 89 28 90 22 91 27 92 23 93 24 94 25 95 26 96
REMARK H PARENT 3 6 85 24 53 35 7 75 19 87
REMARK Flexibility Score: inf
ROOT
ATOM      1  C   UNL A   1      37.221  19.420  25.003  1.00  0.00     0.042 C 
ENDROOT
BRANCH   1   2
ATOM      2  C   UNL A   1      38.476  20.161  25.441  1.00  0.00     0.118 C 
BRANCH   2   3
ATOM      3  N   UNL A   1      39.588  19.281  25.770  1.00  0.00    -0.352 N 
ATOM      4  O   UNL A   1      41.698  18.673  26.255  1.00  0.00    -0.269 OA
ATOM      5  C   UNL A   1      40.869  19.570  26.193  1.00  0.00     0.251 C 
ATOM      6  H   UNL A   1      39.393  18.321  25.675  1.00  0.00     0.163 HD
BRANCH   5   7
ATOM      7  C   UNL A   1      41.245  20.964  26.522  1.00  0.00     0.039 A 
ATOM      8  C   UNL A   1      40.750  22.027  25.772  1.00  0.00     0.014 A 
ATOM      9  C   UNL A   1      42.106  21.219  27.593  1.00  0.00     0.014 A 
ATOM     10  C   UNL A   1      41.291  23.292  25.925  1.00  0.00     0.010 A 
ATOM     11  C   UNL A   1      42.528  22.530  27.853  1.00  0.00     0.010 A 
ATOM     12  C   UNL A   1      42.158  23.574  26.993  1.00  0.00    -0.014 A 
BRANCH  12  13
ATOM     13  C   UNL A   1      42.562  24.988  27.218  1.00  0.00     0.031 A 
ATOM     14  C   UNL A   1      41.681  25.960  27.956  1.00  0.00     0.074 A 
ATOM     15  C   UNL A   1      43.779  25.375  26.781  1.00  0.00     0.049 A 
ATOM     16  N   UNL A   1      41.930  27.204  28.276  1.00  0.00    -0.248 NA
ATOM     17  C   UNL A   1      40.352  25.491  28.377  1.00  0.00     0.031 C 
ATOM     18  C   UNL A   1      44.699  24.534  26.007  1.00  0.00     0.029 A 
ATOM     19  N   UNL A   1      44.467  26.550  26.939  1.00  0.00    -0.354 N 
ATOM     20  C   UNL A   1      40.779  27.682  28.892  1.00  0.00     0.074 A 
ATOM     21  C   UNL A   1      39.826  26.592  28.900  1.00  0.00     0.031 C 
ATOM     22  C   UNL A   1      45.850  25.189  25.820  1.00  0.00     0.029 A 
ATOM     23  C   UNL A   1      45.727  26.525  26.385  1.00  0.00     0.049 A 
ATOM     24  H   UNL A   1      44.096  27.334  27.403  1.00  0.00     0.167 HD
ATOM     25  C   UNL A   1      40.546  28.909  29.414  1.00  0.00     0.034 A 
ATOM     26  C   UNL A   1      46.677  27.476  26.321  1.00  0.00     0.034 A 
ATOM     27  C   UNL A   1      41.517  29.972  29.445  1.00  0.00     0.049 A 
ATOM     28  C   UNL A   1      46.404  28.807  26.952  1.00  0.00     0.074 A 
ATOM     29  C   UNL A   1      41.391  31.236  29.997  1.00  0.00     0.029 A 
ATOM     30  N   UNL A   1      42.792  29.899  28.906  1.00  0.00    -0.354 N 
ATOM     31  N   UNL A   1      45.347  29.198  27.622  1.00  0.00    -0.248 NA
ATOM     32  C   UNL A   1      47.457  29.823  26.835  1.00  0.00     0.031 C 
ATOM     33  C   UNL A   1      42.588  31.929  29.782  1.00  0.00     0.029 A 
ATOM     34  C   UNL A   1      43.464  31.093  29.109  1.00  0.00     0.049 A 
ATOM     35  H   UNL A   1      43.167  29.112  28.449  1.00  0.00     0.167 HD
ATOM     36  C   UNL A   1      45.609  30.503  28.012  1.00  0.00     0.074 A 
ATOM     37  C   UNL A   1      46.944  30.820  27.543  1.00  0.00     0.031 C 
ATOM     38  C   UNL A   1      44.807  31.373  28.672  1.00  0.00     0.034 A 
BRANCH  25  39
ATOM     39  C   UNL A   1      39.199  29.170  30.041  1.00  0.00     0.023 A 
ATOM     40  C   UNL A   1      38.931  28.677  31.334  1.00  0.00     0.012 A 
ATOM     41  C   UNL A   1      38.241  29.976  29.395  1.00  0.00     0.148 A 
ATOM     42  C   UNL A   1      37.722  28.966  31.967  1.00  0.00     0.002 A 
ATOM     43  C   UNL A   1      37.053  30.290  30.048  1.00  0.00     0.091 A 
ATOM     44  F   UNL A   1      38.507  30.420  28.159  1.00  0.00    -0.205 F 
ATOM     45  C   UNL A   1      36.790  29.780  31.330  1.00  0.00     0.022 A 
BRANCH  43  46
ATOM     46  S   UNL A   1      35.818  31.389  29.344  1.00  0.00     0.127 S 
ATOM     47  O   UNL A   1      35.102  30.488  28.442  1.00  0.00    -0.237 OA
ATOM     48  O   UNL A   1      35.059  31.798  30.526  1.00  0.00    -0.237 OA
ATOM     49  O   UNL A   1      36.558  32.462  28.695  1.00  0.00    -0.744 OA
ENDBRANCH  43  46
ENDBRANCH  25  39
BRANCH  26  50
ATOM     50  C   UNL A   1      47.979  27.178  25.659  1.00  0.00     0.023 A 
ATOM     51  C   UNL A   1      49.015  26.576  26.398  1.00  0.00     0.012 A 
ATOM     52  C   UNL A   1      48.174  27.435  24.288  1.00  0.00     0.148 A 
ATOM     53  C   UNL A   1      50.229  26.256  25.787  1.00  0.00     0.002 A 
ATOM     54  C   UNL A   1      49.359  27.051  23.672  1.00  0.00     0.091 A 
ATOM     55  F   UNL A   1      47.188  28.030  23.602  1.00  0.00    -0.205 F 
ATOM     56  C   UNL A   1      50.395  26.479  24.422  1.00  0.00     0.022 A 
BRANCH  54  57
ATOM     57  S   UNL A   1      49.566  27.156  21.891  1.00  0.00     0.127 S 
ATOM     58  O   UNL A   1      49.250  28.557  21.632  1.00  0.00    -0.237 OA
ATOM     59  O   UNL A   1      50.975  26.799  21.718  1.00  0.00    -0.237 OA
ATOM     60  O   UNL A   1      48.637  26.174  21.344  1.00  0.00    -0.744 OA
ENDBRANCH  54  57
ENDBRANCH  26  50
BRANCH  38  61
ATOM     61  C   UNL A   1      45.357  32.751  28.924  1.00  0.00     0.023 A 
ATOM     62  C   UNL A   1      46.096  32.995  30.099  1.00  0.00     0.012 A 
ATOM     63  C   UNL A   1      45.179  33.786  27.989  1.00  0.00     0.148 A 
ATOM     64  C   UNL A   1      46.619  34.261  30.356  1.00  0.00     0.002 A 
ATOM     65  C   UNL A   1      45.740  35.033  28.230  1.00  0.00     0.091 A 
ATOM     66  F   UNL A   1      44.452  33.538  26.888  1.00  0.00    -0.205 F 
ATOM     67  C   UNL A   1      46.450  35.276  29.418  1.00  0.00     0.022 A 
BRANCH  65  68
ATOM     68  S   UNL A   1      45.642  36.370  27.035  1.00  0.00     0.127 S 
ATOM     69  O   UNL A   1      46.216  35.748  25.843  1.00  0.00    -0.237 OA
ATOM     70  O   UNL A   1      44.202  36.621  26.960  1.00  0.00    -0.237 OA
ATOM     71  O   UNL A   1      46.413  37.467  27.606  1.00  0.00    -0.744 OA
ENDBRANCH  65  68
ENDBRANCH  38  61
ENDBRANCH  12  13
ENDBRANCH   5   7
ENDBRANCH   2   3
ENDBRANCH   1   2
BRANCH   1  72
ATOM     72  C   UNL A   1      35.995  20.302  24.841  1.00  0.00     0.117 C 
BRANCH  72  73
ATOM     73  N   UNL A   1      35.394  20.658  26.110  1.00  0.00    -0.356 N 
ATOM     74  C   UNL A   1      34.526  21.634  26.449  1.00  0.00     0.224 C 
ATOM     75  H   UNL A   1      35.668  20.084  26.861  1.00  0.00     0.163 HD
ATOM     76  O   UNL A   1      34.206  21.672  27.639  1.00  0.00    -0.275 OA
BRANCH  74  77
ATOM     77  C   UNL A   1      34.052  22.672  25.444  1.00  0.00     0.094 C 
ATOM     78  C   UNL A   1      35.086  23.789  25.125  1.00  0.00     0.002 C 
ATOM     79  C   UNL A   1      33.867  22.015  24.049  1.00  0.00     0.094 C 
ATOM     80  C   UNL A   1      34.319  24.960  24.495  1.00  0.00     0.005 C 
ATOM     81  C   UNL A   1      35.859  23.249  23.921  1.00  0.00     0.009 C 
ATOM     82  C   UNL A   1      34.593  23.004  23.104  1.00  0.00     0.002 C 
ATOM     83  C   UNL A   1      33.956  24.409  23.110  1.00  0.00     0.005 C 
BRANCH  79  84
ATOM     84  C   UNL A   1      32.431  21.739  23.612  1.00  0.00     0.228 C 
ATOM     85  O   UNL A   1      31.637  22.648  23.368  1.00  0.00    -0.274 OA
ATOM     86  N   UNL A   1      32.085  20.444  23.290  1.00  0.00    -0.326 N 
ATOM     87  H   UNL A   1      31.368  20.351  22.622  1.00  0.00     0.169 HD
BRANCH  86  88
ATOM     88  C   UNL A   1      32.611  19.239  23.784  1.00  0.00     0.041 A 
ATOM     89  C   UNL A   1      33.201  18.342  22.892  1.00  0.00     0.033 A 
ATOM     90  C   UNL A   1      32.506  18.885  25.131  1.00  0.00     0.033 A 
ATOM     91  C   UNL A   1      33.794  17.163  23.367  1.00  0.00     0.088 A 
ATOM     92  C   UNL A   1      33.091  17.716  25.622  1.00  0.00     0.088 A 
ATOM     93  C   UNL A   1      33.757  16.867  24.737  1.00  0.00     0.269 A 
BRANCH  93  94
ATOM     94  N   UNL A   1      34.420  15.662  25.247  1.00  0.00     0.062 N 
ATOM     95  O   UNL A   1      35.631  15.735  25.501  1.00  0.00    -0.258 OA
ATOM     96  O   UNL A   1      33.731  14.644  25.405  1.00  0.00    -0.258 OA
ENDBRANCH  93  94
ENDBRANCH  86  88
ENDBRANCH  79  84
ENDBRANCH  74  77
ENDBRANCH  72  73
ENDBRANCH   1  72
TORSDOF 16
ENDMDL
MODEL 3
REMARK VINA RESULT:     -12.3      5.898      8.654
REMARK SMILES O=C(NCCCNC(=O)[C@H]1[C@@H]2CC[C@@H](C2)[C@@H]1C(=O)Nc1ccc([N+](=O)[O-])cc1)c1ccc(-c2c3nc(c(-c4cccc(S(=O)(=O)[O-])c4F)c4ccc([nH]4)c(-c4cccc(S(=O)(=O)[O-])c4F)c4nc(c(-c5cccc(S(=O)(=O)[O-])c5F)c5ccc2[nH]5)C=C4)C=C3)cc1
REMARK SMILES IDX 5 1 4 2 3 3 1 4 2 5 29 7 30 8 91 9 31 10 90 11 32 12 33 13
REMARK SMILES IDX 34 14 84 15 35 16 89 17 83 18 85 19 36 20 88 21 82 22 81 23
REMARK SMILES IDX 37 25 69 26 49 27 68 28 50 29 53 30 67 31 86 32 51 33 52 34
REMARK SMILES IDX 66 36 87 37 54 38 38 39 39 40 47 41 40 42 42 43 48 44 41 45
REMARK SMILES IDX 43 46 44 47 45 48 46 49 70 50 71 51 79 52 72 53 74 54 80 55
REMARK SMILES IDX 73 56 75 57 76 58 77 59 78 60 55 61 56 62 64 63 57 64 59 65
REMARK SMILES IDX 65 66 58 67 60 68 61 69 62 70 63 71 6 72 7 73 8 74 9 76
REMARK SMILES IDX 10 77 11 78 16 79 12 80 15 81 14 82 13 83 17 84 18 85 19 86
REMARK SMILES IDX 20 88 21 89 28 90 22 91 27 92 23 93 24 94 25 95 26 96
REMARK H PARENT 3 6 85 24 53 35 7 75 19 87
REMARK Flexibility Score: inf
ROOT
ATOM      1  C   UNL A   1      36.963  22.282  24.246  1.00  0.00     0.042 C 
ENDROOT
BRANCH   1   2
ATOM      2  C   UNL A   1      37.286  21.998  25.706  1.00  0.00     0.118 C 
BRANCH   2   3
ATOM      3  N   UNL A   1      38.315  20.985  25.889  1.00  0.00    -0.352 N 
ATOM      4  O   UNL A   1      40.367  20.130  26.230  1.00  0.00    -0.269 OA
ATOM      5  C   UNL A   1      39.626  21.099  26.306  1.00  0.00     0.251 C 
ATOM      6  H   UNL A   1      38.030  20.066  25.681  1.00  0.00     0.163 HD
BRANCH   5   7
ATOM      7  C   UNL A   1      40.138  22.400  26.795  1.00  0.00     0.039 A 
ATOM      8  C   UNL A   1      39.770  23.586  26.169  1.00  0.00     0.014 A 
ATOM      9  C   UNL A   1      41.000  22.440  27.895  1.00  0.00     0.014 A 
ATOM     10  C   UNL A   1      40.436  24.763  26.470  1.00  0.00     0.010 A 
ATOM     11  C   UNL A   1      41.550  23.661  28.307  1.00  0.00     0.010 A 
ATOM     12  C   UNL A   1      41.307  24.828  27.570  1.00  0.00    -0.014 A 
BRANCH  12  13
ATOM     13  C   UNL A   1      41.851  26.158  27.959  1.00  0.00     0.031 A 
ATOM     14  C   UNL A   1      43.238  26.595  27.573  1.00  0.00     0.074 A 
ATOM     15  C   UNL A   1      41.041  26.998  28.636  1.00  0.00     0.049 A 
ATOM     16  N   UNL A   1      43.821  27.746  27.792  1.00  0.00    -0.248 NA
ATOM     17  C   UNL A   1      44.087  25.623  26.866  1.00  0.00     0.031 C 
ATOM     18  C   UNL A   1      39.692  26.665  29.111  1.00  0.00     0.029 A 
ATOM     19  N   UNL A   1      41.207  28.303  29.022  1.00  0.00    -0.354 N 
ATOM     20  C   UNL A   1      45.114  27.624  27.297  1.00  0.00     0.074 A 
ATOM     21  C   UNL A   1      45.233  26.284  26.764  1.00  0.00     0.031 C 
ATOM     22  C   UNL A   1      39.131  27.749  29.657  1.00  0.00     0.029 A 
ATOM     23  C   UNL A   1      40.103  28.834  29.650  1.00  0.00     0.049 A 
ATOM     24  H   UNL A   1      42.036  28.810  28.866  1.00  0.00     0.167 HD
ATOM     25  C   UNL A   1      46.102  28.551  27.275  1.00  0.00     0.034 A 
ATOM     26  C   UNL A   1      39.895  30.053  30.179  1.00  0.00     0.034 A 
ATOM     27  C   UNL A   1      45.958  29.897  27.763  1.00  0.00     0.049 A 
ATOM     28  C   UNL A   1      40.993  31.070  30.094  1.00  0.00     0.074 A 
ATOM     29  C   UNL A   1      46.887  30.925  27.740  1.00  0.00     0.029 A 
ATOM     30  N   UNL A   1      44.815  30.408  28.359  1.00  0.00    -0.354 N 
ATOM     31  N   UNL A   1      42.169  30.963  29.524  1.00  0.00    -0.248 NA
ATOM     32  C   UNL A   1      40.733  32.377  30.708  1.00  0.00     0.031 C 
ATOM     33  C   UNL A   1      46.308  32.053  28.332  1.00  0.00     0.029 A 
ATOM     34  C   UNL A   1      45.014  31.734  28.710  1.00  0.00     0.049 A 
ATOM     35  H   UNL A   1      43.983  29.904  28.509  1.00  0.00     0.167 HD
ATOM     36  C   UNL A   1      42.788  32.191  29.705  1.00  0.00     0.074 A 
ATOM     37  C   UNL A   1      41.838  33.041  30.396  1.00  0.00     0.031 C 
ATOM     38  C   UNL A   1      44.041  32.574  29.360  1.00  0.00     0.034 A 
BRANCH  25  39
ATOM     39  C   UNL A   1      47.425  28.162  26.664  1.00  0.00     0.023 A 
ATOM     40  C   UNL A   1      48.516  27.870  27.506  1.00  0.00     0.012 A 
ATOM     41  C   UNL A   1      47.562  27.997  25.271  1.00  0.00     0.148 A 
ATOM     42  C   UNL A   1      49.729  27.436  26.972  1.00  0.00     0.002 A 
ATOM     43  C   UNL A   1      48.763  27.530  24.748  1.00  0.00     0.091 A 
ATOM     44  F   UNL A   1      46.518  28.299  24.486  1.00  0.00    -0.205 F 
ATOM     45  C   UNL A   1      49.849  27.256  25.596  1.00  0.00     0.022 A 
BRANCH  43  46
ATOM     46  S   UNL A   1      48.997  27.196  22.998  1.00  0.00     0.127 S 
ATOM     47  O   UNL A   1      50.450  27.057  22.916  1.00  0.00    -0.237 OA
ATOM     48  O   UNL A   1      48.255  25.947  22.821  1.00  0.00    -0.237 OA
ATOM     49  O   UNL A   1      48.438  28.340  22.292  1.00  0.00    -0.744 OA
ENDBRANCH  43  46
ENDBRANCH  25  39
BRANCH  26  50
ATOM     50  C   UNL A   1      38.580  30.375  30.803  1.00  0.00     0.023 A 
ATOM     51  C   UNL A   1      38.343  30.029  32.147  1.00  0.00     0.012 A 
ATOM     52  C   UNL A   1      37.585  31.071  30.089  1.00  0.00     0.148 A 
ATOM     53  C   UNL A   1      37.133  30.352  32.761  1.00  0.00     0.002 A 
ATOM     54  C   UNL A   1      36.411  31.450  30.727  1.00  0.00     0.091 A 
ATOM     55  F   UNL A   1      37.814  31.373  28.803  1.00  0.00    -0.205 F 
ATOM     56  C   UNL A   1      36.173  31.076  32.056  1.00  0.00     0.022 A 
BRANCH  54  57
ATOM     57  S   UNL A   1      35.215  32.526  29.927  1.00  0.00     0.127 S 
ATOM     58  O   UNL A   1      34.732  31.683  28.839  1.00  0.00    -0.237 OA
ATOM     59  O   UNL A   1      34.247  32.769  30.997  1.00  0.00    -0.237 OA
ATOM     60  O   UNL A   1      35.974  33.709  29.537  1.00  0.00    -0.744 OA
ENDBRANCH  54  57
ENDBRANCH  26  50
BRANCH  38  61
ATOM     61  C   UNL A   1      44.451  33.975  29.725  1.00  0.00     0.023 A 
ATOM     62  C   UNL A   1      45.099  34.207  30.954  1.00  0.00     0.012 A 
ATOM     63  C   UNL A   1      44.232  35.048  28.842  1.00  0.00     0.148 A 
ATOM     64  C   UNL A   1      45.492  35.494  31.315  1.00  0.00     0.002 A 
ATOM     65  C   UNL A   1      44.664  36.321  29.189  1.00  0.00     0.091 A 
ATOM     66  F   UNL A   1      43.591  34.809  27.687  1.00  0.00    -0.205 F 
ATOM     67  C   UNL A   1      45.284  36.549  30.430  1.00  0.00     0.022 A 
BRANCH  65  68
ATOM     68  S   UNL A   1      44.512  37.718  28.070  1.00  0.00     0.127 S 
ATOM     69  O   UNL A   1      45.302  37.270  26.924  1.00  0.00    -0.237 OA
ATOM     70  O   UNL A   1      43.069  37.775  27.832  1.00  0.00    -0.237 OA
ATOM     71  O   UNL A   1      45.046  38.864  28.794  1.00  0.00    -0.744 OA
ENDBRANCH  65  68
ENDBRANCH  38  61
ENDBRANCH  12  13
ENDBRANCH   5   7
ENDBRANCH   2   3
ENDBRANCH   1   2
BRANCH   1  72
ATOM     72  C   UNL A   1      36.057  23.481  24.025  1.00  0.00     0.117 C 
BRANCH  72  73
ATOM     73  N   UNL A   1      35.205  23.327  22.864  1.00  0.00    -0.356 N 
ATOM     74  C   UNL A   1      33.905  23.627  22.660  1.00  0.00     0.224 C 
ATOM     75  H   UNL A   1      35.654  22.934  22.082  1.00  0.00     0.163 HD
ATOM     76  O   UNL A   1      33.468  23.363  21.538  1.00  0.00    -0.275 OA
BRANCH  74  77
ATOM     77  C   UNL A   1      33.020  24.165  23.774  1.00  0.00     0.094 C 
ATOM     78  C   UNL A   1      31.718  24.863  23.290  1.00  0.00     0.002 C 
ATOM     79  C   UNL A   1      32.447  22.990  24.612  1.00  0.00     0.094 C 
ATOM     80  C   UNL A   1      31.202  25.727  24.449  1.00  0.00     0.005 C 
ATOM     81  C   UNL A   1      30.679  23.740  23.263  1.00  0.00     0.009 C 
ATOM     82  C   UNL A   1      30.942  23.340  24.713  1.00  0.00     0.002 C 
ATOM     83  C   UNL A   1      30.690  24.675  25.442  1.00  0.00     0.005 C 
BRANCH  79  84
ATOM     84  C   UNL A   1      33.083  22.755  25.979  1.00  0.00     0.228 C 
ATOM     85  O   UNL A   1      33.326  23.681  26.754  1.00  0.00    -0.274 OA
ATOM     86  N   UNL A   1      33.199  21.458  26.430  1.00  0.00    -0.326 N 
ATOM     87  H   UNL A   1      33.174  21.346  27.408  1.00  0.00     0.169 HD
BRANCH  86  88
ATOM     88  C   UNL A   1      33.349  20.273  25.690  1.00  0.00     0.041 A 
ATOM     89  C   UNL A   1      34.623  19.901  25.258  1.00  0.00     0.033 A 
ATOM     90  C   UNL A   1      32.252  19.489  25.323  1.00  0.00     0.033 A 
ATOM     91  C   UNL A   1      34.810  18.690  24.576  1.00  0.00     0.088 A 
ATOM     92  C   UNL A   1      32.420  18.280  24.644  1.00  0.00     0.088 A 
ATOM     93  C   UNL A   1      33.707  17.872  24.294  1.00  0.00     0.269 A 
BRANCH  93  94
ATOM     94  N   UNL A   1      33.903  16.579  23.627  1.00  0.00     0.062 N 
ATOM     95  O   UNL A   1      33.827  15.556  24.322  1.00  0.00    -0.258 OA
ATOM     96  O   UNL A   1      34.122  16.583  22.407  1.00  0.00    -0.258 OA
ENDBRANCH  93  94
ENDBRANCH  86  88
ENDBRANCH  79  84
ENDBRANCH  74  77
ENDBRANCH  72  73
ENDBRANCH   1  72
TORSDOF 16
ENDMDL
