MODEL 1
REMARK VINA RESULT:     -12.1      0.000      0.000
REMARK SMILES CCC[C@]1(C(=O)NCCCNC(=O)c2ccc(-c3c4nc(c(-c5cccc(S(=O)(=O)[O-])c5F)c5ccc([nH]5)c(-c5cccc(S(=O)(=O)[O-])c5F)c5nc(c(-c6cccc(S(=O)(=O)[O-])c6F)c6ccc3[nH]6)C=C5)C=C4)cc2)CCCN(C(=O)c2ccc(NS(=O)(=O)CC)cc2)C1
REMARK SMILES IDX 8 1 7 2 5 3 6 4 4 6 77 7 95 8 78 9 80 10 79 11 3 12 2 13
REMARK SMILES IDX 1 14 81 15 82 16 83 17 84 18 94 19 85 20 93 21 86 22 87 23
REMARK SMILES IDX 88 25 89 26 90 27 91 28 92 29 9 30 10 31 11 32 12 33 13 35
REMARK SMILES IDX 14 36 15 37 76 38 16 39 75 40 17 41 18 42 19 43 69 44 20 45
REMARK SMILES IDX 74 46 68 47 70 48 21 49 73 50 67 51 66 52 22 54 54 55 34 56
REMARK SMILES IDX 53 57 35 58 38 59 52 60 71 61 36 62 37 63 51 65 72 66 39 67
REMARK SMILES IDX 23 68 24 69 32 70 25 71 27 72 33 73 26 74 28 75 29 76 30 77
REMARK SMILES IDX 31 78 55 79 56 80 64 81 57 82 59 83 65 84 58 85 60 86 61 87
REMARK SMILES IDX 62 88 63 89 40 90 41 91 49 92 42 93 44 94 50 95 43 96 45 97
REMARK SMILES IDX 46 98 47 99 48 100
REMARK H PARENT 7 5 87 24 11 34 70 53 38 64
REMARK Flexibility Score: inf
ROOT
ATOM      1  C   UNL A   1      36.256  20.355  25.113  1.00  0.00     0.117 C 
ENDROOT
BRANCH   1   2
ATOM      2  N   UNL A   1      36.625  21.668  25.625  1.00  0.00    -0.355 N 
ATOM      3  C   UNL A   1      36.007  22.881  25.588  1.00  0.00     0.228 C 
ATOM      4  O   UNL A   1      36.614  23.813  26.122  1.00  0.00    -0.274 OA
ATOM      5  H   UNL A   1      37.492  21.680  26.092  1.00  0.00     0.163 HD
BRANCH   3   6
ATOM      6  C   UNL A   1      34.612  23.071  24.960  1.00  0.00     0.067 C 
ATOM      7  C   UNL A   1      34.269  21.918  23.994  1.00  0.00     0.020 C 
ATOM      8  C   UNL A   1      33.609  23.161  26.142  1.00  0.00     0.136 C 
ATOM      9  C   UNL A   1      32.798  21.903  23.595  1.00  0.00     0.023 C 
ATOM     10  N   UNL A   1      32.224  22.993  25.718  1.00  0.00    -0.338 N 
ATOM     11  C   UNL A   1      31.934  21.855  24.844  1.00  0.00     0.120 C 
BRANCH   6  12
ATOM     12  C   UNL A   1      34.540  24.460  24.221  1.00  0.00     0.018 C 
BRANCH  12  13
ATOM     13  C   UNL A   1      34.029  24.490  22.771  1.00  0.00    -0.002 C 
ATOM     14  C   UNL A   1      33.302  25.771  22.375  1.00  0.00     0.004 C 
ENDBRANCH  12  13
ENDBRANCH   6  12
BRANCH  10  15
ATOM     15  C   UNL A   1      31.285  23.877  26.217  1.00  0.00     0.253 C 
ATOM     16  O   UNL A   1      30.645  23.714  27.252  1.00  0.00    -0.269 OA
BRANCH  15  17
ATOM     17  C   UNL A   1      31.113  25.151  25.519  1.00  0.00     0.040 A 
ATOM     18  C   UNL A   1      31.819  26.245  26.010  1.00  0.00     0.016 A 
ATOM     19  C   UNL A   1      30.233  25.277  24.448  1.00  0.00     0.016 A 
ATOM     20  C   UNL A   1      31.604  27.500  25.450  1.00  0.00     0.027 A 
ATOM     21  C   UNL A   1      30.005  26.545  23.915  1.00  0.00     0.027 A 
ATOM     22  C   UNL A   1      30.656  27.674  24.440  1.00  0.00     0.049 A 
BRANCH  22  23
ATOM     23  N   UNL A   1      30.060  28.935  24.143  1.00  0.00    -0.284 N 
ATOM     24  H   UNL A   1      30.197  29.658  24.799  1.00  0.00     0.180 HD
BRANCH  23  25
ATOM     25  S   UNL A   1      29.158  29.305  22.800  1.00  0.00     0.232 S 
ATOM     26  O   UNL A   1      29.923  28.949  21.627  1.00  0.00    -0.207 OA
ATOM     27  O   UNL A   1      27.868  28.686  23.048  1.00  0.00    -0.207 OA
BRANCH  25  28
ATOM     28  C   UNL A   1      28.898  31.082  22.792  1.00  0.00     0.156 C 
ATOM     29  C   UNL A   1      27.655  31.577  23.501  1.00  0.00     0.023 C 
ENDBRANCH  25  28
ENDBRANCH  23  25
ENDBRANCH  22  23
ENDBRANCH  15  17
ENDBRANCH  10  15
ENDBRANCH   3   6
ENDBRANCH   1   2
BRANCH   1  30
ATOM     30  C   UNL A   1      37.458  19.428  25.001  1.00  0.00     0.042 C 
BRANCH  30  31
ATOM     31  C   UNL A   1      38.780  20.145  25.201  1.00  0.00     0.118 C 
BRANCH  31  32
ATOM     32  N   UNL A   1      39.801  19.263  25.751  1.00  0.00    -0.352 N 
ATOM     33  C   UNL A   1      41.046  19.563  26.243  1.00  0.00     0.251 C 
ATOM     34  H   UNL A   1      39.561  18.308  25.772  1.00  0.00     0.163 HD
ATOM     35  O   UNL A   1      41.859  18.662  26.425  1.00  0.00    -0.269 OA
BRANCH  33  36
ATOM     36  C   UNL A   1      41.403  20.966  26.543  1.00  0.00     0.039 A 
ATOM     37  C   UNL A   1      41.699  21.327  27.858  1.00  0.00     0.014 A 
ATOM     38  C   UNL A   1      41.434  21.925  25.527  1.00  0.00     0.014 A 
ATOM     39  C   UNL A   1      42.086  22.638  28.142  1.00  0.00     0.010 A 
ATOM     40  C   UNL A   1      41.922  23.198  25.793  1.00  0.00     0.010 A 
ATOM     41  C   UNL A   1      42.235  23.574  27.105  1.00  0.00    -0.014 A 
BRANCH  41  42
ATOM     42  C   UNL A   1      42.714  24.953  27.372  1.00  0.00     0.031 A 
ATOM     43  C   UNL A   1      41.799  25.958  28.018  1.00  0.00     0.074 A 
ATOM     44  C   UNL A   1      43.940  25.323  26.951  1.00  0.00     0.049 A 
ATOM     45  N   UNL A   1      42.016  27.222  28.278  1.00  0.00    -0.248 NA
ATOM     46  C   UNL A   1      40.454  25.494  28.399  1.00  0.00     0.031 C 
ATOM     47  C   UNL A   1      44.887  24.460  26.240  1.00  0.00     0.029 A 
ATOM     48  N   UNL A   1      44.591  26.527  27.039  1.00  0.00    -0.354 N 
ATOM     49  C   UNL A   1      40.830  27.709  28.813  1.00  0.00     0.074 A 
ATOM     50  C   UNL A   1      39.882  26.618  28.805  1.00  0.00     0.031 C 
ATOM     51  C   UNL A   1      45.999  25.159  25.966  1.00  0.00     0.029 A 
ATOM     52  C   UNL A   1      45.832  26.526  26.446  1.00  0.00     0.049 A 
ATOM     53  H   UNL A   1      44.207  27.316  27.485  1.00  0.00     0.167 HD
ATOM     54  C   UNL A   1      40.562  28.945  29.295  1.00  0.00     0.034 A 
ATOM     55  C   UNL A   1      46.729  27.520  26.294  1.00  0.00     0.034 A 
ATOM     56  C   UNL A   1      41.520  30.016  29.332  1.00  0.00     0.049 A 
ATOM     57  C   UNL A   1      46.417  28.877  26.865  1.00  0.00     0.074 A 
ATOM     58  C   UNL A   1      41.377  31.278  29.879  1.00  0.00     0.029 A 
ATOM     59  N   UNL A   1      42.795  29.955  28.792  1.00  0.00    -0.354 N 
ATOM     60  N   UNL A   1      45.346  29.275  27.507  1.00  0.00    -0.248 NA
ATOM     61  C   UNL A   1      47.451  29.911  26.723  1.00  0.00     0.031 C 
ATOM     62  C   UNL A   1      42.552  31.995  29.636  1.00  0.00     0.029 A 
ATOM     63  C   UNL A   1      43.444  31.164  28.977  1.00  0.00     0.049 A 
ATOM     64  H   UNL A   1      43.180  29.170  28.341  1.00  0.00     0.167 HD
ATOM     65  C   UNL A   1      45.593  30.591  27.881  1.00  0.00     0.074 A 
ATOM     66  C   UNL A   1      46.923  30.915  27.408  1.00  0.00     0.031 C 
ATOM     67  C   UNL A   1      44.787  31.456  28.545  1.00  0.00     0.034 A 
BRANCH  54  68
ATOM     68  C   UNL A   1      39.187  29.195  29.861  1.00  0.00     0.023 A 
ATOM     69  C   UNL A   1      38.867  28.732  31.154  1.00  0.00     0.012 A 
ATOM     70  C   UNL A   1      38.232  29.935  29.137  1.00  0.00     0.148 A 
ATOM     71  C   UNL A   1      37.607  28.968  31.703  1.00  0.00     0.002 A 
ATOM     72  C   UNL A   1      36.995  30.209  29.711  1.00  0.00     0.091 A 
ATOM     73  F   UNL A   1      38.545  30.349  27.901  1.00  0.00    -0.205 F 
ATOM     74  C   UNL A   1      36.677  29.716  30.986  1.00  0.00     0.022 A 
BRANCH  72  75
ATOM     75  S   UNL A   1      35.759  31.233  28.906  1.00  0.00     0.127 S 
ATOM     76  O   UNL A   1      34.908  31.609  30.034  1.00  0.00    -0.237 OA
ATOM     77  O   UNL A   1      36.571  32.324  28.366  1.00  0.00    -0.237 OA
ATOM     78  O   UNL A   1      35.127  30.390  27.901  1.00  0.00    -0.744 OA
ENDBRANCH  72  75
ENDBRANCH  54  68
BRANCH  55  79
ATOM     79  C   UNL A   1      48.030  27.253  25.619  1.00  0.00     0.023 A 
ATOM     80  C   UNL A   1      49.118  26.770  26.372  1.00  0.00     0.012 A 
ATOM     81  C   UNL A   1      48.189  27.452  24.234  1.00  0.00     0.148 A 
ATOM     82  C   UNL A   1      50.351  26.526  25.766  1.00  0.00     0.002 A 
ATOM     83  C   UNL A   1      49.402  27.150  23.626  1.00  0.00     0.091 A 
ATOM     84  F   UNL A   1      47.145  27.918  23.536  1.00  0.00    -0.205 F 
ATOM     85  C   UNL A   1      50.491  26.707  24.393  1.00  0.00     0.022 A 
BRANCH  83  86
ATOM     86  S   UNL A   1      49.631  27.224  21.846  1.00  0.00     0.127 S 
ATOM     87  O   UNL A   1      49.401  28.640  21.573  1.00  0.00    -0.237 OA
ATOM     88  O   UNL A   1      51.020  26.785  21.704  1.00  0.00    -0.237 OA
ATOM     89  O   UNL A   1      48.653  26.304  21.283  1.00  0.00    -0.744 OA
ENDBRANCH  83  86
ENDBRANCH  55  79
BRANCH  67  90
ATOM     90  C   UNL A   1      45.334  32.826  28.850  1.00  0.00     0.023 A 
ATOM     91  C   UNL A   1      46.068  33.047  30.031  1.00  0.00     0.012 A 
ATOM     92  C   UNL A   1      45.181  33.875  27.922  1.00  0.00     0.148 A 
ATOM     93  C   UNL A   1      46.610  34.304  30.303  1.00  0.00     0.002 A 
ATOM     94  C   UNL A   1      45.770  35.108  28.173  1.00  0.00     0.091 A 
ATOM     95  F   UNL A   1      44.465  33.648  26.811  1.00  0.00    -0.205 F 
ATOM     96  C   UNL A   1      46.473  35.328  29.369  1.00  0.00     0.022 A 
BRANCH  94  97
ATOM     97  S   UNL A   1      45.733  36.454  26.985  1.00  0.00     0.127 S 
ATOM     98  O   UNL A   1      44.298  36.712  26.872  1.00  0.00    -0.237 OA
ATOM     99  O   UNL A   1      46.488  37.498  27.677  1.00  0.00    -0.237 OA
ATOM    100  O   UNL A   1      46.372  35.944  25.778  1.00  0.00    -0.744 OA
ENDBRANCH  94  97
ENDBRANCH  67  90
ENDBRANCH  41  42
ENDBRANCH  33  36
ENDBRANCH  31  32
ENDBRANCH  30  31
ENDBRANCH   1  30
TORSDOF 20
ENDMDL
MODEL 2
REMARK VINA RESULT:     -12.0      6.019     11.360
REMARK SMILES CCC[C@]1(C(=O)NCCCNC(=O)c2ccc(-c3c4nc(c(-c5cccc(S(=O)(=O)[O-])c5F)c5ccc([nH]5)c(-c5cccc(S(=O)(=O)[O-])c5F)c5nc(c(-c6cccc(S(=O)(=O)[O-])c6F)c6ccc3[nH]6)C=C5)C=C4)cc2)CCCN(C(=O)c2ccc(NS(=O)(=O)CC)cc2)C1
REMARK SMILES IDX 8 1 7 2 5 3 6 4 4 6 77 7 95 8 78 9 80 10 79 11 3 12 2 13
REMARK SMILES IDX 1 14 81 15 82 16 83 17 84 18 94 19 85 20 93 21 86 22 87 23
REMARK SMILES IDX 88 25 89 26 90 27 91 28 92 29 9 30 10 31 11 32 12 33 13 35
REMARK SMILES IDX 14 36 15 37 76 38 16 39 75 40 17 41 18 42 19 43 69 44 20 45
REMARK SMILES IDX 74 46 68 47 70 48 21 49 73 50 67 51 66 52 22 54 54 55 34 56
REMARK SMILES IDX 53 57 35 58 38 59 52 60 71 61 36 62 37 63 51 65 72 66 39 67
REMARK SMILES IDX 23 68 24 69 32 70 25 71 27 72 33 73 26 74 28 75 29 76 30 77
REMARK SMILES IDX 31 78 55 79 56 80 64 81 57 82 59 83 65 84 58 85 60 86 61 87
REMARK SMILES IDX 62 88 63 89 40 90 41 91 49 92 42 93 44 94 50 95 43 96 45 97
REMARK SMILES IDX 46 98 47 99 48 100
REMARK H PARENT 7 5 87 24 11 34 70 53 38 64
REMARK Flexibility Score: inf
ROOT
ATOM      1  C   UNL A   1      31.386  30.505  25.983  1.00  0.00     0.117 C 
ENDROOT
BRANCH   1   2
ATOM      2  N   UNL A   1      30.805  30.242  24.674  1.00  0.00    -0.355 N 
ATOM      3  C   UNL A   1      30.924  29.202  23.802  1.00  0.00     0.228 C 
ATOM      4  O   UNL A   1      30.288  29.305  22.750  1.00  0.00    -0.274 OA
ATOM      5  H   UNL A   1      30.206  30.957  24.357  1.00  0.00     0.163 HD
BRANCH   3   6
ATOM      6  C   UNL A   1      31.764  27.952  24.128  1.00  0.00     0.067 C 
ATOM      7  C   UNL A   1      33.235  28.321  24.415  1.00  0.00     0.020 C 
ATOM      8  C   UNL A   1      31.083  27.274  25.348  1.00  0.00     0.136 C 
ATOM      9  C   UNL A   1      34.019  27.172  25.037  1.00  0.00     0.023 C 
ATOM     10  N   UNL A   1      31.939  26.285  25.992  1.00  0.00    -0.338 N 
ATOM     11  C   UNL A   1      33.312  26.696  26.295  1.00  0.00     0.120 C 
BRANCH   6  12
ATOM     12  C   UNL A   1      31.668  26.917  22.945  1.00  0.00     0.018 C 
BRANCH  12  13
ATOM     13  C   UNL A   1      32.839  26.833  21.951  1.00  0.00    -0.002 C 
ATOM     14  C   UNL A   1      32.698  25.752  20.885  1.00  0.00     0.004 C 
ENDBRANCH  12  13
ENDBRANCH   6  12
BRANCH  10  15
ATOM     15  C   UNL A   1      31.380  25.064  26.323  1.00  0.00     0.253 C 
ATOM     16  O   UNL A   1      30.263  24.910  26.808  1.00  0.00    -0.269 OA
BRANCH  15  17
ATOM     17  C   UNL A   1      32.127  23.857  25.972  1.00  0.00     0.040 A 
ATOM     18  C   UNL A   1      32.625  23.089  27.020  1.00  0.00     0.016 A 
ATOM     19  C   UNL A   1      32.383  23.524  24.645  1.00  0.00     0.016 A 
ATOM     20  C   UNL A   1      33.434  21.994  26.738  1.00  0.00     0.027 A 
ATOM     21  C   UNL A   1      33.219  22.441  24.375  1.00  0.00     0.027 A 
ATOM     22  C   UNL A   1      33.788  21.694  25.421  1.00  0.00     0.049 A 
BRANCH  22  23
ATOM     23  N   UNL A   1      34.933  20.914  25.083  1.00  0.00    -0.284 N 
ATOM     24  H   UNL A   1      34.812  19.936  25.053  1.00  0.00     0.180 HD
BRANCH  23  25
ATOM     25  S   UNL A   1      36.449  21.493  24.735  1.00  0.00     0.232 S 
ATOM     26  O   UNL A   1      37.391  20.405  24.866  1.00  0.00    -0.207 OA
ATOM     27  O   UNL A   1      36.293  22.177  23.464  1.00  0.00    -0.207 OA
BRANCH  25  28
ATOM     28  C   UNL A   1      36.847  22.742  25.962  1.00  0.00     0.156 C 
ATOM     29  C   UNL A   1      36.260  24.118  25.728  1.00  0.00     0.023 C 
ENDBRANCH  25  28
ENDBRANCH  23  25
ENDBRANCH  22  23
ENDBRANCH  15  17
ENDBRANCH  10  15
ENDBRANCH   3   6
ENDBRANCH   1   2
BRANCH   1  30
ATOM     30  C   UNL A   1      31.388  31.989  26.319  1.00  0.00     0.042 C 
BRANCH  30  31
ATOM     31  C   UNL A   1      32.625  32.421  27.085  1.00  0.00     0.118 C 
BRANCH  31  32
ATOM     32  N   UNL A   1      32.517  33.793  27.564  1.00  0.00    -0.352 N 
ATOM     33  C   UNL A   1      33.169  34.414  28.599  1.00  0.00     0.251 C 
ATOM     34  H   UNL A   1      31.880  34.360  27.070  1.00  0.00     0.163 HD
ATOM     35  O   UNL A   1      32.760  35.496  29.010  1.00  0.00    -0.269 OA
BRANCH  33  36
ATOM     36  C   UNL A   1      34.351  33.776  29.216  1.00  0.00     0.039 A 
ATOM     37  C   UNL A   1      35.624  34.260  28.911  1.00  0.00     0.014 A 
ATOM     38  C   UNL A   1      34.201  32.694  30.087  1.00  0.00     0.014 A 
ATOM     39  C   UNL A   1      36.741  33.696  29.527  1.00  0.00     0.010 A 
ATOM     40  C   UNL A   1      35.302  32.207  30.779  1.00  0.00     0.010 A 
ATOM     41  C   UNL A   1      36.586  32.689  30.494  1.00  0.00    -0.014 A 
BRANCH  41  42
ATOM     42  C   UNL A   1      37.752  32.124  31.216  1.00  0.00     0.031 A 
ATOM     43  C   UNL A   1      38.540  30.993  30.610  1.00  0.00     0.074 A 
ATOM     44  C   UNL A   1      38.046  32.568  32.454  1.00  0.00     0.049 A 
ATOM     45  N   UNL A   1      39.550  30.331  31.112  1.00  0.00    -0.248 NA
ATOM     46  C   UNL A   1      38.123  30.523  29.278  1.00  0.00     0.031 C 
ATOM     47  C   UNL A   1      37.305  33.603  33.179  1.00  0.00     0.029 A 
ATOM     48  N   UNL A   1      39.031  32.190  33.331  1.00  0.00    -0.354 N 
ATOM     49  C   UNL A   1      39.862  29.349  30.180  1.00  0.00     0.074 A 
ATOM     50  C   UNL A   1      38.910  29.473  29.100  1.00  0.00     0.031 C 
ATOM     51  C   UNL A   1      37.867  33.784  34.385  1.00  0.00     0.029 A 
ATOM     52  C   UNL A   1      38.982  32.855  34.534  1.00  0.00     0.049 A 
ATOM     53  H   UNL A   1      39.709  31.508  33.119  1.00  0.00     0.167 HD
ATOM     54  C   UNL A   1      40.869  28.444  30.206  1.00  0.00     0.034 A 
ATOM     55  C   UNL A   1      39.741  32.721  35.638  1.00  0.00     0.034 A 
ATOM     56  C   UNL A   1      41.833  28.349  31.267  1.00  0.00     0.049 A 
ATOM     57  C   UNL A   1      40.871  31.727  35.630  1.00  0.00     0.074 A 
ATOM     58  C   UNL A   1      42.942  27.527  31.349  1.00  0.00     0.029 A 
ATOM     59  N   UNL A   1      41.798  29.092  32.437  1.00  0.00    -0.354 N 
ATOM     60  N   UNL A   1      41.246  30.913  34.674  1.00  0.00    -0.248 NA
ATOM     61  C   UNL A   1      41.705  31.659  36.838  1.00  0.00     0.031 C 
ATOM     62  C   UNL A   1      43.558  27.746  32.585  1.00  0.00     0.029 A 
ATOM     63  C   UNL A   1      42.857  28.737  33.254  1.00  0.00     0.049 A 
ATOM     64  H   UNL A   1      41.120  29.771  32.654  1.00  0.00     0.167 HD
ATOM     65  C   UNL A   1      42.381  30.266  35.147  1.00  0.00     0.074 A 
ATOM     66  C   UNL A   1      42.642  30.797  36.469  1.00  0.00     0.031 C 
ATOM     67  C   UNL A   1      43.133  29.310  34.547  1.00  0.00     0.034 A 
BRANCH  54  68
ATOM     68  C   UNL A   1      41.003  27.510  29.031  1.00  0.00     0.023 A 
ATOM     69  C   UNL A   1      40.221  26.338  28.975  1.00  0.00     0.012 A 
ATOM     70  C   UNL A   1      41.862  27.817  27.957  1.00  0.00     0.148 A 
ATOM     71  C   UNL A   1      40.317  25.468  27.890  1.00  0.00     0.002 A 
ATOM     72  C   UNL A   1      41.915  26.971  26.855  1.00  0.00     0.091 A 
ATOM     73  F   UNL A   1      42.614  28.924  28.036  1.00  0.00    -0.205 F 
ATOM     74  C   UNL A   1      41.155  25.791  26.826  1.00  0.00     0.022 A 
BRANCH  72  75
ATOM     75  S   UNL A   1      42.899  27.339  25.398  1.00  0.00     0.127 S 
ATOM     76  O   UNL A   1      42.851  26.065  24.681  1.00  0.00    -0.237 OA
ATOM     77  O   UNL A   1      42.130  28.417  24.776  1.00  0.00    -0.237 OA
ATOM     78  O   UNL A   1      44.213  27.731  25.886  1.00  0.00    -0.744 OA
ENDBRANCH  72  75
ENDBRANCH  54  68
BRANCH  55  79
ATOM     79  C   UNL A   1      39.492  33.588  36.824  1.00  0.00     0.023 A 
ATOM     80  C   UNL A   1      39.885  34.940  36.791  1.00  0.00     0.012 A 
ATOM     81  C   UNL A   1      38.849  33.089  37.973  1.00  0.00     0.148 A 
ATOM     82  C   UNL A   1      39.676  35.769  37.894  1.00  0.00     0.002 A 
ATOM     83  C   UNL A   1      38.590  33.935  39.045  1.00  0.00     0.091 A 
ATOM     84  F   UNL A   1      38.489  31.798  37.988  1.00  0.00    -0.205 F 
ATOM     85  C   UNL A   1      39.021  35.270  39.016  1.00  0.00     0.022 A 
BRANCH  83  86
ATOM     86  S   UNL A   1      37.634  33.414  40.473  1.00  0.00     0.127 S 
ATOM     87  O   UNL A   1      38.496  32.386  41.052  1.00  0.00    -0.237 OA
ATOM     88  O   UNL A   1      37.549  34.654  41.246  1.00  0.00    -0.237 OA
ATOM     89  O   UNL A   1      36.359  32.948  39.947  1.00  0.00    -0.744 OA
ENDBRANCH  83  86
ENDBRANCH  55  79
BRANCH  67  90
ATOM     90  C   UNL A   1      44.344  28.807  35.287  1.00  0.00     0.023 A 
ATOM     91  C   UNL A   1      45.603  29.398  35.069  1.00  0.00     0.012 A 
ATOM     92  C   UNL A   1      44.214  27.793  36.258  1.00  0.00     0.148 A 
ATOM     93  C   UNL A   1      46.723  28.963  35.778  1.00  0.00     0.002 A 
ATOM     94  C   UNL A   1      45.321  27.403  37.000  1.00  0.00     0.091 A 
ATOM     95  F   UNL A   1      43.010  27.232  36.440  1.00  0.00    -0.205 F 
ATOM     96  C   UNL A   1      46.579  27.977  36.752  1.00  0.00     0.022 A 
BRANCH  94  97
ATOM     97  S   UNL A   1      45.213  26.214  38.342  1.00  0.00     0.127 S 
ATOM     98  O   UNL A   1      44.216  26.837  39.211  1.00  0.00    -0.237 OA
ATOM     99  O   UNL A   1      44.754  25.010  37.651  1.00  0.00    -0.237 OA
ATOM    100  O   UNL A   1      46.555  26.117  38.902  1.00  0.00    -0.744 OA
ENDBRANCH  94  97
ENDBRANCH  67  90
ENDBRANCH  41  42
ENDBRANCH  33  36
ENDBRANCH  31  32
ENDBRANCH  30  31
ENDBRANCH   1  30
TORSDOF 20
ENDMDL
MODEL 3
REMARK VINA RESULT:     -11.9      1.538      1.924
REMARK SMILES CCC[C@]1(C(=O)NCCCNC(=O)c2ccc(-c3c4nc(c(-c5cccc(S(=O)(=O)[O-])c5F)c5ccc([nH]5)c(-c5cccc(S(=O)(=O)[O-])c5F)c5nc(c(-c6cccc(S(=O)(=O)[O-])c6F)c6ccc3[nH]6)C=C5)C=C4)cc2)CCCN(C(=O)c2ccc(NS(=O)(=O)CC)cc2)C1
REMARK SMILES IDX 8 1 7 2 5 3 6 4 4 6 77 7 95 8 78 9 80 10 79 11 3 12 2 13
REMARK SMILES IDX 1 14 81 15 82 16 83 17 84 18 94 19 85 20 93 21 86 22 87 23
REMARK SMILES IDX 88 25 89 26 90 27 91 28 92 29 9 30 10 31 11 32 12 33 13 35
REMARK SMILES IDX 14 36 15 37 76 38 16 39 75 40 17 41 18 42 19 43 69 44 20 45
REMARK SMILES IDX 74 46 68 47 70 48 21 49 73 50 67 51 66 52 22 54 54 55 34 56
REMARK SMILES IDX 53 57 35 58 38 59 52 60 71 61 36 62 37 63 51 65 72 66 39 67
REMARK SMILES IDX 23 68 24 69 32 70 25 71 27 72 33 73 26 74 28 75 29 76 30 77
REMARK SMILES IDX 31 78 55 79 56 80 64 81 57 82 59 83 65 84 58 85 60 86 61 87
REMARK SMILES IDX 62 88 63 89 40 90 41 91 49 92 42 93 44 94 50 95 43 96 45 97
REMARK SMILES IDX 46 98 47 99 48 100
REMARK H PARENT 7 5 87 24 11 34 70 53 38 64
REMARK Flexibility Score: inf
ROOT
ATOM      1  C   UNL A   1      36.805  20.646  25.260  1.00  0.00     0.117 C 
ENDROOT
BRANCH   1   2
ATOM      2  N   UNL A   1      36.856  22.035  25.693  1.00  0.00    -0.355 N 
ATOM      3  C   UNL A   1      35.950  23.052  25.644  1.00  0.00     0.228 C 
ATOM      4  O   UNL A   1      36.328  24.134  26.100  1.00  0.00    -0.274 OA
ATOM      5  H   UNL A   1      37.714  22.290  26.105  1.00  0.00     0.163 HD
BRANCH   3   6
ATOM      6  C   UNL A   1      34.523  22.852  25.096  1.00  0.00     0.067 C 
ATOM      7  C   UNL A   1      34.382  21.494  24.376  1.00  0.00     0.020 C 
ATOM      8  C   UNL A   1      33.567  22.971  26.313  1.00  0.00     0.136 C 
ATOM      9  C   UNL A   1      32.931  21.125  24.096  1.00  0.00     0.023 C 
ATOM     10  N   UNL A   1      32.229  22.466  26.028  1.00  0.00    -0.338 N 
ATOM     11  C   UNL A   1      32.140  21.150  25.393  1.00  0.00     0.120 C 
BRANCH   6  12
ATOM     12  C   UNL A   1      34.148  24.038  24.130  1.00  0.00     0.018 C 
BRANCH  12  13
ATOM     13  C   UNL A   1      34.063  25.458  24.715  1.00  0.00    -0.002 C 
ATOM     14  C   UNL A   1      34.020  26.576  23.679  1.00  0.00     0.004 C 
ENDBRANCH  12  13
ENDBRANCH   6  12
BRANCH  10  15
ATOM     15  C   UNL A   1      31.150  23.233  26.430  1.00  0.00     0.253 C 
ATOM     16  O   UNL A   1      30.523  23.074  27.473  1.00  0.00    -0.269 OA
BRANCH  15  17
ATOM     17  C   UNL A   1      30.793  24.387  25.606  1.00  0.00     0.040 A 
ATOM     18  C   UNL A   1      30.610  24.165  24.244  1.00  0.00     0.016 A 
ATOM     19  C   UNL A   1      30.699  25.664  26.151  1.00  0.00     0.016 A 
ATOM     20  C   UNL A   1      30.378  25.248  23.403  1.00  0.00     0.027 A 
ATOM     21  C   UNL A   1      30.495  26.745  25.293  1.00  0.00     0.027 A 
ATOM     22  C   UNL A   1      30.376  26.550  23.906  1.00  0.00     0.049 A 
BRANCH  22  23
ATOM     23  N   UNL A   1      30.602  27.698  23.091  1.00  0.00    -0.284 N 
ATOM     24  H   UNL A   1      31.482  27.769  22.655  1.00  0.00     0.180 HD
BRANCH  23  25
ATOM     25  S   UNL A   1      29.524  28.928  22.805  1.00  0.00     0.232 S 
ATOM     26  O   UNL A   1      29.696  29.374  21.441  1.00  0.00    -0.207 OA
ATOM     27  O   UNL A   1      28.246  28.401  23.247  1.00  0.00    -0.207 OA
BRANCH  25  28
ATOM     28  C   UNL A   1      29.945  30.285  23.905  1.00  0.00     0.156 C 
ATOM     29  C   UNL A   1      31.111  30.047  24.840  1.00  0.00     0.023 C 
ENDBRANCH  25  28
ENDBRANCH  23  25
ENDBRANCH  22  23
ENDBRANCH  15  17
ENDBRANCH  10  15
ENDBRANCH   3   6
ENDBRANCH   1   2
BRANCH   1  30
ATOM     30  C   UNL A   1      38.187  20.100  24.934  1.00  0.00     0.042 C 
BRANCH  30  31
ATOM     31  C   UNL A   1      39.182  20.291  26.064  1.00  0.00     0.118 C 
BRANCH  31  32
ATOM     32  N   UNL A   1      40.216  19.265  26.059  1.00  0.00    -0.352 N 
ATOM     33  C   UNL A   1      41.582  19.396  26.049  1.00  0.00     0.251 C 
ATOM     34  H   UNL A   1      39.886  18.337  26.063  1.00  0.00     0.163 HD
ATOM     35  O   UNL A   1      42.283  18.423  25.788  1.00  0.00    -0.269 OA
BRANCH  33  36
ATOM     36  C   UNL A   1      42.199  20.707  26.342  1.00  0.00     0.039 A 
ATOM     37  C   UNL A   1      42.576  21.535  25.283  1.00  0.00     0.014 A 
ATOM     38  C   UNL A   1      42.414  21.113  27.661  1.00  0.00     0.014 A 
ATOM     39  C   UNL A   1      43.113  22.795  25.551  1.00  0.00     0.010 A 
ATOM     40  C   UNL A   1      42.847  22.406  27.924  1.00  0.00     0.010 A 
ATOM     41  C   UNL A   1      43.219  23.254  26.874  1.00  0.00    -0.014 A 
BRANCH  41  42
ATOM     42  C   UNL A   1      43.719  24.617  27.181  1.00  0.00     0.031 A 
ATOM     43  C   UNL A   1      42.773  25.673  27.686  1.00  0.00     0.074 A 
ATOM     44  C   UNL A   1      45.005  24.926  26.922  1.00  0.00     0.049 A 
ATOM     45  N   UNL A   1      43.010  26.932  27.953  1.00  0.00    -0.248 NA
ATOM     46  C   UNL A   1      41.370  25.274  27.892  1.00  0.00     0.031 C 
ATOM     47  C   UNL A   1      45.998  24.010  26.354  1.00  0.00     0.029 A 
ATOM     48  N   UNL A   1      45.692  26.103  27.078  1.00  0.00    -0.354 N 
ATOM     49  C   UNL A   1      41.787  27.479  28.319  1.00  0.00     0.074 A 
ATOM     50  C   UNL A   1      40.801  26.429  28.202  1.00  0.00     0.031 C 
ATOM     51  C   UNL A   1      47.167  24.655  26.220  1.00  0.00     0.029 A 
ATOM     52  C   UNL A   1      47.000  26.038  26.654  1.00  0.00     0.049 A 
ATOM     53  H   UNL A   1      45.288  26.917  27.457  1.00  0.00     0.167 HD
ATOM     54  C   UNL A   1      41.512  28.735  28.744  1.00  0.00     0.034 A 
ATOM     55  C   UNL A   1      47.952  26.989  26.608  1.00  0.00     0.034 A 
ATOM     56  C   UNL A   1      42.504  29.765  28.892  1.00  0.00     0.049 A 
ATOM     57  C   UNL A   1      47.629  28.369  27.113  1.00  0.00     0.074 A 
ATOM     58  C   UNL A   1      42.347  31.043  29.396  1.00  0.00     0.029 A 
ATOM     59  N   UNL A   1      43.836  29.640  28.526  1.00  0.00    -0.354 N 
ATOM     60  N   UNL A   1      46.501  28.825  27.601  1.00  0.00    -0.248 NA
ATOM     61  C   UNL A   1      48.717  29.355  27.094  1.00  0.00     0.031 C 
ATOM     62  C   UNL A   1      43.575  31.704  29.301  1.00  0.00     0.029 A 
ATOM     63  C   UNL A   1      44.508  30.823  28.779  1.00  0.00     0.049 A 
ATOM     64  H   UNL A   1      44.242  28.829  28.142  1.00  0.00     0.167 HD
ATOM     65  C   UNL A   1      46.755  30.137  27.985  1.00  0.00     0.074 A 
ATOM     66  C   UNL A   1      48.148  30.395  27.688  1.00  0.00     0.031 C 
ATOM     67  C   UNL A   1      45.908  31.049  28.524  1.00  0.00     0.034 A 
BRANCH  54  68
ATOM     68  C   UNL A   1      40.088  29.054  29.119  1.00  0.00     0.023 A 
ATOM     69  C   UNL A   1      39.141  29.317  28.108  1.00  0.00     0.012 A 
ATOM     70  C   UNL A   1      39.674  29.041  30.465  1.00  0.00     0.148 A 
ATOM     71  C   UNL A   1      37.813  29.598  28.431  1.00  0.00     0.002 A 
ATOM     72  C   UNL A   1      38.339  29.273  30.776  1.00  0.00     0.091 A 
ATOM     73  F   UNL A   1      40.593  28.811  31.414  1.00  0.00    -0.205 F 
ATOM     74  C   UNL A   1      37.412  29.565  29.764  1.00  0.00     0.022 A 
BRANCH  72  75
ATOM     75  S   UNL A   1      37.704  29.170  32.453  1.00  0.00     0.127 S 
ATOM     76  O   UNL A   1      38.607  30.074  33.166  1.00  0.00    -0.237 OA
ATOM     77  O   UNL A   1      36.339  29.674  32.294  1.00  0.00    -0.237 OA
ATOM     78  O   UNL A   1      37.795  27.769  32.835  1.00  0.00    -0.744 OA
ENDBRANCH  72  75
ENDBRANCH  54  68
BRANCH  55  79
ATOM     79  C   UNL A   1      49.318  26.654  26.115  1.00  0.00     0.023 A 
ATOM     80  C   UNL A   1      50.165  25.854  26.907  1.00  0.00     0.012 A 
ATOM     81  C   UNL A   1      49.772  27.101  24.860  1.00  0.00     0.148 A 
ATOM     82  C   UNL A   1      51.453  25.538  26.474  1.00  0.00     0.002 A 
ATOM     83  C   UNL A   1      51.034  26.734  24.409  1.00  0.00     0.091 A 
ATOM     84  F   UNL A   1      48.953  27.867  24.125  1.00  0.00    -0.205 F 
ATOM     85  C   UNL A   1      51.885  25.969  25.223  1.00  0.00     0.022 A 
BRANCH  83  86
ATOM     86  S   UNL A   1      51.619  27.129  22.757  1.00  0.00     0.127 S 
ATOM     87  O   UNL A   1      51.905  28.557  22.875  1.00  0.00    -0.237 OA
ATOM     88  O   UNL A   1      52.799  26.271  22.644  1.00  0.00    -0.237 OA
ATOM     89  O   UNL A   1      50.532  26.773  21.857  1.00  0.00    -0.744 OA
ENDBRANCH  83  86
ENDBRANCH  55  79
BRANCH  67  90
ATOM     90  C   UNL A   1      46.471  32.400  28.879  1.00  0.00     0.023 A 
ATOM     91  C   UNL A   1      47.061  32.612  30.140  1.00  0.00     0.012 A 
ATOM     92  C   UNL A   1      46.479  33.440  27.927  1.00  0.00     0.148 A 
ATOM     93  C   UNL A   1      47.618  33.849  30.462  1.00  0.00     0.002 A 
ATOM     94  C   UNL A   1      47.084  34.651  28.235  1.00  0.00     0.091 A 
ATOM     95  F   UNL A   1      45.897  33.223  26.738  1.00  0.00    -0.205 F 
ATOM     96  C   UNL A   1      47.642  34.862  29.507  1.00  0.00     0.022 A 
BRANCH  94  97
ATOM     97  S   UNL A   1      47.252  35.978  27.035  1.00  0.00     0.127 S 
ATOM     98  O   UNL A   1      45.859  36.370  26.830  1.00  0.00    -0.237 OA
ATOM     99  O   UNL A   1      48.059  36.954  27.766  1.00  0.00    -0.237 OA
ATOM    100  O   UNL A   1      47.913  35.391  25.877  1.00  0.00    -0.744 OA
ENDBRANCH  94  97
ENDBRANCH  67  90
ENDBRANCH  41  42
ENDBRANCH  33  36
ENDBRANCH  31  32
ENDBRANCH  30  31
ENDBRANCH   1  30
TORSDOF 20
ENDMDL
