MODEL 1
REMARK VINA RESULT:     -11.7      0.000      0.000
REMARK SMILES C[C@@H](C(=O)NCCCNC(=O)c1ccc(-c2c3nc(c(-c4cccc(S(=O)(=O)[O-])c4F)c4ccc([nH]4)c(-c4cccc(S(=O)(=O)[O-])c4F)c4nc(c(-c5cccc(S(=O)(=O)[O-])c5F)c5ccc2[nH]5)C=C4)C=C3)cc1)c1ccc(NC2CCCC2)cc1F
REMARK SMILES IDX 7 1 6 2 5 3 3 4 4 5 2 7 1 8 75 9 76 10 86 11 77 12 85 13
REMARK SMILES IDX 87 14 78 15 79 16 80 18 81 19 84 20 82 21 83 22 8 23 9 24
REMARK SMILES IDX 10 25 11 27 12 28 13 29 74 30 14 31 73 32 15 33 16 34 17 35
REMARK SMILES IDX 67 36 18 37 72 38 66 39 68 40 19 41 71 42 65 43 64 44 20 46
REMARK SMILES IDX 52 47 32 48 51 49 33 50 36 51 50 52 69 53 34 54 35 55 49 57
REMARK SMILES IDX 70 58 37 59 21 60 22 61 30 62 23 63 25 64 31 65 24 66 26 67
REMARK SMILES IDX 27 68 28 69 29 70 53 71 54 72 62 73 55 74 57 75 63 76 56 77
REMARK SMILES IDX 58 78 59 79 60 80 61 81 38 82 39 83 47 84 40 85 42 86 48 87
REMARK SMILES IDX 41 88 43 89 44 90 45 91 46 92
REMARK H PARENT 5 6 79 17 9 26 68 45 36 56
REMARK Flexibility Score: inf
ROOT
ATOM      1  C   UNL A   1      33.213  27.731  26.850  1.00  0.00     0.042 C 
ENDROOT
BRANCH   1   2
ATOM      2  C   UNL A   1      31.785  27.727  26.307  1.00  0.00     0.117 C 
BRANCH   2   3
ATOM      3  N   UNL A   1      31.063  26.553  26.744  1.00  0.00    -0.356 N 
ATOM      4  C   UNL A   1      30.871  25.357  26.122  1.00  0.00     0.227 C 
ATOM      5  O   UNL A   1      30.113  24.563  26.685  1.00  0.00    -0.274 OA
ATOM      6  H   UNL A   1      30.643  26.630  27.631  1.00  0.00     0.163 HD
BRANCH   4   7
ATOM      7  C   UNL A   1      31.615  25.028  24.816  1.00  0.00     0.108 C 
ATOM      8  C   UNL A   1      30.715  25.115  23.576  1.00  0.00     0.023 C 
BRANCH   7   9
ATOM      9  C   UNL A   1      32.256  23.652  24.908  1.00  0.00     0.000 A 
ATOM     10  C   UNL A   1      31.750  22.570  24.183  1.00  0.00     0.009 A 
ATOM     11  C   UNL A   1      33.326  23.411  25.768  1.00  0.00     0.129 A 
ATOM     12  C   UNL A   1      32.329  21.306  24.294  1.00  0.00     0.026 A 
ATOM     13  C   UNL A   1      33.894  22.140  25.888  1.00  0.00     0.065 A 
ATOM     14  F   UNL A   1      33.836  24.415  26.500  1.00  0.00    -0.207 F 
ATOM     15  C   UNL A   1      33.406  21.056  25.149  1.00  0.00     0.037 A 
BRANCH  15  16
ATOM     16  N   UNL A   1      34.017  19.824  25.273  1.00  0.00    -0.382 N 
ATOM     17  H   UNL A   1      34.854  19.809  25.792  1.00  0.00     0.160 HD
BRANCH  16  18
ATOM     18  C   UNL A   1      33.580  18.545  24.734  1.00  0.00     0.079 C 
ATOM     19  C   UNL A   1      34.716  17.629  24.290  1.00  0.00     0.025 C 
ATOM     20  C   UNL A   1      32.703  17.738  25.691  1.00  0.00     0.025 C 
ATOM     21  C   UNL A   1      34.120  16.231  24.369  1.00  0.00     0.002 C 
ATOM     22  C   UNL A   1      33.076  16.274  25.478  1.00  0.00     0.002 C 
ENDBRANCH  16  18
ENDBRANCH  15  16
ENDBRANCH   7   9
ENDBRANCH   4   7
ENDBRANCH   2   3
ENDBRANCH   1   2
BRANCH   1  23
ATOM     23  C   UNL A   1      34.120  28.767  26.192  1.00  0.00     0.118 C 
BRANCH  23  24
ATOM     24  N   UNL A   1      33.867  30.116  26.681  1.00  0.00    -0.352 N 
ATOM     25  C   UNL A   1      34.525  30.839  27.640  1.00  0.00     0.251 C 
ATOM     26  H   UNL A   1      33.108  30.578  26.258  1.00  0.00     0.163 HD
ATOM     27  O   UNL A   1      34.021  31.881  28.064  1.00  0.00    -0.269 OA
BRANCH  25  28
ATOM     28  C   UNL A   1      35.823  30.375  28.174  1.00  0.00     0.039 A 
ATOM     29  C   UNL A   1      35.844  29.654  29.371  1.00  0.00     0.014 A 
ATOM     30  C   UNL A   1      37.019  30.675  27.516  1.00  0.00     0.014 A 
ATOM     31  C   UNL A   1      37.058  29.189  29.879  1.00  0.00     0.010 A 
ATOM     32  C   UNL A   1      38.218  30.143  27.981  1.00  0.00     0.010 A 
ATOM     33  C   UNL A   1      38.253  29.404  29.172  1.00  0.00    -0.014 A 
BRANCH  33  34
ATOM     34  C   UNL A   1      39.547  28.863  29.661  1.00  0.00     0.031 A 
ATOM     35  C   UNL A   1      40.288  29.554  30.774  1.00  0.00     0.074 A 
ATOM     36  C   UNL A   1      40.098  27.799  29.045  1.00  0.00     0.049 A 
ATOM     37  N   UNL A   1      41.456  29.269  31.288  1.00  0.00    -0.248 NA
ATOM     38  C   UNL A   1      39.645  30.737  31.368  1.00  0.00     0.031 C 
ATOM     39  C   UNL A   1      39.515  27.087  27.904  1.00  0.00     0.029 A 
ATOM     40  N   UNL A   1      41.286  27.148  29.269  1.00  0.00    -0.354 N 
ATOM     41  C   UNL A   1      41.706  30.255  32.235  1.00  0.00     0.074 A 
ATOM     42  C   UNL A   1      40.583  31.166  32.201  1.00  0.00     0.031 C 
ATOM     43  C   UNL A   1      40.344  26.100  27.532  1.00  0.00     0.029 A 
ATOM     44  C   UNL A   1      41.531  26.128  28.380  1.00  0.00     0.049 A 
ATOM     45  H   UNL A   1      41.903  27.390  29.995  1.00  0.00     0.167 HD
ATOM     46  C   UNL A   1      42.760  30.378  33.077  1.00  0.00     0.034 A 
ATOM     47  C   UNL A   1      42.598  25.313  28.254  1.00  0.00     0.034 A 
ATOM     48  C   UNL A   1      43.857  29.448  33.134  1.00  0.00     0.049 A 
ATOM     49  C   UNL A   1      43.740  25.449  29.223  1.00  0.00     0.074 A 
ATOM     50  C   UNL A   1      44.927  29.433  34.012  1.00  0.00     0.029 A 
ATOM     51  N   UNL A   1      44.031  28.376  32.273  1.00  0.00    -0.354 N 
ATOM     52  N   UNL A   1      43.885  26.292  30.216  1.00  0.00    -0.248 NA
ATOM     53  C   UNL A   1      44.851  24.497  29.078  1.00  0.00     0.031 C 
ATOM     54  C   UNL A   1      45.764  28.370  33.660  1.00  0.00     0.029 A 
ATOM     55  C   UNL A   1      45.197  27.700  32.588  1.00  0.00     0.049 A 
ATOM     56  H   UNL A   1      43.416  28.131  31.544  1.00  0.00     0.167 HD
ATOM     57  C   UNL A   1      45.081  25.951  30.836  1.00  0.00     0.074 A 
ATOM     58  C   UNL A   1      45.613  24.811  30.117  1.00  0.00     0.031 C 
ATOM     59  C   UNL A   1      45.691  26.537  31.896  1.00  0.00     0.034 A 
BRANCH  46  60
ATOM     60  C   UNL A   1      42.757  31.540  34.038  1.00  0.00     0.023 A 
ATOM     61  C   UNL A   1      43.299  32.779  33.637  1.00  0.00     0.012 A 
ATOM     62  C   UNL A   1      42.175  31.423  35.315  1.00  0.00     0.148 A 
ATOM     63  C   UNL A   1      43.300  33.870  34.505  1.00  0.00     0.002 A 
ATOM     64  C   UNL A   1      42.135  32.529  36.157  1.00  0.00     0.091 A 
ATOM     65  F   UNL A   1      41.682  30.233  35.687  1.00  0.00    -0.205 F 
ATOM     66  C   UNL A   1      42.710  33.748  35.760  1.00  0.00     0.022 A 
BRANCH  64  67
ATOM     67  S   UNL A   1      41.324  32.497  37.760  1.00  0.00     0.127 S 
ATOM     68  O   UNL A   1      39.980  32.050  37.401  1.00  0.00    -0.237 OA
ATOM     69  O   UNL A   1      42.122  31.510  38.488  1.00  0.00    -0.237 OA
ATOM     70  O   UNL A   1      41.414  33.853  38.282  1.00  0.00    -0.744 OA
ENDBRANCH  64  67
ENDBRANCH  46  60
BRANCH  47  71
ATOM     71  C   UNL A   1      42.604  24.257  27.203  1.00  0.00     0.023 A 
ATOM     72  C   UNL A   1      43.257  24.502  25.980  1.00  0.00     0.012 A 
ATOM     73  C   UNL A   1      42.000  23.003  27.421  1.00  0.00     0.148 A 
ATOM     74  C   UNL A   1      43.281  23.530  24.978  1.00  0.00     0.002 A 
ATOM     75  C   UNL A   1      42.076  22.019  26.442  1.00  0.00     0.091 A 
ATOM     76  F   UNL A   1      41.378  22.793  28.589  1.00  0.00    -0.205 F 
ATOM     77  C   UNL A   1      42.700  22.287  25.213  1.00  0.00     0.022 A 
BRANCH  75  78
ATOM     78  S   UNL A   1      41.474  20.347  26.705  1.00  0.00     0.127 S 
ATOM     79  O   UNL A   1      40.043  20.570  26.892  1.00  0.00    -0.237 OA
ATOM     80  O   UNL A   1      41.839  19.696  25.446  1.00  0.00    -0.237 OA
ATOM     81  O   UNL A   1      42.193  19.848  27.868  1.00  0.00    -0.744 OA
ENDBRANCH  75  78
ENDBRANCH  47  71
BRANCH  59  82
ATOM     82  C   UNL A   1      46.986  25.936  32.378  1.00  0.00     0.023 A 
ATOM     83  C   UNL A   1      48.210  26.366  31.829  1.00  0.00     0.012 A 
ATOM     84  C   UNL A   1      46.992  24.998  33.430  1.00  0.00     0.148 A 
ATOM     85  C   UNL A   1      49.417  25.847  32.296  1.00  0.00     0.002 A 
ATOM     86  C   UNL A   1      48.200  24.525  33.925  1.00  0.00     0.091 A 
ATOM     87  F   UNL A   1      45.816  24.587  33.927  1.00  0.00    -0.205 F 
ATOM     88  C   UNL A   1      49.413  24.937  33.351  1.00  0.00     0.022 A 
BRANCH  86  89
ATOM     89  S   UNL A   1      48.297  23.429  35.346  1.00  0.00     0.127 S 
ATOM     90  O   UNL A   1      47.600  22.241  34.853  1.00  0.00    -0.237 OA
ATOM     91  O   UNL A   1      49.741  23.263  35.513  1.00  0.00    -0.237 OA
ATOM     92  O   UNL A   1      47.638  24.128  36.440  1.00  0.00    -0.744 OA
ENDBRANCH  86  89
ENDBRANCH  59  82
ENDBRANCH  33  34
ENDBRANCH  25  28
ENDBRANCH  23  24
ENDBRANCH   1  23
TORSDOF 16
ENDMDL
MODEL 2
REMARK VINA RESULT:     -11.2      5.392      8.602
REMARK SMILES C[C@@H](C(=O)NCCCNC(=O)c1ccc(-c2c3nc(c(-c4cccc(S(=O)(=O)[O-])c4F)c4ccc([nH]4)c(-c4cccc(S(=O)(=O)[O-])c4F)c4nc(c(-c5cccc(S(=O)(=O)[O-])c5F)c5ccc2[nH]5)C=C4)C=C3)cc1)c1ccc(NC2CCCC2)cc1F
REMARK SMILES IDX 7 1 6 2 5 3 3 4 4 5 2 7 1 8 75 9 76 10 86 11 77 12 85 13
REMARK SMILES IDX 87 14 78 15 79 16 80 18 81 19 84 20 82 21 83 22 8 23 9 24
REMARK SMILES IDX 10 25 11 27 12 28 13 29 74 30 14 31 73 32 15 33 16 34 17 35
REMARK SMILES IDX 67 36 18 37 72 38 66 39 68 40 19 41 71 42 65 43 64 44 20 46
REMARK SMILES IDX 52 47 32 48 51 49 33 50 36 51 50 52 69 53 34 54 35 55 49 57
REMARK SMILES IDX 70 58 37 59 21 60 22 61 30 62 23 63 25 64 31 65 24 66 26 67
REMARK SMILES IDX 27 68 28 69 29 70 53 71 54 72 62 73 55 74 57 75 63 76 56 77
REMARK SMILES IDX 58 78 59 79 60 80 61 81 38 82 39 83 47 84 40 85 42 86 48 87
REMARK SMILES IDX 41 88 43 89 44 90 45 91 46 92
REMARK H PARENT 5 6 79 17 9 26 68 45 36 56
REMARK Flexibility Score: inf
ROOT
ATOM      1  C   UNL A   1      35.763  21.751  24.276  1.00  0.00     0.042 C 
ENDROOT
BRANCH   1   2
ATOM      2  C   UNL A   1      35.570  22.960  23.362  1.00  0.00     0.117 C 
BRANCH   2   3
ATOM      3  N   UNL A   1      34.170  23.180  23.074  1.00  0.00    -0.356 N 
ATOM      4  C   UNL A   1      33.278  24.034  23.648  1.00  0.00     0.227 C 
ATOM      5  O   UNL A   1      32.107  23.934  23.273  1.00  0.00    -0.274 OA
ATOM      6  H   UNL A   1      33.803  22.624  22.349  1.00  0.00     0.163 HD
BRANCH   4   7
ATOM      7  C   UNL A   1      33.749  25.087  24.666  1.00  0.00     0.108 C 
ATOM      8  C   UNL A   1      33.632  24.608  26.119  1.00  0.00     0.023 C 
BRANCH   7   9
ATOM      9  C   UNL A   1      32.982  26.385  24.474  1.00  0.00     0.000 A 
ATOM     10  C   UNL A   1      32.038  26.811  25.412  1.00  0.00     0.009 A 
ATOM     11  C   UNL A   1      33.146  27.156  23.325  1.00  0.00     0.129 A 
ATOM     12  C   UNL A   1      31.320  27.990  25.214  1.00  0.00     0.026 A 
ATOM     13  C   UNL A   1      32.414  28.329  23.123  1.00  0.00     0.065 A 
ATOM     14  F   UNL A   1      34.027  26.779  22.385  1.00  0.00    -0.207 F 
ATOM     15  C   UNL A   1      31.482  28.774  24.068  1.00  0.00     0.037 A 
BRANCH  15  16
ATOM     16  N   UNL A   1      30.804  29.956  23.845  1.00  0.00    -0.382 N 
ATOM     17  H   UNL A   1      31.336  30.780  23.929  1.00  0.00     0.160 HD
BRANCH  16  18
ATOM     18  C   UNL A   1      29.402  30.136  23.501  1.00  0.00     0.079 C 
ATOM     19  C   UNL A   1      28.832  31.500  23.878  1.00  0.00     0.025 C 
ATOM     20  C   UNL A   1      29.096  29.919  22.019  1.00  0.00     0.025 C 
ATOM     21  C   UNL A   1      27.660  31.691  22.927  1.00  0.00     0.002 C 
ATOM     22  C   UNL A   1      28.015  30.932  21.654  1.00  0.00     0.002 C 
ENDBRANCH  16  18
ENDBRANCH  15  16
ENDBRANCH   7   9
ENDBRANCH   4   7
ENDBRANCH   2   3
ENDBRANCH   1   2
BRANCH   1  23
ATOM     23  C   UNL A   1      36.650  22.030  25.486  1.00  0.00     0.118 C 
BRANCH  23  24
ATOM     24  N   UNL A   1      37.581  20.940  25.754  1.00  0.00    -0.352 N 
ATOM     25  C   UNL A   1      38.900  20.985  26.120  1.00  0.00     0.251 C 
ATOM     26  H   UNL A   1      37.205  20.037  25.656  1.00  0.00     0.163 HD
ATOM     27  O   UNL A   1      39.572  19.951  26.085  1.00  0.00    -0.269 OA
BRANCH  25  28
ATOM     28  C   UNL A   1      39.522  22.256  26.544  1.00  0.00     0.039 A 
ATOM     29  C   UNL A   1      40.573  22.223  27.463  1.00  0.00     0.014 A 
ATOM     30  C   UNL A   1      39.052  23.482  26.062  1.00  0.00     0.014 A 
ATOM     31  C   UNL A   1      41.187  23.412  27.859  1.00  0.00     0.010 A 
ATOM     32  C   UNL A   1      39.717  24.658  26.395  1.00  0.00     0.010 A 
ATOM     33  C   UNL A   1      40.784  24.639  27.305  1.00  0.00    -0.014 A 
BRANCH  33  34
ATOM     34  C   UNL A   1      41.465  25.909  27.662  1.00  0.00     0.031 A 
ATOM     35  C   UNL A   1      40.729  26.979  28.423  1.00  0.00     0.074 A 
ATOM     36  C   UNL A   1      42.720  26.136  27.226  1.00  0.00     0.049 A 
ATOM     37  N   UNL A   1      41.134  28.173  28.767  1.00  0.00    -0.248 NA
ATOM     38  C   UNL A   1      39.346  26.677  28.827  1.00  0.00     0.031 C 
ATOM     39  C   UNL A   1      43.514  25.209  26.414  1.00  0.00     0.029 A 
ATOM     40  N   UNL A   1      43.538  27.228  27.376  1.00  0.00    -0.354 N 
ATOM     41  C   UNL A   1      40.050  28.779  29.390  1.00  0.00     0.074 A 
ATOM     42  C   UNL A   1      38.957  27.832  29.347  1.00  0.00     0.031 C 
ATOM     43  C   UNL A   1      44.701  25.770  26.141  1.00  0.00     0.029 A 
ATOM     44  C   UNL A   1      44.744  27.106  26.726  1.00  0.00     0.049 A 
ATOM     45  H   UNL A   1      43.285  28.022  27.898  1.00  0.00     0.167 HD
ATOM     46  C   UNL A   1      39.976  30.001  29.970  1.00  0.00     0.034 A 
ATOM     47  C   UNL A   1      45.765  27.978  26.603  1.00  0.00     0.034 A 
ATOM     48  C   UNL A   1      41.077  30.924  30.044  1.00  0.00     0.049 A 
ATOM     49  C   UNL A   1      45.671  29.315  27.285  1.00  0.00     0.074 A 
ATOM     50  C   UNL A   1      41.131  32.148  30.688  1.00  0.00     0.029 A 
ATOM     51  N   UNL A   1      42.312  30.733  29.446  1.00  0.00    -0.354 N 
ATOM     52  N   UNL A   1      44.692  29.808  28.005  1.00  0.00    -0.248 NA
ATOM     53  C   UNL A   1      46.836  30.204  27.169  1.00  0.00     0.031 C 
ATOM     54  C   UNL A   1      42.389  32.710  30.452  1.00  0.00     0.029 A 
ATOM     55  C   UNL A   1      43.132  31.819  29.693  1.00  0.00     0.049 A 
ATOM     56  H   UNL A   1      42.569  29.939  28.922  1.00  0.00     0.167 HD
ATOM     57  C   UNL A   1      45.136  31.044  28.459  1.00  0.00     0.074 A 
ATOM     58  C   UNL A   1      46.481  31.218  27.946  1.00  0.00     0.031 C 
ATOM     59  C   UNL A   1      44.486  31.960  29.218  1.00  0.00     0.034 A 
BRANCH  46  60
ATOM     60  C   UNL A   1      38.669  30.393  30.611  1.00  0.00     0.023 A 
ATOM     61  C   UNL A   1      38.424  30.058  31.960  1.00  0.00     0.012 A 
ATOM     62  C   UNL A   1      37.706  31.135  29.900  1.00  0.00     0.148 A 
ATOM     63  C   UNL A   1      37.227  30.419  32.577  1.00  0.00     0.002 A 
ATOM     64  C   UNL A   1      36.536  31.533  30.536  1.00  0.00     0.091 A 
ATOM     65  F   UNL A   1      37.945  31.428  28.614  1.00  0.00    -0.205 F 
ATOM     66  C   UNL A   1      36.288  31.163  31.869  1.00  0.00     0.022 A 
BRANCH  64  67
ATOM     67  S   UNL A   1      35.301  32.565  29.737  1.00  0.00     0.127 S 
ATOM     68  O   UNL A   1      34.363  32.803  30.833  1.00  0.00    -0.237 OA
ATOM     69  O   UNL A   1      36.087  33.734  29.343  1.00  0.00    -0.237 OA
ATOM     70  O   UNL A   1      34.780  31.781  28.627  1.00  0.00    -0.744 OA
ENDBRANCH  64  67
ENDBRANCH  46  60
BRANCH  47  71
ATOM     71  C   UNL A   1      46.989  27.584  25.851  1.00  0.00     0.023 A 
ATOM     72  C   UNL A   1      48.011  26.877  26.513  1.00  0.00     0.012 A 
ATOM     73  C   UNL A   1      47.132  27.874  24.480  1.00  0.00     0.148 A 
ATOM     74  C   UNL A   1      49.168  26.494  25.833  1.00  0.00     0.002 A 
ATOM     75  C   UNL A   1      48.261  27.440  23.795  1.00  0.00     0.091 A 
ATOM     76  F   UNL A   1      46.151  28.554  23.870  1.00  0.00    -0.205 F 
ATOM     77  C   UNL A   1      49.288  26.766  24.473  1.00  0.00     0.022 A 
BRANCH  75  78
ATOM     78  S   UNL A   1      48.442  27.628  22.018  1.00  0.00     0.127 S 
ATOM     79  O   UNL A   1      49.612  28.497  21.926  1.00  0.00    -0.237 OA
ATOM     80  O   UNL A   1      48.664  26.245  21.591  1.00  0.00    -0.237 OA
ATOM     81  O   UNL A   1      47.189  28.205  21.552  1.00  0.00    -0.744 OA
ENDBRANCH  75  78
ENDBRANCH  47  71
BRANCH  59  82
ATOM     82  C   UNL A   1      45.227  33.220  29.583  1.00  0.00     0.023 A 
ATOM     83  C   UNL A   1      46.036  33.253  30.735  1.00  0.00     0.012 A 
ATOM     84  C   UNL A   1      45.178  34.349  28.740  1.00  0.00     0.148 A 
ATOM     85  C   UNL A   1      46.759  34.400  31.061  1.00  0.00     0.002 A 
ATOM     86  C   UNL A   1      45.941  35.469  29.043  1.00  0.00     0.091 A 
ATOM     87  F   UNL A   1      44.387  34.305  27.658  1.00  0.00    -0.205 F 
ATOM     88  C   UNL A   1      46.721  35.502  30.210  1.00  0.00     0.022 A 
BRANCH  86  89
ATOM     89  S   UNL A   1      46.032  36.896  27.955  1.00  0.00     0.127 S 
ATOM     90  O   UNL A   1      44.700  37.476  28.113  1.00  0.00    -0.237 OA
ATOM     91  O   UNL A   1      47.114  37.676  28.556  1.00  0.00    -0.237 OA
ATOM     92  O   UNL A   1      46.330  36.372  26.629  1.00  0.00    -0.744 OA
ENDBRANCH  86  89
ENDBRANCH  59  82
ENDBRANCH  33  34
ENDBRANCH  25  28
ENDBRANCH  23  24
ENDBRANCH   1  23
TORSDOF 16
ENDMDL
MODEL 3
REMARK VINA RESULT:     -11.2      5.434     11.325
REMARK SMILES C[C@@H](C(=O)NCCCNC(=O)c1ccc(-c2c3nc(c(-c4cccc(S(=O)(=O)[O-])c4F)c4ccc([nH]4)c(-c4cccc(S(=O)(=O)[O-])c4F)c4nc(c(-c5cccc(S(=O)(=O)[O-])c5F)c5ccc2[nH]5)C=C4)C=C3)cc1)c1ccc(NC2CCCC2)cc1F
REMARK SMILES IDX 7 1 6 2 5 3 3 4 4 5 2 7 1 8 75 9 76 10 86 11 77 12 85 13
REMARK SMILES IDX 87 14 78 15 79 16 80 18 81 19 84 20 82 21 83 22 8 23 9 24
REMARK SMILES IDX 10 25 11 27 12 28 13 29 74 30 14 31 73 32 15 33 16 34 17 35
REMARK SMILES IDX 67 36 18 37 72 38 66 39 68 40 19 41 71 42 65 43 64 44 20 46
REMARK SMILES IDX 52 47 32 48 51 49 33 50 36 51 50 52 69 53 34 54 35 55 49 57
REMARK SMILES IDX 70 58 37 59 21 60 22 61 30 62 23 63 25 64 31 65 24 66 26 67
REMARK SMILES IDX 27 68 28 69 29 70 53 71 54 72 62 73 55 74 57 75 63 76 56 77
REMARK SMILES IDX 58 78 59 79 60 80 61 81 38 82 39 83 47 84 40 85 42 86 48 87
REMARK SMILES IDX 41 88 43 89 44 90 45 91 46 92
REMARK H PARENT 5 6 79 17 9 26 68 45 36 56
REMARK Flexibility Score: inf
ROOT
ATOM      1  C   UNL A   1      42.137  20.563  27.261  1.00  0.00     0.042 C 
ENDROOT
BRANCH   1   2
ATOM      2  C   UNL A   1      42.673  20.883  25.867  1.00  0.00     0.117 C 
BRANCH   2   3
ATOM      3  N   UNL A   1      44.116  20.990  25.873  1.00  0.00    -0.356 N 
ATOM      4  C   UNL A   1      44.915  22.092  25.881  1.00  0.00     0.227 C 
ATOM      5  O   UNL A   1      46.128  21.888  25.774  1.00  0.00    -0.274 OA
ATOM      6  H   UNL A   1      44.596  20.130  25.872  1.00  0.00     0.163 HD
BRANCH   4   7
ATOM      7  C   UNL A   1      44.311  23.495  26.065  1.00  0.00     0.108 C 
ATOM      8  C   UNL A   1      45.007  24.564  25.212  1.00  0.00     0.023 C 
BRANCH   7   9
ATOM      9  C   UNL A   1      44.337  23.890  27.533  1.00  0.00     0.000 A 
ATOM     10  C   UNL A   1      43.163  23.937  28.289  1.00  0.00     0.009 A 
ATOM     11  C   UNL A   1      45.522  24.284  28.152  1.00  0.00     0.129 A 
ATOM     12  C   UNL A   1      43.194  24.326  29.628  1.00  0.00     0.026 A 
ATOM     13  C   UNL A   1      45.546  24.687  29.490  1.00  0.00     0.065 A 
ATOM     14  F   UNL A   1      46.674  24.275  27.463  1.00  0.00    -0.207 F 
ATOM     15  C   UNL A   1      44.378  24.716  30.260  1.00  0.00     0.037 A 
BRANCH  15  16
ATOM     16  N   UNL A   1      44.452  25.091  31.587  1.00  0.00    -0.382 N 
ATOM     17  H   UNL A   1      44.232  26.031  31.781  1.00  0.00     0.160 HD
BRANCH  16  18
ATOM     18  C   UNL A   1      44.813  24.272  32.734  1.00  0.00     0.079 C 
ATOM     19  C   UNL A   1      44.893  25.036  34.052  1.00  0.00     0.025 C 
ATOM     20  C   UNL A   1      43.880  23.083  32.963  1.00  0.00     0.025 C 
ATOM     21  C   UNL A   1      44.659  23.973  35.114  1.00  0.00     0.002 C 
ATOM     22  C   UNL A   1      43.759  22.921  34.475  1.00  0.00     0.002 C 
ENDBRANCH  16  18
ENDBRANCH  15  16
ENDBRANCH   7   9
ENDBRANCH   4   7
ENDBRANCH   2   3
ENDBRANCH   1   2
BRANCH   1  23
ATOM     23  C   UNL A   1      41.022  21.497  27.722  1.00  0.00     0.118 C 
BRANCH  23  24
ATOM     24  N   UNL A   1      39.926  21.568  26.763  1.00  0.00    -0.352 N 
ATOM     25  C   UNL A   1      39.146  22.634  26.400  1.00  0.00     0.251 C 
ATOM     26  H   UNL A   1      39.714  20.722  26.309  1.00  0.00     0.163 HD
ATOM     27  O   UNL A   1      38.128  22.438  25.733  1.00  0.00    -0.269 OA
BRANCH  25  28
ATOM     28  C   UNL A   1      39.510  24.007  26.808  1.00  0.00     0.039 A 
ATOM     29  C   UNL A   1      39.166  24.446  28.090  1.00  0.00     0.014 A 
ATOM     30  C   UNL A   1      40.161  24.871  25.924  1.00  0.00     0.014 A 
ATOM     31  C   UNL A   1      39.520  25.732  28.501  1.00  0.00     0.010 A 
ATOM     32  C   UNL A   1      40.584  26.122  26.362  1.00  0.00     0.010 A 
ATOM     33  C   UNL A   1      40.259  26.571  27.650  1.00  0.00    -0.014 A 
BRANCH  33  34
ATOM     34  C   UNL A   1      40.703  27.919  28.090  1.00  0.00     0.031 A 
ATOM     35  C   UNL A   1      42.167  28.267  28.112  1.00  0.00     0.074 A 
ATOM     36  C   UNL A   1      39.793  28.800  28.552  1.00  0.00     0.049 A 
ATOM     37  N   UNL A   1      42.747  29.364  28.524  1.00  0.00    -0.248 NA
ATOM     38  C   UNL A   1      43.104  27.237  27.636  1.00  0.00     0.031 C 
ATOM     39  C   UNL A   1      38.353  28.554  28.653  1.00  0.00     0.029 A 
ATOM     40  N   UNL A   1      39.948  30.069  29.052  1.00  0.00    -0.354 N 
ATOM     41  C   UNL A   1      44.113  29.145  28.394  1.00  0.00     0.074 A 
ATOM     42  C   UNL A   1      44.277  27.796  27.897  1.00  0.00     0.031 C 
ATOM     43  C   UNL A   1      37.758  29.636  29.178  1.00  0.00     0.029 A 
ATOM     44  C   UNL A   1      38.773  30.637  29.485  1.00  0.00     0.049 A 
ATOM     45  H   UNL A   1      40.817  30.527  29.098  1.00  0.00     0.167 HD
ATOM     46  C   UNL A   1      45.138  29.995  28.640  1.00  0.00     0.034 A 
ATOM     47  C   UNL A   1      38.540  31.827  30.073  1.00  0.00     0.034 A 
ATOM     48  C   UNL A   1      44.968  31.349  29.098  1.00  0.00     0.049 A 
ATOM     49  C   UNL A   1      39.691  32.767  30.304  1.00  0.00     0.074 A 
ATOM     50  C   UNL A   1      45.936  32.320  29.290  1.00  0.00     0.029 A 
ATOM     51  N   UNL A   1      43.754  31.920  29.447  1.00  0.00    -0.354 N 
ATOM     52  N   UNL A   1      40.962  32.600  30.027  1.00  0.00    -0.248 NA
ATOM     53  C   UNL A   1      39.374  34.075  30.895  1.00  0.00     0.031 C 
ATOM     54  C   UNL A   1      45.310  33.468  29.785  1.00  0.00     0.029 A 
ATOM     55  C   UNL A   1      43.947  33.225  29.866  1.00  0.00     0.049 A 
ATOM     56  H   UNL A   1      42.882  31.465  29.403  1.00  0.00     0.167 HD
ATOM     57  C   UNL A   1      41.589  33.791  30.374  1.00  0.00     0.074 A 
ATOM     58  C   UNL A   1      40.554  34.678  30.865  1.00  0.00     0.031 C 
ATOM     59  C   UNL A   1      42.903  34.116  30.306  1.00  0.00     0.034 A 
BRANCH  46  60
ATOM     60  C   UNL A   1      46.537  29.501  28.375  1.00  0.00     0.023 A 
ATOM     61  C   UNL A   1      47.173  29.822  27.157  1.00  0.00     0.012 A 
ATOM     62  C   UNL A   1      47.241  28.763  29.346  1.00  0.00     0.148 A 
ATOM     63  C   UNL A   1      48.470  29.383  26.894  1.00  0.00     0.002 A 
ATOM     64  C   UNL A   1      48.551  28.371  29.096  1.00  0.00     0.091 A 
ATOM     65  F   UNL A   1      46.616  28.449  30.489  1.00  0.00    -0.205 F 
ATOM     66  C   UNL A   1      49.162  28.667  27.866  1.00  0.00     0.022 A 
BRANCH  64  67
ATOM     67  S   UNL A   1      49.557  27.516  30.316  1.00  0.00     0.127 S 
ATOM     68  O   UNL A   1      48.749  26.327  30.583  1.00  0.00    -0.237 OA
ATOM     69  O   UNL A   1      50.791  27.261  29.572  1.00  0.00    -0.237 OA
ATOM     70  O   UNL A   1      49.702  28.438  31.434  1.00  0.00    -0.744 OA
ENDBRANCH  64  67
ENDBRANCH  46  60
BRANCH  47  71
ATOM     71  C   UNL A   1      37.147  32.218  30.429  1.00  0.00     0.023 A 
ATOM     72  C   UNL A   1      36.687  32.017  31.745  1.00  0.00     0.012 A 
ATOM     73  C   UNL A   1      36.291  32.820  29.486  1.00  0.00     0.148 A 
ATOM     74  C   UNL A   1      35.387  32.375  32.107  1.00  0.00     0.002 A 
ATOM     75  C   UNL A   1      35.017  33.226  29.868  1.00  0.00     0.091 A 
ATOM     76  F   UNL A   1      36.746  32.997  28.238  1.00  0.00    -0.205 F 
ATOM     77  C   UNL A   1      34.558  32.989  31.173  1.00  0.00     0.022 A 
BRANCH  75  78
ATOM     78  S   UNL A   1      33.928  34.143  28.772  1.00  0.00     0.127 S 
ATOM     79  O   UNL A   1      33.539  33.116  27.810  1.00  0.00    -0.237 OA
ATOM     80  O   UNL A   1      32.867  34.564  29.689  1.00  0.00    -0.237 OA
ATOM     81  O   UNL A   1      34.731  35.235  28.241  1.00  0.00    -0.744 OA
ENDBRANCH  75  78
ENDBRANCH  47  71
BRANCH  59  82
ATOM     82  C   UNL A   1      43.305  35.504  30.732  1.00  0.00     0.023 A 
ATOM     83  C   UNL A   1      43.707  35.745  32.060  1.00  0.00     0.012 A 
ATOM     84  C   UNL A   1      43.354  36.555  29.794  1.00  0.00     0.148 A 
ATOM     85  C   UNL A   1      44.120  37.016  32.456  1.00  0.00     0.002 A 
ATOM     86  C   UNL A   1      43.816  37.805  30.183  1.00  0.00     0.091 A 
ATOM     87  F   UNL A   1      42.950  36.311  28.539  1.00  0.00    -0.205 F 
ATOM     88  C   UNL A   1      44.186  38.042  31.516  1.00  0.00     0.022 A 
BRANCH  86  89
ATOM     89  S   UNL A   1      44.030  39.159  29.020  1.00  0.00     0.127 S 
ATOM     90  O   UNL A   1      44.937  38.565  28.038  1.00  0.00    -0.237 OA
ATOM     91  O   UNL A   1      42.665  39.373  28.539  1.00  0.00    -0.237 OA
ATOM     92  O   UNL A   1      44.581  40.266  29.789  1.00  0.00    -0.744 OA
ENDBRANCH  86  89
ENDBRANCH  59  82
ENDBRANCH  33  34
ENDBRANCH  25  28
ENDBRANCH  23  24
ENDBRANCH   1  23
TORSDOF 16
ENDMDL
