MODEL 1
REMARK VINA RESULT:     -13.3      0.000      0.000
REMARK SMILES O=C(NCCCNC(=O)c1cc(Cl)ccc1NC(=O)c1ccc2c(c1)C(=O)N(Cc1ccco1)C2=O)c1ccc(-c2c3nc(c(-c4cccc(S(=O)(=O)[O-])c4F)c4ccc([nH]4)c(-c4cccc(S(=O)(=O)[O-])c4F)c4nc(c(-c5cccc(S(=O)(=O)[O-])c5F)c5ccc2[nH]5)C=C4)C=C3)cc1
REMARK SMILES IDX 5 1 4 2 3 3 1 4 2 5 37 7 38 8 99 9 39 10 98 11 40 12 41 13
REMARK SMILES IDX 42 14 92 15 43 16 97 17 91 18 93 19 44 20 96 21 90 22 89 23
REMARK SMILES IDX 45 25 77 26 57 27 76 28 58 29 61 30 75 31 94 32 59 33 60 34
REMARK SMILES IDX 74 36 95 37 62 38 46 39 47 40 55 41 48 42 50 43 56 44 49 45
REMARK SMILES IDX 51 46 52 47 53 48 54 49 78 50 79 51 87 52 80 53 82 54 88 55
REMARK SMILES IDX 81 56 83 57 84 58 85 59 86 60 63 61 64 62 72 63 65 64 67 65
REMARK SMILES IDX 73 66 66 67 68 68 69 69 70 70 71 71 6 72 7 73 8 74 9 76
REMARK SMILES IDX 10 77 11 78 16 79 12 80 15 81 13 82 14 83 17 84 18 85 19 87
REMARK SMILES IDX 20 88 21 89 25 90 22 91 24 92 23 93 26 94 35 95 27 96 28 97
REMARK SMILES IDX 36 98 29 99 30 100 31 101 34 102 32 103 33 104
REMARK H PARENT 3 6 93 24 61 35 7 75 17 86
REMARK Flexibility Score: inf
ROOT
ATOM      1  C   UNL A   1      31.416  32.163  26.689  1.00  0.00     0.042 C 
ENDROOT
BRANCH   1   2
ATOM      2  C   UNL A   1      32.707  32.764  27.220  1.00  0.00     0.118 C 
BRANCH   2   3
ATOM      3  N   UNL A   1      32.525  34.121  27.720  1.00  0.00    -0.352 N 
ATOM      4  O   UNL A   1      32.700  35.846  29.149  1.00  0.00    -0.269 OA
ATOM      5  C   UNL A   1      33.146  34.771  28.761  1.00  0.00     0.251 C 
ATOM      6  H   UNL A   1      31.854  34.656  27.237  1.00  0.00     0.163 HD
BRANCH   5   7
ATOM      7  C   UNL A   1      34.325  34.164  29.416  1.00  0.00     0.039 A 
ATOM      8  C   UNL A   1      34.164  33.291  30.493  1.00  0.00     0.014 A 
ATOM      9  C   UNL A   1      35.605  34.457  28.940  1.00  0.00     0.014 A 
ATOM     10  C   UNL A   1      35.273  32.847  31.197  1.00  0.00     0.010 A 
ATOM     11  C   UNL A   1      36.723  33.913  29.580  1.00  0.00     0.010 A 
ATOM     12  C   UNL A   1      36.567  33.126  30.732  1.00  0.00    -0.014 A 
BRANCH  12  13
ATOM     13  C   UNL A   1      37.727  32.485  31.400  1.00  0.00     0.031 A 
ATOM     14  C   UNL A   1      38.469  31.345  30.764  1.00  0.00     0.074 A 
ATOM     15  C   UNL A   1      38.096  32.944  32.612  1.00  0.00     0.049 A 
ATOM     16  N   UNL A   1      39.493  30.676  31.228  1.00  0.00    -0.248 NA
ATOM     17  C   UNL A   1      38.006  30.889  29.444  1.00  0.00     0.031 C 
ATOM     18  C   UNL A   1      37.423  34.023  33.344  1.00  0.00     0.029 A 
ATOM     19  N   UNL A   1      39.111  32.563  33.451  1.00  0.00    -0.354 N 
ATOM     20  C   UNL A   1      39.769  29.693  30.285  1.00  0.00     0.074 A 
ATOM     21  C   UNL A   1      38.806  29.855  29.217  1.00  0.00     0.031 C 
ATOM     22  C   UNL A   1      38.049  34.225  34.510  1.00  0.00     0.029 A 
ATOM     23  C   UNL A   1      39.119  33.245  34.645  1.00  0.00     0.049 A 
ATOM     24  H   UNL A   1      39.770  31.868  33.221  1.00  0.00     0.167 HD
ATOM     25  C   UNL A   1      40.738  28.747  30.311  1.00  0.00     0.034 A 
ATOM     26  C   UNL A   1      39.871  33.077  35.748  1.00  0.00     0.034 A 
ATOM     27  C   UNL A   1      41.703  28.609  31.371  1.00  0.00     0.049 A 
ATOM     28  C   UNL A   1      40.930  32.014  35.746  1.00  0.00     0.074 A 
ATOM     29  C   UNL A   1      42.774  27.735  31.447  1.00  0.00     0.029 A 
ATOM     30  N   UNL A   1      41.702  29.340  32.548  1.00  0.00    -0.354 N 
ATOM     31  N   UNL A   1      41.267  31.190  34.785  1.00  0.00    -0.248 NA
ATOM     32  C   UNL A   1      41.729  31.873  36.970  1.00  0.00     0.031 C 
ATOM     33  C   UNL A   1      43.387  27.902  32.693  1.00  0.00     0.029 A 
ATOM     34  C   UNL A   1      42.732  28.916  33.372  1.00  0.00     0.049 A 
ATOM     35  H   UNL A   1      41.062  30.056  32.768  1.00  0.00     0.167 HD
ATOM     36  C   UNL A   1      42.334  30.450  35.276  1.00  0.00     0.074 A 
ATOM     37  C   UNL A   1      42.604  30.943  36.611  1.00  0.00     0.031 C 
ATOM     38  C   UNL A   1      43.017  29.442  34.682  1.00  0.00     0.034 A 
BRANCH  25  39
ATOM     39  C   UNL A   1      40.820  27.779  29.158  1.00  0.00     0.023 A 
ATOM     40  C   UNL A   1      39.969  26.656  29.117  1.00  0.00     0.012 A 
ATOM     41  C   UNL A   1      41.679  28.034  28.071  1.00  0.00     0.148 A 
ATOM     42  C   UNL A   1      39.993  25.788  28.026  1.00  0.00     0.002 A 
ATOM     43  C   UNL A   1      41.664  27.190  26.967  1.00  0.00     0.091 A 
ATOM     44  F   UNL A   1      42.492  29.098  28.135  1.00  0.00    -0.205 F 
ATOM     45  C   UNL A   1      40.830  26.061  26.947  1.00  0.00     0.022 A 
BRANCH  43  46
ATOM     46  S   UNL A   1      42.644  27.500  25.494  1.00  0.00     0.127 S 
ATOM     47  O   UNL A   1      43.997  27.557  26.048  1.00  0.00    -0.237 OA
ATOM     48  O   UNL A   1      42.366  26.313  24.685  1.00  0.00    -0.237 OA
ATOM     49  O   UNL A   1      42.149  28.749  24.934  1.00  0.00    -0.744 OA
ENDBRANCH  43  46
ENDBRANCH  25  39
BRANCH  26  50
ATOM     50  C   UNL A   1      39.641  33.938  36.942  1.00  0.00     0.023 A 
ATOM     51  C   UNL A   1      40.005  35.296  36.905  1.00  0.00     0.012 A 
ATOM     52  C   UNL A   1      39.039  33.416  38.104  1.00  0.00     0.148 A 
ATOM     53  C   UNL A   1      39.807  36.112  38.019  1.00  0.00     0.002 A 
ATOM     54  C   UNL A   1      38.787  34.249  39.186  1.00  0.00     0.091 A 
ATOM     55  F   UNL A   1      38.708  32.117  38.120  1.00  0.00    -0.205 F 
ATOM     56  C   UNL A   1      39.189  35.592  39.154  1.00  0.00     0.022 A 
BRANCH  54  57
ATOM     57  S   UNL A   1      37.873  33.697  40.630  1.00  0.00     0.127 S 
ATOM     58  O   UNL A   1      37.777  34.929  41.410  1.00  0.00    -0.237 OA
ATOM     59  O   UNL A   1      36.617  33.244  40.034  1.00  0.00    -0.237 OA
ATOM     60  O   UNL A   1      38.675  32.635  41.221  1.00  0.00    -0.744 OA
ENDBRANCH  54  57
ENDBRANCH  26  50
BRANCH  38  61
ATOM     61  C   UNL A   1      44.154  28.825  35.452  1.00  0.00     0.023 A 
ATOM     62  C   UNL A   1      45.457  29.349  35.328  1.00  0.00     0.012 A 
ATOM     63  C   UNL A   1      43.915  27.770  36.354  1.00  0.00     0.148 A 
ATOM     64  C   UNL A   1      46.508  28.810  36.068  1.00  0.00     0.002 A 
ATOM     65  C   UNL A   1      44.956  27.276  37.128  1.00  0.00     0.091 A 
ATOM     66  F   UNL A   1      42.672  27.275  36.442  1.00  0.00    -0.205 F 
ATOM     67  C   UNL A   1      46.257  27.784  36.976  1.00  0.00     0.022 A 
BRANCH  65  68
ATOM     68  S   UNL A   1      44.712  26.024  38.392  1.00  0.00     0.127 S 
ATOM     69  O   UNL A   1      44.039  24.967  37.639  1.00  0.00    -0.237 OA
ATOM     70  O   UNL A   1      46.085  25.712  38.787  1.00  0.00    -0.237 OA
ATOM     71  O   UNL A   1      43.907  26.651  39.432  1.00  0.00    -0.744 OA
ENDBRANCH  65  68
ENDBRANCH  38  61
ENDBRANCH  12  13
ENDBRANCH   5   7
ENDBRANCH   2   3
ENDBRANCH   1   2
BRANCH   1  72
ATOM     72  C   UNL A   1      31.600  30.792  26.060  1.00  0.00     0.118 C 
BRANCH  72  73
ATOM     73  N   UNL A   1      31.718  29.727  27.053  1.00  0.00    -0.352 N 
ATOM     74  C   UNL A   1      31.787  28.366  26.870  1.00  0.00     0.253 C 
ATOM     75  H   UNL A   1      31.752  30.028  27.991  1.00  0.00     0.163 HD
ATOM     76  O   UNL A   1      31.685  27.596  27.820  1.00  0.00    -0.269 OA
BRANCH  74  77
ATOM     77  C   UNL A   1      31.919  27.834  25.499  1.00  0.00     0.064 A 
ATOM     78  C   UNL A   1      33.035  28.224  24.742  1.00  0.00     0.036 A 
ATOM     79  C   UNL A   1      30.918  27.013  24.950  1.00  0.00     0.054 A 
ATOM     80  C   UNL A   1      33.068  27.956  23.383  1.00  0.00     0.041 A 
ATOM     81  C   UNL A   1      30.916  26.874  23.559  1.00  0.00     0.028 A 
ATOM     82  Cl  UNL A   1      34.400  28.483  22.438  1.00  0.00    -0.084 Cl
ATOM     83  C   UNL A   1      31.989  27.325  22.779  1.00  0.00     0.023 A 
BRANCH  79  84
ATOM     84  N   UNL A   1      29.992  26.366  25.808  1.00  0.00    -0.321 N 
ATOM     85  C   UNL A   1      29.961  25.108  26.377  1.00  0.00     0.255 C 
ATOM     86  H   UNL A   1      29.217  26.926  26.046  1.00  0.00     0.170 HD
ATOM     87  O   UNL A   1      28.996  24.728  27.036  1.00  0.00    -0.269 OA
BRANCH  85  88
ATOM     88  C   UNL A   1      31.097  24.179  26.231  1.00  0.00     0.041 A 
ATOM     89  C   UNL A   1      30.796  22.799  26.138  1.00  0.00     0.015 A 
ATOM     90  C   UNL A   1      32.401  24.664  26.045  1.00  0.00     0.028 A 
ATOM     91  C   UNL A   1      31.772  21.895  25.715  1.00  0.00     0.015 A 
ATOM     92  C   UNL A   1      33.335  23.749  25.600  1.00  0.00     0.054 A 
ATOM     93  C   UNL A   1      33.016  22.414  25.411  1.00  0.00     0.053 A 
ATOM     94  C   UNL A   1      34.681  23.957  25.066  1.00  0.00     0.261 C 
ATOM     95  C   UNL A   1      34.140  21.786  24.727  1.00  0.00     0.261 C 
ATOM     96  O   UNL A   1      35.220  25.048  25.000  1.00  0.00    -0.269 OA
ATOM     97  N   UNL A   1      35.108  22.745  24.605  1.00  0.00    -0.267 N 
ATOM     98  O   UNL A   1      34.118  20.648  24.303  1.00  0.00    -0.269 OA
BRANCH  97  99
ATOM     99  C   UNL A   1      36.363  22.532  23.917  1.00  0.00     0.204 C 
BRANCH  99 100
ATOM    100  C   UNL A   1      37.460  22.394  24.912  1.00  0.00     0.123 A 
ATOM    101  C   UNL A   1      38.035  23.269  25.813  1.00  0.00     0.047 A 
ATOM    102  O   UNL A   1      38.062  21.174  25.005  1.00  0.00    -0.467 OA
ATOM    103  C   UNL A   1      39.056  22.552  26.474  1.00  0.00     0.042 A 
ATOM    104  C   UNL A   1      39.027  21.280  25.955  1.00  0.00     0.195 A 
ENDBRANCH  99 100
ENDBRANCH  97  99
ENDBRANCH  85  88
ENDBRANCH  79  84
ENDBRANCH  74  77
ENDBRANCH  72  73
ENDBRANCH   1  72
TORSDOF 17
ENDMDL
MODEL 2
REMARK VINA RESULT:     -13.1      1.494      2.289
REMARK SMILES O=C(NCCCNC(=O)c1cc(Cl)ccc1NC(=O)c1ccc2c(c1)C(=O)N(Cc1ccco1)C2=O)c1ccc(-c2c3nc(c(-c4cccc(S(=O)(=O)[O-])c4F)c4ccc([nH]4)c(-c4cccc(S(=O)(=O)[O-])c4F)c4nc(c(-c5cccc(S(=O)(=O)[O-])c5F)c5ccc2[nH]5)C=C4)C=C3)cc1
REMARK SMILES IDX 5 1 4 2 3 3 1 4 2 5 37 7 38 8 99 9 39 10 98 11 40 12 41 13
REMARK SMILES IDX 42 14 92 15 43 16 97 17 91 18 93 19 44 20 96 21 90 22 89 23
REMARK SMILES IDX 45 25 77 26 57 27 76 28 58 29 61 30 75 31 94 32 59 33 60 34
REMARK SMILES IDX 74 36 95 37 62 38 46 39 47 40 55 41 48 42 50 43 56 44 49 45
REMARK SMILES IDX 51 46 52 47 53 48 54 49 78 50 79 51 87 52 80 53 82 54 88 55
REMARK SMILES IDX 81 56 83 57 84 58 85 59 86 60 63 61 64 62 72 63 65 64 67 65
REMARK SMILES IDX 73 66 66 67 68 68 69 69 70 70 71 71 6 72 7 73 8 74 9 76
REMARK SMILES IDX 10 77 11 78 16 79 12 80 15 81 13 82 14 83 17 84 18 85 19 87
REMARK SMILES IDX 20 88 21 89 25 90 22 91 24 92 23 93 26 94 35 95 27 96 28 97
REMARK SMILES IDX 36 98 29 99 30 100 31 101 34 102 32 103 33 104
REMARK H PARENT 3 6 93 24 61 35 7 75 17 86
REMARK Flexibility Score: inf
ROOT
ATOM      1  C   UNL A   1      31.428  31.754  26.636  1.00  0.00     0.042 C 
ENDROOT
BRANCH   1   2
ATOM      2  C   UNL A   1      32.727  32.436  27.032  1.00  0.00     0.118 C 
BRANCH   2   3
ATOM      3  N   UNL A   1      32.517  33.788  27.534  1.00  0.00    -0.352 N 
ATOM      4  O   UNL A   1      32.652  35.514  28.966  1.00  0.00    -0.269 OA
ATOM      5  C   UNL A   1      33.121  34.448  28.577  1.00  0.00     0.251 C 
ATOM      6  H   UNL A   1      31.837  34.311  27.048  1.00  0.00     0.163 HD
BRANCH   5   7
ATOM      7  C   UNL A   1      34.309  33.864  29.236  1.00  0.00     0.039 A 
ATOM      8  C   UNL A   1      34.162  32.881  30.215  1.00  0.00     0.014 A 
ATOM      9  C   UNL A   1      35.585  34.290  28.861  1.00  0.00     0.014 A 
ATOM     10  C   UNL A   1      35.267  32.448  30.934  1.00  0.00     0.010 A 
ATOM     11  C   UNL A   1      36.708  33.766  29.508  1.00  0.00     0.010 A 
ATOM     12  C   UNL A   1      36.556  32.860  30.569  1.00  0.00    -0.014 A 
BRANCH  12  13
ATOM     13  C   UNL A   1      37.728  32.240  31.236  1.00  0.00     0.031 A 
ATOM     14  C   UNL A   1      38.484  31.107  30.604  1.00  0.00     0.074 A 
ATOM     15  C   UNL A   1      38.095  32.711  32.445  1.00  0.00     0.049 A 
ATOM     16  N   UNL A   1      39.518  30.455  31.068  1.00  0.00    -0.248 NA
ATOM     17  C   UNL A   1      38.022  30.637  29.288  1.00  0.00     0.031 C 
ATOM     18  C   UNL A   1      37.409  33.783  33.173  1.00  0.00     0.029 A 
ATOM     19  N   UNL A   1      39.117  32.348  33.282  1.00  0.00    -0.354 N 
ATOM     20  C   UNL A   1      39.805  29.470  30.130  1.00  0.00     0.074 A 
ATOM     21  C   UNL A   1      38.836  29.613  29.064  1.00  0.00     0.031 C 
ATOM     22  C   UNL A   1      38.036  34.001  34.336  1.00  0.00     0.029 A 
ATOM     23  C   UNL A   1      39.120  33.037  34.473  1.00  0.00     0.049 A 
ATOM     24  H   UNL A   1      39.785  31.661  33.054  1.00  0.00     0.167 HD
ATOM     25  C   UNL A   1      40.788  28.538  30.157  1.00  0.00     0.034 A 
ATOM     26  C   UNL A   1      39.879  32.885  35.574  1.00  0.00     0.034 A 
ATOM     27  C   UNL A   1      41.758  28.420  31.214  1.00  0.00     0.049 A 
ATOM     28  C   UNL A   1      40.952  31.837  35.574  1.00  0.00     0.074 A 
ATOM     29  C   UNL A   1      42.841  27.562  31.292  1.00  0.00     0.029 A 
ATOM     30  N   UNL A   1      41.750  29.157  32.388  1.00  0.00    -0.354 N 
ATOM     31  N   UNL A   1      41.298  31.013  34.616  1.00  0.00    -0.248 NA
ATOM     32  C   UNL A   1      41.757  31.714  36.796  1.00  0.00     0.031 C 
ATOM     33  C   UNL A   1      43.456  27.744  32.534  1.00  0.00     0.029 A 
ATOM     34  C   UNL A   1      42.789  28.752  33.210  1.00  0.00     0.049 A 
ATOM     35  H   UNL A   1      41.101  29.865  32.606  1.00  0.00     0.167 HD
ATOM     36  C   UNL A   1      42.376  30.290  35.107  1.00  0.00     0.074 A 
ATOM     37  C   UNL A   1      42.644  30.795  36.439  1.00  0.00     0.031 C 
ATOM     38  C   UNL A   1      43.071  29.289  34.516  1.00  0.00     0.034 A 
BRANCH  25  39
ATOM     39  C   UNL A   1      40.879  27.566  29.009  1.00  0.00     0.023 A 
ATOM     40  C   UNL A   1      40.001  26.465  28.945  1.00  0.00     0.012 A 
ATOM     41  C   UNL A   1      41.777  27.795  27.948  1.00  0.00     0.148 A 
ATOM     42  C   UNL A   1      40.035  25.593  27.857  1.00  0.00     0.002 A 
ATOM     43  C   UNL A   1      41.773  26.949  26.846  1.00  0.00     0.091 A 
ATOM     44  F   UNL A   1      42.614  28.838  28.034  1.00  0.00    -0.205 F 
ATOM     45  C   UNL A   1      40.910  25.841  26.803  1.00  0.00     0.022 A 
BRANCH  43  46
ATOM     46  S   UNL A   1      42.805  27.229  25.402  1.00  0.00     0.127 S 
ATOM     47  O   UNL A   1      44.115  27.444  26.015  1.00  0.00    -0.237 OA
ATOM     48  O   UNL A   1      42.670  25.965  24.679  1.00  0.00    -0.237 OA
ATOM     49  O   UNL A   1      42.240  28.385  24.720  1.00  0.00    -0.744 OA
ENDBRANCH  43  46
ENDBRANCH  25  39
BRANCH  26  50
ATOM     50  C   UNL A   1      39.640  33.749  36.764  1.00  0.00     0.023 A 
ATOM     51  C   UNL A   1      40.024  35.103  36.734  1.00  0.00     0.012 A 
ATOM     52  C   UNL A   1      39.012  33.236  37.915  1.00  0.00     0.148 A 
ATOM     53  C   UNL A   1      39.819  35.921  37.844  1.00  0.00     0.002 A 
ATOM     54  C   UNL A   1      38.753  34.073  38.993  1.00  0.00     0.091 A 
ATOM     55  F   UNL A   1      38.662  31.942  37.926  1.00  0.00    -0.205 F 
ATOM     56  C   UNL A   1      39.175  35.410  38.968  1.00  0.00     0.022 A 
BRANCH  54  57
ATOM     57  S   UNL A   1      37.807  33.534  40.422  1.00  0.00     0.127 S 
ATOM     58  O   UNL A   1      36.593  33.015  39.797  1.00  0.00    -0.237 OA
ATOM     59  O   UNL A   1      38.688  32.518  40.998  1.00  0.00    -0.237 OA
ATOM     60  O   UNL A   1      37.636  34.719  41.251  1.00  0.00    -0.744 OA
ENDBRANCH  54  57
ENDBRANCH  26  50
BRANCH  38  61
ATOM     61  C   UNL A   1      44.220  28.692  35.285  1.00  0.00     0.023 A 
ATOM     62  C   UNL A   1      45.519  29.219  35.136  1.00  0.00     0.012 A 
ATOM     63  C   UNL A   1      43.995  27.654  36.211  1.00  0.00     0.148 A 
ATOM     64  C   UNL A   1      46.581  28.699  35.875  1.00  0.00     0.002 A 
ATOM     65  C   UNL A   1      45.048  27.180  36.983  1.00  0.00     0.091 A 
ATOM     66  F   UNL A   1      42.755  27.157  36.324  1.00  0.00    -0.205 F 
ATOM     67  C   UNL A   1      46.344  27.691  36.805  1.00  0.00     0.022 A 
BRANCH  65  68
ATOM     68  S   UNL A   1      44.822  25.953  38.275  1.00  0.00     0.127 S 
ATOM     69  O   UNL A   1      46.201  25.709  38.698  1.00  0.00    -0.237 OA
ATOM     70  O   UNL A   1      44.005  26.678  39.248  1.00  0.00    -0.237 OA
ATOM     71  O   UNL A   1      44.158  24.820  37.646  1.00  0.00    -0.744 OA
ENDBRANCH  65  68
ENDBRANCH  38  61
ENDBRANCH  12  13
ENDBRANCH   5   7
ENDBRANCH   2   3
ENDBRANCH   1   2
BRANCH   1  72
ATOM     72  C   UNL A   1      31.623  30.354  26.080  1.00  0.00     0.118 C 
BRANCH  72  73
ATOM     73  N   UNL A   1      31.756  29.344  27.128  1.00  0.00    -0.352 N 
ATOM     74  C   UNL A   1      31.944  27.987  27.014  1.00  0.00     0.253 C 
ATOM     75  H   UNL A   1      31.701  29.686  28.050  1.00  0.00     0.163 HD
ATOM     76  O   UNL A   1      31.838  27.252  27.990  1.00  0.00    -0.269 OA
BRANCH  74  77
ATOM     77  C   UNL A   1      32.212  27.411  25.681  1.00  0.00     0.064 A 
ATOM     78  C   UNL A   1      33.110  28.084  24.837  1.00  0.00     0.036 A 
ATOM     79  C   UNL A   1      31.535  26.257  25.250  1.00  0.00     0.054 A 
ATOM     80  C   UNL A   1      33.196  27.723  23.502  1.00  0.00     0.041 A 
ATOM     81  C   UNL A   1      31.543  26.003  23.875  1.00  0.00     0.028 A 
ATOM     82  Cl  UNL A   1      34.245  28.580  22.448  1.00  0.00    -0.084 Cl
ATOM     83  C   UNL A   1      32.379  26.716  23.006  1.00  0.00     0.023 A 
BRANCH  79  84
ATOM     84  N   UNL A   1      30.905  25.415  26.204  1.00  0.00    -0.321 N 
ATOM     85  C   UNL A   1      31.054  24.079  26.518  1.00  0.00     0.255 C 
ATOM     86  H   UNL A   1      30.228  25.876  26.750  1.00  0.00     0.170 HD
ATOM     87  O   UNL A   1      30.327  23.532  27.343  1.00  0.00    -0.269 OA
BRANCH  85  88
ATOM     88  C   UNL A   1      32.108  23.262  25.888  1.00  0.00     0.041 A 
ATOM     89  C   UNL A   1      33.444  23.515  26.280  1.00  0.00     0.015 A 
ATOM     90  C   UNL A   1      31.776  22.186  25.049  1.00  0.00     0.028 A 
ATOM     91  C   UNL A   1      34.455  22.609  25.955  1.00  0.00     0.015 A 
ATOM     92  C   UNL A   1      32.793  21.294  24.769  1.00  0.00     0.054 A 
ATOM     93  C   UNL A   1      34.082  21.487  25.239  1.00  0.00     0.053 A 
ATOM     94  C   UNL A   1      32.742  19.962  24.166  1.00  0.00     0.261 C 
ATOM     95  C   UNL A   1      34.836  20.269  24.967  1.00  0.00     0.261 C 
ATOM     96  O   UNL A   1      31.721  19.453  23.739  1.00  0.00    -0.269 OA
ATOM     97  N   UNL A   1      33.996  19.433  24.284  1.00  0.00    -0.267 N 
ATOM     98  O   UNL A   1      35.965  20.073  25.372  1.00  0.00    -0.269 OA
BRANCH  97  99
ATOM     99  C   UNL A   1      34.352  18.088  23.888  1.00  0.00     0.204 C 
BRANCH  99 100
ATOM    100  C   UNL A   1      33.588  17.109  24.707  1.00  0.00     0.123 A 
ATOM    101  C   UNL A   1      32.823  17.225  25.850  1.00  0.00     0.047 A 
ATOM    102  O   UNL A   1      33.606  15.808  24.293  1.00  0.00    -0.467 OA
ATOM    103  C   UNL A   1      32.369  15.925  26.164  1.00  0.00     0.042 A 
ATOM    104  C   UNL A   1      32.863  15.101  25.183  1.00  0.00     0.195 A 
ENDBRANCH  99 100
ENDBRANCH  97  99
ENDBRANCH  85  88
ENDBRANCH  79  84
ENDBRANCH  74  77
ENDBRANCH  72  73
ENDBRANCH   1  72
TORSDOF 17
ENDMDL
MODEL 3
REMARK VINA RESULT:     -12.8      2.195      3.052
REMARK SMILES O=C(NCCCNC(=O)c1cc(Cl)ccc1NC(=O)c1ccc2c(c1)C(=O)N(Cc1ccco1)C2=O)c1ccc(-c2c3nc(c(-c4cccc(S(=O)(=O)[O-])c4F)c4ccc([nH]4)c(-c4cccc(S(=O)(=O)[O-])c4F)c4nc(c(-c5cccc(S(=O)(=O)[O-])c5F)c5ccc2[nH]5)C=C4)C=C3)cc1
REMARK SMILES IDX 5 1 4 2 3 3 1 4 2 5 37 7 38 8 99 9 39 10 98 11 40 12 41 13
REMARK SMILES IDX 42 14 92 15 43 16 97 17 91 18 93 19 44 20 96 21 90 22 89 23
REMARK SMILES IDX 45 25 77 26 57 27 76 28 58 29 61 30 75 31 94 32 59 33 60 34
REMARK SMILES IDX 74 36 95 37 62 38 46 39 47 40 55 41 48 42 50 43 56 44 49 45
REMARK SMILES IDX 51 46 52 47 53 48 54 49 78 50 79 51 87 52 80 53 82 54 88 55
REMARK SMILES IDX 81 56 83 57 84 58 85 59 86 60 63 61 64 62 72 63 65 64 67 65
REMARK SMILES IDX 73 66 66 67 68 68 69 69 70 70 71 71 6 72 7 73 8 74 9 76
REMARK SMILES IDX 10 77 11 78 16 79 12 80 15 81 13 82 14 83 17 84 18 85 19 87
REMARK SMILES IDX 20 88 21 89 25 90 22 91 24 92 23 93 26 94 35 95 27 96 28 97
REMARK SMILES IDX 36 98 29 99 30 100 31 101 34 102 32 103 33 104
REMARK H PARENT 3 6 93 24 61 35 7 75 17 86
REMARK Flexibility Score: inf
ROOT
ATOM      1  C   UNL A   1      31.515  31.614  26.658  1.00  0.00     0.042 C 
ENDROOT
BRANCH   1   2
ATOM      2  C   UNL A   1      32.794  32.427  26.769  1.00  0.00     0.118 C 
BRANCH   2   3
ATOM      3  N   UNL A   1      32.580  33.720  27.405  1.00  0.00    -0.352 N 
ATOM      4  O   UNL A   1      32.720  35.297  29.000  1.00  0.00    -0.269 OA
ATOM      5  C   UNL A   1      33.192  34.279  28.502  1.00  0.00     0.251 C 
ATOM      6  H   UNL A   1      31.891  34.282  26.982  1.00  0.00     0.163 HD
BRANCH   5   7
ATOM      7  C   UNL A   1      34.392  33.642  29.086  1.00  0.00     0.039 A 
ATOM      8  C   UNL A   1      34.271  32.512  29.895  1.00  0.00     0.014 A 
ATOM      9  C   UNL A   1      35.656  34.169  28.808  1.00  0.00     0.014 A 
ATOM     10  C   UNL A   1      35.381  32.013  30.561  1.00  0.00     0.010 A 
ATOM     11  C   UNL A   1      36.790  33.591  29.388  1.00  0.00     0.010 A 
ATOM     12  C   UNL A   1      36.658  32.525  30.291  1.00  0.00    -0.014 A 
BRANCH  12  13
ATOM     13  C   UNL A   1      37.843  31.850  30.877  1.00  0.00     0.031 A 
ATOM     14  C   UNL A   1      38.620  30.818  30.111  1.00  0.00     0.074 A 
ATOM     15  C   UNL A   1      38.204  32.177  32.135  1.00  0.00     0.049 A 
ATOM     16  N   UNL A   1      39.668  30.135  30.491  1.00  0.00    -0.248 NA
ATOM     17  C   UNL A   1      38.164  30.504  28.748  1.00  0.00     0.031 C 
ATOM     18  C   UNL A   1      37.500  33.138  32.989  1.00  0.00     0.029 A 
ATOM     19  N   UNL A   1      39.236  31.735  32.920  1.00  0.00    -0.354 N 
ATOM     20  C   UNL A   1      39.971  29.278  29.440  1.00  0.00     0.074 A 
ATOM     21  C   UNL A   1      38.997  29.531  28.400  1.00  0.00     0.031 C 
ATOM     22  C   UNL A   1      38.126  33.224  34.169  1.00  0.00     0.029 A 
ATOM     23  C   UNL A   1      39.228  32.272  34.187  1.00  0.00     0.049 A 
ATOM     24  H   UNL A   1      39.916  31.094  32.610  1.00  0.00     0.167 HD
ATOM     25  C   UNL A   1      40.972  28.369  29.352  1.00  0.00     0.034 A 
ATOM     26  C   UNL A   1      39.993  32.002  35.261  1.00  0.00     0.034 A 
ATOM     27  C   UNL A   1      41.947  28.142  30.387  1.00  0.00     0.049 A 
ATOM     28  C   UNL A   1      41.086  30.984  35.132  1.00  0.00     0.074 A 
ATOM     29  C   UNL A   1      43.047  27.302  30.359  1.00  0.00     0.029 A 
ATOM     30  N   UNL A   1      41.928  28.730  31.642  1.00  0.00    -0.354 N 
ATOM     31  N   UNL A   1      41.445  30.290  34.080  1.00  0.00    -0.248 NA
ATOM     32  C   UNL A   1      41.897  30.727  36.330  1.00  0.00     0.031 C 
ATOM     33  C   UNL A   1      43.662  27.343  31.614  1.00  0.00     0.029 A 
ATOM     34  C   UNL A   1      42.977  28.247  32.408  1.00  0.00     0.049 A 
ATOM     35  H   UNL A   1      41.266  29.393  31.945  1.00  0.00     0.167 HD
ATOM     36  C   UNL A   1      42.539  29.534  34.480  1.00  0.00     0.074 A 
ATOM     37  C   UNL A   1      42.800  29.877  35.863  1.00  0.00     0.031 C 
ATOM     38  C   UNL A   1      43.252  28.626  33.770  1.00  0.00     0.034 A 
BRANCH  25  39
ATOM     39  C   UNL A   1      41.079  27.547  28.094  1.00  0.00     0.023 A 
ATOM     40  C   UNL A   1      41.699  28.086  26.949  1.00  0.00     0.012 A 
ATOM     41  C   UNL A   1      40.643  26.207  28.077  1.00  0.00     0.148 A 
ATOM     42  C   UNL A   1      41.858  27.313  25.799  1.00  0.00     0.002 A 
ATOM     43  C   UNL A   1      40.847  25.430  26.943  1.00  0.00     0.091 A 
ATOM     44  F   UNL A   1      40.042  25.717  29.170  1.00  0.00    -0.205 F 
ATOM     45  C   UNL A   1      41.444  25.984  25.799  1.00  0.00     0.022 A 
BRANCH  43  46
ATOM     46  S   UNL A   1      40.424  23.685  26.873  1.00  0.00     0.127 S 
ATOM     47  O   UNL A   1      41.304  23.213  25.804  1.00  0.00    -0.237 OA
ATOM     48  O   UNL A   1      40.792  23.226  28.212  1.00  0.00    -0.237 OA
ATOM     49  O   UNL A   1      39.000  23.626  26.577  1.00  0.00    -0.744 OA
ENDBRANCH  43  46
ENDBRANCH  25  39
BRANCH  26  50
ATOM     50  C   UNL A   1      39.741  32.709  36.548  1.00  0.00     0.023 A 
ATOM     51  C   UNL A   1      40.469  33.872  36.861  1.00  0.00     0.012 A 
ATOM     52  C   UNL A   1      38.763  32.243  37.449  1.00  0.00     0.148 A 
ATOM     53  C   UNL A   1      40.253  34.538  38.067  1.00  0.00     0.002 A 
ATOM     54  C   UNL A   1      38.509  32.947  38.619  1.00  0.00     0.091 A 
ATOM     55  F   UNL A   1      38.087  31.129  37.134  1.00  0.00    -0.205 F 
ATOM     56  C   UNL A   1      39.267  34.082  38.940  1.00  0.00     0.022 A 
BRANCH  54  57
ATOM     57  S   UNL A   1      37.167  32.512  39.730  1.00  0.00     0.127 S 
ATOM     58  O   UNL A   1      37.634  31.240  40.277  1.00  0.00    -0.237 OA
ATOM     59  O   UNL A   1      37.182  33.632  40.670  1.00  0.00    -0.237 OA
ATOM     60  O   UNL A   1      35.974  32.443  38.898  1.00  0.00    -0.744 OA
ENDBRANCH  54  57
ENDBRANCH  26  50
BRANCH  38  61
ATOM     61  C   UNL A   1      44.414  27.963  34.460  1.00  0.00     0.023 A 
ATOM     62  C   UNL A   1      45.680  28.582  34.466  1.00  0.00     0.012 A 
ATOM     63  C   UNL A   1      44.231  26.757  35.166  1.00  0.00     0.148 A 
ATOM     64  C   UNL A   1      46.752  27.996  35.136  1.00  0.00     0.002 A 
ATOM     65  C   UNL A   1      45.289  26.207  35.877  1.00  0.00     0.091 A 
ATOM     66  F   UNL A   1      43.023  26.175  35.132  1.00  0.00    -0.205 F 
ATOM     67  C   UNL A   1      46.554  26.817  35.852  1.00  0.00     0.022 A 
BRANCH  65  68
ATOM     68  S   UNL A   1      45.106  24.747  36.907  1.00  0.00     0.127 S 
ATOM     69  O   UNL A   1      46.458  24.588  37.441  1.00  0.00    -0.237 OA
ATOM     70  O   UNL A   1      44.111  25.183  37.886  1.00  0.00    -0.237 OA
ATOM     71  O   UNL A   1      44.661  23.680  36.021  1.00  0.00    -0.744 OA
ENDBRANCH  65  68
ENDBRANCH  38  61
ENDBRANCH  12  13
ENDBRANCH   5   7
ENDBRANCH   2   3
ENDBRANCH   1   2
BRANCH   1  72
ATOM     72  C   UNL A   1      31.756  30.127  26.459  1.00  0.00     0.118 C 
BRANCH  72  73
ATOM     73  N   UNL A   1      32.778  29.852  25.452  1.00  0.00    -0.352 N 
ATOM     74  C   UNL A   1      32.885  28.790  24.584  1.00  0.00     0.253 C 
ATOM     75  H   UNL A   1      33.495  30.523  25.386  1.00  0.00     0.163 HD
ATOM     76  O   UNL A   1      33.910  28.608  23.936  1.00  0.00    -0.269 OA
BRANCH  74  77
ATOM     77  C   UNL A   1      31.768  27.829  24.489  1.00  0.00     0.064 A 
ATOM     78  C   UNL A   1      30.594  28.239  23.838  1.00  0.00     0.036 A 
ATOM     79  C   UNL A   1      31.861  26.563  25.093  1.00  0.00     0.054 A 
ATOM     80  C   UNL A   1      29.447  27.470  23.946  1.00  0.00     0.041 A 
ATOM     81  C   UNL A   1      30.659  25.877  25.296  1.00  0.00     0.028 A 
ATOM     82  Cl  UNL A   1      27.990  27.994  23.205  1.00  0.00    -0.084 Cl
ATOM     83  C   UNL A   1      29.462  26.314  24.715  1.00  0.00     0.023 A 
BRANCH  79  84
ATOM     84  N   UNL A   1      33.134  26.043  25.443  1.00  0.00    -0.321 N 
ATOM     85  C   UNL A   1      33.714  24.799  25.287  1.00  0.00     0.255 C 
ATOM     86  H   UNL A   1      33.720  26.699  25.884  1.00  0.00     0.170 HD
ATOM     87  O   UNL A   1      34.824  24.550  25.751  1.00  0.00    -0.269 OA
BRANCH  85  88
ATOM     88  C   UNL A   1      33.031  23.729  24.538  1.00  0.00     0.041 A 
ATOM     89  C   UNL A   1      32.820  23.941  23.155  1.00  0.00     0.015 A 
ATOM     90  C   UNL A   1      32.739  22.499  25.149  1.00  0.00     0.028 A 
ATOM     91  C   UNL A   1      32.449  22.877  22.330  1.00  0.00     0.015 A 
ATOM     92  C   UNL A   1      32.401  21.462  24.302  1.00  0.00     0.054 A 
ATOM     93  C   UNL A   1      32.294  21.644  22.933  1.00  0.00     0.053 A 
ATOM     94  C   UNL A   1      32.295  20.026  24.563  1.00  0.00     0.261 C 
ATOM     95  C   UNL A   1      32.156  20.326  22.324  1.00  0.00     0.261 C 
ATOM     96  O   UNL A   1      32.439  19.527  25.664  1.00  0.00    -0.269 OA
ATOM     97  N   UNL A   1      32.111  19.424  23.351  1.00  0.00    -0.267 N 
ATOM     98  O   UNL A   1      32.169  20.136  21.124  1.00  0.00    -0.269 OA
BRANCH  97  99
ATOM     99  C   UNL A   1      32.045  17.991  23.156  1.00  0.00     0.204 C 
BRANCH  99 100
ATOM    100  C   UNL A   1      33.151  17.335  23.903  1.00  0.00     0.123 A 
ATOM    101  C   UNL A   1      34.525  17.473  23.873  1.00  0.00     0.047 A 
ATOM    102  O   UNL A   1      32.802  16.394  24.827  1.00  0.00    -0.467 OA
ATOM    103  C   UNL A   1      35.043  16.552  24.810  1.00  0.00     0.042 A 
ATOM    104  C   UNL A   1      33.955  15.927  25.371  1.00  0.00     0.195 A 
ENDBRANCH  99 100
ENDBRANCH  97  99
ENDBRANCH  85  88
ENDBRANCH  79  84
ENDBRANCH  74  77
ENDBRANCH  72  73
ENDBRANCH   1  72
TORSDOF 17
ENDMDL
