MODEL 1
REMARK VINA RESULT:     -12.4      0.000      0.000
REMARK SMILES N#Cc1ccccc1S(=O)(=O)N1CCC(C(=O)NCCCNC(=O)c2ccc(-c3c4nc(c(-c5cccc(S(=O)(=O)[O-])c5F)c5ccc([nH]5)c(-c5cccc(S(=O)(=O)[O-])c5F)c5nc(c(-c6cccc(S(=O)(=O)[O-])c6F)c6ccc3[nH]6)C=C5)C=C4)cc2)CC1
REMARK SMILES IDX 20 1 19 2 18 3 16 4 17 5 15 7 12 8 13 9 89 10 14 11 88 12
REMARK SMILES IDX 9 13 10 14 11 15 8 16 3 17 4 18 5 19 7 20 6 21 2 22 1 23
REMARK SMILES IDX 21 24 22 25 23 26 24 28 25 29 26 30 87 31 27 32 86 33 28 34
REMARK SMILES IDX 29 35 30 36 80 37 31 38 85 39 79 40 81 41 32 42 84 43 78 44
REMARK SMILES IDX 77 45 33 47 65 48 45 49 64 50 46 51 49 52 63 53 82 54 47 55
REMARK SMILES IDX 48 56 62 58 83 59 50 60 34 61 35 62 43 63 36 64 38 65 44 66
REMARK SMILES IDX 37 67 39 68 40 69 41 70 42 71 66 72 67 73 75 74 68 75 70 76
REMARK SMILES IDX 76 77 69 78 71 79 72 80 73 81 74 82 51 83 52 84 60 85 53 86
REMARK SMILES IDX 55 87 61 88 54 89 56 90 57 91 58 92 59 93
REMARK H PARENT 18 6 22 27 81 46 49 57
REMARK Flexibility Score: inf
ROOT
ATOM      1  C   UNL A   1      31.334  31.990  26.526  1.00  0.00     0.042 C 
ENDROOT
BRANCH   1   2
ATOM      2  C   UNL A   1      31.500  30.631  25.868  1.00  0.00     0.117 C 
BRANCH   2   3
ATOM      3  N   UNL A   1      30.729  30.517  24.638  1.00  0.00    -0.356 N 
ATOM      4  C   UNL A   1      30.550  29.464  23.795  1.00  0.00     0.223 C 
ATOM      5  O   UNL A   1      29.859  29.638  22.790  1.00  0.00    -0.275 OA
ATOM      6  H   UNL A   1      30.259  31.340  24.371  1.00  0.00     0.163 HD
BRANCH   4   7
ATOM      7  C   UNL A   1      31.156  28.105  24.101  1.00  0.00     0.081 C 
ATOM      8  N   UNL A   1      32.093  25.488  23.226  1.00  0.00    -0.198 NA
ATOM      9  C   UNL A   1      30.713  25.590  23.732  1.00  0.00     0.103 C 
ATOM     10  C   UNL A   1      33.073  26.572  23.376  1.00  0.00     0.103 C 
ATOM     11  C   UNL A   1      30.154  26.990  23.842  1.00  0.00     0.030 C 
ATOM     12  C   UNL A   1      32.497  27.966  23.393  1.00  0.00     0.030 C 
BRANCH   8  13
ATOM     13  S   UNL A   1      32.716  23.921  23.081  1.00  0.00     0.244 S 
ATOM     14  O   UNL A   1      33.434  23.868  21.822  1.00  0.00    -0.207 OA
ATOM     15  O   UNL A   1      31.647  22.988  23.367  1.00  0.00    -0.207 OA
BRANCH  13  16
ATOM     16  C   UNL A   1      33.957  23.609  24.328  1.00  0.00     0.100 A 
ATOM     17  C   UNL A   1      33.829  23.663  25.717  1.00  0.00     0.072 A 
ATOM     18  C   UNL A   1      34.961  23.426  26.522  1.00  0.00     0.021 A 
ATOM     19  C   UNL A   1      36.198  23.120  25.965  1.00  0.00     0.001 A 
ATOM     20  C   UNL A   1      35.218  23.287  23.776  1.00  0.00     0.023 A 
ATOM     21  C   UNL A   1      36.325  23.042  24.587  1.00  0.00     0.001 A 
BRANCH  17  22
ATOM     22  C   UNL A   1      32.642  23.930  26.466  1.00  0.00     0.101 C 
ATOM     23  N   UNL A   1      31.622  24.116  26.974  1.00  0.00    -0.192 NA
ENDBRANCH  17  22
ENDBRANCH  13  16
ENDBRANCH   8  13
ENDBRANCH   4   7
ENDBRANCH   2   3
ENDBRANCH   1   2
BRANCH   1  24
ATOM     24  C   UNL A   1      32.596  32.482  27.206  1.00  0.00     0.118 C 
BRANCH  24  25
ATOM     25  N   UNL A   1      32.512  33.892  27.558  1.00  0.00    -0.352 N 
ATOM     26  C   UNL A   1      33.133  34.575  28.573  1.00  0.00     0.251 C 
ATOM     27  H   UNL A   1      31.924  34.434  26.985  1.00  0.00     0.163 HD
ATOM     28  O   UNL A   1      32.747  35.702  28.867  1.00  0.00    -0.269 OA
BRANCH  26  29
ATOM     29  C   UNL A   1      34.255  33.950  29.301  1.00  0.00     0.039 A 
ATOM     30  C   UNL A   1      35.561  34.334  28.994  1.00  0.00     0.014 A 
ATOM     31  C   UNL A   1      34.022  32.970  30.269  1.00  0.00     0.014 A 
ATOM     32  C   UNL A   1      36.627  33.753  29.680  1.00  0.00     0.010 A 
ATOM     33  C   UNL A   1      35.072  32.487  31.036  1.00  0.00     0.010 A 
ATOM     34  C   UNL A   1      36.389  32.839  30.721  1.00  0.00    -0.014 A 
BRANCH  34  35
ATOM     35  C   UNL A   1      37.512  32.200  31.450  1.00  0.00     0.031 A 
ATOM     36  C   UNL A   1      38.292  31.083  30.806  1.00  0.00     0.074 A 
ATOM     37  C   UNL A   1      37.796  32.591  32.708  1.00  0.00     0.049 A 
ATOM     38  N   UNL A   1      39.304  30.407  31.280  1.00  0.00    -0.248 NA
ATOM     39  C   UNL A   1      37.861  30.646  29.465  1.00  0.00     0.031 C 
ATOM     40  C   UNL A   1      37.056  33.599  33.470  1.00  0.00     0.029 A 
ATOM     41  N   UNL A   1      38.778  32.178  33.570  1.00  0.00    -0.354 N 
ATOM     42  C   UNL A   1      39.606  29.449  30.318  1.00  0.00     0.074 A 
ATOM     43  C   UNL A   1      38.638  29.596  29.256  1.00  0.00     0.031 C 
ATOM     44  C   UNL A   1      37.625  33.744  34.678  1.00  0.00     0.029 A 
ATOM     45  C   UNL A   1      38.748  32.819  34.786  1.00  0.00     0.049 A 
ATOM     46  H   UNL A   1      39.441  31.488  33.341  1.00  0.00     0.167 HD
ATOM     47  C   UNL A   1      40.620  28.553  30.298  1.00  0.00     0.034 A 
ATOM     48  C   UNL A   1      39.541  32.678  35.866  1.00  0.00     0.034 A 
ATOM     49  C   UNL A   1      41.605  28.439  31.339  1.00  0.00     0.049 A 
ATOM     50  C   UNL A   1      40.692  31.711  35.799  1.00  0.00     0.074 A 
ATOM     51  C   UNL A   1      42.718  27.620  31.385  1.00  0.00     0.029 A 
ATOM     52  N   UNL A   1      41.590  29.163  32.521  1.00  0.00    -0.354 N 
ATOM     53  N   UNL A   1      41.050  30.918  34.817  1.00  0.00    -0.248 NA
ATOM     54  C   UNL A   1      41.574  31.651  36.972  1.00  0.00     0.031 C 
ATOM     55  C   UNL A   1      43.359  27.826  32.612  1.00  0.00     0.029 A 
ATOM     56  C   UNL A   1      42.671  28.807  33.307  1.00  0.00     0.049 A 
ATOM     57  H   UNL A   1      40.909  29.832  32.766  1.00  0.00     0.167 HD
ATOM     58  C   UNL A   1      42.224  30.303  35.234  1.00  0.00     0.074 A 
ATOM     59  C   UNL A   1      42.525  30.830  36.550  1.00  0.00     0.031 C 
ATOM     60  C   UNL A   1      42.983  29.379  34.593  1.00  0.00     0.034 A 
BRANCH  47  61
ATOM     61  C   UNL A   1      40.740  27.655  29.093  1.00  0.00     0.023 A 
ATOM     62  C   UNL A   1      39.940  26.497  28.999  1.00  0.00     0.012 A 
ATOM     63  C   UNL A   1      41.609  27.979  28.033  1.00  0.00     0.148 A 
ATOM     64  C   UNL A   1      40.031  25.655  27.892  1.00  0.00     0.002 A 
ATOM     65  C   UNL A   1      41.655  27.163  26.908  1.00  0.00     0.091 A 
ATOM     66  F   UNL A   1      42.378  29.070  28.147  1.00  0.00    -0.205 F 
ATOM     67  C   UNL A   1      40.880  25.995  26.842  1.00  0.00     0.022 A 
BRANCH  65  68
ATOM     68  S   UNL A   1      42.651  27.558  25.466  1.00  0.00     0.127 S 
ATOM     69  O   UNL A   1      42.438  26.377  24.629  1.00  0.00    -0.237 OA
ATOM     70  O   UNL A   1      42.006  28.776  24.974  1.00  0.00    -0.237 OA
ATOM     71  O   UNL A   1      44.010  27.741  25.951  1.00  0.00    -0.744 OA
ENDBRANCH  65  68
ENDBRANCH  47  61
BRANCH  48  72
ATOM     72  C   UNL A   1      39.319  33.524  37.072  1.00  0.00     0.023 A 
ATOM     73  C   UNL A   1      39.810  34.844  37.096  1.00  0.00     0.012 A 
ATOM     74  C   UNL A   1      38.613  33.033  38.186  1.00  0.00     0.148 A 
ATOM     75  C   UNL A   1      39.639  35.646  38.225  1.00  0.00     0.002 A 
ATOM     76  C   UNL A   1      38.395  33.856  39.284  1.00  0.00     0.091 A 
ATOM     77  F   UNL A   1      38.158  31.773  38.144  1.00  0.00    -0.205 F 
ATOM     78  C   UNL A   1      38.924  35.156  39.314  1.00  0.00     0.022 A 
BRANCH  76  79
ATOM     79  S   UNL A   1      37.378  33.355  40.677  1.00  0.00     0.127 S 
ATOM     80  O   UNL A   1      38.177  32.279  41.258  1.00  0.00    -0.237 OA
ATOM     81  O   UNL A   1      37.328  34.584  41.469  1.00  0.00    -0.237 OA
ATOM     82  O   UNL A   1      36.099  32.954  40.107  1.00  0.00    -0.744 OA
ENDBRANCH  76  79
ENDBRANCH  48  72
BRANCH  60  83
ATOM     83  C   UNL A   1      44.246  28.922  35.275  1.00  0.00     0.023 A 
ATOM     84  C   UNL A   1      45.479  29.535  34.974  1.00  0.00     0.012 A 
ATOM     85  C   UNL A   1      44.197  27.910  36.254  1.00  0.00     0.148 A 
ATOM     86  C   UNL A   1      46.650  29.110  35.599  1.00  0.00     0.002 A 
ATOM     87  C   UNL A   1      45.360  27.533  36.914  1.00  0.00     0.091 A 
ATOM     88  F   UNL A   1      43.018  27.326  36.514  1.00  0.00    -0.205 F 
ATOM     89  C   UNL A   1      46.589  28.119  36.575  1.00  0.00     0.022 A 
BRANCH  87  90
ATOM     90  S   UNL A   1      45.354  26.340  38.256  1.00  0.00     0.127 S 
ATOM     91  O   UNL A   1      46.761  26.332  38.654  1.00  0.00    -0.237 OA
ATOM     92  O   UNL A   1      44.449  26.964  39.222  1.00  0.00    -0.237 OA
ATOM     93  O   UNL A   1      44.858  25.095  37.683  1.00  0.00    -0.744 OA
ENDBRANCH  87  90
ENDBRANCH  60  83
ENDBRANCH  34  35
ENDBRANCH  26  29
ENDBRANCH  24  25
ENDBRANCH   1  24
TORSDOF 16
ENDMDL
MODEL 2
REMARK VINA RESULT:     -12.4      2.552      8.243
REMARK SMILES N#Cc1ccccc1S(=O)(=O)N1CCC(C(=O)NCCCNC(=O)c2ccc(-c3c4nc(c(-c5cccc(S(=O)(=O)[O-])c5F)c5ccc([nH]5)c(-c5cccc(S(=O)(=O)[O-])c5F)c5nc(c(-c6cccc(S(=O)(=O)[O-])c6F)c6ccc3[nH]6)C=C5)C=C4)cc2)CC1
REMARK SMILES IDX 20 1 19 2 18 3 16 4 17 5 15 7 12 8 13 9 89 10 14 11 88 12
REMARK SMILES IDX 9 13 10 14 11 15 8 16 3 17 4 18 5 19 7 20 6 21 2 22 1 23
REMARK SMILES IDX 21 24 22 25 23 26 24 28 25 29 26 30 87 31 27 32 86 33 28 34
REMARK SMILES IDX 29 35 30 36 80 37 31 38 85 39 79 40 81 41 32 42 84 43 78 44
REMARK SMILES IDX 77 45 33 47 65 48 45 49 64 50 46 51 49 52 63 53 82 54 47 55
REMARK SMILES IDX 48 56 62 58 83 59 50 60 34 61 35 62 43 63 36 64 38 65 44 66
REMARK SMILES IDX 37 67 39 68 40 69 41 70 42 71 66 72 67 73 75 74 68 75 70 76
REMARK SMILES IDX 76 77 69 78 71 79 72 80 73 81 74 82 51 83 52 84 60 85 53 86
REMARK SMILES IDX 55 87 61 88 54 89 56 90 57 91 58 92 59 93
REMARK H PARENT 18 6 22 27 81 46 49 57
REMARK Flexibility Score: inf
ROOT
ATOM      1  C   UNL A   1      33.394  29.240  23.759  1.00  0.00     0.042 C 
ENDROOT
BRANCH   1   2
ATOM      2  C   UNL A   1      32.241  28.689  22.939  1.00  0.00     0.117 C 
BRANCH   2   3
ATOM      3  N   UNL A   1      32.693  27.777  21.897  1.00  0.00    -0.356 N 
ATOM      4  C   UNL A   1      32.846  26.425  21.902  1.00  0.00     0.223 C 
ATOM      5  O   UNL A   1      33.277  25.886  20.882  1.00  0.00    -0.275 OA
ATOM      6  H   UNL A   1      32.928  28.213  21.046  1.00  0.00     0.163 HD
BRANCH   4   7
ATOM      7  C   UNL A   1      32.464  25.600  23.120  1.00  0.00     0.081 C 
ATOM      8  N   UNL A   1      32.571  23.114  24.637  1.00  0.00    -0.198 NA
ATOM      9  C   UNL A   1      31.418  23.325  23.744  1.00  0.00     0.103 C 
ATOM     10  C   UNL A   1      33.516  24.186  24.976  1.00  0.00     0.103 C 
ATOM     11  C   UNL A   1      31.566  24.436  22.729  1.00  0.00     0.030 C 
ATOM     12  C   UNL A   1      33.713  25.235  23.909  1.00  0.00     0.030 C 
BRANCH   8  13
ATOM     13  S   UNL A   1      32.418  21.858  25.761  1.00  0.00     0.244 S 
ATOM     14  O   UNL A   1      31.030  21.438  25.736  1.00  0.00    -0.207 OA
ATOM     15  O   UNL A   1      33.043  22.285  26.994  1.00  0.00    -0.207 OA
BRANCH  13  16
ATOM     16  C   UNL A   1      33.340  20.418  25.242  1.00  0.00     0.100 A 
ATOM     17  C   UNL A   1      34.721  20.278  25.088  1.00  0.00     0.072 A 
ATOM     18  C   UNL A   1      35.239  19.056  24.615  1.00  0.00     0.021 A 
ATOM     19  C   UNL A   1      34.409  17.981  24.316  1.00  0.00     0.001 A 
ATOM     20  C   UNL A   1      32.510  19.315  24.944  1.00  0.00     0.023 A 
ATOM     21  C   UNL A   1      33.039  18.108  24.490  1.00  0.00     0.001 A 
BRANCH  17  22
ATOM     22  C   UNL A   1      35.726  21.252  25.370  1.00  0.00     0.101 C 
ATOM     23  N   UNL A   1      36.558  21.982  25.700  1.00  0.00    -0.192 NA
ENDBRANCH  17  22
ENDBRANCH  13  16
ENDBRANCH   8  13
ENDBRANCH   4   7
ENDBRANCH   2   3
ENDBRANCH   1   2
BRANCH   1  24
ATOM     24  C   UNL A   1      33.122  29.236  25.250  1.00  0.00     0.118 C 
BRANCH  24  25
ATOM     25  N   UNL A   1      32.654  30.531  25.724  1.00  0.00    -0.352 N 
ATOM     26  C   UNL A   1      33.048  31.250  26.823  1.00  0.00     0.251 C 
ATOM     27  H   UNL A   1      31.953  30.951  25.176  1.00  0.00     0.163 HD
ATOM     28  O   UNL A   1      32.367  32.200  27.199  1.00  0.00    -0.269 OA
BRANCH  26  29
ATOM     29  C   UNL A   1      34.282  30.879  27.542  1.00  0.00     0.039 A 
ATOM     30  C   UNL A   1      35.288  31.834  27.702  1.00  0.00     0.014 A 
ATOM     31  C   UNL A   1      34.459  29.584  28.037  1.00  0.00     0.014 A 
ATOM     32  C   UNL A   1      36.455  31.492  28.384  1.00  0.00     0.010 A 
ATOM     33  C   UNL A   1      35.564  29.285  28.823  1.00  0.00     0.010 A 
ATOM     34  C   UNL A   1      36.594  30.221  28.967  1.00  0.00    -0.014 A 
BRANCH  34  35
ATOM     35  C   UNL A   1      37.835  29.838  29.683  1.00  0.00     0.031 A 
ATOM     36  C   UNL A   1      38.110  30.382  31.061  1.00  0.00     0.074 A 
ATOM     37  C   UNL A   1      38.736  29.042  29.074  1.00  0.00     0.049 A 
ATOM     38  N   UNL A   1      39.132  30.161  31.845  1.00  0.00    -0.248 NA
ATOM     39  C   UNL A   1      37.124  31.324  31.623  1.00  0.00     0.031 C 
ATOM     40  C   UNL A   1      38.623  28.524  27.709  1.00  0.00     0.029 A 
ATOM     41  N   UNL A   1      39.928  28.537  29.523  1.00  0.00    -0.354 N 
ATOM     42  C   UNL A   1      38.929  30.955  32.968  1.00  0.00     0.074 A 
ATOM     43  C   UNL A   1      37.716  31.705  32.743  1.00  0.00     0.031 C 
ATOM     44  C   UNL A   1      39.691  27.756  27.440  1.00  0.00     0.029 A 
ATOM     45  C   UNL A   1      40.576  27.751  28.599  1.00  0.00     0.049 A 
ATOM     46  H   UNL A   1      40.287  28.720  30.421  1.00  0.00     0.167 HD
ATOM     47  C   UNL A   1      39.665  31.028  34.102  1.00  0.00     0.034 A 
ATOM     48  C   UNL A   1      41.751  27.098  28.681  1.00  0.00     0.034 A 
ATOM     49  C   UNL A   1      40.850  30.249  34.336  1.00  0.00     0.049 A 
ATOM     50  C   UNL A   1      42.524  27.155  29.971  1.00  0.00     0.074 A 
ATOM     51  C   UNL A   1      41.627  30.187  35.478  1.00  0.00     0.029 A 
ATOM     52  N   UNL A   1      41.432  29.401  33.408  1.00  0.00    -0.354 N 
ATOM     53  N   UNL A   1      42.238  27.796  31.079  1.00  0.00    -0.248 NA
ATOM     54  C   UNL A   1      43.758  26.362  30.038  1.00  0.00     0.031 C 
ATOM     55  C   UNL A   1      42.700  29.323  35.227  1.00  0.00     0.029 A 
ATOM     56  C   UNL A   1      42.562  28.813  33.947  1.00  0.00     0.049 A 
ATOM     57  H   UNL A   1      41.092  29.240  32.497  1.00  0.00     0.167 HD
ATOM     58  C   UNL A   1      43.229  27.446  31.988  1.00  0.00     0.074 A 
ATOM     59  C   UNL A   1      44.112  26.522  31.305  1.00  0.00     0.031 C 
ATOM     60  C   UNL A   1      43.401  27.857  33.270  1.00  0.00     0.034 A 
BRANCH  47  61
ATOM     61  C   UNL A   1      39.183  31.951  35.192  1.00  0.00     0.023 A 
ATOM     62  C   UNL A   1      39.333  33.347  35.047  1.00  0.00     0.012 A 
ATOM     63  C   UNL A   1      38.541  31.443  36.339  1.00  0.00     0.148 A 
ATOM     64  C   UNL A   1      38.890  34.218  36.041  1.00  0.00     0.002 A 
ATOM     65  C   UNL A   1      38.055  32.322  37.301  1.00  0.00     0.091 A 
ATOM     66  F   UNL A   1      38.426  30.115  36.472  1.00  0.00    -0.205 F 
ATOM     67  C   UNL A   1      38.242  33.706  37.161  1.00  0.00     0.022 A 
BRANCH  65  68
ATOM     68  S   UNL A   1      37.130  31.769  38.738  1.00  0.00     0.127 S 
ATOM     69  O   UNL A   1      36.849  30.376  38.390  1.00  0.00    -0.237 OA
ATOM     70  O   UNL A   1      38.105  31.944  39.814  1.00  0.00    -0.237 OA
ATOM     71  O   UNL A   1      35.964  32.636  38.825  1.00  0.00    -0.744 OA
ENDBRANCH  65  68
ENDBRANCH  47  61
BRANCH  48  72
ATOM     72  C   UNL A   1      42.230  26.275  27.536  1.00  0.00     0.023 A 
ATOM     73  C   UNL A   1      43.024  26.870  26.536  1.00  0.00     0.012 A 
ATOM     74  C   UNL A   1      41.917  24.906  27.441  1.00  0.00     0.148 A 
ATOM     75  C   UNL A   1      43.462  26.126  25.439  1.00  0.00     0.002 A 
ATOM     76  C   UNL A   1      42.404  24.157  26.376  1.00  0.00     0.091 A 
ATOM     77  F   UNL A   1      41.157  24.361  28.400  1.00  0.00    -0.205 F 
ATOM     78  C   UNL A   1      43.160  24.769  25.364  1.00  0.00     0.022 A 
BRANCH  76  79
ATOM     79  S   UNL A   1      42.174  22.380  26.264  1.00  0.00     0.127 S 
ATOM     80  O   UNL A   1      43.074  22.031  25.168  1.00  0.00    -0.237 OA
ATOM     81  O   UNL A   1      42.612  21.936  27.587  1.00  0.00    -0.237 OA
ATOM     82  O   UNL A   1      40.755  22.182  26.002  1.00  0.00    -0.744 OA
ENDBRANCH  76  79
ENDBRANCH  48  72
BRANCH  60  83
ATOM     83  C   UNL A   1      44.551  27.263  34.041  1.00  0.00     0.023 A 
ATOM     84  C   UNL A   1      45.817  27.882  34.019  1.00  0.00     0.012 A 
ATOM     85  C   UNL A   1      44.357  26.111  34.828  1.00  0.00     0.148 A 
ATOM     86  C   UNL A   1      46.885  27.331  34.727  1.00  0.00     0.002 A 
ATOM     87  C   UNL A   1      45.411  25.602  35.576  1.00  0.00     0.091 A 
ATOM     88  F   UNL A   1      43.150  25.526  34.823  1.00  0.00    -0.205 F 
ATOM     89  C   UNL A   1      46.679  26.200  35.512  1.00  0.00     0.022 A 
BRANCH  87  90
ATOM     90  S   UNL A   1      45.207  24.213  36.695  1.00  0.00     0.127 S 
ATOM     91  O   UNL A   1      46.563  24.047  37.216  1.00  0.00    -0.237 OA
ATOM     92  O   UNL A   1      44.240  24.733  37.662  1.00  0.00    -0.237 OA
ATOM     93  O   UNL A   1      44.710  23.111  35.880  1.00  0.00    -0.744 OA
ENDBRANCH  87  90
ENDBRANCH  60  83
ENDBRANCH  34  35
ENDBRANCH  26  29
ENDBRANCH  24  25
ENDBRANCH   1  24
TORSDOF 16
ENDMDL
MODEL 3
REMARK VINA RESULT:     -12.2      5.800     11.851
REMARK SMILES N#Cc1ccccc1S(=O)(=O)N1CCC(C(=O)NCCCNC(=O)c2ccc(-c3c4nc(c(-c5cccc(S(=O)(=O)[O-])c5F)c5ccc([nH]5)c(-c5cccc(S(=O)(=O)[O-])c5F)c5nc(c(-c6cccc(S(=O)(=O)[O-])c6F)c6ccc3[nH]6)C=C5)C=C4)cc2)CC1
REMARK SMILES IDX 20 1 19 2 18 3 16 4 17 5 15 7 12 8 13 9 89 10 14 11 88 12
REMARK SMILES IDX 9 13 10 14 11 15 8 16 3 17 4 18 5 19 7 20 6 21 2 22 1 23
REMARK SMILES IDX 21 24 22 25 23 26 24 28 25 29 26 30 87 31 27 32 86 33 28 34
REMARK SMILES IDX 29 35 30 36 80 37 31 38 85 39 79 40 81 41 32 42 84 43 78 44
REMARK SMILES IDX 77 45 33 47 65 48 45 49 64 50 46 51 49 52 63 53 82 54 47 55
REMARK SMILES IDX 48 56 62 58 83 59 50 60 34 61 35 62 43 63 36 64 38 65 44 66
REMARK SMILES IDX 37 67 39 68 40 69 41 70 42 71 66 72 67 73 75 74 68 75 70 76
REMARK SMILES IDX 76 77 69 78 71 79 72 80 73 81 74 82 51 83 52 84 60 85 53 86
REMARK SMILES IDX 55 87 61 88 54 89 56 90 57 91 58 92 59 93
REMARK H PARENT 18 6 22 27 81 46 49 57
REMARK Flexibility Score: inf
ROOT
ATOM      1  C   UNL A   1      38.134  19.569  24.991  1.00  0.00     0.042 C 
ENDROOT
BRANCH   1   2
ATOM      2  C   UNL A   1      36.854  20.384  25.036  1.00  0.00     0.117 C 
BRANCH   2   3
ATOM      3  N   UNL A   1      35.665  19.549  24.930  1.00  0.00    -0.356 N 
ATOM      4  C   UNL A   1      34.350  19.883  24.826  1.00  0.00     0.223 C 
ATOM      5  O   UNL A   1      33.523  18.971  24.776  1.00  0.00    -0.275 OA
ATOM      6  H   UNL A   1      35.843  18.581  24.935  1.00  0.00     0.163 HD
BRANCH   4   7
ATOM      7  C   UNL A   1      33.917  21.336  24.740  1.00  0.00     0.081 C 
ATOM      8  N   UNL A   1      31.914  23.416  25.139  1.00  0.00    -0.198 NA
ATOM      9  C   UNL A   1      32.009  22.801  23.804  1.00  0.00     0.103 C 
ATOM     10  C   UNL A   1      32.928  23.207  26.181  1.00  0.00     0.103 C 
ATOM     11  C   UNL A   1      32.795  21.511  23.727  1.00  0.00     0.030 C 
ATOM     12  C   UNL A   1      33.636  21.875  26.136  1.00  0.00     0.030 C 
BRANCH   8  13
ATOM     13  S   UNL A   1      31.018  24.849  25.234  1.00  0.00     0.244 S 
ATOM     14  O   UNL A   1      30.318  24.824  26.504  1.00  0.00    -0.207 OA
ATOM     15  O   UNL A   1      30.295  25.006  23.990  1.00  0.00    -0.207 OA
BRANCH  13  16
ATOM     16  C   UNL A   1      32.095  26.271  25.333  1.00  0.00     0.100 A 
ATOM     17  C   UNL A   1      33.112  26.655  24.458  1.00  0.00     0.072 A 
ATOM     18  C   UNL A   1      33.880  27.799  24.757  1.00  0.00     0.021 A 
ATOM     19  C   UNL A   1      33.635  28.564  25.892  1.00  0.00     0.001 A 
ATOM     20  C   UNL A   1      31.849  27.064  26.478  1.00  0.00     0.023 A 
ATOM     21  C   UNL A   1      32.609  28.200  26.751  1.00  0.00     0.001 A 
BRANCH  17  22
ATOM     22  C   UNL A   1      33.489  26.018  23.238  1.00  0.00     0.101 C 
ATOM     23  N   UNL A   1      33.757  25.600  22.195  1.00  0.00    -0.192 NA
ENDBRANCH  17  22
ENDBRANCH  13  16
ENDBRANCH   8  13
ENDBRANCH   4   7
ENDBRANCH   2   3
ENDBRANCH   1   2
BRANCH   1  24
ATOM     24  C   UNL A   1      39.266  20.191  25.786  1.00  0.00     0.118 C 
BRANCH  24  25
ATOM     25  N   UNL A   1      40.327  19.235  26.064  1.00  0.00    -0.352 N 
ATOM     26  C   UNL A   1      41.669  19.452  26.247  1.00  0.00     0.251 C 
ATOM     27  H   UNL A   1      40.041  18.296  26.130  1.00  0.00     0.163 HD
ATOM     28  O   UNL A   1      42.444  18.501  26.222  1.00  0.00    -0.269 OA
BRANCH  26  29
ATOM     29  C   UNL A   1      42.169  20.824  26.471  1.00  0.00     0.039 A 
ATOM     30  C   UNL A   1      42.393  21.259  27.778  1.00  0.00     0.014 A 
ATOM     31  C   UNL A   1      42.393  21.687  25.396  1.00  0.00     0.014 A 
ATOM     32  C   UNL A   1      42.869  22.551  27.998  1.00  0.00     0.010 A 
ATOM     33  C   UNL A   1      42.985  22.924  25.610  1.00  0.00     0.010 A 
ATOM     34  C   UNL A   1      43.187  23.387  26.915  1.00  0.00    -0.014 A 
BRANCH  34  35
ATOM     35  C   UNL A   1      43.681  24.769  27.132  1.00  0.00     0.031 A 
ATOM     36  C   UNL A   1      42.746  25.829  27.655  1.00  0.00     0.074 A 
ATOM     37  C   UNL A   1      44.952  25.080  26.812  1.00  0.00     0.049 A 
ATOM     38  N   UNL A   1      42.991  27.087  27.914  1.00  0.00    -0.248 NA
ATOM     39  C   UNL A   1      41.345  25.436  27.892  1.00  0.00     0.031 C 
ATOM     40  C   UNL A   1      45.924  24.162  26.215  1.00  0.00     0.029 A 
ATOM     41  N   UNL A   1      45.640  26.259  26.936  1.00  0.00    -0.354 N 
ATOM     42  C   UNL A   1      41.776  27.638  28.307  1.00  0.00     0.074 A 
ATOM     43  C   UNL A   1      40.784  26.594  28.203  1.00  0.00     0.031 C 
ATOM     44  C   UNL A   1      47.091  24.805  26.047  1.00  0.00     0.029 A 
ATOM     45  C   UNL A   1      46.940  26.186  26.493  1.00  0.00     0.049 A 
ATOM     46  H   UNL A   1      45.242  27.080  27.304  1.00  0.00     0.167 HD
ATOM     47  C   UNL A   1      41.514  28.889  28.751  1.00  0.00     0.034 A 
ATOM     48  C   UNL A   1      47.902  27.127  26.457  1.00  0.00     0.034 A 
ATOM     49  C   UNL A   1      42.514  29.913  28.891  1.00  0.00     0.049 A 
ATOM     50  C   UNL A   1      47.599  28.496  27.004  1.00  0.00     0.074 A 
ATOM     51  C   UNL A   1      42.373  31.189  29.403  1.00  0.00     0.029 A 
ATOM     52  N   UNL A   1      43.839  29.777  28.509  1.00  0.00    -0.354 N 
ATOM     53  N   UNL A   1      46.480  28.954  27.512  1.00  0.00    -0.248 NA
ATOM     54  C   UNL A   1      48.704  29.463  27.015  1.00  0.00     0.031 C 
ATOM     55  C   UNL A   1      43.610  31.837  29.302  1.00  0.00     0.029 A 
ATOM     56  C   UNL A   1      44.529  30.948  28.770  1.00  0.00     0.049 A 
ATOM     57  H   UNL A   1      44.233  28.966  28.111  1.00  0.00     0.167 HD
ATOM     58  C   UNL A   1      46.759  30.244  27.945  1.00  0.00     0.074 A 
ATOM     59  C   UNL A   1      48.159  30.486  27.657  1.00  0.00     0.031 C 
ATOM     60  C   UNL A   1      45.933  31.153  28.522  1.00  0.00     0.034 A 
BRANCH  47  61
ATOM     61  C   UNL A   1      40.098  29.206  29.160  1.00  0.00     0.023 A 
ATOM     62  C   UNL A   1      39.140  29.530  28.176  1.00  0.00     0.012 A 
ATOM     63  C   UNL A   1      39.702  29.139  30.510  1.00  0.00     0.148 A 
ATOM     64  C   UNL A   1      37.824  29.822  28.531  1.00  0.00     0.002 A 
ATOM     65  C   UNL A   1      38.376  29.379  30.851  1.00  0.00     0.091 A 
ATOM     66  F   UNL A   1      40.628  28.851  31.434  1.00  0.00    -0.205 F 
ATOM     67  C   UNL A   1      37.440  29.735  29.866  1.00  0.00     0.022 A 
BRANCH  65  68
ATOM     68  S   UNL A   1      37.761  29.209  32.530  1.00  0.00     0.127 S 
ATOM     69  O   UNL A   1      38.737  29.995  33.283  1.00  0.00    -0.237 OA
ATOM     70  O   UNL A   1      36.434  29.818  32.432  1.00  0.00    -0.237 OA
ATOM     71  O   UNL A   1      37.756  27.782  32.816  1.00  0.00    -0.744 OA
ENDBRANCH  65  68
ENDBRANCH  47  61
BRANCH  48  72
ATOM     72  C   UNL A   1      49.262  26.787  25.952  1.00  0.00     0.023 A 
ATOM     73  C   UNL A   1      50.137  26.034  26.759  1.00  0.00     0.012 A 
ATOM     74  C   UNL A   1      49.685  27.192  24.672  1.00  0.00     0.148 A 
ATOM     75  C   UNL A   1      51.425  25.727  26.318  1.00  0.00     0.002 A 
ATOM     76  C   UNL A   1      50.948  26.834  24.216  1.00  0.00     0.091 A 
ATOM     77  F   UNL A   1      48.839  27.911  23.922  1.00  0.00    -0.205 F 
ATOM     78  C   UNL A   1      51.827  26.119  25.045  1.00  0.00     0.022 A 
BRANCH  76  79
ATOM     79  S   UNL A   1      51.503  27.183  22.544  1.00  0.00     0.127 S 
ATOM     80  O   UNL A   1      51.723  28.626  22.597  1.00  0.00    -0.237 OA
ATOM     81  O   UNL A   1      52.721  26.377  22.458  1.00  0.00    -0.237 OA
ATOM     82  O   UNL A   1      50.425  26.741  21.670  1.00  0.00    -0.744 OA
ENDBRANCH  76  79
ENDBRANCH  48  72
BRANCH  60  83
ATOM     83  C   UNL A   1      46.533  32.471  28.939  1.00  0.00     0.023 A 
ATOM     84  C   UNL A   1      47.094  32.623  30.223  1.00  0.00     0.012 A 
ATOM     85  C   UNL A   1      46.579  33.548  28.032  1.00  0.00     0.148 A 
ATOM     86  C   UNL A   1      47.643  33.843  30.613  1.00  0.00     0.002 A 
ATOM     87  C   UNL A   1      47.181  34.741  28.409  1.00  0.00     0.091 A 
ATOM     88  F   UNL A   1      46.024  33.390  26.821  1.00  0.00    -0.205 F 
ATOM     89  C   UNL A   1      47.697  34.897  29.704  1.00  0.00     0.022 A 
BRANCH  87  90
ATOM     90  S   UNL A   1      47.385  36.112  27.267  1.00  0.00     0.127 S 
ATOM     91  O   UNL A   1      45.998  36.498  27.013  1.00  0.00    -0.237 OA
ATOM     92  O   UNL A   1      48.149  37.070  28.067  1.00  0.00    -0.237 OA
ATOM     93  O   UNL A   1      48.106  35.575  26.121  1.00  0.00    -0.744 OA
ENDBRANCH  87  90
ENDBRANCH  60  83
ENDBRANCH  34  35
ENDBRANCH  26  29
ENDBRANCH  24  25
ENDBRANCH   1  24
TORSDOF 16
ENDMDL
