MODEL 1
REMARK VINA RESULT:     -11.7      0.000      0.000
REMARK SMILES CCSc1nc(CC(=O)N[C@@H](C(=O)NCCCNC(=O)c2ccc(-c3c4nc(c(-c5cccc(S(=O)(=O)[O-])c5F)c5ccc([nH]5)c(-c5cccc(S(=O)(=O)[O-])c5F)c5nc(c(-c6cccc(S(=O)(=O)[O-])c6F)c6ccc3[nH]6)C=C5)C=C4)cc2)C2=C(C)N=N[C@@H]2C)cs1
REMARK SMILES IDX 15 1 14 2 12 3 13 4 11 6 10 7 8 8 9 9 7 11 6 12 4 13 5 14
REMARK SMILES IDX 92 15 91 16 3 17 2 18 1 19 84 20 85 21 89 22 86 23 87 24
REMARK SMILES IDX 88 25 90 26 16 27 17 28 18 29 19 30 20 32 21 33 22 34 83 35
REMARK SMILES IDX 23 36 82 37 24 38 25 39 26 40 76 41 27 42 81 43 75 44 77 45
REMARK SMILES IDX 28 46 80 47 74 48 73 49 29 51 61 52 41 53 60 54 42 55 45 56
REMARK SMILES IDX 59 57 78 58 43 59 44 60 58 62 79 63 46 64 30 65 31 66 39 67
REMARK SMILES IDX 32 68 34 69 40 70 33 71 35 72 36 73 37 74 38 75 62 76 63 77
REMARK SMILES IDX 71 78 64 79 66 80 72 81 65 82 67 83 68 84 69 85 70 86 47 87
REMARK SMILES IDX 48 88 56 89 49 90 51 91 57 92 50 93 52 94 53 95 54 96 55 97
REMARK H PARENT 14 5 10 10 18 31 77 50 45 61
REMARK Flexibility Score: inf
ROOT
ATOM      1  C   UNL A   1      36.046  20.444  24.948  1.00  0.00     0.117 C 
ENDROOT
BRANCH   1   2
ATOM      2  N   UNL A   1      34.817  19.702  25.024  1.00  0.00    -0.354 N 
ATOM      3  C   UNL A   1      33.595  20.198  24.648  1.00  0.00     0.247 C 
ATOM      4  O   UNL A   1      32.888  19.426  23.989  1.00  0.00    -0.272 OA
ATOM      5  H   UNL A   1      34.854  18.781  25.368  1.00  0.00     0.163 HD
BRANCH   3   6
ATOM      6  C   UNL A   1      33.144  21.684  24.983  1.00  0.00     0.202 C 
BRANCH   6   7
ATOM      7  N   UNL A   1      31.730  21.806  25.353  1.00  0.00    -0.340 N 
ATOM      8  C   UNL A   1      31.099  22.637  26.235  1.00  0.00     0.226 C 
ATOM      9  O   UNL A   1      29.918  22.388  26.497  1.00  0.00    -0.275 OA
ATOM     10  H   UNL A   1      31.131  21.182  24.882  1.00  0.00     0.164 HD
BRANCH   8  11
ATOM     11  C   UNL A   1      31.786  23.833  26.884  1.00  0.00     0.157 C 
BRANCH  11  12
ATOM     12  C   UNL A   1      31.453  25.136  26.241  1.00  0.00     0.062 A 
ATOM     13  C   UNL A   1      30.176  26.376  24.908  1.00  0.00     0.150 A 
ATOM     14  N   UNL A   1      30.292  25.200  25.483  1.00  0.00    -0.234 NA
ATOM     15  S   UNL A   1      31.433  27.486  25.262  1.00  0.00    -0.116 S 
ATOM     16  C   UNL A   1      32.187  26.308  26.261  1.00  0.00     0.092 A 
BRANCH  13  17
ATOM     17  S   UNL A   1      28.870  26.623  23.771  1.00  0.00    -0.096 SA
BRANCH  17  18
ATOM     18  C   UNL A   1      29.276  28.198  22.980  1.00  0.00     0.074 C 
ATOM     19  C   UNL A   1      28.089  29.144  22.923  1.00  0.00     0.016 C 
ENDBRANCH  17  18
ENDBRANCH  13  17
ENDBRANCH  11  12
ENDBRANCH   8  11
ENDBRANCH   6   7
BRANCH   6  20
ATOM     20  C   UNL A   1      33.369  22.597  23.800  1.00  0.00     0.011 C 
ATOM     21  C   UNL A   1      32.857  22.564  22.562  1.00  0.00     0.064 C 
ATOM     22  C   UNL A   1      34.195  23.852  23.821  1.00  0.00     0.156 C 
ATOM     23  C   UNL A   1      31.937  21.581  21.935  1.00  0.00     0.069 C 
ATOM     24  N   UNL A   1      33.258  23.625  21.788  1.00  0.00    -0.160 NA
ATOM     25  N   UNL A   1      34.010  24.389  22.443  1.00  0.00    -0.181 NA
ATOM     26  C   UNL A   1      35.688  23.651  24.047  1.00  0.00     0.040 C 
ENDBRANCH   6  20
ENDBRANCH   3   6
ENDBRANCH   1   2
BRANCH   1  27
ATOM     27  C   UNL A   1      37.309  19.612  24.941  1.00  0.00     0.042 C 
BRANCH  27  28
ATOM     28  C   UNL A   1      38.452  20.264  25.700  1.00  0.00     0.118 C 
BRANCH  28  29
ATOM     29  N   UNL A   1      39.621  19.393  25.829  1.00  0.00    -0.352 N 
ATOM     30  C   UNL A   1      40.929  19.694  26.139  1.00  0.00     0.251 C 
ATOM     31  H   UNL A   1      39.445  18.438  25.669  1.00  0.00     0.163 HD
ATOM     32  O   UNL A   1      41.787  18.828  26.049  1.00  0.00    -0.269 OA
BRANCH  30  33
ATOM     33  C   UNL A   1      41.289  21.067  26.556  1.00  0.00     0.039 A 
ATOM     34  C   UNL A   1      41.996  21.255  27.747  1.00  0.00     0.014 A 
ATOM     35  C   UNL A   1      40.949  22.163  25.762  1.00  0.00     0.014 A 
ATOM     36  C   UNL A   1      42.437  22.535  28.093  1.00  0.00     0.010 A 
ATOM     37  C   UNL A   1      41.481  23.412  26.050  1.00  0.00     0.010 A 
ATOM     38  C   UNL A   1      42.224  23.616  27.222  1.00  0.00    -0.014 A 
BRANCH  38  39
ATOM     39  C   UNL A   1      42.750  24.975  27.504  1.00  0.00     0.031 A 
ATOM     40  C   UNL A   1      41.860  25.992  28.172  1.00  0.00     0.074 A 
ATOM     41  C   UNL A   1      43.972  25.328  27.060  1.00  0.00     0.049 A 
ATOM     42  N   UNL A   1      42.071  27.265  28.375  1.00  0.00    -0.248 NA
ATOM     43  C   UNL A   1      40.542  25.523  28.636  1.00  0.00     0.031 C 
ATOM     44  C   UNL A   1      44.897  24.456  26.329  1.00  0.00     0.029 A 
ATOM     45  N   UNL A   1      44.638  26.525  27.131  1.00  0.00    -0.354 N 
ATOM     46  C   UNL A   1      40.902  27.755  28.947  1.00  0.00     0.074 A 
ATOM     47  C   UNL A   1      39.968  26.654  29.017  1.00  0.00     0.031 C 
ATOM     48  C   UNL A   1      46.011  25.143  26.031  1.00  0.00     0.029 A 
ATOM     49  C   UNL A   1      45.869  26.513  26.514  1.00  0.00     0.049 A 
ATOM     50  H   UNL A   1      44.271  27.320  27.581  1.00  0.00     0.167 HD
ATOM     51  C   UNL A   1      40.641  29.000  29.411  1.00  0.00     0.034 A 
ATOM     52  C   UNL A   1      46.775  27.497  26.353  1.00  0.00     0.034 A 
ATOM     53  C   UNL A   1      41.596  30.073  29.402  1.00  0.00     0.049 A 
ATOM     54  C   UNL A   1      46.478  28.857  26.928  1.00  0.00     0.074 A 
ATOM     55  C   UNL A   1      41.460  31.351  29.912  1.00  0.00     0.029 A 
ATOM     56  N   UNL A   1      42.873  29.986  28.871  1.00  0.00    -0.354 N 
ATOM     57  N   UNL A   1      45.418  29.263  27.583  1.00  0.00    -0.248 NA
ATOM     58  C   UNL A   1      47.518  29.885  26.772  1.00  0.00     0.031 C 
ATOM     59  C   UNL A   1      42.656  32.040  29.687  1.00  0.00     0.029 A 
ATOM     60  C   UNL A   1      43.541  31.184  29.050  1.00  0.00     0.049 A 
ATOM     61  H   UNL A   1      43.250  29.190  28.431  1.00  0.00     0.167 HD
ATOM     62  C   UNL A   1      45.681  30.576  27.957  1.00  0.00     0.074 A 
ATOM     63  C   UNL A   1      47.009  30.891  27.471  1.00  0.00     0.031 C 
ATOM     64  C   UNL A   1      44.890  31.449  28.627  1.00  0.00     0.034 A 
BRANCH  51  65
ATOM     65  C   UNL A   1      39.296  29.243  30.044  1.00  0.00     0.023 A 
ATOM     66  C   UNL A   1      39.034  28.715  31.324  1.00  0.00     0.012 A 
ATOM     67  C   UNL A   1      38.320  30.037  29.410  1.00  0.00     0.148 A 
ATOM     68  C   UNL A   1      37.810  28.941  31.951  1.00  0.00     0.002 A 
ATOM     69  C   UNL A   1      37.118  30.294  30.060  1.00  0.00     0.091 A 
ATOM     70  F   UNL A   1      38.581  30.514  28.185  1.00  0.00    -0.205 F 
ATOM     71  C   UNL A   1      36.857  29.739  31.324  1.00  0.00     0.022 A 
BRANCH  69  72
ATOM     72  S   UNL A   1      35.854  31.371  29.377  1.00  0.00     0.127 S 
ATOM     73  O   UNL A   1      35.196  30.483  28.419  1.00  0.00    -0.237 OA
ATOM     74  O   UNL A   1      35.054  31.696  30.558  1.00  0.00    -0.237 OA
ATOM     75  O   UNL A   1      36.562  32.502  28.792  1.00  0.00    -0.744 OA
ENDBRANCH  69  72
ENDBRANCH  51  65
BRANCH  52  76
ATOM     76  C   UNL A   1      48.083  27.219  25.695  1.00  0.00     0.023 A 
ATOM     77  C   UNL A   1      49.155  26.739  26.475  1.00  0.00     0.012 A 
ATOM     78  C   UNL A   1      48.279  27.420  24.315  1.00  0.00     0.148 A 
ATOM     79  C   UNL A   1      50.407  26.508  25.904  1.00  0.00     0.002 A 
ATOM     80  C   UNL A   1      49.515  27.136  23.742  1.00  0.00     0.091 A 
ATOM     81  F   UNL A   1      47.255  27.889  23.588  1.00  0.00    -0.205 F 
ATOM     82  C   UNL A   1      50.584  26.697  24.537  1.00  0.00     0.022 A 
BRANCH  80  83
ATOM     83  S   UNL A   1      49.791  27.234  21.970  1.00  0.00     0.127 S 
ATOM     84  O   UNL A   1      49.580  28.655  21.711  1.00  0.00    -0.237 OA
ATOM     85  O   UNL A   1      51.179  26.784  21.849  1.00  0.00    -0.237 OA
ATOM     86  O   UNL A   1      48.818  26.325  21.378  1.00  0.00    -0.744 OA
ENDBRANCH  80  83
ENDBRANCH  52  76
BRANCH  64  87
ATOM     87  C   UNL A   1      45.454  32.811  28.929  1.00  0.00     0.023 A 
ATOM     88  C   UNL A   1      46.215  33.012  30.097  1.00  0.00     0.012 A 
ATOM     89  C   UNL A   1      45.301  33.866  28.008  1.00  0.00     0.148 A 
ATOM     90  C   UNL A   1      46.792  34.253  30.359  1.00  0.00     0.002 A 
ATOM     91  C   UNL A   1      45.920  35.086  28.252  1.00  0.00     0.091 A 
ATOM     92  F   UNL A   1      44.558  33.659  26.912  1.00  0.00    -0.205 F 
ATOM     93  C   UNL A   1      46.656  35.285  29.433  1.00  0.00     0.022 A 
BRANCH  91  94
ATOM     94  S   UNL A   1      45.881  36.438  27.070  1.00  0.00     0.127 S 
ATOM     95  O   UNL A   1      44.445  36.683  26.946  1.00  0.00    -0.237 OA
ATOM     96  O   UNL A   1      46.621  37.487  27.772  1.00  0.00    -0.237 OA
ATOM     97  O   UNL A   1      46.536  35.938  25.869  1.00  0.00    -0.744 OA
ENDBRANCH  91  94
ENDBRANCH  64  87
ENDBRANCH  38  39
ENDBRANCH  30  33
ENDBRANCH  28  29
ENDBRANCH  27  28
ENDBRANCH   1  27
TORSDOF 19
ENDMDL
MODEL 2
REMARK VINA RESULT:     -11.6      1.561      2.078
REMARK SMILES CCSc1nc(CC(=O)N[C@@H](C(=O)NCCCNC(=O)c2ccc(-c3c4nc(c(-c5cccc(S(=O)(=O)[O-])c5F)c5ccc([nH]5)c(-c5cccc(S(=O)(=O)[O-])c5F)c5nc(c(-c6cccc(S(=O)(=O)[O-])c6F)c6ccc3[nH]6)C=C5)C=C4)cc2)C2=C(C)N=N[C@@H]2C)cs1
REMARK SMILES IDX 15 1 14 2 12 3 13 4 11 6 10 7 8 8 9 9 7 11 6 12 4 13 5 14
REMARK SMILES IDX 92 15 91 16 3 17 2 18 1 19 84 20 85 21 89 22 86 23 87 24
REMARK SMILES IDX 88 25 90 26 16 27 17 28 18 29 19 30 20 32 21 33 22 34 83 35
REMARK SMILES IDX 23 36 82 37 24 38 25 39 26 40 76 41 27 42 81 43 75 44 77 45
REMARK SMILES IDX 28 46 80 47 74 48 73 49 29 51 61 52 41 53 60 54 42 55 45 56
REMARK SMILES IDX 59 57 78 58 43 59 44 60 58 62 79 63 46 64 30 65 31 66 39 67
REMARK SMILES IDX 32 68 34 69 40 70 33 71 35 72 36 73 37 74 38 75 62 76 63 77
REMARK SMILES IDX 71 78 64 79 66 80 72 81 65 82 67 83 68 84 69 85 70 86 47 87
REMARK SMILES IDX 48 88 56 89 49 90 51 91 57 92 50 93 52 94 53 95 54 96 55 97
REMARK H PARENT 14 5 10 10 18 31 77 50 45 61
REMARK Flexibility Score: inf
ROOT
ATOM      1  C   UNL A   1      36.505  20.980  25.340  1.00  0.00     0.117 C 
ENDROOT
BRANCH   1   2
ATOM      2  N   UNL A   1      35.394  20.069  25.387  1.00  0.00    -0.354 N 
ATOM      3  C   UNL A   1      34.144  20.355  24.902  1.00  0.00     0.247 C 
ATOM      4  O   UNL A   1      33.606  19.451  24.253  1.00  0.00    -0.272 OA
ATOM      5  H   UNL A   1      35.540  19.184  25.793  1.00  0.00     0.163 HD
BRANCH   3   6
ATOM      6  C   UNL A   1      33.460  21.773  25.109  1.00  0.00     0.202 C 
BRANCH   6   7
ATOM      7  N   UNL A   1      32.030  21.702  25.430  1.00  0.00    -0.340 N 
ATOM      8  C   UNL A   1      31.207  22.582  26.075  1.00  0.00     0.226 C 
ATOM      9  O   UNL A   1      30.083  22.177  26.385  1.00  0.00    -0.275 OA
ATOM     10  H   UNL A   1      31.586  20.878  25.126  1.00  0.00     0.164 HD
BRANCH   8  11
ATOM     11  C   UNL A   1      31.621  24.010  26.410  1.00  0.00     0.157 C 
BRANCH  11  12
ATOM     12  C   UNL A   1      31.241  25.003  25.366  1.00  0.00     0.062 A 
ATOM     13  C   UNL A   1      31.286  27.066  24.537  1.00  0.00     0.150 A 
ATOM     14  N   UNL A   1      31.777  26.280  25.468  1.00  0.00    -0.234 NA
ATOM     15  S   UNL A   1      30.177  26.320  23.464  1.00  0.00    -0.116 S 
ATOM     16  C   UNL A   1      30.369  24.834  24.306  1.00  0.00     0.092 A 
BRANCH  13  17
ATOM     17  S   UNL A   1      31.698  28.766  24.579  1.00  0.00    -0.096 SA
BRANCH  17  18
ATOM     18  C   UNL A   1      33.506  28.773  24.623  1.00  0.00     0.074 C 
ATOM     19  C   UNL A   1      34.123  28.640  23.241  1.00  0.00     0.016 C 
ENDBRANCH  17  18
ENDBRANCH  13  17
ENDBRANCH  11  12
ENDBRANCH   8  11
ENDBRANCH   6   7
BRANCH   6  20
ATOM     20  C   UNL A   1      33.589  22.622  23.866  1.00  0.00     0.011 C 
ATOM     21  C   UNL A   1      32.999  22.511  22.667  1.00  0.00     0.064 C 
ATOM     22  C   UNL A   1      34.388  23.891  23.764  1.00  0.00     0.156 C 
ATOM     23  C   UNL A   1      32.063  21.478  22.156  1.00  0.00     0.069 C 
ATOM     24  N   UNL A   1      33.327  23.534  21.812  1.00  0.00    -0.160 NA
ATOM     25  N   UNL A   1      34.103  24.347  22.374  1.00  0.00    -0.181 NA
ATOM     26  C   UNL A   1      35.895  23.730  23.903  1.00  0.00     0.040 C 
ENDBRANCH   6  20
ENDBRANCH   3   6
ENDBRANCH   1   2
BRANCH   1  27
ATOM     27  C   UNL A   1      37.813  20.387  24.864  1.00  0.00     0.042 C 
BRANCH  27  28
ATOM     28  C   UNL A   1      38.963  20.643  25.824  1.00  0.00     0.118 C 
BRANCH  28  29
ATOM     29  N   UNL A   1      39.892  19.516  25.914  1.00  0.00    -0.352 N 
ATOM     30  C   UNL A   1      41.259  19.497  26.082  1.00  0.00     0.251 C 
ATOM     31  H   UNL A   1      39.474  18.628  25.842  1.00  0.00     0.163 HD
ATOM     32  O   UNL A   1      41.867  18.441  25.981  1.00  0.00    -0.269 OA
BRANCH  30  33
ATOM     33  C   UNL A   1      41.984  20.756  26.359  1.00  0.00     0.039 A 
ATOM     34  C   UNL A   1      42.339  21.588  25.293  1.00  0.00     0.014 A 
ATOM     35  C   UNL A   1      42.294  21.124  27.668  1.00  0.00     0.014 A 
ATOM     36  C   UNL A   1      42.925  22.830  25.553  1.00  0.00     0.010 A 
ATOM     37  C   UNL A   1      42.773  22.401  27.929  1.00  0.00     0.010 A 
ATOM     38  C   UNL A   1      43.102  23.265  26.876  1.00  0.00    -0.014 A 
BRANCH  38  39
ATOM     39  C   UNL A   1      43.638  24.611  27.200  1.00  0.00     0.031 A 
ATOM     40  C   UNL A   1      42.706  25.679  27.713  1.00  0.00     0.074 A 
ATOM     41  C   UNL A   1      44.925  24.905  26.927  1.00  0.00     0.049 A 
ATOM     42  N   UNL A   1      42.939  26.948  27.916  1.00  0.00    -0.248 NA
ATOM     43  C   UNL A   1      41.317  25.273  27.994  1.00  0.00     0.031 C 
ATOM     44  C   UNL A   1      45.907  23.979  26.355  1.00  0.00     0.029 A 
ATOM     45  N   UNL A   1      45.624  26.078  27.066  1.00  0.00    -0.354 N 
ATOM     46  C   UNL A   1      41.722  27.498  28.305  1.00  0.00     0.074 A 
ATOM     47  C   UNL A   1      40.743  26.436  28.264  1.00  0.00     0.031 C 
ATOM     48  C   UNL A   1      47.080  24.615  26.203  1.00  0.00     0.029 A 
ATOM     49  C   UNL A   1      46.928  26.001  26.631  1.00  0.00     0.049 A 
ATOM     50  H   UNL A   1      45.229  26.898  27.442  1.00  0.00     0.167 HD
ATOM     51  C   UNL A   1      41.451  28.764  28.700  1.00  0.00     0.034 A 
ATOM     52  C   UNL A   1      47.888  26.945  26.580  1.00  0.00     0.034 A 
ATOM     53  C   UNL A   1      42.441  29.799  28.804  1.00  0.00     0.049 A 
ATOM     54  C   UNL A   1      47.569  28.331  27.077  1.00  0.00     0.074 A 
ATOM     55  C   UNL A   1      42.287  31.095  29.261  1.00  0.00     0.029 A 
ATOM     56  N   UNL A   1      43.775  29.649  28.462  1.00  0.00    -0.354 N 
ATOM     57  N   UNL A   1      46.445  28.795  27.565  1.00  0.00    -0.248 NA
ATOM     58  C   UNL A   1      48.662  29.314  27.049  1.00  0.00     0.031 C 
ATOM     59  C   UNL A   1      43.531  31.731  29.194  1.00  0.00     0.029 A 
ATOM     60  C   UNL A   1      44.461  30.826  28.708  1.00  0.00     0.049 A 
ATOM     61  H   UNL A   1      44.177  28.828  28.098  1.00  0.00     0.167 HD
ATOM     62  C   UNL A   1      46.707  30.106  27.944  1.00  0.00     0.074 A 
ATOM     63  C   UNL A   1      48.102  30.357  27.646  1.00  0.00     0.031 C 
ATOM     64  C   UNL A   1      45.866  31.027  28.476  1.00  0.00     0.034 A 
BRANCH  51  65
ATOM     65  C   UNL A   1      40.041  29.076  29.129  1.00  0.00     0.023 A 
ATOM     66  C   UNL A   1      39.061  29.323  28.146  1.00  0.00     0.012 A 
ATOM     67  C   UNL A   1      39.669  29.066  30.488  1.00  0.00     0.148 A 
ATOM     68  C   UNL A   1      37.742  29.590  28.506  1.00  0.00     0.002 A 
ATOM     69  C   UNL A   1      38.342  29.290  30.837  1.00  0.00     0.091 A 
ATOM     70  F   UNL A   1      40.618  28.849  31.409  1.00  0.00    -0.205 F 
ATOM     71  C   UNL A   1      37.380  29.562  29.850  1.00  0.00     0.022 A 
BRANCH  69  72
ATOM     72  S   UNL A   1      37.754  29.202  32.532  1.00  0.00     0.127 S 
ATOM     73  O   UNL A   1      37.824  27.765  32.795  1.00  0.00    -0.237 OA
ATOM     74  O   UNL A   1      38.749  30.002  33.245  1.00  0.00    -0.237 OA
ATOM     75  O   UNL A   1      36.411  29.768  32.521  1.00  0.00    -0.744 OA
ENDBRANCH  69  72
ENDBRANCH  51  65
BRANCH  52  76
ATOM     76  C   UNL A   1      49.263  26.600  26.121  1.00  0.00     0.023 A 
ATOM     77  C   UNL A   1      50.078  25.796  26.943  1.00  0.00     0.012 A 
ATOM     78  C   UNL A   1      49.771  27.052  24.888  1.00  0.00     0.148 A 
ATOM     79  C   UNL A   1      51.386  25.486  26.568  1.00  0.00     0.002 A 
ATOM     80  C   UNL A   1      51.057  26.695  24.496  1.00  0.00     0.091 A 
ATOM     81  F   UNL A   1      48.989  27.827  24.122  1.00  0.00    -0.205 F 
ATOM     82  C   UNL A   1      51.872  25.928  25.342  1.00  0.00     0.022 A 
BRANCH  80  83
ATOM     83  S   UNL A   1      51.714  27.116  22.878  1.00  0.00     0.127 S 
ATOM     84  O   UNL A   1      52.894  26.259  22.801  1.00  0.00    -0.237 OA
ATOM     85  O   UNL A   1      50.615  26.734  21.990  1.00  0.00    -0.237 OA
ATOM     86  O   UNL A   1      51.968  28.550  22.927  1.00  0.00    -0.744 OA
ENDBRANCH  80  83
ENDBRANCH  52  76
BRANCH  64  87
ATOM     87  C   UNL A   1      46.437  32.375  28.826  1.00  0.00     0.023 A 
ATOM     88  C   UNL A   1      47.047  32.574  30.079  1.00  0.00     0.012 A 
ATOM     89  C   UNL A   1      46.446  33.414  27.875  1.00  0.00     0.148 A 
ATOM     90  C   UNL A   1      47.634  33.799  30.393  1.00  0.00     0.002 A 
ATOM     91  C   UNL A   1      47.074  34.616  28.177  1.00  0.00     0.091 A 
ATOM     92  F   UNL A   1      45.843  33.209  26.695  1.00  0.00    -0.205 F 
ATOM     93  C   UNL A   1      47.658  34.814  29.439  1.00  0.00     0.022 A 
BRANCH  91  94
ATOM     94  S   UNL A   1      47.239  35.942  26.977  1.00  0.00     0.127 S 
ATOM     95  O   UNL A   1      47.967  35.278  25.897  1.00  0.00    -0.237 OA
ATOM     96  O   UNL A   1      45.845  36.259  26.668  1.00  0.00    -0.237 OA
ATOM     97  O   UNL A   1      47.963  37.009  27.656  1.00  0.00    -0.744 OA
ENDBRANCH  91  94
ENDBRANCH  64  87
ENDBRANCH  38  39
ENDBRANCH  30  33
ENDBRANCH  28  29
ENDBRANCH  27  28
ENDBRANCH   1  27
TORSDOF 19
ENDMDL
MODEL 3
REMARK VINA RESULT:     -11.0      2.572      4.022
REMARK SMILES CCSc1nc(CC(=O)N[C@@H](C(=O)NCCCNC(=O)c2ccc(-c3c4nc(c(-c5cccc(S(=O)(=O)[O-])c5F)c5ccc([nH]5)c(-c5cccc(S(=O)(=O)[O-])c5F)c5nc(c(-c6cccc(S(=O)(=O)[O-])c6F)c6ccc3[nH]6)C=C5)C=C4)cc2)C2=C(C)N=N[C@@H]2C)cs1
REMARK SMILES IDX 15 1 14 2 12 3 13 4 11 6 10 7 8 8 9 9 7 11 6 12 4 13 5 14
REMARK SMILES IDX 92 15 91 16 3 17 2 18 1 19 84 20 85 21 89 22 86 23 87 24
REMARK SMILES IDX 88 25 90 26 16 27 17 28 18 29 19 30 20 32 21 33 22 34 83 35
REMARK SMILES IDX 23 36 82 37 24 38 25 39 26 40 76 41 27 42 81 43 75 44 77 45
REMARK SMILES IDX 28 46 80 47 74 48 73 49 29 51 61 52 41 53 60 54 42 55 45 56
REMARK SMILES IDX 59 57 78 58 43 59 44 60 58 62 79 63 46 64 30 65 31 66 39 67
REMARK SMILES IDX 32 68 34 69 40 70 33 71 35 72 36 73 37 74 38 75 62 76 63 77
REMARK SMILES IDX 71 78 64 79 66 80 72 81 65 82 67 83 68 84 69 85 70 86 47 87
REMARK SMILES IDX 48 88 56 89 49 90 51 91 57 92 50 93 52 94 53 95 54 96 55 97
REMARK H PARENT 14 5 10 10 18 31 77 50 45 61
REMARK Flexibility Score: inf
ROOT
ATOM      1  C   UNL A   1      35.036  23.404  25.522  1.00  0.00     0.117 C 
ENDROOT
BRANCH   1   2
ATOM      2  N   UNL A   1      34.123  23.811  26.554  1.00  0.00    -0.354 N 
ATOM      3  C   UNL A   1      32.760  23.849  26.405  1.00  0.00     0.247 C 
ATOM      4  O   UNL A   1      32.108  23.396  27.353  1.00  0.00    -0.272 OA
ATOM      5  H   UNL A   1      34.498  24.079  27.424  1.00  0.00     0.163 HD
BRANCH   3   6
ATOM      6  C   UNL A   1      32.069  24.380  25.077  1.00  0.00     0.202 C 
BRANCH   6   7
ATOM      7  N   UNL A   1      32.877  24.188  23.869  1.00  0.00    -0.340 N 
ATOM      8  C   UNL A   1      32.942  23.148  22.984  1.00  0.00     0.226 C 
ATOM      9  O   UNL A   1      33.861  23.166  22.160  1.00  0.00    -0.275 OA
ATOM     10  H   UNL A   1      33.478  24.939  23.658  1.00  0.00     0.164 HD
BRANCH   8  11
ATOM     11  C   UNL A   1      31.937  22.002  22.978  1.00  0.00     0.157 C 
BRANCH  11  12
ATOM     12  C   UNL A   1      32.364  20.828  23.792  1.00  0.00     0.062 A 
ATOM     13  C   UNL A   1      33.008  18.706  23.956  1.00  0.00     0.150 A 
ATOM     14  N   UNL A   1      32.747  19.680  23.114  1.00  0.00    -0.234 NA
ATOM     15  S   UNL A   1      32.840  19.113  25.613  1.00  0.00    -0.116 S 
ATOM     16  C   UNL A   1      32.387  20.710  25.170  1.00  0.00     0.092 A 
BRANCH  13  17
ATOM     17  S   UNL A   1      33.350  17.116  23.313  1.00  0.00    -0.096 SA
BRANCH  17  18
ATOM     18  C   UNL A   1      33.556  16.088  24.786  1.00  0.00     0.074 C 
ATOM     19  C   UNL A   1      35.015  15.899  25.166  1.00  0.00     0.016 C 
ENDBRANCH  17  18
ENDBRANCH  13  17
ENDBRANCH  11  12
ENDBRANCH   8  11
ENDBRANCH   6   7
BRANCH   6  20
ATOM     20  C   UNL A   1      31.773  25.859  25.177  1.00  0.00     0.011 C 
ATOM     21  C   UNL A   1      30.715  26.568  24.757  1.00  0.00     0.064 C 
ATOM     22  C   UNL A   1      32.625  26.865  25.897  1.00  0.00     0.156 C 
ATOM     23  C   UNL A   1      29.511  26.131  24.006  1.00  0.00     0.069 C 
ATOM     24  N   UNL A   1      30.788  27.894  25.103  1.00  0.00    -0.160 NA
ATOM     25  N   UNL A   1      31.839  28.123  25.752  1.00  0.00    -0.181 NA
ATOM     26  C   UNL A   1      34.004  27.104  25.299  1.00  0.00     0.040 C 
ENDBRANCH   6  20
ENDBRANCH   3   6
ENDBRANCH   1   2
BRANCH   1  27
ATOM     27  C   UNL A   1      35.890  22.198  25.846  1.00  0.00     0.042 C 
BRANCH  27  28
ATOM     28  C   UNL A   1      37.164  22.135  25.020  1.00  0.00     0.118 C 
BRANCH  28  29
ATOM     29  N   UNL A   1      38.035  21.022  25.400  1.00  0.00    -0.352 N 
ATOM     30  C   UNL A   1      39.250  21.021  26.048  1.00  0.00     0.251 C 
ATOM     31  H   UNL A   1      37.700  20.131  25.151  1.00  0.00     0.163 HD
ATOM     32  O   UNL A   1      39.888  19.982  26.137  1.00  0.00    -0.269 OA
BRANCH  30  33
ATOM     33  C   UNL A   1      39.785  22.279  26.612  1.00  0.00     0.039 A 
ATOM     34  C   UNL A   1      40.783  22.219  27.589  1.00  0.00     0.014 A 
ATOM     35  C   UNL A   1      39.317  23.514  26.164  1.00  0.00     0.014 A 
ATOM     36  C   UNL A   1      41.372  23.401  28.048  1.00  0.00     0.010 A 
ATOM     37  C   UNL A   1      39.977  24.677  26.538  1.00  0.00     0.010 A 
ATOM     38  C   UNL A   1      41.006  24.636  27.489  1.00  0.00    -0.014 A 
BRANCH  38  39
ATOM     39  C   UNL A   1      41.665  25.908  27.881  1.00  0.00     0.031 A 
ATOM     40  C   UNL A   1      40.869  26.966  28.600  1.00  0.00     0.074 A 
ATOM     41  C   UNL A   1      42.931  26.155  27.491  1.00  0.00     0.049 A 
ATOM     42  N   UNL A   1      41.208  28.192  28.899  1.00  0.00    -0.248 NA
ATOM     43  C   UNL A   1      39.495  26.612  28.999  1.00  0.00     0.031 C 
ATOM     44  C   UNL A   1      43.779  25.241  26.720  1.00  0.00     0.029 A 
ATOM     45  N   UNL A   1      43.719  27.266  27.663  1.00  0.00    -0.354 N 
ATOM     46  C   UNL A   1      40.082  28.765  29.478  1.00  0.00     0.074 A 
ATOM     47  C   UNL A   1      39.034  27.770  29.447  1.00  0.00     0.031 C 
ATOM     48  C   UNL A   1      44.969  25.823  26.497  1.00  0.00     0.029 A 
ATOM     49  C   UNL A   1      44.959  27.162  27.074  1.00  0.00     0.049 A 
ATOM     50  H   UNL A   1      43.424  28.063  28.161  1.00  0.00     0.167 HD
ATOM     51  C   UNL A   1      39.942  29.996  30.025  1.00  0.00     0.034 A 
ATOM     52  C   UNL A   1      45.969  28.051  27.005  1.00  0.00     0.034 A 
ATOM     53  C   UNL A   1      41.005  30.957  30.115  1.00  0.00     0.049 A 
ATOM     54  C   UNL A   1      45.802  29.393  27.670  1.00  0.00     0.074 A 
ATOM     55  C   UNL A   1      40.990  32.204  30.712  1.00  0.00     0.029 A 
ATOM     56  N   UNL A   1      42.281  30.769  29.608  1.00  0.00    -0.354 N 
ATOM     57  N   UNL A   1      44.772  29.864  28.328  1.00  0.00    -0.248 NA
ATOM     58  C   UNL A   1      46.950  30.309  27.612  1.00  0.00     0.031 C 
ATOM     59  C   UNL A   1      42.260  32.772  30.564  1.00  0.00     0.029 A 
ATOM     60  C   UNL A   1      43.067  31.872  29.888  1.00  0.00     0.049 A 
ATOM     61  H   UNL A   1      42.584  29.969  29.120  1.00  0.00     0.167 HD
ATOM     62  C   UNL A   1      45.162  31.112  28.802  1.00  0.00     0.074 A 
ATOM     63  C   UNL A   1      46.530  31.314  28.369  1.00  0.00     0.031 C 
ATOM     64  C   UNL A   1      44.449  32.017  29.516  1.00  0.00     0.034 A 
BRANCH  51  65
ATOM     65  C   UNL A   1      38.612  30.339  30.643  1.00  0.00     0.023 A 
ATOM     66  C   UNL A   1      38.343  29.931  31.966  1.00  0.00     0.012 A 
ATOM     67  C   UNL A   1      37.658  31.110  29.951  1.00  0.00     0.148 A 
ATOM     68  C   UNL A   1      37.133  30.252  32.578  1.00  0.00     0.002 A 
ATOM     69  C   UNL A   1      36.472  31.464  30.584  1.00  0.00     0.091 A 
ATOM     70  F   UNL A   1      37.923  31.472  28.687  1.00  0.00    -0.205 F 
ATOM     71  C   UNL A   1      36.203  31.027  31.892  1.00  0.00     0.022 A 
BRANCH  69  72
ATOM     72  S   UNL A   1      35.238  32.522  29.819  1.00  0.00     0.127 S 
ATOM     73  O   UNL A   1      34.778  31.686  28.710  1.00  0.00    -0.237 OA
ATOM     74  O   UNL A   1      34.267  32.694  30.899  1.00  0.00    -0.237 OA
ATOM     75  O   UNL A   1      35.939  33.740  29.431  1.00  0.00    -0.744 OA
ENDBRANCH  69  72
ENDBRANCH  51  65
BRANCH  52  76
ATOM     76  C   UNL A   1      47.260  27.679  26.358  1.00  0.00     0.023 A 
ATOM     77  C   UNL A   1      48.324  27.227  27.163  1.00  0.00     0.012 A 
ATOM     78  C   UNL A   1      47.445  27.766  24.965  1.00  0.00     0.148 A 
ATOM     79  C   UNL A   1      49.561  26.910  26.600  1.00  0.00     0.002 A 
ATOM     80  C   UNL A   1      48.664  27.397  24.404  1.00  0.00     0.091 A 
ATOM     81  F   UNL A   1      46.428  28.210  24.213  1.00  0.00    -0.205 F 
ATOM     82  C   UNL A   1      49.728  26.986  25.221  1.00  0.00     0.022 A 
BRANCH  80  83
ATOM     83  S   UNL A   1      48.921  27.346  22.627  1.00  0.00     0.127 S 
ATOM     84  O   UNL A   1      48.382  26.033  22.283  1.00  0.00    -0.237 OA
ATOM     85  O   UNL A   1      48.120  28.481  22.167  1.00  0.00    -0.237 OA
ATOM     86  O   UNL A   1      50.356  27.516  22.441  1.00  0.00    -0.744 OA
ENDBRANCH  80  83
ENDBRANCH  52  76
BRANCH  64  87
ATOM     87  C   UNL A   1      45.145  33.286  29.927  1.00  0.00     0.023 A 
ATOM     88  C   UNL A   1      45.110  34.411  29.081  1.00  0.00     0.012 A 
ATOM     89  C   UNL A   1      45.757  33.387  31.192  1.00  0.00     0.148 A 
ATOM     90  C   UNL A   1      45.699  35.611  29.475  1.00  0.00     0.002 A 
ATOM     91  C   UNL A   1      46.300  34.599  31.599  1.00  0.00     0.091 A 
ATOM     92  F   UNL A   1      45.795  32.298  31.974  1.00  0.00    -0.205 F 
ATOM     93  C   UNL A   1      46.282  35.709  30.737  1.00  0.00     0.022 A 
BRANCH  91  94
ATOM     94  S   UNL A   1      46.983  34.844  33.241  1.00  0.00     0.127 S 
ATOM     95  O   UNL A   1      47.315  36.268  33.216  1.00  0.00    -0.237 OA
ATOM     96  O   UNL A   1      45.854  34.496  34.103  1.00  0.00    -0.237 OA
ATOM     97  O   UNL A   1      48.120  33.939  33.341  1.00  0.00    -0.744 OA
ENDBRANCH  91  94
ENDBRANCH  64  87
ENDBRANCH  38  39
ENDBRANCH  30  33
ENDBRANCH  28  29
ENDBRANCH  27  28
ENDBRANCH   1  27
TORSDOF 19
ENDMDL
