MODEL 1
REMARK VINA RESULT:     -13.1      0.000      0.000
REMARK SMILES O=C(NCCCNC(=O)c1c(/C=C2/SC(=S)N=C2O)cnc2ccccc12)c1ccc(-c2c3nc(c(-c4cccc(S(=O)(=O)[O-])c4F)c4ccc([nH]4)c(-c4cccc(S(=O)(=O)[O-])c4F)c4nc(c(-c5cccc(S(=O)(=O)[O-])c5F)c5ccc2[nH]5)C=C4)C=C3)cc1
REMARK SMILES IDX 4 1 3 2 1 3 2 4 28 6 29 7 90 8 30 9 89 10 31 11 32 12 33 13
REMARK SMILES IDX 83 14 34 15 88 16 82 17 84 18 35 19 87 20 81 21 80 22 36 24
REMARK SMILES IDX 68 25 48 26 67 27 49 28 52 29 66 30 85 31 50 32 51 33 65 35
REMARK SMILES IDX 86 36 53 37 37 38 38 39 46 40 39 41 41 42 47 43 40 44 42 45
REMARK SMILES IDX 43 46 44 47 45 48 69 49 70 50 78 51 71 52 73 53 79 54 72 55
REMARK SMILES IDX 74 56 75 57 76 58 77 59 54 60 55 61 63 62 56 63 58 64 64 65
REMARK SMILES IDX 57 66 59 67 60 68 61 69 62 70 5 71 6 72 7 73 8 74 9 76 10 77
REMARK SMILES IDX 11 78 27 79 20 80 22 81 26 82 21 83 23 84 25 85 24 86 12 87
REMARK SMILES IDX 13 88 14 89 18 90 15 91 17 92 16 93 19 94
REMARK H PARENT 3 5 84 23 52 34 7 75 19 95
REMARK Flexibility Score: inf
ROOT
ATOM      1  C   UNL A   1      32.512  29.756  26.008  1.00  0.00     0.118 C 
ENDROOT
BRANCH   1   2
ATOM      2  N   UNL A   1      32.341  31.159  26.364  1.00  0.00    -0.352 N 
ATOM      3  O   UNL A   1      32.600  33.101  27.447  1.00  0.00    -0.269 OA
ATOM      4  C   UNL A   1      33.067  31.997  27.178  1.00  0.00     0.251 C 
ATOM      5  H   UNL A   1      31.560  31.586  25.944  1.00  0.00     0.163 HD
BRANCH   4   6
ATOM      6  C   UNL A   1      34.362  31.578  27.762  1.00  0.00     0.039 A 
ATOM      7  C   UNL A   1      34.637  30.243  28.046  1.00  0.00     0.014 A 
ATOM      8  C   UNL A   1      35.347  32.544  28.001  1.00  0.00     0.014 A 
ATOM      9  C   UNL A   1      35.778  29.904  28.761  1.00  0.00     0.010 A 
ATOM     10  C   UNL A   1      36.556  32.181  28.608  1.00  0.00     0.010 A 
ATOM     11  C   UNL A   1      36.760  30.866  29.049  1.00  0.00    -0.014 A 
BRANCH  11  12
ATOM     12  C   UNL A   1      37.989  30.447  29.776  1.00  0.00     0.031 A 
ATOM     13  C   UNL A   1      38.223  30.836  31.213  1.00  0.00     0.074 A 
ATOM     14  C   UNL A   1      38.886  29.665  29.140  1.00  0.00     0.049 A 
ATOM     15  N   UNL A   1      39.192  30.468  32.014  1.00  0.00    -0.248 NA
ATOM     16  C   UNL A   1      37.262  31.763  31.831  1.00  0.00     0.031 C 
ATOM     17  C   UNL A   1      38.804  29.264  27.733  1.00  0.00     0.029 A 
ATOM     18  N   UNL A   1      40.022  29.043  29.593  1.00  0.00    -0.354 N 
ATOM     19  C   UNL A   1      38.988  31.155  33.205  1.00  0.00     0.074 A 
ATOM     20  C   UNL A   1      37.806  31.968  33.024  1.00  0.00     0.031 C 
ATOM     21  C   UNL A   1      39.804  28.416  27.457  1.00  0.00     0.029 A 
ATOM     22  C   UNL A   1      40.629  28.250  28.647  1.00  0.00     0.049 A 
ATOM     23  H   UNL A   1      40.371  29.155  30.507  1.00  0.00     0.167 HD
ATOM     24  C   UNL A   1      39.706  31.100  34.352  1.00  0.00     0.034 A 
ATOM     25  C   UNL A   1      41.723  27.468  28.725  1.00  0.00     0.034 A 
ATOM     26  C   UNL A   1      40.841  30.239  34.556  1.00  0.00     0.049 A 
ATOM     27  C   UNL A   1      42.456  27.371  30.032  1.00  0.00     0.074 A 
ATOM     28  C   UNL A   1      41.584  30.054  35.710  1.00  0.00     0.029 A 
ATOM     29  N   UNL A   1      41.397  29.418  33.588  1.00  0.00    -0.354 N 
ATOM     30  N   UNL A   1      42.163  27.925  31.184  1.00  0.00    -0.248 NA
ATOM     31  C   UNL A   1      43.656  26.523  30.057  1.00  0.00     0.031 C 
ATOM     32  C   UNL A   1      42.594  29.126  35.435  1.00  0.00     0.029 A 
ATOM     33  C   UNL A   1      42.476  28.727  34.115  1.00  0.00     0.049 A 
ATOM     34  H   UNL A   1      41.073  29.337  32.662  1.00  0.00     0.167 HD
ATOM     35  C   UNL A   1      43.130  27.478  32.076  1.00  0.00     0.074 A 
ATOM     36  C   UNL A   1      43.997  26.582  31.338  1.00  0.00     0.031 C 
ATOM     37  C   UNL A   1      43.298  27.798  33.382  1.00  0.00     0.034 A 
BRANCH  24  38
ATOM     38  C   UNL A   1      39.257  31.959  35.505  1.00  0.00     0.023 A 
ATOM     39  C   UNL A   1      38.400  31.416  36.483  1.00  0.00     0.012 A 
ATOM     40  C   UNL A   1      39.735  33.275  35.658  1.00  0.00     0.148 A 
ATOM     41  C   UNL A   1      38.005  32.178  37.583  1.00  0.00     0.002 A 
ATOM     42  C   UNL A   1      39.365  34.017  36.775  1.00  0.00     0.091 A 
ATOM     43  F   UNL A   1      40.527  33.785  34.705  1.00  0.00    -0.205 F 
ATOM     44  C   UNL A   1      38.496  33.473  37.735  1.00  0.00     0.022 A 
BRANCH  42  45
ATOM     45  S   UNL A   1      40.005  35.666  37.087  1.00  0.00     0.127 S 
ATOM     46  O   UNL A   1      39.313  36.023  38.324  1.00  0.00    -0.237 OA
ATOM     47  O   UNL A   1      41.441  35.423  37.241  1.00  0.00    -0.237 OA
ATOM     48  O   UNL A   1      39.653  36.454  35.914  1.00  0.00    -0.744 OA
ENDBRANCH  42  45
ENDBRANCH  24  38
BRANCH  25  49
ATOM     49  C   UNL A   1      42.136  26.657  27.546  1.00  0.00     0.023 A 
ATOM     50  C   UNL A   1      42.944  27.244  26.554  1.00  0.00     0.012 A 
ATOM     51  C   UNL A   1      41.789  25.297  27.432  1.00  0.00     0.148 A 
ATOM     52  C   UNL A   1      43.385  26.498  25.461  1.00  0.00     0.002 A 
ATOM     53  C   UNL A   1      42.280  24.544  26.372  1.00  0.00     0.091 A 
ATOM     54  F   UNL A   1      41.000  24.760  28.373  1.00  0.00    -0.205 F 
ATOM     55  C   UNL A   1      43.066  25.145  25.377  1.00  0.00     0.022 A 
BRANCH  53  56
ATOM     56  S   UNL A   1      42.035  22.766  26.282  1.00  0.00     0.127 S 
ATOM     57  O   UNL A   1      42.654  22.442  25.001  1.00  0.00    -0.237 OA
ATOM     58  O   UNL A   1      42.767  22.293  27.459  1.00  0.00    -0.237 OA
ATOM     59  O   UNL A   1      40.592  22.575  26.366  1.00  0.00    -0.744 OA
ENDBRANCH  53  56
ENDBRANCH  25  49
BRANCH  37  60
ATOM     60  C   UNL A   1      44.457  27.169  34.105  1.00  0.00     0.023 A 
ATOM     61  C   UNL A   1      45.723  27.784  34.051  1.00  0.00     0.012 A 
ATOM     62  C   UNL A   1      44.284  26.008  34.882  1.00  0.00     0.148 A 
ATOM     63  C   UNL A   1      46.807  27.237  34.736  1.00  0.00     0.002 A 
ATOM     64  C   UNL A   1      45.359  25.492  35.597  1.00  0.00     0.091 A 
ATOM     65  F   UNL A   1      43.078  25.422  34.902  1.00  0.00    -0.205 F 
ATOM     66  C   UNL A   1      46.623  26.099  35.517  1.00  0.00     0.022 A 
BRANCH  64  67
ATOM     67  S   UNL A   1      45.177  24.081  36.693  1.00  0.00     0.127 S 
ATOM     68  O   UNL A   1      46.553  23.864  37.135  1.00  0.00    -0.237 OA
ATOM     69  O   UNL A   1      44.279  24.596  37.728  1.00  0.00    -0.237 OA
ATOM     70  O   UNL A   1      44.599  23.023  35.875  1.00  0.00    -0.744 OA
ENDBRANCH  64  67
ENDBRANCH  37  60
ENDBRANCH  11  12
ENDBRANCH   4   6
ENDBRANCH   1   2
BRANCH   1  71
ATOM     71  C   UNL A   1      31.683  28.811  26.866  1.00  0.00     0.042 C 
BRANCH  71  72
ATOM     72  C   UNL A   1      32.163  27.370  26.847  1.00  0.00     0.118 C 
BRANCH  72  73
ATOM     73  N   UNL A   1      31.097  26.410  26.592  1.00  0.00    -0.352 N 
ATOM     74  C   UNL A   1      31.129  25.308  25.784  1.00  0.00     0.252 C 
ATOM     75  H   UNL A   1      30.247  26.575  27.060  1.00  0.00     0.163 HD
ATOM     76  O   UNL A   1      30.244  24.459  25.785  1.00  0.00    -0.269 OA
BRANCH  74  77
ATOM     77  C   UNL A   1      32.239  25.096  24.875  1.00  0.00     0.058 A 
ATOM     78  C   UNL A   1      32.285  25.787  23.661  1.00  0.00     0.007 A 
ATOM     79  C   UNL A   1      33.232  24.154  25.285  1.00  0.00     0.014 A 
ATOM     80  C   UNL A   1      33.407  25.459  22.893  1.00  0.00     0.120 A 
ATOM     81  C   UNL A   1      34.330  23.992  24.430  1.00  0.00     0.071 A 
ATOM     82  C   UNL A   1      33.206  23.417  26.501  1.00  0.00     0.011 A 
ATOM     83  N   UNL A   1      34.403  24.610  23.246  1.00  0.00    -0.256 NA
ATOM     84  C   UNL A   1      35.385  23.181  24.831  1.00  0.00     0.029 A 
ATOM     85  C   UNL A   1      34.273  22.611  26.886  1.00  0.00     0.001 A 
ATOM     86  C   UNL A   1      35.376  22.506  26.053  1.00  0.00     0.002 A 
BRANCH  78  87
ATOM     87  C   UNL A   1      31.464  26.918  23.138  1.00  0.00     0.031 C 
ATOM     88  C   UNL A   1      30.217  27.434  23.089  1.00  0.00     0.077 C 
ATOM     89  S   UNL A   1      30.097  29.062  22.377  1.00  0.00    -0.053 SA
ATOM     90  C   UNL A   1      28.816  27.164  23.501  1.00  0.00     0.227 C 
ATOM     91  C   UNL A   1      28.446  29.264  22.973  1.00  0.00     0.168 C 
ATOM     92  N   UNL A   1      27.924  28.099  23.469  1.00  0.00    -0.194 NA
ATOM     93  S   UNL A   1      27.654  30.731  22.888  1.00  0.00    -0.050 S 
BRANCH  90  94
ATOM     94  O   UNL A   1      28.392  25.953  23.833  1.00  0.00    -0.492 OA
ATOM     95  H   UNL A   1      29.010  25.275  24.022  1.00  0.00     0.295 HD
ENDBRANCH  90  94
ENDBRANCH  78  87
ENDBRANCH  74  77
ENDBRANCH  72  73
ENDBRANCH  71  72
ENDBRANCH   1  71
TORSDOF 15
ENDMDL
MODEL 2
REMARK VINA RESULT:     -13.0      1.291      1.547
REMARK SMILES O=C(NCCCNC(=O)c1c(/C=C2/SC(=S)N=C2O)cnc2ccccc12)c1ccc(-c2c3nc(c(-c4cccc(S(=O)(=O)[O-])c4F)c4ccc([nH]4)c(-c4cccc(S(=O)(=O)[O-])c4F)c4nc(c(-c5cccc(S(=O)(=O)[O-])c5F)c5ccc2[nH]5)C=C4)C=C3)cc1
REMARK SMILES IDX 4 1 3 2 1 3 2 4 28 6 29 7 90 8 30 9 89 10 31 11 32 12 33 13
REMARK SMILES IDX 83 14 34 15 88 16 82 17 84 18 35 19 87 20 81 21 80 22 36 24
REMARK SMILES IDX 68 25 48 26 67 27 49 28 52 29 66 30 85 31 50 32 51 33 65 35
REMARK SMILES IDX 86 36 53 37 37 38 38 39 46 40 39 41 41 42 47 43 40 44 42 45
REMARK SMILES IDX 43 46 44 47 45 48 69 49 70 50 78 51 71 52 73 53 79 54 72 55
REMARK SMILES IDX 74 56 75 57 76 58 77 59 54 60 55 61 63 62 56 63 58 64 64 65
REMARK SMILES IDX 57 66 59 67 60 68 61 69 62 70 5 71 6 72 7 73 8 74 9 76 10 77
REMARK SMILES IDX 11 78 27 79 20 80 22 81 26 82 21 83 23 84 25 85 24 86 12 87
REMARK SMILES IDX 13 88 14 89 18 90 15 91 17 92 16 93 19 94
REMARK H PARENT 3 5 84 23 52 34 7 75 19 95
REMARK Flexibility Score: inf
ROOT
ATOM      1  C   UNL A   1      32.791  29.725  26.253  1.00  0.00     0.118 C 
ENDROOT
BRANCH   1   2
ATOM      2  N   UNL A   1      32.703  31.140  26.593  1.00  0.00    -0.352 N 
ATOM      3  O   UNL A   1      33.098  33.082  27.633  1.00  0.00    -0.269 OA
ATOM      4  C   UNL A   1      33.500  31.953  27.364  1.00  0.00     0.251 C 
ATOM      5  H   UNL A   1      31.927  31.599  26.197  1.00  0.00     0.163 HD
BRANCH   4   6
ATOM      6  C   UNL A   1      34.795  31.478  27.904  1.00  0.00     0.039 A 
ATOM      7  C   UNL A   1      34.985  30.154  28.286  1.00  0.00     0.014 A 
ATOM      8  C   UNL A   1      35.864  32.378  28.001  1.00  0.00     0.014 A 
ATOM      9  C   UNL A   1      36.142  29.782  28.959  1.00  0.00     0.010 A 
ATOM     10  C   UNL A   1      37.079  31.968  28.565  1.00  0.00     0.010 A 
ATOM     11  C   UNL A   1      37.211  30.682  29.105  1.00  0.00    -0.014 A 
BRANCH  11  12
ATOM     12  C   UNL A   1      38.450  30.224  29.790  1.00  0.00     0.031 A 
ATOM     13  C   UNL A   1      38.760  30.633  31.207  1.00  0.00     0.074 A 
ATOM     14  C   UNL A   1      39.285  29.389  29.138  1.00  0.00     0.049 A 
ATOM     15  N   UNL A   1      39.744  30.240  31.977  1.00  0.00    -0.248 NA
ATOM     16  C   UNL A   1      37.866  31.615  31.842  1.00  0.00     0.031 C 
ATOM     17  C   UNL A   1      39.128  28.962  27.745  1.00  0.00     0.029 A 
ATOM     18  N   UNL A   1      40.411  28.728  29.559  1.00  0.00    -0.354 N 
ATOM     19  C   UNL A   1      39.619  30.962  33.159  1.00  0.00     0.074 A 
ATOM     20  C   UNL A   1      38.467  31.821  33.007  1.00  0.00     0.031 C 
ATOM     21  C   UNL A   1      40.078  28.065  27.449  1.00  0.00     0.029 A 
ATOM     22  C   UNL A   1      40.943  27.889  28.608  1.00  0.00     0.049 A 
ATOM     23  H   UNL A   1      40.801  28.844  30.456  1.00  0.00     0.167 HD
ATOM     24  C   UNL A   1      40.381  30.899  34.278  1.00  0.00     0.034 A 
ATOM     25  C   UNL A   1      42.005  27.061  28.661  1.00  0.00     0.034 A 
ATOM     26  C   UNL A   1      41.485  29.993  34.456  1.00  0.00     0.049 A 
ATOM     27  C   UNL A   1      42.786  26.960  29.938  1.00  0.00     0.074 A 
ATOM     28  C   UNL A   1      42.266  29.801  35.582  1.00  0.00     0.029 A 
ATOM     29  N   UNL A   1      41.965  29.128  33.485  1.00  0.00    -0.354 N 
ATOM     30  N   UNL A   1      42.565  27.551  31.088  1.00  0.00    -0.248 NA
ATOM     31  C   UNL A   1      43.949  26.061  29.935  1.00  0.00     0.031 C 
ATOM     32  C   UNL A   1      43.223  28.823  35.289  1.00  0.00     0.029 A 
ATOM     33  C   UNL A   1      43.033  28.401  33.984  1.00  0.00     0.049 A 
ATOM     34  H   UNL A   1      41.599  29.041  32.575  1.00  0.00     0.167 HD
ATOM     35  C   UNL A   1      43.548  27.081  31.951  1.00  0.00     0.074 A 
ATOM     36  C   UNL A   1      44.345  26.132  31.199  1.00  0.00     0.031 C 
ATOM     37  C   UNL A   1      43.783  27.421  33.241  1.00  0.00     0.034 A 
BRANCH  24  38
ATOM     38  C   UNL A   1      40.017  31.802  35.427  1.00  0.00     0.023 A 
ATOM     39  C   UNL A   1      40.626  33.068  35.535  1.00  0.00     0.012 A 
ATOM     40  C   UNL A   1      39.027  31.429  36.358  1.00  0.00     0.148 A 
ATOM     41  C   UNL A   1      40.275  33.939  36.565  1.00  0.00     0.002 A 
ATOM     42  C   UNL A   1      38.657  32.318  37.362  1.00  0.00     0.091 A 
ATOM     43  F   UNL A   1      38.478  30.211  36.257  1.00  0.00    -0.205 F 
ATOM     44  C   UNL A   1      39.283  33.570  37.471  1.00  0.00     0.022 A 
BRANCH  42  45
ATOM     45  S   UNL A   1      37.340  31.953  38.529  1.00  0.00     0.127 S 
ATOM     46  O   UNL A   1      36.312  32.908  38.122  1.00  0.00    -0.237 OA
ATOM     47  O   UNL A   1      37.028  30.555  38.224  1.00  0.00    -0.237 OA
ATOM     48  O   UNL A   1      37.915  32.165  39.850  1.00  0.00    -0.744 OA
ENDBRANCH  42  45
ENDBRANCH  24  38
BRANCH  25  49
ATOM     49  C   UNL A   1      42.333  26.207  27.485  1.00  0.00     0.023 A 
ATOM     50  C   UNL A   1      43.158  26.722  26.467  1.00  0.00     0.012 A 
ATOM     51  C   UNL A   1      41.888  24.874  27.398  1.00  0.00     0.148 A 
ATOM     52  C   UNL A   1      43.521  25.932  25.376  1.00  0.00     0.002 A 
ATOM     53  C   UNL A   1      42.302  24.074  26.340  1.00  0.00     0.091 A 
ATOM     54  F   UNL A   1      41.085  24.406  28.364  1.00  0.00    -0.205 F 
ATOM     55  C   UNL A   1      43.105  24.604  25.320  1.00  0.00     0.022 A 
BRANCH  53  56
ATOM     56  S   UNL A   1      41.930  22.317  26.281  1.00  0.00     0.127 S 
ATOM     57  O   UNL A   1      42.656  21.896  25.087  1.00  0.00    -0.237 OA
ATOM     58  O   UNL A   1      42.491  21.839  27.546  1.00  0.00    -0.237 OA
ATOM     59  O   UNL A   1      40.476  22.236  26.211  1.00  0.00    -0.744 OA
ENDBRANCH  53  56
ENDBRANCH  25  49
BRANCH  37  60
ATOM     60  C   UNL A   1      44.943  26.758  33.931  1.00  0.00     0.023 A 
ATOM     61  C   UNL A   1      46.222  27.342  33.852  1.00  0.00     0.012 A 
ATOM     62  C   UNL A   1      44.759  25.595  34.703  1.00  0.00     0.148 A 
ATOM     63  C   UNL A   1      47.308  26.762  34.507  1.00  0.00     0.002 A 
ATOM     64  C   UNL A   1      45.838  25.046  35.388  1.00  0.00     0.091 A 
ATOM     65  F   UNL A   1      43.540  25.038  34.747  1.00  0.00    -0.205 F 
ATOM     66  C   UNL A   1      47.114  25.621  35.283  1.00  0.00     0.022 A 
BRANCH  64  67
ATOM     67  S   UNL A   1      45.646  23.630  36.476  1.00  0.00     0.127 S 
ATOM     68  O   UNL A   1      44.735  24.154  37.492  1.00  0.00    -0.237 OA
ATOM     69  O   UNL A   1      45.058  22.625  35.591  1.00  0.00    -0.237 OA
ATOM     70  O   UNL A   1      46.991  23.307  36.937  1.00  0.00    -0.744 OA
ENDBRANCH  64  67
ENDBRANCH  37  60
ENDBRANCH  11  12
ENDBRANCH   4   6
ENDBRANCH   1   2
BRANCH   1  71
ATOM     71  C   UNL A   1      31.777  28.864  26.991  1.00  0.00     0.042 C 
BRANCH  71  72
ATOM     72  C   UNL A   1      32.108  27.381  27.000  1.00  0.00     0.118 C 
BRANCH  72  73
ATOM     73  N   UNL A   1      30.938  26.527  26.847  1.00  0.00    -0.352 N 
ATOM     74  C   UNL A   1      30.842  25.338  26.179  1.00  0.00     0.252 C 
ATOM     75  H   UNL A   1      30.112  26.845  27.278  1.00  0.00     0.163 HD
ATOM     76  O   UNL A   1      29.864  24.605  26.268  1.00  0.00    -0.269 OA
BRANCH  74  77
ATOM     77  C   UNL A   1      31.921  24.891  25.318  1.00  0.00     0.058 A 
ATOM     78  C   UNL A   1      32.060  25.432  24.037  1.00  0.00     0.007 A 
ATOM     79  C   UNL A   1      32.785  23.883  25.847  1.00  0.00     0.014 A 
ATOM     80  C   UNL A   1      33.135  24.885  23.332  1.00  0.00     0.120 A 
ATOM     81  C   UNL A   1      33.858  23.492  25.036  1.00  0.00     0.071 A 
ATOM     82  C   UNL A   1      32.660  23.294  27.135  1.00  0.00     0.011 A 
ATOM     83  N   UNL A   1      34.015  23.962  23.793  1.00  0.00    -0.256 NA
ATOM     84  C   UNL A   1      34.799  22.604  25.543  1.00  0.00     0.029 A 
ATOM     85  C   UNL A   1      33.614  22.407  27.626  1.00  0.00     0.001 A 
ATOM     86  C   UNL A   1      34.699  22.074  26.830  1.00  0.00     0.002 A 
BRANCH  78  87
ATOM     87  C   UNL A   1      31.391  26.593  23.380  1.00  0.00     0.031 C 
ATOM     88  C   UNL A   1      30.205  27.213  23.196  1.00  0.00     0.077 C 
ATOM     89  S   UNL A   1      30.294  28.792  22.377  1.00  0.00    -0.053 SA
ATOM     90  C   UNL A   1      28.758  27.097  23.507  1.00  0.00     0.227 C 
ATOM     91  C   UNL A   1      28.628  29.180  22.821  1.00  0.00     0.168 C 
ATOM     92  N   UNL A   1      27.963  28.103  23.343  1.00  0.00    -0.194 NA
ATOM     93  S   UNL A   1      27.986  30.702  22.580  1.00  0.00    -0.050 S 
BRANCH  90  94
ATOM     94  O   UNL A   1      28.198  25.954  23.876  1.00  0.00    -0.492 OA
ATOM     95  H   UNL A   1      27.367  25.958  24.310  1.00  0.00     0.295 HD
ENDBRANCH  90  94
ENDBRANCH  78  87
ENDBRANCH  74  77
ENDBRANCH  72  73
ENDBRANCH  71  72
ENDBRANCH   1  71
TORSDOF 15
ENDMDL
MODEL 3
REMARK VINA RESULT:     -13.0      1.967      3.572
REMARK SMILES O=C(NCCCNC(=O)c1c(/C=C2/SC(=S)N=C2O)cnc2ccccc12)c1ccc(-c2c3nc(c(-c4cccc(S(=O)(=O)[O-])c4F)c4ccc([nH]4)c(-c4cccc(S(=O)(=O)[O-])c4F)c4nc(c(-c5cccc(S(=O)(=O)[O-])c5F)c5ccc2[nH]5)C=C4)C=C3)cc1
REMARK SMILES IDX 4 1 3 2 1 3 2 4 28 6 29 7 90 8 30 9 89 10 31 11 32 12 33 13
REMARK SMILES IDX 83 14 34 15 88 16 82 17 84 18 35 19 87 20 81 21 80 22 36 24
REMARK SMILES IDX 68 25 48 26 67 27 49 28 52 29 66 30 85 31 50 32 51 33 65 35
REMARK SMILES IDX 86 36 53 37 37 38 38 39 46 40 39 41 41 42 47 43 40 44 42 45
REMARK SMILES IDX 43 46 44 47 45 48 69 49 70 50 78 51 71 52 73 53 79 54 72 55
REMARK SMILES IDX 74 56 75 57 76 58 77 59 54 60 55 61 63 62 56 63 58 64 64 65
REMARK SMILES IDX 57 66 59 67 60 68 61 69 62 70 5 71 6 72 7 73 8 74 9 76 10 77
REMARK SMILES IDX 11 78 27 79 20 80 22 81 26 82 21 83 23 84 25 85 24 86 12 87
REMARK SMILES IDX 13 88 14 89 18 90 15 91 17 92 16 93 19 94
REMARK H PARENT 3 5 84 23 52 34 7 75 19 95
REMARK Flexibility Score: inf
ROOT
ATOM      1  C   UNL A   1      32.352  29.535  25.873  1.00  0.00     0.118 C 
ENDROOT
BRANCH   1   2
ATOM      2  N   UNL A   1      32.126  30.922  26.261  1.00  0.00    -0.352 N 
ATOM      3  O   UNL A   1      32.309  32.848  27.388  1.00  0.00    -0.269 OA
ATOM      4  C   UNL A   1      32.820  31.770  27.093  1.00  0.00     0.251 C 
ATOM      5  H   UNL A   1      31.327  31.327  25.853  1.00  0.00     0.163 HD
BRANCH   4   6
ATOM      6  C   UNL A   1      34.132  31.390  27.664  1.00  0.00     0.039 A 
ATOM      7  C   UNL A   1      34.430  30.071  27.994  1.00  0.00     0.014 A 
ATOM      8  C   UNL A   1      35.109  32.377  27.845  1.00  0.00     0.014 A 
ATOM      9  C   UNL A   1      35.591  29.774  28.698  1.00  0.00     0.010 A 
ATOM     10  C   UNL A   1      36.335  32.052  28.439  1.00  0.00     0.010 A 
ATOM     11  C   UNL A   1      36.566  30.759  28.927  1.00  0.00    -0.014 A 
BRANCH  11  12
ATOM     12  C   UNL A   1      37.815  30.383  29.643  1.00  0.00     0.031 A 
ATOM     13  C   UNL A   1      38.065  30.814  31.065  1.00  0.00     0.074 A 
ATOM     14  C   UNL A   1      38.717  29.603  29.012  1.00  0.00     0.049 A 
ATOM     15  N   UNL A   1      39.055  30.487  31.858  1.00  0.00    -0.248 NA
ATOM     16  C   UNL A   1      37.096  31.738  31.675  1.00  0.00     0.031 C 
ATOM     17  C   UNL A   1      38.620  29.164  27.618  1.00  0.00     0.029 A 
ATOM     18  N   UNL A   1      39.873  29.016  29.461  1.00  0.00    -0.354 N 
ATOM     19  C   UNL A   1      38.856  31.201  33.035  1.00  0.00     0.074 A 
ATOM     20  C   UNL A   1      37.655  31.985  32.853  1.00  0.00     0.031 C 
ATOM     21  C   UNL A   1      39.632  28.329  27.346  1.00  0.00     0.029 A 
ATOM     22  C   UNL A   1      40.480  28.211  28.526  1.00  0.00     0.049 A 
ATOM     23  H   UNL A   1      40.235  29.159  30.366  1.00  0.00     0.167 HD
ATOM     24  C   UNL A   1      39.595  31.190  34.171  1.00  0.00     0.034 A 
ATOM     25  C   UNL A   1      41.592  27.453  28.605  1.00  0.00     0.034 A 
ATOM     26  C   UNL A   1      40.751  30.358  34.377  1.00  0.00     0.049 A 
ATOM     27  C   UNL A   1      42.348  27.405  29.901  1.00  0.00     0.074 A 
ATOM     28  C   UNL A   1      41.516  30.218  35.522  1.00  0.00     0.029 A 
ATOM     29  N   UNL A   1      41.307  29.523  33.421  1.00  0.00    -0.354 N 
ATOM     30  N   UNL A   1      42.063  27.983  31.043  1.00  0.00    -0.248 NA
ATOM     31  C   UNL A   1      43.566  26.583  29.927  1.00  0.00     0.031 C 
ATOM     32  C   UNL A   1      42.541  29.303  35.254  1.00  0.00     0.029 A 
ATOM     33  C   UNL A   1      42.408  28.868  33.946  1.00  0.00     0.049 A 
ATOM     34  H   UNL A   1      40.969  29.411  32.503  1.00  0.00     0.167 HD
ATOM     35  C   UNL A   1      43.053  27.579  31.930  1.00  0.00     0.074 A 
ATOM     36  C   UNL A   1      43.927  26.682  31.200  1.00  0.00     0.031 C 
ATOM     37  C   UNL A   1      43.237  27.937  33.224  1.00  0.00     0.034 A 
BRANCH  24  38
ATOM     38  C   UNL A   1      39.148  32.070  35.308  1.00  0.00     0.023 A 
ATOM     39  C   UNL A   1      38.236  31.567  36.258  1.00  0.00     0.012 A 
ATOM     40  C   UNL A   1      39.679  33.364  35.477  1.00  0.00     0.148 A 
ATOM     41  C   UNL A   1      37.840  32.348  37.344  1.00  0.00     0.002 A 
ATOM     42  C   UNL A   1      39.307  34.122  36.582  1.00  0.00     0.091 A 
ATOM     43  F   UNL A   1      40.524  33.836  34.550  1.00  0.00    -0.205 F 
ATOM     44  C   UNL A   1      38.383  33.619  37.513  1.00  0.00     0.022 A 
BRANCH  42  45
ATOM     45  S   UNL A   1      40.010  35.742  36.915  1.00  0.00     0.127 S 
ATOM     46  O   UNL A   1      41.433  35.428  37.031  1.00  0.00    -0.237 OA
ATOM     47  O   UNL A   1      39.649  36.495  35.712  1.00  0.00    -0.237 OA
ATOM     48  O   UNL A   1      39.363  36.210  38.133  1.00  0.00    -0.744 OA
ENDBRANCH  42  45
ENDBRANCH  24  38
BRANCH  25  49
ATOM     49  C   UNL A   1      42.001  26.620  27.440  1.00  0.00     0.023 A 
ATOM     50  C   UNL A   1      42.782  27.197  26.421  1.00  0.00     0.012 A 
ATOM     51  C   UNL A   1      41.677  25.252  27.366  1.00  0.00     0.148 A 
ATOM     52  C   UNL A   1      43.220  26.431  25.340  1.00  0.00     0.002 A 
ATOM     53  C   UNL A   1      42.166  24.481  26.318  1.00  0.00     0.091 A 
ATOM     54  F   UNL A   1      40.914  24.724  28.333  1.00  0.00    -0.205 F 
ATOM     55  C   UNL A   1      42.925  25.071  25.296  1.00  0.00     0.022 A 
BRANCH  53  56
ATOM     56  S   UNL A   1      41.952  22.697  26.276  1.00  0.00     0.127 S 
ATOM     57  O   UNL A   1      42.669  22.337  25.058  1.00  0.00    -0.237 OA
ATOM     58  O   UNL A   1      42.601  22.279  27.521  1.00  0.00    -0.237 OA
ATOM     59  O   UNL A   1      40.510  22.486  26.260  1.00  0.00    -0.744 OA
ENDBRANCH  53  56
ENDBRANCH  25  49
BRANCH  37  60
ATOM     60  C   UNL A   1      44.421  27.351  33.942  1.00  0.00     0.023 A 
ATOM     61  C   UNL A   1      45.675  27.984  33.842  1.00  0.00     0.012 A 
ATOM     62  C   UNL A   1      44.282  26.213  34.760  1.00  0.00     0.148 A 
ATOM     63  C   UNL A   1      46.781  27.477  34.523  1.00  0.00     0.002 A 
ATOM     64  C   UNL A   1      45.381  25.738  35.469  1.00  0.00     0.091 A 
ATOM     65  F   UNL A   1      43.087  25.608  34.824  1.00  0.00    -0.205 F 
ATOM     66  C   UNL A   1      46.632  26.361  35.343  1.00  0.00     0.022 A 
BRANCH  64  67
ATOM     67  S   UNL A   1      45.244  24.360  36.613  1.00  0.00     0.127 S 
ATOM     68  O   UNL A   1      44.805  23.280  35.733  1.00  0.00    -0.237 OA
ATOM     69  O   UNL A   1      46.613  24.222  37.111  1.00  0.00    -0.237 OA
ATOM     70  O   UNL A   1      44.283  24.786  37.623  1.00  0.00    -0.744 OA
ENDBRANCH  64  67
ENDBRANCH  37  60
ENDBRANCH  11  12
ENDBRANCH   4   6
ENDBRANCH   1   2
BRANCH   1  71
ATOM     71  C   UNL A   1      33.176  29.393  24.601  1.00  0.00     0.042 C 
BRANCH  71  72
ATOM     72  C   UNL A   1      33.917  28.072  24.484  1.00  0.00     0.118 C 
BRANCH  72  73
ATOM     73  N   UNL A   1      34.135  27.652  23.105  1.00  0.00    -0.352 N 
ATOM     74  C   UNL A   1      33.406  26.762  22.369  1.00  0.00     0.252 C 
ATOM     75  H   UNL A   1      34.903  28.062  22.647  1.00  0.00     0.163 HD
ATOM     76  O   UNL A   1      33.557  26.620  21.161  1.00  0.00    -0.269 OA
BRANCH  74  77
ATOM     77  C   UNL A   1      32.401  25.931  23.006  1.00  0.00     0.058 A 
ATOM     78  C   UNL A   1      32.745  24.664  23.483  1.00  0.00     0.007 A 
ATOM     79  C   UNL A   1      31.082  26.473  23.089  1.00  0.00     0.014 A 
ATOM     80  C   UNL A   1      31.664  23.986  24.052  1.00  0.00     0.120 A 
ATOM     81  C   UNL A   1      30.126  25.693  23.752  1.00  0.00     0.071 A 
ATOM     82  C   UNL A   1      30.690  27.748  22.595  1.00  0.00     0.011 A 
ATOM     83  N   UNL A   1      30.403  24.463  24.200  1.00  0.00    -0.256 NA
ATOM     84  C   UNL A   1      28.858  26.217  23.970  1.00  0.00     0.029 A 
ATOM     85  C   UNL A   1      29.414  28.257  22.824  1.00  0.00     0.001 A 
ATOM     86  C   UNL A   1      28.499  27.493  23.531  1.00  0.00     0.002 A 
BRANCH  78  87
ATOM     87  C   UNL A   1      34.072  24.001  23.651  1.00  0.00     0.031 C 
ATOM     88  C   UNL A   1      34.800  23.198  24.457  1.00  0.00     0.077 C 
ATOM     89  S   UNL A   1      36.365  22.670  23.788  1.00  0.00    -0.053 SA
ATOM     90  C   UNL A   1      34.751  22.479  25.755  1.00  0.00     0.227 C 
ATOM     91  C   UNL A   1      36.550  21.439  25.042  1.00  0.00     0.168 C 
ATOM     92  N   UNL A   1      35.622  21.567  26.040  1.00  0.00    -0.194 NA
ATOM     93  S   UNL A   1      37.761  20.291  24.974  1.00  0.00    -0.050 S 
BRANCH  90  94
ATOM     94  O   UNL A   1      33.884  22.788  26.708  1.00  0.00    -0.492 OA
ATOM     95  H   UNL A   1      34.150  23.329  27.426  1.00  0.00     0.295 HD
ENDBRANCH  90  94
ENDBRANCH  78  87
ENDBRANCH  74  77
ENDBRANCH  72  73
ENDBRANCH  71  72
ENDBRANCH   1  71
TORSDOF 15
ENDMDL
