MODEL 1
REMARK VINA RESULT:     -11.6      0.000      0.000
REMARK SMILES CC1(C)[C@H](C#N)C(SCC(=O)NCCCNC(=O)c2ccc(-c3c4nc(c(-c5cccc(S(=O)(=O)[O-])c5F)c5ccc([nH]5)c(-c5cccc(S(=O)(=O)[O-])c5F)c5nc(c(-c6cccc(S(=O)(=O)[O-])c6F)c6ccc3[nH]6)C=C5)C=C4)cc2)=NC(=O)[C@@H]1C#N
REMARK SMILES IDX 14 1 13 2 12 3 10 4 11 5 9 7 8 8 7 9 1 10 2 11 3 12 4 13
REMARK SMILES IDX 85 14 83 15 82 16 84 17 5 18 6 19 86 20 87 21 15 22 16 23
REMARK SMILES IDX 17 24 18 26 19 27 20 28 81 29 21 30 80 31 22 32 23 33 24 34
REMARK SMILES IDX 74 35 25 36 79 37 73 38 75 39 26 40 78 41 72 42 71 43 27 45
REMARK SMILES IDX 59 46 39 47 58 48 40 49 43 50 57 51 76 52 41 53 42 54 56 56
REMARK SMILES IDX 77 57 44 58 28 59 29 60 37 61 30 62 32 63 38 64 31 65 33 66
REMARK SMILES IDX 34 67 35 68 36 69 60 70 61 71 69 72 62 73 64 74 70 75 63 76
REMARK SMILES IDX 65 77 66 78 67 79 68 80 45 81 46 82 54 83 47 84 49 85 55 86
REMARK SMILES IDX 48 87 50 88 51 89 52 90 53 91
REMARK H PARENT 12 6 16 25 75 44 43 55
REMARK Flexibility Score: inf
ROOT
ATOM      1  C   UNL A   1      31.525  31.751  26.645  1.00  0.00     0.042 C 
ENDROOT
BRANCH   1   2
ATOM      2  C   UNL A   1      31.872  30.531  25.794  1.00  0.00     0.117 C 
BRANCH   2   3
ATOM      3  N   UNL A   1      30.959  30.380  24.674  1.00  0.00    -0.355 N 
ATOM      4  C   UNL A   1      30.678  29.292  23.902  1.00  0.00     0.230 C 
ATOM      5  O   UNL A   1      29.796  29.424  23.049  1.00  0.00    -0.274 OA
ATOM      6  H   UNL A   1      30.462  31.195  24.435  1.00  0.00     0.163 HD
BRANCH   4   7
ATOM      7  C   UNL A   1      31.320  27.945  24.167  1.00  0.00     0.176 C 
BRANCH   7   8
ATOM      8  S   UNL A   1      30.440  26.533  23.460  1.00  0.00    -0.099 SA
BRANCH   8   9
ATOM      9  C   UNL A   1      31.226  25.125  24.186  1.00  0.00     0.095 C 
ATOM     10  C   UNL A   1      32.194  21.751  23.041  1.00  0.00     0.015 C 
ATOM     11  C   UNL A   1      32.679  22.987  23.862  1.00  0.00     0.012 C 
ATOM     12  C   UNL A   1      34.225  23.006  23.672  1.00  0.00     0.015 C 
ATOM     13  C   UNL A   1      31.994  24.246  23.222  1.00  0.00     0.156 C 
ATOM     14  C   UNL A   1      32.270  22.732  25.356  1.00  0.00     0.191 C 
ATOM     15  C   UNL A   1      31.535  23.835  26.098  1.00  0.00     0.264 C 
ATOM     16  N   UNL A   1      31.047  24.923  25.437  1.00  0.00    -0.209 NA
ATOM     17  O   UNL A   1      31.308  23.708  27.300  1.00  0.00    -0.271 OA
BRANCH  13  18
ATOM     18  C   UNL A   1      32.941  25.100  22.470  1.00  0.00     0.073 C 
ATOM     19  N   UNL A   1      33.669  25.808  21.899  1.00  0.00    -0.198 NA
ENDBRANCH  13  18
BRANCH  14  20
ATOM     20  C   UNL A   1      33.401  22.329  26.219  1.00  0.00     0.076 C 
ATOM     21  N   UNL A   1      34.312  22.052  26.888  1.00  0.00    -0.197 NA
ENDBRANCH  14  20
ENDBRANCH   8   9
ENDBRANCH   7   8
ENDBRANCH   4   7
ENDBRANCH   2   3
ENDBRANCH   1   2
BRANCH   1  22
ATOM     22  C   UNL A   1      32.737  32.435  27.274  1.00  0.00     0.118 C 
BRANCH  22  23
ATOM     23  N   UNL A   1      32.493  33.837  27.582  1.00  0.00    -0.352 N 
ATOM     24  C   UNL A   1      33.066  34.648  28.531  1.00  0.00     0.251 C 
ATOM     25  H   UNL A   1      31.811  34.273  27.022  1.00  0.00     0.163 HD
ATOM     26  O   UNL A   1      32.579  35.756  28.745  1.00  0.00    -0.269 OA
BRANCH  24  27
ATOM     27  C   UNL A   1      34.240  34.194  29.306  1.00  0.00     0.039 A 
ATOM     28  C   UNL A   1      34.028  33.445  30.467  1.00  0.00     0.014 A 
ATOM     29  C   UNL A   1      35.542  34.514  28.913  1.00  0.00     0.014 A 
ATOM     30  C   UNL A   1      35.119  32.962  31.192  1.00  0.00     0.010 A 
ATOM     31  C   UNL A   1      36.629  33.964  29.591  1.00  0.00     0.010 A 
ATOM     32  C   UNL A   1      36.430  33.178  30.736  1.00  0.00    -0.014 A 
BRANCH  32  33
ATOM     33  C   UNL A   1      37.593  32.553  31.421  1.00  0.00     0.031 A 
ATOM     34  C   UNL A   1      38.334  31.405  30.792  1.00  0.00     0.074 A 
ATOM     35  C   UNL A   1      37.934  32.976  32.654  1.00  0.00     0.049 A 
ATOM     36  N   UNL A   1      39.338  30.715  31.268  1.00  0.00    -0.248 NA
ATOM     37  C   UNL A   1      37.875  30.957  29.466  1.00  0.00     0.031 C 
ATOM     38  C   UNL A   1      37.252  34.033  33.404  1.00  0.00     0.029 A 
ATOM     39  N   UNL A   1      38.924  32.553  33.508  1.00  0.00    -0.354 N 
ATOM     40  C   UNL A   1      39.613  29.736  30.321  1.00  0.00     0.074 A 
ATOM     41  C   UNL A   1      38.648  29.900  29.255  1.00  0.00     0.031 C 
ATOM     42  C   UNL A   1      37.846  34.182  34.597  1.00  0.00     0.029 A 
ATOM     43  C   UNL A   1      38.922  33.204  34.719  1.00  0.00     0.049 A 
ATOM     44  H   UNL A   1      39.573  31.850  33.274  1.00  0.00     0.167 HD
ATOM     45  C   UNL A   1      40.593  28.800  30.326  1.00  0.00     0.034 A 
ATOM     46  C   UNL A   1      39.685  33.024  35.814  1.00  0.00     0.034 A 
ATOM     47  C   UNL A   1      41.564  28.651  31.378  1.00  0.00     0.049 A 
ATOM     48  C   UNL A   1      40.769  31.982  35.791  1.00  0.00     0.074 A 
ATOM     49  C   UNL A   1      42.643  27.786  31.433  1.00  0.00     0.029 A 
ATOM     50  N   UNL A   1      41.565  29.366  32.564  1.00  0.00    -0.354 N 
ATOM     51  N   UNL A   1      41.107  31.166  34.823  1.00  0.00    -0.248 NA
ATOM     52  C   UNL A   1      41.596  31.855  36.999  1.00  0.00     0.031 C 
ATOM     53  C   UNL A   1      43.267  27.944  32.674  1.00  0.00     0.029 A 
ATOM     54  C   UNL A   1      42.611  28.945  33.370  1.00  0.00     0.049 A 
ATOM     55  H   UNL A   1      40.918  30.069  32.800  1.00  0.00     0.167 HD
ATOM     56  C   UNL A   1      42.207  30.456  35.290  1.00  0.00     0.074 A 
ATOM     57  C   UNL A   1      42.492  30.955  36.619  1.00  0.00     0.031 C 
ATOM     58  C   UNL A   1      42.911  29.472  34.677  1.00  0.00     0.034 A 
BRANCH  45  59
ATOM     59  C   UNL A   1      40.683  27.872  29.141  1.00  0.00     0.023 A 
ATOM     60  C   UNL A   1      39.849  26.737  29.072  1.00  0.00     0.012 A 
ATOM     61  C   UNL A   1      41.546  28.159  28.065  1.00  0.00     0.148 A 
ATOM     62  C   UNL A   1      39.899  25.883  27.971  1.00  0.00     0.002 A 
ATOM     63  C   UNL A   1      41.554  27.331  26.948  1.00  0.00     0.091 A 
ATOM     64  F   UNL A   1      42.345  29.232  28.155  1.00  0.00    -0.205 F 
ATOM     65  C   UNL A   1      40.742  26.186  26.905  1.00  0.00     0.022 A 
BRANCH  63  66
ATOM     66  S   UNL A   1      42.543  27.679  25.490  1.00  0.00     0.127 S 
ATOM     67  O   UNL A   1      42.274  26.503  24.664  1.00  0.00    -0.237 OA
ATOM     68  O   UNL A   1      41.941  28.920  25.001  1.00  0.00    -0.237 OA
ATOM     69  O   UNL A   1      43.916  27.811  25.956  1.00  0.00    -0.744 OA
ENDBRANCH  63  66
ENDBRANCH  45  59
BRANCH  46  70
ATOM     70  C   UNL A   1      39.470  33.873  37.020  1.00  0.00     0.023 A 
ATOM     71  C   UNL A   1      39.921  35.207  37.026  1.00  0.00     0.012 A 
ATOM     72  C   UNL A   1      38.805  33.367  38.153  1.00  0.00     0.148 A 
ATOM     73  C   UNL A   1      39.746  36.010  38.153  1.00  0.00     0.002 A 
ATOM     74  C   UNL A   1      38.579  34.191  39.249  1.00  0.00     0.091 A 
ATOM     75  F   UNL A   1      38.391  32.093  38.130  1.00  0.00    -0.205 F 
ATOM     76  C   UNL A   1      39.066  35.507  39.260  1.00  0.00     0.022 A 
BRANCH  74  77
ATOM     77  S   UNL A   1      37.595  33.667  40.656  1.00  0.00     0.127 S 
ATOM     78  O   UNL A   1      38.456  32.656  41.263  1.00  0.00    -0.237 OA
ATOM     79  O   UNL A   1      37.472  34.912  41.415  1.00  0.00    -0.237 OA
ATOM     80  O   UNL A   1      36.340  33.177  40.101  1.00  0.00    -0.744 OA
ENDBRANCH  74  77
ENDBRANCH  46  70
BRANCH  58  81
ATOM     81  C   UNL A   1      44.088  28.891  35.417  1.00  0.00     0.023 A 
ATOM     82  C   UNL A   1      45.370  29.454  35.264  1.00  0.00     0.012 A 
ATOM     83  C   UNL A   1      43.908  27.820  36.314  1.00  0.00     0.148 A 
ATOM     84  C   UNL A   1      46.462  28.935  35.960  1.00  0.00     0.002 A 
ATOM     85  C   UNL A   1      44.988  27.344  37.047  1.00  0.00     0.091 A 
ATOM     86  F   UNL A   1      42.684  27.287  36.436  1.00  0.00    -0.205 F 
ATOM     87  C   UNL A   1      46.269  27.889  36.860  1.00  0.00     0.022 A 
BRANCH  85  88
ATOM     88  S   UNL A   1      44.819  26.067  38.299  1.00  0.00     0.127 S 
ATOM     89  O   UNL A   1      46.051  26.238  39.067  1.00  0.00    -0.237 OA
ATOM     90  O   UNL A   1      43.602  26.481  38.998  1.00  0.00    -0.237 OA
ATOM     91  O   UNL A   1      44.704  24.807  37.578  1.00  0.00    -0.744 OA
ENDBRANCH  85  88
ENDBRANCH  58  81
ENDBRANCH  32  33
ENDBRANCH  24  27
ENDBRANCH  22  23
ENDBRANCH   1  22
TORSDOF 17
ENDMDL
MODEL 2
REMARK VINA RESULT:     -11.5      6.520     11.804
REMARK SMILES CC1(C)[C@H](C#N)C(SCC(=O)NCCCNC(=O)c2ccc(-c3c4nc(c(-c5cccc(S(=O)(=O)[O-])c5F)c5ccc([nH]5)c(-c5cccc(S(=O)(=O)[O-])c5F)c5nc(c(-c6cccc(S(=O)(=O)[O-])c6F)c6ccc3[nH]6)C=C5)C=C4)cc2)=NC(=O)[C@@H]1C#N
REMARK SMILES IDX 14 1 13 2 12 3 10 4 11 5 9 7 8 8 7 9 1 10 2 11 3 12 4 13
REMARK SMILES IDX 85 14 83 15 82 16 84 17 5 18 6 19 86 20 87 21 15 22 16 23
REMARK SMILES IDX 17 24 18 26 19 27 20 28 81 29 21 30 80 31 22 32 23 33 24 34
REMARK SMILES IDX 74 35 25 36 79 37 73 38 75 39 26 40 78 41 72 42 71 43 27 45
REMARK SMILES IDX 59 46 39 47 58 48 40 49 43 50 57 51 76 52 41 53 42 54 56 56
REMARK SMILES IDX 77 57 44 58 28 59 29 60 37 61 30 62 32 63 38 64 31 65 33 66
REMARK SMILES IDX 34 67 35 68 36 69 60 70 61 71 69 72 62 73 64 74 70 75 63 76
REMARK SMILES IDX 65 77 66 78 67 79 68 80 45 81 46 82 54 83 47 84 49 85 55 86
REMARK SMILES IDX 48 87 50 88 51 89 52 90 53 91
REMARK H PARENT 12 6 16 25 75 44 43 55
REMARK Flexibility Score: inf
ROOT
ATOM      1  C   UNL A   1      37.783  19.806  24.936  1.00  0.00     0.042 C 
ENDROOT
BRANCH   1   2
ATOM      2  C   UNL A   1      36.559  20.716  25.003  1.00  0.00     0.117 C 
BRANCH   2   3
ATOM      3  N   UNL A   1      35.323  19.955  25.004  1.00  0.00    -0.355 N 
ATOM      4  C   UNL A   1      34.055  20.325  24.665  1.00  0.00     0.230 C 
ATOM      5  O   UNL A   1      33.189  19.446  24.690  1.00  0.00    -0.274 OA
ATOM      6  H   UNL A   1      35.415  19.019  25.294  1.00  0.00     0.163 HD
BRANCH   4   7
ATOM      7  C   UNL A   1      33.747  21.717  24.150  1.00  0.00     0.176 C 
BRANCH   7   8
ATOM      8  S   UNL A   1      32.016  22.215  24.298  1.00  0.00    -0.099 SA
BRANCH   8   9
ATOM      9  C   UNL A   1      32.025  23.938  23.899  1.00  0.00     0.095 C 
ATOM     10  C   UNL A   1      29.547  26.675  23.929  1.00  0.00     0.015 C 
ATOM     11  C   UNL A   1      31.019  26.309  24.294  1.00  0.00     0.012 C 
ATOM     12  C   UNL A   1      31.356  27.202  25.525  1.00  0.00     0.015 C 
ATOM     13  C   UNL A   1      31.024  24.782  24.659  1.00  0.00     0.156 C 
ATOM     14  C   UNL A   1      31.902  26.666  23.045  1.00  0.00     0.191 C 
ATOM     15  C   UNL A   1      32.868  25.615  22.524  1.00  0.00     0.264 C 
ATOM     16  N   UNL A   1      32.819  24.330  22.976  1.00  0.00    -0.209 NA
ATOM     17  O   UNL A   1      33.653  25.910  21.624  1.00  0.00    -0.271 OA
BRANCH  13  18
ATOM     18  C   UNL A   1      31.213  24.534  26.106  1.00  0.00     0.073 C 
ATOM     19  N   UNL A   1      31.406  24.340  27.238  1.00  0.00    -0.198 NA
ENDBRANCH  13  18
BRANCH  14  20
ATOM     20  C   UNL A   1      32.685  27.909  23.211  1.00  0.00     0.076 C 
ATOM     21  N   UNL A   1      33.334  28.863  23.362  1.00  0.00    -0.197 NA
ENDBRANCH  14  20
ENDBRANCH   8   9
ENDBRANCH   7   8
ENDBRANCH   4   7
ENDBRANCH   2   3
ENDBRANCH   1   2
BRANCH   1  22
ATOM     22  C   UNL A   1      38.961  20.284  25.783  1.00  0.00     0.118 C 
BRANCH  22  23
ATOM     23  N   UNL A   1      40.005  19.278  25.914  1.00  0.00    -0.352 N 
ATOM     24  C   UNL A   1      41.356  19.423  26.113  1.00  0.00     0.251 C 
ATOM     25  H   UNL A   1      39.693  18.346  25.851  1.00  0.00     0.163 HD
ATOM     26  O   UNL A   1      42.086  18.440  26.009  1.00  0.00    -0.269 OA
BRANCH  24  27
ATOM     27  C   UNL A   1      41.937  20.746  26.428  1.00  0.00     0.039 A 
ATOM     28  C   UNL A   1      42.209  21.625  25.376  1.00  0.00     0.014 A 
ATOM     29  C   UNL A   1      42.234  21.118  27.741  1.00  0.00     0.014 A 
ATOM     30  C   UNL A   1      42.712  22.899  25.648  1.00  0.00     0.010 A 
ATOM     31  C   UNL A   1      42.659  22.417  28.017  1.00  0.00     0.010 A 
ATOM     32  C   UNL A   1      42.899  23.324  26.973  1.00  0.00    -0.014 A 
BRANCH  32  33
ATOM     33  C   UNL A   1      43.303  24.721  27.281  1.00  0.00     0.031 A 
ATOM     34  C   UNL A   1      42.326  25.692  27.886  1.00  0.00     0.074 A 
ATOM     35  C   UNL A   1      44.538  25.139  26.940  1.00  0.00     0.049 A 
ATOM     36  N   UNL A   1      42.495  26.956  28.176  1.00  0.00    -0.248 NA
ATOM     37  C   UNL A   1      40.976  25.185  28.185  1.00  0.00     0.031 C 
ATOM     38  C   UNL A   1      45.557  24.318  26.283  1.00  0.00     0.029 A 
ATOM     39  N   UNL A   1      45.141  26.366  27.075  1.00  0.00    -0.354 N 
ATOM     40  C   UNL A   1      41.272  27.404  28.661  1.00  0.00     0.074 A 
ATOM     41  C   UNL A   1      40.359  26.284  28.596  1.00  0.00     0.031 C 
ATOM     42  C   UNL A   1      46.658  25.057  26.080  1.00  0.00     0.029 A 
ATOM     43  C   UNL A   1      46.412  26.416  26.550  1.00  0.00     0.049 A 
ATOM     44  H   UNL A   1      44.705  27.137  27.506  1.00  0.00     0.167 HD
ATOM     45  C   UNL A   1      40.945  28.630  29.138  1.00  0.00     0.034 A 
ATOM     46  C   UNL A   1      47.277  27.443  26.440  1.00  0.00     0.034 A 
ATOM     47  C   UNL A   1      41.860  29.737  29.221  1.00  0.00     0.049 A 
ATOM     48  C   UNL A   1      46.890  28.790  26.983  1.00  0.00     0.074 A 
ATOM     49  C   UNL A   1      41.643  30.991  29.764  1.00  0.00     0.029 A 
ATOM     50  N   UNL A   1      43.156  29.734  28.731  1.00  0.00    -0.354 N 
ATOM     51  N   UNL A   1      45.778  29.153  27.574  1.00  0.00    -0.248 NA
ATOM     52  C   UNL A   1      47.888  29.864  26.871  1.00  0.00     0.031 C 
ATOM     53  C   UNL A   1      42.792  31.762  29.559  1.00  0.00     0.029 A 
ATOM     54  C   UNL A   1      43.744  30.971  28.937  1.00  0.00     0.049 A 
ATOM     55  H   UNL A   1      43.596  28.965  28.301  1.00  0.00     0.167 HD
ATOM     56  C   UNL A   1      45.956  30.483  27.937  1.00  0.00     0.074 A 
ATOM     57  C   UNL A   1      47.291  30.854  27.519  1.00  0.00     0.031 C 
ATOM     58  C   UNL A   1      45.087  31.323  28.551  1.00  0.00     0.034 A 
BRANCH  45  59
ATOM     59  C   UNL A   1      39.536  28.836  29.636  1.00  0.00     0.023 A 
ATOM     60  C   UNL A   1      39.194  28.464  30.952  1.00  0.00     0.012 A 
ATOM     61  C   UNL A   1      38.569  29.459  28.823  1.00  0.00     0.148 A 
ATOM     62  C   UNL A   1      37.905  28.674  31.439  1.00  0.00     0.002 A 
ATOM     63  C   UNL A   1      37.300  29.711  29.331  1.00  0.00     0.091 A 
ATOM     64  F   UNL A   1      38.906  29.790  27.568  1.00  0.00    -0.205 F 
ATOM     65  C   UNL A   1      36.962  29.306  30.633  1.00  0.00     0.022 A 
BRANCH  63  66
ATOM     66  S   UNL A   1      36.040  30.593  28.403  1.00  0.00     0.127 S 
ATOM     67  O   UNL A   1      35.014  30.801  29.423  1.00  0.00    -0.237 OA
ATOM     68  O   UNL A   1      36.752  31.805  27.997  1.00  0.00    -0.237 OA
ATOM     69  O   UNL A   1      35.658  29.714  27.306  1.00  0.00    -0.744 OA
ENDBRANCH  63  66
ENDBRANCH  45  59
BRANCH  46  70
ATOM     70  C   UNL A   1      48.612  27.228  25.813  1.00  0.00     0.023 A 
ATOM     71  C   UNL A   1      49.690  26.777  26.599  1.00  0.00     0.012 A 
ATOM     72  C   UNL A   1      48.811  27.452  24.437  1.00  0.00     0.148 A 
ATOM     73  C   UNL A   1      50.951  26.590  26.033  1.00  0.00     0.002 A 
ATOM     74  C   UNL A   1      50.054  27.204  23.868  1.00  0.00     0.091 A 
ATOM     75  F   UNL A   1      47.774  27.888  23.709  1.00  0.00    -0.205 F 
ATOM     76  C   UNL A   1      51.131  26.793  24.667  1.00  0.00     0.022 A 
BRANCH  74  77
ATOM     77  S   UNL A   1      50.335  27.307  22.098  1.00  0.00     0.127 S 
ATOM     78  O   UNL A   1      50.148  28.734  21.848  1.00  0.00    -0.237 OA
ATOM     79  O   UNL A   1      51.715  26.835  21.987  1.00  0.00    -0.237 OA
ATOM     80  O   UNL A   1      49.349  26.425  21.488  1.00  0.00    -0.744 OA
ENDBRANCH  74  77
ENDBRANCH  46  70
BRANCH  58  81
ATOM     81  C   UNL A   1      45.562  32.722  28.850  1.00  0.00     0.023 A 
ATOM     82  C   UNL A   1      46.248  32.998  30.049  1.00  0.00     0.012 A 
ATOM     83  C   UNL A   1      45.378  33.754  27.908  1.00  0.00     0.148 A 
ATOM     84  C   UNL A   1      46.708  34.285  30.325  1.00  0.00     0.002 A 
ATOM     85  C   UNL A   1      45.888  35.021  28.163  1.00  0.00     0.091 A 
ATOM     86  F   UNL A   1      44.710  33.476  26.779  1.00  0.00    -0.205 F 
ATOM     87  C   UNL A   1      46.539  35.293  29.378  1.00  0.00     0.022 A 
BRANCH  85  88
ATOM     88  S   UNL A   1      45.805  36.354  26.963  1.00  0.00     0.127 S 
ATOM     89  O   UNL A   1      44.365  36.590  26.880  1.00  0.00    -0.237 OA
ATOM     90  O   UNL A   1      46.560  37.416  27.631  1.00  0.00    -0.237 OA
ATOM     91  O   UNL A   1      46.424  35.844  25.748  1.00  0.00    -0.744 OA
ENDBRANCH  85  88
ENDBRANCH  58  81
ENDBRANCH  32  33
ENDBRANCH  24  27
ENDBRANCH  22  23
ENDBRANCH   1  22
TORSDOF 17
ENDMDL
MODEL 3
REMARK VINA RESULT:     -11.4      5.837      9.187
REMARK SMILES CC1(C)[C@H](C#N)C(SCC(=O)NCCCNC(=O)c2ccc(-c3c4nc(c(-c5cccc(S(=O)(=O)[O-])c5F)c5ccc([nH]5)c(-c5cccc(S(=O)(=O)[O-])c5F)c5nc(c(-c6cccc(S(=O)(=O)[O-])c6F)c6ccc3[nH]6)C=C5)C=C4)cc2)=NC(=O)[C@@H]1C#N
REMARK SMILES IDX 14 1 13 2 12 3 10 4 11 5 9 7 8 8 7 9 1 10 2 11 3 12 4 13
REMARK SMILES IDX 85 14 83 15 82 16 84 17 5 18 6 19 86 20 87 21 15 22 16 23
REMARK SMILES IDX 17 24 18 26 19 27 20 28 81 29 21 30 80 31 22 32 23 33 24 34
REMARK SMILES IDX 74 35 25 36 79 37 73 38 75 39 26 40 78 41 72 42 71 43 27 45
REMARK SMILES IDX 59 46 39 47 58 48 40 49 43 50 57 51 76 52 41 53 42 54 56 56
REMARK SMILES IDX 77 57 44 58 28 59 29 60 37 61 30 62 32 63 38 64 31 65 33 66
REMARK SMILES IDX 34 67 35 68 36 69 60 70 61 71 69 72 62 73 64 74 70 75 63 76
REMARK SMILES IDX 65 77 66 78 67 79 68 80 45 81 46 82 54 83 47 84 49 85 55 86
REMARK SMILES IDX 48 87 50 88 51 89 52 90 53 91
REMARK H PARENT 12 6 16 25 75 44 43 55
REMARK Flexibility Score: inf
ROOT
ATOM      1  C   UNL A   1      36.512  20.394  25.021  1.00  0.00     0.042 C 
ENDROOT
BRANCH   1   2
ATOM      2  C   UNL A   1      35.290  21.107  25.596  1.00  0.00     0.117 C 
BRANCH   2   3
ATOM      3  N   UNL A   1      34.096  20.285  25.504  1.00  0.00    -0.355 N 
ATOM      4  C   UNL A   1      32.797  20.634  25.282  1.00  0.00     0.230 C 
ATOM      5  O   UNL A   1      31.980  19.715  25.180  1.00  0.00    -0.274 OA
ATOM      6  H   UNL A   1      34.250  19.320  25.619  1.00  0.00     0.163 HD
BRANCH   4   7
ATOM      7  C   UNL A   1      32.393  22.074  25.035  1.00  0.00     0.176 C 
BRANCH   7   8
ATOM      8  S   UNL A   1      32.082  23.041  26.529  1.00  0.00    -0.099 SA
BRANCH   8   9
ATOM      9  C   UNL A   1      31.759  24.673  25.930  1.00  0.00     0.095 C 
ATOM     10  C   UNL A   1      32.817  28.089  26.850  1.00  0.00     0.015 C 
ATOM     11  C   UNL A   1      32.577  27.130  25.642  1.00  0.00     0.012 C 
ATOM     12  C   UNL A   1      33.609  27.583  24.567  1.00  0.00     0.015 C 
ATOM     13  C   UNL A   1      32.869  25.677  26.159  1.00  0.00     0.156 C 
ATOM     14  C   UNL A   1      31.096  27.351  25.171  1.00  0.00     0.191 C 
ATOM     15  C   UNL A   1      30.213  26.129  24.977  1.00  0.00     0.264 C 
ATOM     16  N   UNL A   1      30.612  24.899  25.408  1.00  0.00    -0.209 NA
ATOM     17  O   UNL A   1      29.089  26.265  24.497  1.00  0.00    -0.271 OA
BRANCH  13  18
ATOM     18  C   UNL A   1      34.124  25.111  25.616  1.00  0.00     0.073 C 
ATOM     19  N   UNL A   1      35.092  24.664  25.149  1.00  0.00    -0.198 NA
ENDBRANCH  13  18
BRANCH  14  20
ATOM     20  C   UNL A   1      30.982  28.149  23.931  1.00  0.00     0.076 C 
ATOM     21  N   UNL A   1      30.928  28.754  22.939  1.00  0.00    -0.197 NA
ENDBRANCH  14  20
ENDBRANCH   8   9
ENDBRANCH   7   8
ENDBRANCH   4   7
ENDBRANCH   2   3
ENDBRANCH   1   2
BRANCH   1  22
ATOM     22  C   UNL A   1      37.834  21.110  25.292  1.00  0.00     0.118 C 
BRANCH  22  23
ATOM     23  N   UNL A   1      38.850  20.225  25.842  1.00  0.00    -0.352 N 
ATOM     24  C   UNL A   1      40.042  20.517  26.458  1.00  0.00     0.251 C 
ATOM     25  H   UNL A   1      38.652  19.264  25.759  1.00  0.00     0.163 HD
ATOM     26  O   UNL A   1      40.840  19.610  26.682  1.00  0.00    -0.269 OA
BRANCH  24  27
ATOM     27  C   UNL A   1      40.379  21.908  26.832  1.00  0.00     0.039 A 
ATOM     28  C   UNL A   1      41.279  22.120  27.880  1.00  0.00     0.014 A 
ATOM     29  C   UNL A   1      39.803  23.000  26.178  1.00  0.00     0.014 A 
ATOM     30  C   UNL A   1      41.654  23.421  28.222  1.00  0.00     0.010 A 
ATOM     31  C   UNL A   1      40.238  24.292  26.466  1.00  0.00     0.010 A 
ATOM     32  C   UNL A   1      41.171  24.517  27.489  1.00  0.00    -0.014 A 
BRANCH  32  33
ATOM     33  C   UNL A   1      41.667  25.894  27.754  1.00  0.00     0.031 A 
ATOM     34  C   UNL A   1      43.068  26.296  27.383  1.00  0.00     0.074 A 
ATOM     35  C   UNL A   1      40.870  26.766  28.404  1.00  0.00     0.049 A 
ATOM     36  N   UNL A   1      43.677  27.436  27.581  1.00  0.00    -0.248 NA
ATOM     37  C   UNL A   1      43.904  25.278  26.723  1.00  0.00     0.031 C 
ATOM     38  C   UNL A   1      39.515  26.479  28.882  1.00  0.00     0.029 A 
ATOM     39  N   UNL A   1      41.091  28.063  28.800  1.00  0.00    -0.354 N 
ATOM     40  C   UNL A   1      44.970  27.268  27.101  1.00  0.00     0.074 A 
ATOM     41  C   UNL A   1      45.069  25.903  26.631  1.00  0.00     0.031 C 
ATOM     42  C   UNL A   1      39.024  27.566  29.496  1.00  0.00     0.029 A 
ATOM     43  C   UNL A   1      40.040  28.612  29.497  1.00  0.00     0.049 A 
ATOM     44  H   UNL A   1      41.923  28.552  28.603  1.00  0.00     0.167 HD
ATOM     45  C   UNL A   1      45.976  28.173  27.037  1.00  0.00     0.034 A 
ATOM     46  C   UNL A   1      39.913  29.816  30.090  1.00  0.00     0.034 A 
ATOM     47  C   UNL A   1      45.870  29.536  27.488  1.00  0.00     0.049 A 
ATOM     48  C   UNL A   1      41.043  30.802  29.999  1.00  0.00     0.074 A 
ATOM     49  C   UNL A   1      46.809  30.548  27.389  1.00  0.00     0.029 A 
ATOM     50  N   UNL A   1      44.771  30.073  28.138  1.00  0.00    -0.354 N 
ATOM     51  N   UNL A   1      42.206  30.672  29.408  1.00  0.00    -0.248 NA
ATOM     52  C   UNL A   1      40.835  32.113  30.629  1.00  0.00     0.031 C 
ATOM     53  C   UNL A   1      46.295  31.684  28.024  1.00  0.00     0.029 A 
ATOM     54  C   UNL A   1      45.016  31.396  28.469  1.00  0.00     0.049 A 
ATOM     55  H   UNL A   1      43.938  29.587  28.335  1.00  0.00     0.167 HD
ATOM     56  C   UNL A   1      42.851  31.893  29.563  1.00  0.00     0.074 A 
ATOM     57  C   UNL A   1      41.940  32.757  30.284  1.00  0.00     0.031 C 
ATOM     58  C   UNL A   1      44.090  32.262  29.154  1.00  0.00     0.034 A 
BRANCH  45  59
ATOM     59  C   UNL A   1      47.284  27.727  26.433  1.00  0.00     0.023 A 
ATOM     60  C   UNL A   1      48.288  27.177  27.257  1.00  0.00     0.012 A 
ATOM     61  C   UNL A   1      47.494  27.790  25.041  1.00  0.00     0.148 A 
ATOM     62  C   UNL A   1      49.492  26.733  26.712  1.00  0.00     0.002 A 
ATOM     63  C   UNL A   1      48.676  27.299  24.499  1.00  0.00     0.091 A 
ATOM     64  F   UNL A   1      46.536  28.332  24.275  1.00  0.00    -0.205 F 
ATOM     65  C   UNL A   1      49.681  26.784  25.333  1.00  0.00     0.022 A 
BRANCH  63  66
ATOM     66  S   UNL A   1      48.982  27.243  22.730  1.00  0.00     0.127 S 
ATOM     67  O   UNL A   1      50.443  27.284  22.683  1.00  0.00    -0.237 OA
ATOM     68  O   UNL A   1      48.395  25.956  22.358  1.00  0.00    -0.237 OA
ATOM     69  O   UNL A   1      48.309  28.405  22.167  1.00  0.00    -0.744 OA
ENDBRANCH  63  66
ENDBRANCH  45  59
BRANCH  46  70
ATOM     70  C   UNL A   1      38.650  30.166  30.800  1.00  0.00     0.023 A 
ATOM     71  C   UNL A   1      38.459  29.750  32.132  1.00  0.00     0.012 A 
ATOM     72  C   UNL A   1      37.649  30.926  30.166  1.00  0.00     0.148 A 
ATOM     73  C   UNL A   1      37.275  30.052  32.806  1.00  0.00     0.002 A 
ATOM     74  C   UNL A   1      36.499  31.276  30.864  1.00  0.00     0.091 A 
ATOM     75  F   UNL A   1      37.848  31.305  28.896  1.00  0.00    -0.205 F 
ATOM     76  C   UNL A   1      36.300  30.823  32.176  1.00  0.00     0.022 A 
BRANCH  74  77
ATOM     77  S   UNL A   1      35.260  32.379  30.177  1.00  0.00     0.127 S 
ATOM     78  O   UNL A   1      34.313  32.490  31.283  1.00  0.00    -0.237 OA
ATOM     79  O   UNL A   1      36.046  33.584  29.912  1.00  0.00    -0.237 OA
ATOM     80  O   UNL A   1      34.758  31.716  28.981  1.00  0.00    -0.744 OA
ENDBRANCH  74  77
ENDBRANCH  46  70
BRANCH  58  81
ATOM     81  C   UNL A   1      44.528  33.676  29.438  1.00  0.00     0.023 A 
ATOM     82  C   UNL A   1      45.118  34.001  30.675  1.00  0.00     0.012 A 
ATOM     83  C   UNL A   1      44.407  34.672  28.449  1.00  0.00     0.148 A 
ATOM     84  C   UNL A   1      45.544  35.303  30.938  1.00  0.00     0.002 A 
ATOM     85  C   UNL A   1      44.884  35.953  28.696  1.00  0.00     0.091 A 
ATOM     86  F   UNL A   1      43.829  34.347  27.283  1.00  0.00    -0.205 F 
ATOM     87  C   UNL A   1      45.438  36.275  29.946  1.00  0.00     0.022 A 
BRANCH  85  88
ATOM     88  S   UNL A   1      44.881  37.243  27.447  1.00  0.00     0.127 S 
ATOM     89  O   UNL A   1      45.386  38.389  28.201  1.00  0.00    -0.237 OA
ATOM     90  O   UNL A   1      45.811  36.710  26.452  1.00  0.00    -0.237 OA
ATOM     91  O   UNL A   1      43.503  37.358  26.988  1.00  0.00    -0.744 OA
ENDBRANCH  85  88
ENDBRANCH  58  81
ENDBRANCH  32  33
ENDBRANCH  24  27
ENDBRANCH  22  23
ENDBRANCH   1  22
TORSDOF 17
ENDMDL
