MODEL 1
REMARK VINA RESULT:     -11.9      0.000      0.000
REMARK SMILES C[C@@H]1CCC[C@H]1NC(=O)c1csc(/C=C/C(=O)NCCCNC(=O)c2ccc(-c3c4nc(c(-c5cccc(S(=O)(=O)[O-])c5F)c5ccc([nH]5)c(-c5cccc(S(=O)(=O)[O-])c5F)c5nc(c(-c6cccc(S(=O)(=O)[O-])c6F)c6ccc3[nH]6)C=C5)C=C4)cc2)c1
REMARK SMILES IDX 20 1 19 2 18 3 16 4 17 5 15 7 14 8 13 9 10 10 11 11 88 12
REMARK SMILES IDX 12 13 8 14 7 15 9 17 6 18 1 19 2 20 3 21 4 22 5 23 21 24
REMARK SMILES IDX 22 25 23 26 24 28 25 29 26 30 87 31 27 32 86 33 28 34 29 35
REMARK SMILES IDX 30 36 80 37 31 38 85 39 79 40 81 41 32 42 84 43 78 44 77 45
REMARK SMILES IDX 33 47 65 48 45 49 64 50 46 51 49 52 63 53 82 54 47 55 48 56
REMARK SMILES IDX 62 58 83 59 50 60 34 61 35 62 43 63 36 64 38 65 44 66 37 67
REMARK SMILES IDX 39 68 40 69 41 70 42 71 66 72 67 73 75 74 68 75 70 76 76 77
REMARK SMILES IDX 69 78 71 79 72 80 73 81 74 82 51 83 52 84 60 85 53 86 55 87
REMARK SMILES IDX 61 88 54 89 56 90 57 91 58 92 59 93
REMARK H PARENT 18 6 7 16 22 27 81 46 49 57
REMARK Flexibility Score: inf
ROOT
ATOM      1  C   UNL A   1      33.815  28.692  24.592  1.00  0.00     0.042 C 
ENDROOT
BRANCH   1   2
ATOM      2  C   UNL A   1      32.806  27.635  24.148  1.00  0.00     0.118 C 
BRANCH   2   3
ATOM      3  N   UNL A   1      33.005  27.255  22.757  1.00  0.00    -0.352 N 
ATOM      4  C   UNL A   1      33.281  26.046  22.198  1.00  0.00     0.244 C 
ATOM      5  O   UNL A   1      33.278  25.925  20.976  1.00  0.00    -0.270 OA
ATOM      6  H   UNL A   1      32.928  27.997  22.114  1.00  0.00     0.163 HD
BRANCH   4   7
ATOM      7  C   UNL A   1      33.471  24.850  23.044  1.00  0.00     0.072 C 
ATOM      8  C   UNL A   1      34.669  24.432  23.475  1.00  0.00     0.024 C 
BRANCH   8   9
ATOM      9  C   UNL A   1      34.841  23.318  24.346  1.00  0.00     0.028 A 
ATOM     10  C   UNL A   1      35.423  21.154  25.094  1.00  0.00     0.051 A 
ATOM     11  C   UNL A   1      34.853  21.701  26.226  1.00  0.00     0.079 A 
ATOM     12  C   UNL A   1      35.447  22.114  24.031  1.00  0.00     0.033 A 
ATOM     13  S   UNL A   1      34.277  23.287  25.971  1.00  0.00    -0.144 S 
BRANCH  10  14
ATOM     14  C   UNL A   1      35.985  19.815  25.000  1.00  0.00     0.252 C 
ATOM     15  N   UNL A   1      35.162  18.765  24.684  1.00  0.00    -0.349 N 
ATOM     16  H   UNL A   1      35.589  17.878  24.702  1.00  0.00     0.164 HD
ATOM     17  O   UNL A   1      37.184  19.609  25.163  1.00  0.00    -0.269 OA
BRANCH  15  18
ATOM     18  C   UNL A   1      33.746  18.766  24.324  1.00  0.00     0.085 C 
ATOM     19  C   UNL A   1      32.166  18.055  22.475  1.00  0.00     0.010 C 
ATOM     20  C   UNL A   1      33.441  17.712  23.249  1.00  0.00     0.008 C 
ATOM     21  C   UNL A   1      33.283  16.424  24.056  1.00  0.00     0.005 C 
ATOM     22  C   UNL A   1      32.644  16.846  25.374  1.00  0.00     0.002 C 
ATOM     23  C   UNL A   1      32.903  18.345  25.529  1.00  0.00     0.025 C 
ENDBRANCH  15  18
ENDBRANCH  10  14
ENDBRANCH   8   9
ENDBRANCH   4   7
ENDBRANCH   2   3
ENDBRANCH   1   2
BRANCH   1  24
ATOM     24  C   UNL A   1      33.953  28.803  26.109  1.00  0.00     0.118 C 
BRANCH  24  25
ATOM     25  N   UNL A   1      33.762  30.171  26.577  1.00  0.00    -0.352 N 
ATOM     26  C   UNL A   1      34.429  30.874  27.548  1.00  0.00     0.251 C 
ATOM     27  H   UNL A   1      33.042  30.667  26.125  1.00  0.00     0.163 HD
ATOM     28  O   UNL A   1      33.965  31.943  27.938  1.00  0.00    -0.269 OA
BRANCH  26  29
ATOM     29  C   UNL A   1      35.688  30.359  28.130  1.00  0.00     0.039 A 
ATOM     30  C   UNL A   1      35.641  29.704  29.365  1.00  0.00     0.014 A 
ATOM     31  C   UNL A   1      36.916  30.560  27.495  1.00  0.00     0.014 A 
ATOM     32  C   UNL A   1      36.816  29.208  29.936  1.00  0.00     0.010 A 
ATOM     33  C   UNL A   1      38.076  30.003  28.029  1.00  0.00     0.010 A 
ATOM     34  C   UNL A   1      38.040  29.329  29.259  1.00  0.00    -0.014 A 
BRANCH  34  35
ATOM     35  C   UNL A   1      39.290  28.748  29.815  1.00  0.00     0.031 A 
ATOM     36  C   UNL A   1      39.934  29.347  31.036  1.00  0.00     0.074 A 
ATOM     37  C   UNL A   1      39.895  27.735  29.162  1.00  0.00     0.049 A 
ATOM     38  N   UNL A   1      41.055  29.017  31.623  1.00  0.00    -0.248 NA
ATOM     39  C   UNL A   1      39.242  30.485  31.664  1.00  0.00     0.031 C 
ATOM     40  C   UNL A   1      39.414  27.121  27.923  1.00  0.00     0.029 A 
ATOM     41  N   UNL A   1      41.062  27.065  29.432  1.00  0.00    -0.354 N 
ATOM     42  C   UNL A   1      41.224  29.926  32.662  1.00  0.00     0.074 A 
ATOM     43  C   UNL A   1      40.104  30.841  32.607  1.00  0.00     0.031 C 
ATOM     44  C   UNL A   1      40.276  26.167  27.540  1.00  0.00     0.029 A 
ATOM     45  C   UNL A   1      41.385  26.119  28.488  1.00  0.00     0.049 A 
ATOM     46  H   UNL A   1      41.615  27.244  30.228  1.00  0.00     0.167 HD
ATOM     47  C   UNL A   1      42.206  29.978  33.594  1.00  0.00     0.034 A 
ATOM     48  C   UNL A   1      42.458  25.309  28.389  1.00  0.00     0.034 A 
ATOM     49  C   UNL A   1      43.290  29.037  33.673  1.00  0.00     0.049 A 
ATOM     50  C   UNL A   1      43.509  25.354  29.465  1.00  0.00     0.074 A 
ATOM     51  C   UNL A   1      44.281  28.946  34.635  1.00  0.00     0.029 A 
ATOM     52  N   UNL A   1      43.534  28.030  32.751  1.00  0.00    -0.354 N 
ATOM     53  N   UNL A   1      43.563  26.112  30.533  1.00  0.00    -0.248 NA
ATOM     54  C   UNL A   1      44.626  24.407  29.343  1.00  0.00     0.031 C 
ATOM     55  C   UNL A   1      45.137  27.896  34.282  1.00  0.00     0.029 A 
ATOM     56  C   UNL A   1      44.664  27.318  33.116  1.00  0.00     0.049 A 
ATOM     57  H   UNL A   1      42.984  27.848  31.956  1.00  0.00     0.167 HD
ATOM     58  C   UNL A   1      44.698  25.712  31.228  1.00  0.00     0.074 A 
ATOM     59  C   UNL A   1      45.289  24.628  30.471  1.00  0.00     0.031 C 
ATOM     60  C   UNL A   1      45.213  26.207  32.381  1.00  0.00     0.034 A 
BRANCH  47  61
ATOM     61  C   UNL A   1      42.123  31.059  34.641  1.00  0.00     0.023 A 
ATOM     62  C   UNL A   1      41.504  30.784  35.877  1.00  0.00     0.012 A 
ATOM     63  C   UNL A   1      42.709  32.323  34.429  1.00  0.00     0.148 A 
ATOM     64  C   UNL A   1      41.436  31.758  36.873  1.00  0.00     0.002 A 
ATOM     65  C   UNL A   1      42.677  33.274  35.443  1.00  0.00     0.091 A 
ATOM     66  F   UNL A   1      43.276  32.574  33.241  1.00  0.00    -0.205 F 
ATOM     67  C   UNL A   1      42.032  32.998  36.659  1.00  0.00     0.022 A 
BRANCH  65  68
ATOM     68  S   UNL A   1      43.485  34.873  35.297  1.00  0.00     0.127 S 
ATOM     69  O   UNL A   1      42.730  35.485  34.204  1.00  0.00    -0.237 OA
ATOM     70  O   UNL A   1      43.238  35.464  36.613  1.00  0.00    -0.237 OA
ATOM     71  O   UNL A   1      44.884  34.592  35.011  1.00  0.00    -0.744 OA
ENDBRANCH  65  68
ENDBRANCH  47  61
BRANCH  48  72
ATOM     72  C   UNL A   1      42.554  24.338  27.263  1.00  0.00     0.023 A 
ATOM     73  C   UNL A   1      43.256  24.701  26.096  1.00  0.00     0.012 A 
ATOM     74  C   UNL A   1      41.989  23.051  27.351  1.00  0.00     0.148 A 
ATOM     75  C   UNL A   1      43.366  23.812  25.027  1.00  0.00     0.002 A 
ATOM     76  C   UNL A   1      42.150  22.150  26.305  1.00  0.00     0.091 A 
ATOM     77  F   UNL A   1      41.316  22.729  28.465  1.00  0.00    -0.205 F 
ATOM     78  C   UNL A   1      42.823  22.533  25.134  1.00  0.00     0.022 A 
BRANCH  76  79
ATOM     79  S   UNL A   1      41.602  20.442  26.412  1.00  0.00     0.127 S 
ATOM     80  O   UNL A   1      40.179  20.565  26.106  1.00  0.00    -0.237 OA
ATOM     81  O   UNL A   1      42.403  19.800  25.369  1.00  0.00    -0.237 OA
ATOM     82  O   UNL A   1      41.925  20.011  27.765  1.00  0.00    -0.744 OA
ENDBRANCH  76  79
ENDBRANCH  48  72
BRANCH  60  83
ATOM     83  C   UNL A   1      46.463  25.563  32.920  1.00  0.00     0.023 A 
ATOM     84  C   UNL A   1      47.725  26.090  32.582  1.00  0.00     0.012 A 
ATOM     85  C   UNL A   1      46.383  24.482  33.822  1.00  0.00     0.148 A 
ATOM     86  C   UNL A   1      48.890  25.533  33.108  1.00  0.00     0.002 A 
ATOM     87  C   UNL A   1      47.546  23.963  34.379  1.00  0.00     0.091 A 
ATOM     88  F   UNL A   1      45.174  23.981  34.115  1.00  0.00    -0.205 F 
ATOM     89  C   UNL A   1      48.800  24.479  34.013  1.00  0.00     0.022 A 
BRANCH  87  90
ATOM     90  S   UNL A   1      47.521  22.671  35.626  1.00  0.00     0.127 S 
ATOM     91  O   UNL A   1      48.943  22.520  35.928  1.00  0.00    -0.237 OA
ATOM     92  O   UNL A   1      46.732  23.284  36.695  1.00  0.00    -0.237 OA
ATOM     93  O   UNL A   1      46.889  21.519  34.997  1.00  0.00    -0.744 OA
ENDBRANCH  87  90
ENDBRANCH  60  83
ENDBRANCH  34  35
ENDBRANCH  26  29
ENDBRANCH  24  25
ENDBRANCH   1  24
TORSDOF 16
ENDMDL
MODEL 2
REMARK VINA RESULT:     -11.9      1.594      1.969
REMARK SMILES C[C@@H]1CCC[C@H]1NC(=O)c1csc(/C=C/C(=O)NCCCNC(=O)c2ccc(-c3c4nc(c(-c5cccc(S(=O)(=O)[O-])c5F)c5ccc([nH]5)c(-c5cccc(S(=O)(=O)[O-])c5F)c5nc(c(-c6cccc(S(=O)(=O)[O-])c6F)c6ccc3[nH]6)C=C5)C=C4)cc2)c1
REMARK SMILES IDX 20 1 19 2 18 3 16 4 17 5 15 7 14 8 13 9 10 10 11 11 88 12
REMARK SMILES IDX 12 13 8 14 7 15 9 17 6 18 1 19 2 20 3 21 4 22 5 23 21 24
REMARK SMILES IDX 22 25 23 26 24 28 25 29 26 30 87 31 27 32 86 33 28 34 29 35
REMARK SMILES IDX 30 36 80 37 31 38 85 39 79 40 81 41 32 42 84 43 78 44 77 45
REMARK SMILES IDX 33 47 65 48 45 49 64 50 46 51 49 52 63 53 82 54 47 55 48 56
REMARK SMILES IDX 62 58 83 59 50 60 34 61 35 62 43 63 36 64 38 65 44 66 37 67
REMARK SMILES IDX 39 68 40 69 41 70 42 71 66 72 67 73 75 74 68 75 70 76 76 77
REMARK SMILES IDX 69 78 71 79 72 80 73 81 74 82 51 83 52 84 60 85 53 86 55 87
REMARK SMILES IDX 61 88 54 89 56 90 57 91 58 92 59 93
REMARK H PARENT 18 6 7 16 22 27 81 46 49 57
REMARK Flexibility Score: inf
ROOT
ATOM      1  C   UNL A   1      32.921  27.741  26.725  1.00  0.00     0.042 C 
ENDROOT
BRANCH   1   2
ATOM      2  C   UNL A   1      31.669  27.786  25.852  1.00  0.00     0.118 C 
BRANCH   2   3
ATOM      3  N   UNL A   1      30.653  26.856  26.323  1.00  0.00    -0.352 N 
ATOM      4  C   UNL A   1      30.558  25.506  26.192  1.00  0.00     0.244 C 
ATOM      5  O   UNL A   1      29.673  24.897  26.789  1.00  0.00    -0.270 OA
ATOM      6  H   UNL A   1      29.913  27.274  26.819  1.00  0.00     0.163 HD
BRANCH   4   7
ATOM      7  C   UNL A   1      31.572  24.748  25.431  1.00  0.00     0.072 C 
ATOM      8  C   UNL A   1      32.607  24.117  26.002  1.00  0.00     0.024 C 
BRANCH   8   9
ATOM      9  C   UNL A   1      33.543  23.331  25.271  1.00  0.00     0.028 A 
ATOM     10  C   UNL A   1      35.062  21.596  24.757  1.00  0.00     0.051 A 
ATOM     11  C   UNL A   1      35.141  22.386  23.628  1.00  0.00     0.079 A 
ATOM     12  C   UNL A   1      34.103  22.132  25.677  1.00  0.00     0.033 A 
ATOM     13  S   UNL A   1      34.163  23.780  23.731  1.00  0.00    -0.144 S 
BRANCH  10  14
ATOM     14  C   UNL A   1      35.792  20.354  24.967  1.00  0.00     0.252 C 
ATOM     15  N   UNL A   1      35.135  19.160  24.825  1.00  0.00    -0.349 N 
ATOM     16  H   UNL A   1      35.666  18.361  25.046  1.00  0.00     0.164 HD
ATOM     17  O   UNL A   1      36.990  20.352  25.236  1.00  0.00    -0.269 OA
BRANCH  15  18
ATOM     18  C   UNL A   1      33.765  18.895  24.393  1.00  0.00     0.085 C 
ATOM     19  C   UNL A   1      32.446  17.732  22.569  1.00  0.00     0.010 C 
ATOM     20  C   UNL A   1      33.699  17.687  23.447  1.00  0.00     0.008 C 
ATOM     21  C   UNL A   1      33.679  16.494  24.402  1.00  0.00     0.005 C 
ATOM     22  C   UNL A   1      32.890  16.963  25.620  1.00  0.00     0.002 C 
ATOM     23  C   UNL A   1      32.910  18.492  25.596  1.00  0.00     0.025 C 
ENDBRANCH  15  18
ENDBRANCH  10  14
ENDBRANCH   8   9
ENDBRANCH   4   7
ENDBRANCH   2   3
ENDBRANCH   1   2
BRANCH   1  24
ATOM     24  C   UNL A   1      34.041  28.655  26.231  1.00  0.00     0.118 C 
BRANCH  24  25
ATOM     25  N   UNL A   1      33.853  30.034  26.665  1.00  0.00    -0.352 N 
ATOM     26  C   UNL A   1      34.559  30.778  27.576  1.00  0.00     0.251 C 
ATOM     27  H   UNL A   1      33.102  30.505  26.236  1.00  0.00     0.163 HD
ATOM     28  O   UNL A   1      34.099  31.853  27.955  1.00  0.00    -0.269 OA
BRANCH  26  29
ATOM     29  C   UNL A   1      35.856  30.301  28.105  1.00  0.00     0.039 A 
ATOM     30  C   UNL A   1      35.884  29.681  29.358  1.00  0.00     0.014 A 
ATOM     31  C   UNL A   1      37.045  30.504  27.401  1.00  0.00     0.014 A 
ATOM     32  C   UNL A   1      37.096  29.222  29.881  1.00  0.00     0.010 A 
ATOM     33  C   UNL A   1      38.241  29.982  27.890  1.00  0.00     0.010 A 
ATOM     34  C   UNL A   1      38.281  29.343  29.138  1.00  0.00    -0.014 A 
BRANCH  34  35
ATOM     35  C   UNL A   1      39.568  28.800  29.643  1.00  0.00     0.031 A 
ATOM     36  C   UNL A   1      40.302  29.488  30.763  1.00  0.00     0.074 A 
ATOM     37  C   UNL A   1      40.122  27.734  29.029  1.00  0.00     0.049 A 
ATOM     38  N   UNL A   1      41.463  29.198  31.289  1.00  0.00    -0.248 NA
ATOM     39  C   UNL A   1      39.659  30.677  31.349  1.00  0.00     0.031 C 
ATOM     40  C   UNL A   1      39.549  27.028  27.882  1.00  0.00     0.029 A 
ATOM     41  N   UNL A   1      41.306  27.080  29.265  1.00  0.00    -0.354 N 
ATOM     42  C   UNL A   1      41.709  30.184  32.238  1.00  0.00     0.074 A 
ATOM     43  C   UNL A   1      40.589  31.100  32.194  1.00  0.00     0.031 C 
ATOM     44  C   UNL A   1      40.380  26.041  27.513  1.00  0.00     0.029 A 
ATOM     45  C   UNL A   1      41.556  26.060  28.376  1.00  0.00     0.049 A 
ATOM     46  H   UNL A   1      41.916  27.317  30.000  1.00  0.00     0.167 HD
ATOM     47  C   UNL A   1      42.758  30.303  33.087  1.00  0.00     0.034 A 
ATOM     48  C   UNL A   1      42.619  25.238  28.262  1.00  0.00     0.034 A 
ATOM     49  C   UNL A   1      43.845  29.364  33.160  1.00  0.00     0.049 A 
ATOM     50  C   UNL A   1      43.746  25.360  29.251  1.00  0.00     0.074 A 
ATOM     51  C   UNL A   1      44.904  29.341  34.050  1.00  0.00     0.029 A 
ATOM     52  N   UNL A   1      44.018  28.286  32.305  1.00  0.00    -0.354 N 
ATOM     53  N   UNL A   1      43.880  26.200  30.249  1.00  0.00    -0.248 NA
ATOM     54  C   UNL A   1      44.851  24.399  29.122  1.00  0.00     0.031 C 
ATOM     55  C   UNL A   1      45.731  28.262  33.719  1.00  0.00     0.029 A 
ATOM     56  C   UNL A   1      45.172  27.597  32.640  1.00  0.00     0.049 A 
ATOM     57  H   UNL A   1      43.410  28.045  31.569  1.00  0.00     0.167 HD
ATOM     58  C   UNL A   1      45.064  25.848  30.887  1.00  0.00     0.074 A 
ATOM     59  C   UNL A   1      45.596  24.703  30.176  1.00  0.00     0.031 C 
ATOM     60  C   UNL A   1      45.663  26.428  31.956  1.00  0.00     0.034 A 
BRANCH  47  61
ATOM     61  C   UNL A   1      42.754  31.463  34.049  1.00  0.00     0.023 A 
ATOM     62  C   UNL A   1      43.364  32.678  33.676  1.00  0.00     0.012 A 
ATOM     63  C   UNL A   1      42.097  31.375  35.292  1.00  0.00     0.148 A 
ATOM     64  C   UNL A   1      43.353  33.775  34.536  1.00  0.00     0.002 A 
ATOM     65  C   UNL A   1      42.051  32.487  36.127  1.00  0.00     0.091 A 
ATOM     66  F   UNL A   1      41.539  30.207  35.640  1.00  0.00    -0.205 F 
ATOM     67  C   UNL A   1      42.687  33.683  35.756  1.00  0.00     0.022 A 
BRANCH  65  68
ATOM     68  S   UNL A   1      41.151  32.495  37.682  1.00  0.00     0.127 S 
ATOM     69  O   UNL A   1      41.988  31.628  38.510  1.00  0.00    -0.237 OA
ATOM     70  O   UNL A   1      41.186  33.911  38.052  1.00  0.00    -0.237 OA
ATOM     71  O   UNL A   1      39.823  31.980  37.381  1.00  0.00    -0.744 OA
ENDBRANCH  65  68
ENDBRANCH  47  61
BRANCH  48  72
ATOM     72  C   UNL A   1      42.630  24.181  27.212  1.00  0.00     0.023 A 
ATOM     73  C   UNL A   1      43.307  24.419  26.000  1.00  0.00     0.012 A 
ATOM     74  C   UNL A   1      42.008  22.934  27.417  1.00  0.00     0.148 A 
ATOM     75  C   UNL A   1      43.338  23.447  24.999  1.00  0.00     0.002 A 
ATOM     76  C   UNL A   1      42.091  21.949  26.439  1.00  0.00     0.091 A 
ATOM     77  F   UNL A   1      41.360  22.730  28.573  1.00  0.00    -0.205 F 
ATOM     78  C   UNL A   1      42.740  22.209  25.222  1.00  0.00     0.022 A 
BRANCH  76  79
ATOM     79  S   UNL A   1      41.467  20.284  26.695  1.00  0.00     0.127 S 
ATOM     80  O   UNL A   1      42.206  19.868  27.885  1.00  0.00    -0.237 OA
ATOM     81  O   UNL A   1      40.039  20.524  26.909  1.00  0.00    -0.237 OA
ATOM     82  O   UNL A   1      41.776  19.557  25.471  1.00  0.00    -0.744 OA
ENDBRANCH  76  79
ENDBRANCH  48  72
BRANCH  60  83
ATOM     83  C   UNL A   1      46.950  25.820  32.450  1.00  0.00     0.023 A 
ATOM     84  C   UNL A   1      48.177  26.232  31.897  1.00  0.00     0.012 A 
ATOM     85  C   UNL A   1      46.945  24.896  33.515  1.00  0.00     0.148 A 
ATOM     86  C   UNL A   1      49.380  25.711  32.373  1.00  0.00     0.002 A 
ATOM     87  C   UNL A   1      48.150  24.418  34.017  1.00  0.00     0.091 A 
ATOM     88  F   UNL A   1      45.765  24.501  34.015  1.00  0.00    -0.205 F 
ATOM     89  C   UNL A   1      49.367  24.815  33.439  1.00  0.00     0.022 A 
BRANCH  87  90
ATOM     90  S   UNL A   1      48.234  23.336  35.448  1.00  0.00     0.127 S 
ATOM     91  O   UNL A   1      47.826  22.055  34.878  1.00  0.00    -0.237 OA
ATOM     92  O   UNL A   1      49.648  23.418  35.817  1.00  0.00    -0.237 OA
ATOM     93  O   UNL A   1      47.321  23.902  36.432  1.00  0.00    -0.744 OA
ENDBRANCH  87  90
ENDBRANCH  60  83
ENDBRANCH  34  35
ENDBRANCH  26  29
ENDBRANCH  24  25
ENDBRANCH   1  24
TORSDOF 16
ENDMDL
MODEL 3
REMARK VINA RESULT:     -11.8      3.929      8.786
REMARK SMILES C[C@@H]1CCC[C@H]1NC(=O)c1csc(/C=C/C(=O)NCCCNC(=O)c2ccc(-c3c4nc(c(-c5cccc(S(=O)(=O)[O-])c5F)c5ccc([nH]5)c(-c5cccc(S(=O)(=O)[O-])c5F)c5nc(c(-c6cccc(S(=O)(=O)[O-])c6F)c6ccc3[nH]6)C=C5)C=C4)cc2)c1
REMARK SMILES IDX 20 1 19 2 18 3 16 4 17 5 15 7 14 8 13 9 10 10 11 11 88 12
REMARK SMILES IDX 12 13 8 14 7 15 9 17 6 18 1 19 2 20 3 21 4 22 5 23 21 24
REMARK SMILES IDX 22 25 23 26 24 28 25 29 26 30 87 31 27 32 86 33 28 34 29 35
REMARK SMILES IDX 30 36 80 37 31 38 85 39 79 40 81 41 32 42 84 43 78 44 77 45
REMARK SMILES IDX 33 47 65 48 45 49 64 50 46 51 49 52 63 53 82 54 47 55 48 56
REMARK SMILES IDX 62 58 83 59 50 60 34 61 35 62 43 63 36 64 38 65 44 66 37 67
REMARK SMILES IDX 39 68 40 69 41 70 42 71 66 72 67 73 75 74 68 75 70 76 76 77
REMARK SMILES IDX 69 78 71 79 72 80 73 81 74 82 51 83 52 84 60 85 53 86 55 87
REMARK SMILES IDX 61 88 54 89 56 90 57 91 58 92 59 93
REMARK H PARENT 18 6 7 16 22 27 81 46 49 57
REMARK Flexibility Score: inf
ROOT
ATOM      1  C   UNL A   1      31.556  32.255  26.826  1.00  0.00     0.042 C 
ENDROOT
BRANCH   1   2
ATOM      2  C   UNL A   1      31.674  30.733  26.783  1.00  0.00     0.118 C 
BRANCH   2   3
ATOM      3  N   UNL A   1      33.019  30.291  27.123  1.00  0.00    -0.352 N 
ATOM      4  C   UNL A   1      33.577  29.050  27.106  1.00  0.00     0.244 C 
ATOM      5  O   UNL A   1      34.782  28.921  27.306  1.00  0.00    -0.270 OA
ATOM      6  H   UNL A   1      33.626  31.010  27.413  1.00  0.00     0.163 HD
BRANCH   4   7
ATOM      7  C   UNL A   1      32.772  27.867  26.737  1.00  0.00     0.072 C 
ATOM      8  C   UNL A   1      32.739  27.352  25.500  1.00  0.00     0.024 C 
BRANCH   8   9
ATOM      9  C   UNL A   1      32.016  26.171  25.166  1.00  0.00     0.028 A 
ATOM     10  C   UNL A   1      31.076  24.012  25.366  1.00  0.00     0.051 A 
ATOM     11  C   UNL A   1      30.720  24.359  24.079  1.00  0.00     0.079 A 
ATOM     12  C   UNL A   1      31.787  25.086  25.996  1.00  0.00     0.033 A 
ATOM     13  S   UNL A   1      31.317  25.890  23.620  1.00  0.00    -0.144 S 
BRANCH  10  14
ATOM     14  C   UNL A   1      30.728  22.763  26.028  1.00  0.00     0.252 C 
ATOM     15  N   UNL A   1      31.486  21.646  25.788  1.00  0.00    -0.349 N 
ATOM     16  H   UNL A   1      31.158  20.820  26.212  1.00  0.00     0.164 HD
ATOM     17  O   UNL A   1      29.793  22.696  26.821  1.00  0.00    -0.269 OA
BRANCH  15  18
ATOM     18  C   UNL A   1      32.705  21.499  24.998  1.00  0.00     0.085 C 
ATOM     19  C   UNL A   1      35.056  20.562  25.129  1.00  0.00     0.010 C 
ATOM     20  C   UNL A   1      33.596  20.374  25.547  1.00  0.00     0.008 C 
ATOM     21  C   UNL A   1      32.988  19.114  24.932  1.00  0.00     0.005 C 
ATOM     22  C   UNL A   1      32.497  19.533  23.550  1.00  0.00     0.002 C 
ATOM     23  C   UNL A   1      32.353  21.055  23.577  1.00  0.00     0.025 C 
ENDBRANCH  15  18
ENDBRANCH  10  14
ENDBRANCH   8   9
ENDBRANCH   4   7
ENDBRANCH   2   3
ENDBRANCH   1   2
BRANCH   1  24
ATOM     24  C   UNL A   1      32.852  32.956  27.226  1.00  0.00     0.118 C 
BRANCH  24  25
ATOM     25  N   UNL A   1      32.611  34.295  27.749  1.00  0.00    -0.352 N 
ATOM     26  C   UNL A   1      33.147  34.926  28.843  1.00  0.00     0.251 C 
ATOM     27  H   UNL A   1      31.963  34.830  27.237  1.00  0.00     0.163 HD
ATOM     28  O   UNL A   1      32.643  35.978  29.234  1.00  0.00    -0.269 OA
BRANCH  26  29
ATOM     29  C   UNL A   1      34.312  34.356  29.555  1.00  0.00     0.039 A 
ATOM     30  C   UNL A   1      34.094  33.632  30.731  1.00  0.00     0.014 A 
ATOM     31  C   UNL A   1      35.615  34.571  29.101  1.00  0.00     0.014 A 
ATOM     32  C   UNL A   1      35.177  33.083  31.422  1.00  0.00     0.010 A 
ATOM     33  C   UNL A   1      36.688  33.964  29.750  1.00  0.00     0.010 A 
ATOM     34  C   UNL A   1      36.482  33.221  30.922  1.00  0.00    -0.014 A 
BRANCH  34  35
ATOM     35  C   UNL A   1      37.641  32.587  31.603  1.00  0.00     0.031 A 
ATOM     36  C   UNL A   1      38.375  31.444  30.955  1.00  0.00     0.074 A 
ATOM     37  C   UNL A   1      37.973  32.982  32.849  1.00  0.00     0.049 A 
ATOM     38  N   UNL A   1      39.364  30.728  31.424  1.00  0.00    -0.248 NA
ATOM     39  C   UNL A   1      37.922  31.033  29.616  1.00  0.00     0.031 C 
ATOM     40  C   UNL A   1      37.287  34.024  33.615  1.00  0.00     0.029 A 
ATOM     41  N   UNL A   1      38.951  32.533  33.700  1.00  0.00    -0.354 N 
ATOM     42  C   UNL A   1      39.625  29.760  30.461  1.00  0.00     0.074 A 
ATOM     43  C   UNL A   1      38.671  29.962  29.392  1.00  0.00     0.031 C 
ATOM     44  C   UNL A   1      37.863  34.134  34.822  1.00  0.00     0.029 A 
ATOM     45  C   UNL A   1      38.940  33.154  34.928  1.00  0.00     0.049 A 
ATOM     46  H   UNL A   1      39.600  31.834  33.456  1.00  0.00     0.167 HD
ATOM     47  C   UNL A   1      40.588  28.808  30.452  1.00  0.00     0.034 A 
ATOM     48  C   UNL A   1      39.703  32.952  36.020  1.00  0.00     0.034 A 
ATOM     49  C   UNL A   1      41.565  28.642  31.495  1.00  0.00     0.049 A 
ATOM     50  C   UNL A   1      40.798  31.921  35.965  1.00  0.00     0.074 A 
ATOM     51  C   UNL A   1      42.640  27.771  31.537  1.00  0.00     0.029 A 
ATOM     52  N   UNL A   1      41.581  29.354  32.685  1.00  0.00    -0.354 N 
ATOM     53  N   UNL A   1      41.135  31.128  34.977  1.00  0.00    -0.248 NA
ATOM     54  C   UNL A   1      41.642  31.784  37.160  1.00  0.00     0.031 C 
ATOM     55  C   UNL A   1      43.294  27.942  32.762  1.00  0.00     0.029 A 
ATOM     56  C   UNL A   1      42.642  28.937  33.472  1.00  0.00     0.049 A 
ATOM     57  H   UNL A   1      40.935  30.053  32.933  1.00  0.00     0.167 HD
ATOM     58  C   UNL A   1      42.249  30.423  35.417  1.00  0.00     0.074 A 
ATOM     59  C   UNL A   1      42.544  30.900  36.752  1.00  0.00     0.031 C 
ATOM     60  C   UNL A   1      42.955  29.457  34.778  1.00  0.00     0.034 A 
BRANCH  47  61
ATOM     61  C   UNL A   1      40.671  27.903  29.250  1.00  0.00     0.023 A 
ATOM     62  C   UNL A   1      39.820  26.782  29.163  1.00  0.00     0.012 A 
ATOM     63  C   UNL A   1      41.540  28.192  28.180  1.00  0.00     0.148 A 
ATOM     64  C   UNL A   1      39.857  25.943  28.050  1.00  0.00     0.002 A 
ATOM     65  C   UNL A   1      41.541  27.377  27.053  1.00  0.00     0.091 A 
ATOM     66  F   UNL A   1      42.356  29.251  28.287  1.00  0.00    -0.205 F 
ATOM     67  C   UNL A   1      40.710  26.247  26.992  1.00  0.00     0.022 A 
BRANCH  65  68
ATOM     68  S   UNL A   1      42.543  27.728  25.604  1.00  0.00     0.127 S 
ATOM     69  O   UNL A   1      41.934  28.965  25.118  1.00  0.00    -0.237 OA
ATOM     70  O   UNL A   1      43.877  27.892  26.183  1.00  0.00    -0.237 OA
ATOM     71  O   UNL A   1      42.400  26.574  24.728  1.00  0.00    -0.744 OA
ENDBRANCH  65  68
ENDBRANCH  47  61
BRANCH  48  72
ATOM     72  C   UNL A   1      39.501  33.792  37.233  1.00  0.00     0.023 A 
ATOM     73  C   UNL A   1      39.988  35.114  37.247  1.00  0.00     0.012 A 
ATOM     74  C   UNL A   1      38.802  33.308  38.356  1.00  0.00     0.148 A 
ATOM     75  C   UNL A   1      39.810  35.927  38.367  1.00  0.00     0.002 A 
ATOM     76  C   UNL A   1      38.579  34.140  39.447  1.00  0.00     0.091 A 
ATOM     77  F   UNL A   1      38.355  32.044  38.328  1.00  0.00    -0.205 F 
ATOM     78  C   UNL A   1      39.098  35.444  39.462  1.00  0.00     0.022 A 
BRANCH  76  79
ATOM     79  S   UNL A   1      37.558  33.649  40.841  1.00  0.00     0.127 S 
ATOM     80  O   UNL A   1      36.378  33.108  40.170  1.00  0.00    -0.237 OA
ATOM     81  O   UNL A   1      38.403  32.652  41.499  1.00  0.00    -0.237 OA
ATOM     82  O   UNL A   1      37.346  34.862  41.619  1.00  0.00    -0.744 OA
ENDBRANCH  76  79
ENDBRANCH  48  72
BRANCH  60  83
ATOM     83  C   UNL A   1      44.140  28.868  35.498  1.00  0.00     0.023 A 
ATOM     84  C   UNL A   1      45.423  29.415  35.302  1.00  0.00     0.012 A 
ATOM     85  C   UNL A   1      43.968  27.821  36.427  1.00  0.00     0.148 A 
ATOM     86  C   UNL A   1      46.523  28.911  35.995  1.00  0.00     0.002 A 
ATOM     87  C   UNL A   1      45.061  27.356  37.149  1.00  0.00     0.091 A 
ATOM     88  F   UNL A   1      42.743  27.300  36.585  1.00  0.00    -0.205 F 
ATOM     89  C   UNL A   1      46.340  27.890  36.925  1.00  0.00     0.022 A 
BRANCH  87  90
ATOM     90  S   UNL A   1      44.904  26.112  38.436  1.00  0.00     0.127 S 
ATOM     91  O   UNL A   1      46.298  25.902  38.818  1.00  0.00    -0.237 OA
ATOM     92  O   UNL A   1      44.093  26.802  39.438  1.00  0.00    -0.237 OA
ATOM     93  O   UNL A   1      44.248  24.971  37.812  1.00  0.00    -0.744 OA
ENDBRANCH  87  90
ENDBRANCH  60  83
ENDBRANCH  34  35
ENDBRANCH  26  29
ENDBRANCH  24  25
ENDBRANCH   1  24
TORSDOF 16
ENDMDL
