MODEL 1
REMARK VINA RESULT:     -14.3      0.000      0.000
REMARK SMILES O=C(NCCCNC(=O)c1ccc(-c2c3nc(c(-c4cccc(S(=O)(=O)[O-])c4F)c4ccc([nH]4)c(-c4cccc(S(=O)(=O)[O-])c4F)c4nc(c(-c5cccc(S(=O)(=O)[O-])c5F)c5ccc2[nH]5)C=C4)C=C3)cc1)C1=Cc2cc(Cl)cc(-c3ccc(CO)cc3)c2O[C@@H]1C(F)(F)F
REMARK SMILES IDX 5 1 4 2 3 3 1 4 2 5 73 7 74 8 91 9 75 10 90 11 76 12 89 13
REMARK SMILES IDX 77 14 80 15 78 16 79 17 92 18 93 19 94 20 95 21 81 22 82 23
REMARK SMILES IDX 88 24 83 25 87 26 84 27 85 28 86 29 6 31 7 32 8 33 9 35
REMARK SMILES IDX 10 36 11 37 72 38 12 39 71 40 13 41 14 42 15 43 65 44 16 45
REMARK SMILES IDX 70 46 64 47 66 48 17 49 69 50 63 51 62 52 18 54 50 55 30 56
REMARK SMILES IDX 49 57 31 58 34 59 48 60 67 61 32 62 33 63 47 65 68 66 35 67
REMARK SMILES IDX 19 68 20 69 28 70 21 71 23 72 29 73 22 74 24 75 25 76 26 77
REMARK SMILES IDX 27 78 51 79 52 80 60 81 53 82 55 83 61 84 54 85 56 86 57 87
REMARK SMILES IDX 58 88 59 89 36 90 37 91 45 92 38 93 40 94 46 95 39 96 41 97
REMARK SMILES IDX 42 98 43 99 44 100
REMARK H PARENT 3 6 86 30 7 34 66 53 34 64
REMARK Flexibility Score: inf
ROOT
ATOM      1  C   UNL A   1      31.895  28.043  26.739  1.00  0.00     0.042 C 
ENDROOT
BRANCH   1   2
ATOM      2  C   UNL A   1      31.990  26.704  26.004  1.00  0.00     0.118 C 
BRANCH   2   3
ATOM      3  N   UNL A   1      31.497  25.579  26.807  1.00  0.00    -0.352 N 
ATOM      4  O   UNL A   1      31.486  23.457  27.623  1.00  0.00    -0.270 OA
ATOM      5  C   UNL A   1      31.815  24.247  26.747  1.00  0.00     0.251 C 
ATOM      6  H   UNL A   1      30.835  25.817  27.496  1.00  0.00     0.163 HD
BRANCH   5   7
ATOM      7  C   UNL A   1      32.646  23.820  25.615  1.00  0.00     0.067 C 
ATOM      8  C   UNL A   1      33.965  24.028  25.695  1.00  0.00     0.025 C 
ATOM      9  C   UNL A   1      32.034  22.885  24.625  1.00  0.00     0.314 C 
ATOM     10  C   UNL A   1      34.783  22.942  25.146  1.00  0.00     0.019 A 
ATOM     11  O   UNL A   1      32.792  21.654  24.533  1.00  0.00    -0.475 OA
ATOM     12  C   UNL A   1      36.158  22.974  25.389  1.00  0.00     0.032 A 
ATOM     13  C   UNL A   1      34.146  21.735  24.777  1.00  0.00     0.135 A 
ATOM     14  C   UNL A   1      36.880  21.789  25.365  1.00  0.00     0.042 A 
ATOM     15  C   UNL A   1      34.860  20.528  24.824  1.00  0.00     0.026 A 
ATOM     16  Cl  UNL A   1      38.542  21.799  25.806  1.00  0.00    -0.084 Cl
ATOM     17  C   UNL A   1      36.238  20.577  25.114  1.00  0.00     0.033 A 
BRANCH   9  18
ATOM     18  C   UNL A   1      31.835  23.553  23.253  1.00  0.00     0.429 C 
ATOM     19  F   UNL A   1      32.384  24.794  23.227  1.00  0.00    -0.167 F 
ATOM     20  F   UNL A   1      32.432  22.850  22.259  1.00  0.00    -0.167 F 
ATOM     21  F   UNL A   1      30.531  23.688  22.917  1.00  0.00    -0.167 F 
ENDBRANCH   9  18
BRANCH  15  22
ATOM     22  C   UNL A   1      34.198  19.213  24.814  1.00  0.00    -0.015 A 
ATOM     23  C   UNL A   1      33.007  19.043  25.538  1.00  0.00     0.009 A 
ATOM     24  C   UNL A   1      34.760  18.091  24.202  1.00  0.00     0.009 A 
ATOM     25  C   UNL A   1      32.449  17.785  25.747  1.00  0.00     0.007 A 
ATOM     26  C   UNL A   1      34.194  16.823  24.395  1.00  0.00     0.007 A 
ATOM     27  C   UNL A   1      33.055  16.657  25.196  1.00  0.00    -0.023 A 
BRANCH  27  28
ATOM     28  C   UNL A   1      32.547  15.291  25.561  1.00  0.00     0.191 C 
BRANCH  28  29
ATOM     29  O   UNL A   1      33.578  14.325  25.389  1.00  0.00    -0.392 OA
ATOM     30  H   UNL A   1      33.325  13.500  25.831  1.00  0.00     0.211 HD
ENDBRANCH  28  29
ENDBRANCH  27  28
ENDBRANCH  15  22
ENDBRANCH   5   7
ENDBRANCH   2   3
ENDBRANCH   1   2
BRANCH   1  31
ATOM     31  C   UNL A   1      32.677  29.151  26.038  1.00  0.00     0.118 C 
BRANCH  31  32
ATOM     32  N   UNL A   1      32.484  30.481  26.586  1.00  0.00    -0.352 N 
ATOM     33  C   UNL A   1      33.373  31.303  27.254  1.00  0.00     0.251 C 
ATOM     34  H   UNL A   1      31.581  30.856  26.465  1.00  0.00     0.163 HD
ATOM     35  O   UNL A   1      32.990  32.410  27.628  1.00  0.00    -0.269 OA
BRANCH  33  36
ATOM     36  C   UNL A   1      34.739  30.845  27.620  1.00  0.00     0.039 A 
ATOM     37  C   UNL A   1      35.683  31.820  27.967  1.00  0.00     0.014 A 
ATOM     38  C   UNL A   1      35.090  29.501  27.712  1.00  0.00     0.014 A 
ATOM     39  C   UNL A   1      36.907  31.446  28.528  1.00  0.00     0.010 A 
ATOM     40  C   UNL A   1      36.252  29.129  28.377  1.00  0.00     0.010 A 
ATOM     41  C   UNL A   1      37.163  30.097  28.811  1.00  0.00    -0.014 A 
BRANCH  41  42
ATOM     42  C   UNL A   1      38.337  29.679  29.616  1.00  0.00     0.031 A 
ATOM     43  C   UNL A   1      38.521  30.189  31.018  1.00  0.00     0.074 A 
ATOM     44  C   UNL A   1      39.305  28.952  29.019  1.00  0.00     0.049 A 
ATOM     45  N   UNL A   1      39.520  29.999  31.840  1.00  0.00    -0.248 NA
ATOM     46  C   UNL A   1      37.470  31.073  31.551  1.00  0.00     0.031 C 
ATOM     47  C   UNL A   1      39.301  28.525  27.617  1.00  0.00     0.029 A 
ATOM     48  N   UNL A   1      40.490  28.463  29.505  1.00  0.00    -0.354 N 
ATOM     49  C   UNL A   1      39.246  30.780  32.956  1.00  0.00     0.074 A 
ATOM     50  C   UNL A   1      38.009  31.481  32.690  1.00  0.00     0.031 C 
ATOM     51  C   UNL A   1      40.411  27.814  27.365  1.00  0.00     0.029 A 
ATOM     52  C   UNL A   1      41.215  27.750  28.579  1.00  0.00     0.049 A 
ATOM     53  H   UNL A   1      40.794  28.609  30.431  1.00  0.00     0.167 HD
ATOM     54  C   UNL A   1      39.940  30.874  34.116  1.00  0.00     0.034 A 
ATOM     55  C   UNL A   1      42.388  27.098  28.704  1.00  0.00     0.034 A 
ATOM     56  C   UNL A   1      41.121  30.104  34.395  1.00  0.00     0.049 A 
ATOM     57  C   UNL A   1      43.050  27.079  30.053  1.00  0.00     0.074 A 
ATOM     58  C   UNL A   1      41.851  30.031  35.566  1.00  0.00     0.029 A 
ATOM     59  N   UNL A   1      41.733  29.252  33.486  1.00  0.00    -0.354 N 
ATOM     60  N   UNL A   1      42.685  27.689  31.156  1.00  0.00    -0.248 NA
ATOM     61  C   UNL A   1      44.248  26.243  30.195  1.00  0.00     0.031 C 
ATOM     62  C   UNL A   1      42.901  29.127  35.369  1.00  0.00     0.029 A 
ATOM     63  C   UNL A   1      42.821  28.633  34.075  1.00  0.00     0.049 A 
ATOM     64  H   UNL A   1      41.437  29.109  32.559  1.00  0.00     0.167 HD
ATOM     65  C   UNL A   1      43.590  27.289  32.130  1.00  0.00     0.074 A 
ATOM     66  C   UNL A   1      44.502  26.360  31.492  1.00  0.00     0.031 C 
ATOM     67  C   UNL A   1      43.674  27.668  33.429  1.00  0.00     0.034 A 
BRANCH  54  68
ATOM     68  C   UNL A   1      39.385  31.780  35.185  1.00  0.00     0.023 A 
ATOM     69  C   UNL A   1      38.361  31.304  36.031  1.00  0.00     0.012 A 
ATOM     70  C   UNL A   1      39.872  33.089  35.365  1.00  0.00     0.148 A 
ATOM     71  C   UNL A   1      37.795  32.129  37.001  1.00  0.00     0.002 A 
ATOM     72  C   UNL A   1      39.332  33.892  36.365  1.00  0.00     0.091 A 
ATOM     73  F   UNL A   1      40.829  33.537  34.540  1.00  0.00    -0.205 F 
ATOM     74  C   UNL A   1      38.286  33.420  37.174  1.00  0.00     0.022 A 
BRANCH  72  75
ATOM     75  S   UNL A   1      39.943  35.546  36.712  1.00  0.00     0.127 S 
ATOM     76  O   UNL A   1      39.240  35.866  37.954  1.00  0.00    -0.237 OA
ATOM     77  O   UNL A   1      41.381  35.318  36.868  1.00  0.00    -0.237 OA
ATOM     78  O   UNL A   1      39.581  36.354  35.557  1.00  0.00    -0.744 OA
ENDBRANCH  72  75
ENDBRANCH  54  68
BRANCH  55  79
ATOM     79  C   UNL A   1      42.922  26.306  27.560  1.00  0.00     0.023 A 
ATOM     80  C   UNL A   1      43.745  26.947  26.611  1.00  0.00     0.012 A 
ATOM     81  C   UNL A   1      42.681  24.925  27.431  1.00  0.00     0.148 A 
ATOM     82  C   UNL A   1      44.292  26.237  25.542  1.00  0.00     0.002 A 
ATOM     83  C   UNL A   1      43.269  24.211  26.392  1.00  0.00     0.091 A 
ATOM     84  F   UNL A   1      41.891  24.331  28.338  1.00  0.00    -0.205 F 
ATOM     85  C   UNL A   1      44.062  24.868  25.438  1.00  0.00     0.022 A 
BRANCH  83  86
ATOM     86  S   UNL A   1      43.137  22.423  26.261  1.00  0.00     0.127 S 
ATOM     87  O   UNL A   1      42.890  22.038  27.648  1.00  0.00    -0.237 OA
ATOM     88  O   UNL A   1      41.991  22.265  25.364  1.00  0.00    -0.237 OA
ATOM     89  O   UNL A   1      44.404  21.984  25.691  1.00  0.00    -0.744 OA
ENDBRANCH  83  86
ENDBRANCH  55  79
BRANCH  67  90
ATOM     90  C   UNL A   1      44.776  27.059  34.253  1.00  0.00     0.023 A 
ATOM     91  C   UNL A   1      45.985  27.762  34.425  1.00  0.00     0.012 A 
ATOM     92  C   UNL A   1      44.588  25.828  34.908  1.00  0.00     0.148 A 
ATOM     93  C   UNL A   1      47.004  27.231  35.213  1.00  0.00     0.002 A 
ATOM     94  C   UNL A   1      45.591  25.327  35.728  1.00  0.00     0.091 A 
ATOM     95  F   UNL A   1      43.441  25.162  34.711  1.00  0.00    -0.205 F 
ATOM     96  C   UNL A   1      46.803  26.021  35.874  1.00  0.00     0.022 A 
BRANCH  94  97
ATOM     97  S   UNL A   1      45.361  23.823  36.683  1.00  0.00     0.127 S 
ATOM     98  O   UNL A   1      44.387  23.098  35.871  1.00  0.00    -0.237 OA
ATOM     99  O   UNL A   1      46.705  23.240  36.686  1.00  0.00    -0.237 OA
ATOM    100  O   UNL A   1      44.899  24.263  37.993  1.00  0.00    -0.744 OA
ENDBRANCH  94  97
ENDBRANCH  67  90
ENDBRANCH  41  42
ENDBRANCH  33  36
ENDBRANCH  31  32
ENDBRANCH   1  31
TORSDOF 17
ENDMDL
MODEL 2
REMARK VINA RESULT:     -13.7      1.230      7.651
REMARK SMILES O=C(NCCCNC(=O)c1ccc(-c2c3nc(c(-c4cccc(S(=O)(=O)[O-])c4F)c4ccc([nH]4)c(-c4cccc(S(=O)(=O)[O-])c4F)c4nc(c(-c5cccc(S(=O)(=O)[O-])c5F)c5ccc2[nH]5)C=C4)C=C3)cc1)C1=Cc2cc(Cl)cc(-c3ccc(CO)cc3)c2O[C@@H]1C(F)(F)F
REMARK SMILES IDX 5 1 4 2 3 3 1 4 2 5 73 7 74 8 91 9 75 10 90 11 76 12 89 13
REMARK SMILES IDX 77 14 80 15 78 16 79 17 92 18 93 19 94 20 95 21 81 22 82 23
REMARK SMILES IDX 88 24 83 25 87 26 84 27 85 28 86 29 6 31 7 32 8 33 9 35
REMARK SMILES IDX 10 36 11 37 72 38 12 39 71 40 13 41 14 42 15 43 65 44 16 45
REMARK SMILES IDX 70 46 64 47 66 48 17 49 69 50 63 51 62 52 18 54 50 55 30 56
REMARK SMILES IDX 49 57 31 58 34 59 48 60 67 61 32 62 33 63 47 65 68 66 35 67
REMARK SMILES IDX 19 68 20 69 28 70 21 71 23 72 29 73 22 74 24 75 25 76 26 77
REMARK SMILES IDX 27 78 51 79 52 80 60 81 53 82 55 83 61 84 54 85 56 86 57 87
REMARK SMILES IDX 58 88 59 89 36 90 37 91 45 92 38 93 40 94 46 95 39 96 41 97
REMARK SMILES IDX 42 98 43 99 44 100
REMARK H PARENT 3 6 86 30 7 34 66 53 34 64
REMARK Flexibility Score: inf
ROOT
ATOM      1  C   UNL A   1      32.218  27.795  27.011  1.00  0.00     0.042 C 
ENDROOT
BRANCH   1   2
ATOM      2  C   UNL A   1      31.872  26.603  26.117  1.00  0.00     0.118 C 
BRANCH   2   3
ATOM      3  N   UNL A   1      31.343  25.461  26.872  1.00  0.00    -0.352 N 
ATOM      4  O   UNL A   1      31.274  23.312  27.611  1.00  0.00    -0.270 OA
ATOM      5  C   UNL A   1      31.631  24.125  26.767  1.00  0.00     0.251 C 
ATOM      6  H   UNL A   1      30.679  25.690  27.562  1.00  0.00     0.163 HD
BRANCH   5   7
ATOM      7  C   UNL A   1      32.465  23.720  25.629  1.00  0.00     0.067 C 
ATOM      8  C   UNL A   1      33.783  23.933  25.713  1.00  0.00     0.025 C 
ATOM      9  C   UNL A   1      31.858  22.798  24.624  1.00  0.00     0.314 C 
ATOM     10  C   UNL A   1      34.606  22.861  25.148  1.00  0.00     0.019 A 
ATOM     11  O   UNL A   1      32.623  21.572  24.514  1.00  0.00    -0.475 OA
ATOM     12  C   UNL A   1      35.981  22.896  25.392  1.00  0.00     0.032 A 
ATOM     13  C   UNL A   1      33.976  21.656  24.760  1.00  0.00     0.135 A 
ATOM     14  C   UNL A   1      36.709  21.715  25.350  1.00  0.00     0.042 A 
ATOM     15  C   UNL A   1      34.696  20.452  24.789  1.00  0.00     0.026 A 
ATOM     16  Cl  UNL A   1      38.371  21.727  25.793  1.00  0.00    -0.084 Cl
ATOM     17  C   UNL A   1      36.074  20.504  25.081  1.00  0.00     0.033 A 
BRANCH   9  18
ATOM     18  C   UNL A   1      31.657  23.485  23.263  1.00  0.00     0.429 C 
ATOM     19  F   UNL A   1      30.342  23.539  22.930  1.00  0.00    -0.167 F 
ATOM     20  F   UNL A   1      32.101  24.765  23.274  1.00  0.00    -0.167 F 
ATOM     21  F   UNL A   1      32.295  22.850  22.252  1.00  0.00    -0.167 F 
ENDBRANCH   9  18
BRANCH  15  22
ATOM     22  C   UNL A   1      34.041  19.134  24.758  1.00  0.00    -0.015 A 
ATOM     23  C   UNL A   1      32.983  18.877  25.645  1.00  0.00     0.009 A 
ATOM     24  C   UNL A   1      34.497  18.084  23.958  1.00  0.00     0.009 A 
ATOM     25  C   UNL A   1      32.466  17.597  25.818  1.00  0.00     0.007 A 
ATOM     26  C   UNL A   1      33.969  16.796  24.116  1.00  0.00     0.007 A 
ATOM     27  C   UNL A   1      32.974  16.536  25.070  1.00  0.00    -0.023 A 
BRANCH  27  28
ATOM     28  C   UNL A   1      32.532  15.133  25.378  1.00  0.00     0.191 C 
BRANCH  28  29
ATOM     29  O   UNL A   1      33.661  14.270  25.448  1.00  0.00    -0.392 OA
ATOM     30  H   UNL A   1      33.929  14.014  24.551  1.00  0.00     0.211 HD
ENDBRANCH  28  29
ENDBRANCH  27  28
ENDBRANCH  15  22
ENDBRANCH   5   7
ENDBRANCH   2   3
ENDBRANCH   1   2
BRANCH   1  31
ATOM     31  C   UNL A   1      32.870  28.937  26.234  1.00  0.00     0.118 C 
BRANCH  31  32
ATOM     32  N   UNL A   1      32.544  30.270  26.711  1.00  0.00    -0.352 N 
ATOM     33  C   UNL A   1      33.358  31.232  27.279  1.00  0.00     0.251 C 
ATOM     34  H   UNL A   1      31.598  30.527  26.615  1.00  0.00     0.163 HD
ATOM     35  O   UNL A   1      32.862  32.309  27.606  1.00  0.00    -0.269 OA
BRANCH  33  36
ATOM     36  C   UNL A   1      34.784  30.961  27.600  1.00  0.00     0.039 A 
ATOM     37  C   UNL A   1      35.621  32.061  27.831  1.00  0.00     0.014 A 
ATOM     38  C   UNL A   1      35.296  29.677  27.760  1.00  0.00     0.014 A 
ATOM     39  C   UNL A   1      36.905  31.871  28.348  1.00  0.00     0.010 A 
ATOM     40  C   UNL A   1      36.523  29.489  28.383  1.00  0.00     0.010 A 
ATOM     41  C   UNL A   1      37.333  30.584  28.703  1.00  0.00    -0.014 A 
BRANCH  41  42
ATOM     42  C   UNL A   1      38.584  30.363  29.468  1.00  0.00     0.031 A 
ATOM     43  C   UNL A   1      39.694  29.529  28.891  1.00  0.00     0.074 A 
ATOM     44  C   UNL A   1      38.648  30.801  30.743  1.00  0.00     0.049 A 
ATOM     45  N   UNL A   1      40.821  29.162  29.443  1.00  0.00    -0.248 NA
ATOM     46  C   UNL A   1      39.491  28.993  27.534  1.00  0.00     0.031 C 
ATOM     47  C   UNL A   1      37.571  31.495  31.456  1.00  0.00     0.029 A 
ATOM     48  N   UNL A   1      39.650  30.710  31.675  1.00  0.00    -0.354 N 
ATOM     49  C   UNL A   1      41.430  28.310  28.529  1.00  0.00     0.074 A 
ATOM     50  C   UNL A   1      40.529  28.180  27.405  1.00  0.00     0.031 C 
ATOM     51  C   UNL A   1      37.980  31.793  32.699  1.00  0.00     0.029 A 
ATOM     52  C   UNL A   1      39.338  31.296  32.880  1.00  0.00     0.049 A 
ATOM     53  H   UNL A   1      40.512  30.268  31.498  1.00  0.00     0.167 HD
ATOM     54  C   UNL A   1      42.648  27.722  28.601  1.00  0.00     0.034 A 
ATOM     55  C   UNL A   1      40.077  31.436  33.998  1.00  0.00     0.034 A 
ATOM     56  C   UNL A   1      43.565  27.933  29.687  1.00  0.00     0.049 A 
ATOM     57  C   UNL A   1      41.488  30.920  33.986  1.00  0.00     0.074 A 
ATOM     58  C   UNL A   1      44.864  27.480  29.824  1.00  0.00     0.029 A 
ATOM     59  N   UNL A   1      43.278  28.681  30.821  1.00  0.00    -0.354 N 
ATOM     60  N   UNL A   1      42.114  30.259  33.041  1.00  0.00    -0.248 NA
ATOM     61  C   UNL A   1      42.315  31.214  35.164  1.00  0.00     0.031 C 
ATOM     62  C   UNL A   1      45.367  27.963  31.039  1.00  0.00     0.029 A 
ATOM     63  C   UNL A   1      44.382  28.721  31.654  1.00  0.00     0.049 A 
ATOM     64  H   UNL A   1      42.417  29.119  31.004  1.00  0.00     0.167 HD
ATOM     65  C   UNL A   1      43.415  30.083  33.495  1.00  0.00     0.074 A 
ATOM     66  C   UNL A   1      43.493  30.734  34.789  1.00  0.00     0.031 C 
ATOM     67  C   UNL A   1      44.446  29.428  32.909  1.00  0.00     0.034 A 
BRANCH  54  68
ATOM     68  C   UNL A   1      43.077  26.870  27.434  1.00  0.00     0.023 A 
ATOM     69  C   UNL A   1      43.776  27.465  26.362  1.00  0.00     0.012 A 
ATOM     70  C   UNL A   1      42.802  25.490  27.392  1.00  0.00     0.148 A 
ATOM     71  C   UNL A   1      44.149  26.716  25.248  1.00  0.00     0.002 A 
ATOM     72  C   UNL A   1      43.217  24.738  26.296  1.00  0.00     0.091 A 
ATOM     73  F   UNL A   1      42.118  24.940  28.406  1.00  0.00    -0.205 F 
ATOM     74  C   UNL A   1      43.877  25.351  25.219  1.00  0.00     0.022 A 
BRANCH  72  75
ATOM     75  S   UNL A   1      42.974  22.960  26.195  1.00  0.00     0.127 S 
ATOM     76  O   UNL A   1      41.516  22.863  26.159  1.00  0.00    -0.237 OA
ATOM     77  O   UNL A   1      43.638  22.628  24.934  1.00  0.00    -0.237 OA
ATOM     78  O   UNL A   1      43.613  22.404  27.379  1.00  0.00    -0.744 OA
ENDBRANCH  72  75
ENDBRANCH  54  68
BRANCH  55  79
ATOM     79  C   UNL A   1      39.536  32.208  35.153  1.00  0.00     0.023 A 
ATOM     80  C   UNL A   1      38.671  31.564  36.061  1.00  0.00     0.012 A 
ATOM     81  C   UNL A   1      39.912  33.543  35.398  1.00  0.00     0.148 A 
ATOM     82  C   UNL A   1      38.167  32.242  37.172  1.00  0.00     0.002 A 
ATOM     83  C   UNL A   1      39.448  34.198  36.534  1.00  0.00     0.091 A 
ATOM     84  F   UNL A   1      40.731  34.144  34.522  1.00  0.00    -0.205 F 
ATOM     85  C   UNL A   1      38.563  33.554  37.414  1.00  0.00     0.022 A 
BRANCH  83  86
ATOM     86  S   UNL A   1      40.014  35.840  36.994  1.00  0.00     0.127 S 
ATOM     87  O   UNL A   1      39.268  36.081  38.226  1.00  0.00    -0.237 OA
ATOM     88  O   UNL A   1      41.451  35.632  37.173  1.00  0.00    -0.237 OA
ATOM     89  O   UNL A   1      39.674  36.695  35.864  1.00  0.00    -0.744 OA
ENDBRANCH  83  86
ENDBRANCH  55  79
BRANCH  67  90
ATOM     90  C   UNL A   1      45.755  29.402  33.649  1.00  0.00     0.023 A 
ATOM     91  C   UNL A   1      46.703  30.418  33.421  1.00  0.00     0.012 A 
ATOM     92  C   UNL A   1      46.015  28.413  34.616  1.00  0.00     0.148 A 
ATOM     93  C   UNL A   1      47.906  30.432  34.123  1.00  0.00     0.002 A 
ATOM     94  C   UNL A   1      47.197  28.459  35.344  1.00  0.00     0.091 A 
ATOM     95  F   UNL A   1      45.111  27.439  34.800  1.00  0.00    -0.205 F 
ATOM     96  C   UNL A   1      48.149  29.461  35.093  1.00  0.00     0.022 A 
BRANCH  94  97
ATOM     97  S   UNL A   1      47.529  27.296  36.672  1.00  0.00     0.127 S 
ATOM     98  O   UNL A   1      47.628  26.032  35.946  1.00  0.00    -0.237 OA
ATOM     99  O   UNL A   1      48.798  27.787  37.215  1.00  0.00    -0.237 OA
ATOM    100  O   UNL A   1      46.401  27.420  37.586  1.00  0.00    -0.744 OA
ENDBRANCH  94  97
ENDBRANCH  67  90
ENDBRANCH  41  42
ENDBRANCH  33  36
ENDBRANCH  31  32
ENDBRANCH   1  31
TORSDOF 17
ENDMDL
MODEL 3
REMARK VINA RESULT:     -13.0      5.898     12.002
REMARK SMILES O=C(NCCCNC(=O)c1ccc(-c2c3nc(c(-c4cccc(S(=O)(=O)[O-])c4F)c4ccc([nH]4)c(-c4cccc(S(=O)(=O)[O-])c4F)c4nc(c(-c5cccc(S(=O)(=O)[O-])c5F)c5ccc2[nH]5)C=C4)C=C3)cc1)C1=Cc2cc(Cl)cc(-c3ccc(CO)cc3)c2O[C@@H]1C(F)(F)F
REMARK SMILES IDX 5 1 4 2 3 3 1 4 2 5 73 7 74 8 91 9 75 10 90 11 76 12 89 13
REMARK SMILES IDX 77 14 80 15 78 16 79 17 92 18 93 19 94 20 95 21 81 22 82 23
REMARK SMILES IDX 88 24 83 25 87 26 84 27 85 28 86 29 6 31 7 32 8 33 9 35
REMARK SMILES IDX 10 36 11 37 72 38 12 39 71 40 13 41 14 42 15 43 65 44 16 45
REMARK SMILES IDX 70 46 64 47 66 48 17 49 69 50 63 51 62 52 18 54 50 55 30 56
REMARK SMILES IDX 49 57 31 58 34 59 48 60 67 61 32 62 33 63 47 65 68 66 35 67
REMARK SMILES IDX 19 68 20 69 28 70 21 71 23 72 29 73 22 74 24 75 25 76 26 77
REMARK SMILES IDX 27 78 51 79 52 80 60 81 53 82 55 83 61 84 54 85 56 86 57 87
REMARK SMILES IDX 58 88 59 89 36 90 37 91 45 92 38 93 40 94 46 95 39 96 41 97
REMARK SMILES IDX 42 98 43 99 44 100
REMARK H PARENT 3 6 86 30 7 34 66 53 34 64
REMARK Flexibility Score: inf
ROOT
ATOM      1  C   UNL A   1      40.240  34.229  40.660  1.00  0.00     0.042 C 
ENDROOT
BRANCH   1   2
ATOM      2  C   UNL A   1      39.749  33.016  39.867  1.00  0.00     0.118 C 
BRANCH   2   3
ATOM      3  N   UNL A   1      38.286  32.938  39.795  1.00  0.00    -0.352 N 
ATOM      4  O   UNL A   1      36.273  32.513  38.826  1.00  0.00    -0.270 OA
ATOM      5  C   UNL A   1      37.464  32.779  38.710  1.00  0.00     0.251 C 
ATOM      6  H   UNL A   1      37.822  33.011  40.661  1.00  0.00     0.163 HD
BRANCH   5   7
ATOM      7  C   UNL A   1      38.097  32.859  37.388  1.00  0.00     0.067 C 
ATOM      8  C   UNL A   1      38.464  31.716  36.800  1.00  0.00     0.025 C 
ATOM      9  C   UNL A   1      37.974  34.147  36.643  1.00  0.00     0.314 C 
ATOM     10  C   UNL A   1      38.235  31.678  35.353  1.00  0.00     0.019 A 
ATOM     11  O   UNL A   1      37.321  33.950  35.365  1.00  0.00    -0.475 OA
ATOM     12  C   UNL A   1      38.380  30.451  34.701  1.00  0.00     0.032 A 
ATOM     13  C   UNL A   1      37.496  32.726  34.757  1.00  0.00     0.135 A 
ATOM     14  C   UNL A   1      37.706  30.232  33.507  1.00  0.00     0.042 A 
ATOM     15  C   UNL A   1      36.757  32.480  33.590  1.00  0.00     0.026 A 
ATOM     16  Cl  UNL A   1      37.761  28.677  32.775  1.00  0.00    -0.084 Cl
ATOM     17  C   UNL A   1      36.882  31.221  32.971  1.00  0.00     0.033 A 
BRANCH   9  18
ATOM     18  C   UNL A   1      39.331  34.860  36.502  1.00  0.00     0.429 C 
ATOM     19  F   UNL A   1      39.410  35.537  35.329  1.00  0.00    -0.167 F 
ATOM     20  F   UNL A   1      39.524  35.773  37.485  1.00  0.00    -0.167 F 
ATOM     21  F   UNL A   1      40.380  34.006  36.539  1.00  0.00    -0.167 F 
ENDBRANCH   9  18
BRANCH  15  22
ATOM     22  C   UNL A   1      35.694  33.384  33.119  1.00  0.00    -0.015 A 
ATOM     23  C   UNL A   1      36.051  34.569  32.455  1.00  0.00     0.009 A 
ATOM     24  C   UNL A   1      34.343  33.169  33.399  1.00  0.00     0.009 A 
ATOM     25  C   UNL A   1      35.117  35.563  32.177  1.00  0.00     0.007 A 
ATOM     26  C   UNL A   1      33.395  34.160  33.107  1.00  0.00     0.007 A 
ATOM     27  C   UNL A   1      33.780  35.376  32.525  1.00  0.00    -0.023 A 
BRANCH  27  28
ATOM     28  C   UNL A   1      32.810  36.514  32.377  1.00  0.00     0.191 C 
BRANCH  28  29
ATOM     29  O   UNL A   1      32.339  36.924  33.656  1.00  0.00    -0.392 OA
ATOM     30  H   UNL A   1      31.855  37.760  33.569  1.00  0.00     0.211 HD
ENDBRANCH  28  29
ENDBRANCH  27  28
ENDBRANCH  15  22
ENDBRANCH   5   7
ENDBRANCH   2   3
ENDBRANCH   1   2
BRANCH   1  31
ATOM     31  C   UNL A   1      41.455  34.894  40.016  1.00  0.00     0.118 C 
BRANCH  31  32
ATOM     32  N   UNL A   1      42.737  34.323  40.388  1.00  0.00    -0.352 N 
ATOM     33  C   UNL A   1      43.584  33.501  39.669  1.00  0.00     0.251 C 
ATOM     34  H   UNL A   1      43.052  34.558  41.292  1.00  0.00     0.163 HD
ATOM     35  O   UNL A   1      44.639  33.139  40.186  1.00  0.00    -0.269 OA
BRANCH  33  36
ATOM     36  C   UNL A   1      43.206  32.961  38.336  1.00  0.00     0.039 A 
ATOM     37  C   UNL A   1      43.915  33.424  37.219  1.00  0.00     0.014 A 
ATOM     38  C   UNL A   1      42.247  31.968  38.163  1.00  0.00     0.014 A 
ATOM     39  C   UNL A   1      43.760  32.799  35.980  1.00  0.00     0.010 A 
ATOM     40  C   UNL A   1      42.176  31.269  36.964  1.00  0.00     0.010 A 
ATOM     41  C   UNL A   1      42.946  31.663  35.866  1.00  0.00    -0.014 A 
BRANCH  41  42
ATOM     42  C   UNL A   1      42.936  30.832  34.637  1.00  0.00     0.031 A 
ATOM     43  C   UNL A   1      42.041  31.188  33.483  1.00  0.00     0.074 A 
ATOM     44  C   UNL A   1      43.635  29.678  34.631  1.00  0.00     0.049 A 
ATOM     45  N   UNL A   1      41.838  30.539  32.366  1.00  0.00    -0.248 NA
ATOM     46  C   UNL A   1      41.224  32.406  33.621  1.00  0.00     0.031 C 
ATOM     47  C   UNL A   1      44.424  29.159  35.752  1.00  0.00     0.029 A 
ATOM     48  N   UNL A   1      43.779  28.719  33.661  1.00  0.00    -0.354 N 
ATOM     49  C   UNL A   1      40.836  31.234  31.700  1.00  0.00     0.074 A 
ATOM     50  C   UNL A   1      40.440  32.330  32.556  1.00  0.00     0.031 C 
ATOM     51  C   UNL A   1      44.991  27.996  35.397  1.00  0.00     0.029 A 
ATOM     52  C   UNL A   1      44.593  27.675  34.032  1.00  0.00     0.049 A 
ATOM     53  H   UNL A   1      43.340  28.774  32.781  1.00  0.00     0.167 HD
ATOM     54  C   UNL A   1      40.321  31.004  30.468  1.00  0.00     0.034 A 
ATOM     55  C   UNL A   1      44.992  26.591  33.338  1.00  0.00     0.034 A 
ATOM     56  C   UNL A   1      40.788  29.961  29.598  1.00  0.00     0.049 A 
ATOM     57  C   UNL A   1      44.536  26.453  31.913  1.00  0.00     0.074 A 
ATOM     58  C   UNL A   1      40.421  29.694  28.292  1.00  0.00     0.029 A 
ATOM     59  N   UNL A   1      41.747  29.020  29.946  1.00  0.00    -0.354 N 
ATOM     60  N   UNL A   1      43.714  27.218  31.235  1.00  0.00    -0.248 NA
ATOM     61  C   UNL A   1      45.101  25.341  31.138  1.00  0.00     0.031 C 
ATOM     62  C   UNL A   1      41.167  28.595  27.847  1.00  0.00     0.029 A 
ATOM     63  C   UNL A   1      42.001  28.182  28.875  1.00  0.00     0.049 A 
ATOM     64  H   UNL A   1      42.182  28.958  30.826  1.00  0.00     0.167 HD
ATOM     65  C   UNL A   1      43.685  26.700  29.947  1.00  0.00     0.074 A 
ATOM     66  C   UNL A   1      44.596  25.572  29.933  1.00  0.00     0.031 C 
ATOM     67  C   UNL A   1      42.958  27.105  28.877  1.00  0.00     0.034 A 
BRANCH  54  68
ATOM     68  C   UNL A   1      39.258  31.952  29.974  1.00  0.00     0.023 A 
ATOM     69  C   UNL A   1      39.577  33.314  29.790  1.00  0.00     0.012 A 
ATOM     70  C   UNL A   1      37.954  31.506  29.683  1.00  0.00     0.148 A 
ATOM     71  C   UNL A   1      38.607  34.225  29.376  1.00  0.00     0.002 A 
ATOM     72  C   UNL A   1      37.002  32.414  29.227  1.00  0.00     0.091 A 
ATOM     73  F   UNL A   1      37.657  30.214  29.883  1.00  0.00    -0.205 F 
ATOM     74  C   UNL A   1      37.322  33.774  29.087  1.00  0.00     0.022 A 
BRANCH  72  75
ATOM     75  S   UNL A   1      35.339  31.919  28.762  1.00  0.00     0.127 S 
ATOM     76  O   UNL A   1      34.613  32.106  30.017  1.00  0.00    -0.237 OA
ATOM     77  O   UNL A   1      35.008  32.889  27.717  1.00  0.00    -0.237 OA
ATOM     78  O   UNL A   1      35.448  30.544  28.297  1.00  0.00    -0.744 OA
ENDBRANCH  72  75
ENDBRANCH  54  68
BRANCH  55  79
ATOM     79  C   UNL A   1      45.970  25.642  33.942  1.00  0.00     0.023 A 
ATOM     80  C   UNL A   1      47.345  25.952  33.888  1.00  0.00     0.012 A 
ATOM     81  C   UNL A   1      45.559  24.477  34.617  1.00  0.00     0.148 A 
ATOM     82  C   UNL A   1      48.292  25.107  34.467  1.00  0.00     0.002 A 
ATOM     83  C   UNL A   1      46.503  23.664  35.237  1.00  0.00     0.091 A 
ATOM     84  F   UNL A   1      44.249  24.192  34.654  1.00  0.00    -0.205 F 
ATOM     85  C   UNL A   1      47.871  23.969  35.150  1.00  0.00     0.022 A 
BRANCH  83  86
ATOM     86  S   UNL A   1      46.038  22.255  36.251  1.00  0.00     0.127 S 
ATOM     87  O   UNL A   1      47.320  21.580  36.432  1.00  0.00    -0.237 OA
ATOM     88  O   UNL A   1      45.507  22.902  37.452  1.00  0.00    -0.237 OA
ATOM     89  O   UNL A   1      45.040  21.534  35.473  1.00  0.00    -0.744 OA
ENDBRANCH  83  86
ENDBRANCH  55  79
BRANCH  67  90
ATOM     90  C   UNL A   1      43.136  26.338  27.595  1.00  0.00     0.023 A 
ATOM     91  C   UNL A   1      43.891  26.901  26.547  1.00  0.00     0.012 A 
ATOM     92  C   UNL A   1      42.615  25.039  27.456  1.00  0.00     0.148 A 
ATOM     93  C   UNL A   1      44.097  26.191  25.366  1.00  0.00     0.002 A 
ATOM     94  C   UNL A   1      42.862  24.320  26.293  1.00  0.00     0.091 A 
ATOM     95  F   UNL A   1      41.876  24.530  28.454  1.00  0.00    -0.205 F 
ATOM     96  C   UNL A   1      43.594  24.898  25.242  1.00  0.00     0.022 A 
BRANCH  94  97
ATOM     97  S   UNL A   1      42.325  22.616  26.108  1.00  0.00     0.127 S 
ATOM     98  O   UNL A   1      43.045  21.955  27.192  1.00  0.00    -0.237 OA
ATOM     99  O   UNL A   1      40.878  22.715  26.309  1.00  0.00    -0.237 OA
ATOM    100  O   UNL A   1      42.714  22.233  24.757  1.00  0.00    -0.744 OA
ENDBRANCH  94  97
ENDBRANCH  67  90
ENDBRANCH  41  42
ENDBRANCH  33  36
ENDBRANCH  31  32
ENDBRANCH   1  31
TORSDOF 17
ENDMDL
