MODEL 1
REMARK VINA RESULT:     -11.1      0.000      0.000
REMARK SMILES C[C@@H]1C[N@@H+](C[C@]2(C(=O)NCCCNC(=O)c3ccc(-c4c5nc(c(-c6cccc(S(=O)(=O)[O-])c6F)c6ccc([nH]6)c(-c6cccc(S(=O)(=O)[O-])c6F)c6nc(c(-c7cccc(S(=O)(=O)[O-])c7F)c7ccc4[nH]7)C=C6)C=C5)cc3)CCOC2)C[C@@H]1C
REMARK SMILES IDX 11 1 10 2 9 3 7 4 8 5 6 7 79 8 82 9 80 10 81 11 5 12 4 13
REMARK SMILES IDX 1 14 2 15 3 16 84 17 83 18 85 19 12 21 13 22 14 23 15 25
REMARK SMILES IDX 16 26 17 27 78 28 18 29 77 30 19 31 20 32 21 33 71 34 22 35
REMARK SMILES IDX 76 36 70 37 72 38 23 39 75 40 69 41 68 42 24 44 56 45 36 46
REMARK SMILES IDX 55 47 37 48 40 49 54 50 73 51 38 52 39 53 53 55 74 56 41 57
REMARK SMILES IDX 25 58 26 59 34 60 27 61 29 62 35 63 28 64 30 65 31 66 32 67
REMARK SMILES IDX 33 68 57 69 58 70 66 71 59 72 61 73 67 74 60 75 62 76 63 77
REMARK SMILES IDX 64 78 65 79 42 80 43 81 51 82 44 83 46 84 52 85 45 86 47 87
REMARK SMILES IDX 48 88 49 89 50 90
REMARK H PARENT 9 6 4 20 13 24 72 43 40 54
REMARK Flexibility Score: inf
ROOT
ATOM      1  C   UNL A   1      32.402  28.033  26.961  1.00  0.00     0.042 C 
ENDROOT
BRANCH   1   2
ATOM      2  C   UNL A   1      32.108  26.908  25.975  1.00  0.00     0.117 C 
BRANCH   2   3
ATOM      3  N   UNL A   1      31.466  25.775  26.622  1.00  0.00    -0.355 N 
ATOM      4  C   UNL A   1      31.474  24.432  26.497  1.00  0.00     0.234 C 
ATOM      5  O   UNL A   1      30.659  23.871  27.249  1.00  0.00    -0.274 OA
ATOM      6  H   UNL A   1      30.864  26.067  27.344  1.00  0.00     0.163 HD
BRANCH   4   7
ATOM      7  C   UNL A   1      32.368  23.577  25.572  1.00  0.00     0.123 C 
ATOM      8  C   UNL A   1      32.474  22.188  26.215  1.00  0.00     0.054 C 
ATOM      9  C   UNL A   1      31.534  23.260  24.327  1.00  0.00     0.183 C 
ATOM     10  C   UNL A   1      32.297  21.200  25.082  1.00  0.00     0.161 C 
ATOM     11  O   UNL A   1      31.793  21.902  23.947  1.00  0.00    -0.380 OA
BRANCH   7  12
ATOM     12  C   UNL A   1      33.756  24.175  25.234  1.00  0.00     0.281 C 
BRANCH  12  13
ATOM     13  N   UNL A   1      34.981  23.405  25.206  1.00  0.00    -0.333 N 
ATOM     14  C   UNL A   1      38.541  23.380  26.194  1.00  0.00     0.014 C 
ATOM     15  C   UNL A   1      37.279  23.574  25.374  1.00  0.00     0.049 C 
ATOM     16  C   UNL A   1      36.008  23.579  26.210  1.00  0.00     0.265 C 
ATOM     17  C   UNL A   1      36.979  22.539  24.277  1.00  0.00     0.049 C 
ATOM     18  C   UNL A   1      35.478  22.754  24.013  1.00  0.00     0.265 C 
ATOM     19  C   UNL A   1      37.272  21.090  24.664  1.00  0.00     0.014 C 
ATOM     20  H   UNL A   1      34.302  22.741  25.577  1.00  0.00     0.348 HD
ENDBRANCH  12  13
ENDBRANCH   7  12
ENDBRANCH   4   7
ENDBRANCH   2   3
ENDBRANCH   1   2
BRANCH   1  21
ATOM     21  C   UNL A   1      33.723  28.752  26.691  1.00  0.00     0.118 C 
BRANCH  21  22
ATOM     22  N   UNL A   1      33.675  30.158  27.078  1.00  0.00    -0.352 N 
ATOM     23  C   UNL A   1      34.494  30.880  27.908  1.00  0.00     0.251 C 
ATOM     24  H   UNL A   1      32.937  30.671  26.678  1.00  0.00     0.163 HD
ATOM     25  O   UNL A   1      34.133  31.990  28.289  1.00  0.00    -0.269 OA
BRANCH  23  26
ATOM     26  C   UNL A   1      35.798  30.336  28.341  1.00  0.00     0.039 A 
ATOM     27  C   UNL A   1      36.903  30.472  27.495  1.00  0.00     0.014 A 
ATOM     28  C   UNL A   1      35.925  29.648  29.551  1.00  0.00     0.014 A 
ATOM     29  C   UNL A   1      38.142  29.963  27.885  1.00  0.00     0.010 A 
ATOM     30  C   UNL A   1      37.176  29.209  29.972  1.00  0.00     0.010 A 
ATOM     31  C   UNL A   1      38.295  29.350  29.139  1.00  0.00    -0.014 A 
BRANCH  31  32
ATOM     32  C   UNL A   1      39.615  28.849  29.597  1.00  0.00     0.031 A 
ATOM     33  C   UNL A   1      40.365  29.575  30.683  1.00  0.00     0.074 A 
ATOM     34  C   UNL A   1      40.171  27.787  28.980  1.00  0.00     0.049 A 
ATOM     35  N   UNL A   1      41.555  29.330  31.167  1.00  0.00    -0.248 NA
ATOM     36  C   UNL A   1      39.702  30.741  31.290  1.00  0.00     0.031 C 
ATOM     37  C   UNL A   1      39.575  27.047  27.864  1.00  0.00     0.029 A 
ATOM     38  N   UNL A   1      41.375  27.160  29.186  1.00  0.00    -0.354 N 
ATOM     39  C   UNL A   1      41.794  30.322  32.113  1.00  0.00     0.074 A 
ATOM     40  C   UNL A   1      40.641  31.197  32.105  1.00  0.00     0.031 C 
ATOM     41  C   UNL A   1      40.412  26.067  27.488  1.00  0.00     0.029 A 
ATOM     42  C   UNL A   1      41.613  26.123  28.313  1.00  0.00     0.049 A 
ATOM     43  H   UNL A   1      42.007  27.427  29.891  1.00  0.00     0.167 HD
ATOM     44  C   UNL A   1      42.856  30.469  32.940  1.00  0.00     0.034 A 
ATOM     45  C   UNL A   1      42.683  25.313  28.193  1.00  0.00     0.034 A 
ATOM     46  C   UNL A   1      43.978  29.571  32.974  1.00  0.00     0.049 A 
ATOM     47  C   UNL A   1      43.832  25.481  29.150  1.00  0.00     0.074 A 
ATOM     48  C   UNL A   1      45.082  29.603  33.809  1.00  0.00     0.029 A 
ATOM     49  N   UNL A   1      44.137  28.474  32.142  1.00  0.00    -0.354 N 
ATOM     50  N   UNL A   1      43.974  26.341  30.130  1.00  0.00    -0.248 NA
ATOM     51  C   UNL A   1      44.953  24.539  29.013  1.00  0.00     0.031 C 
ATOM     52  C   UNL A   1      45.910  28.525  33.479  1.00  0.00     0.029 A 
ATOM     53  C   UNL A   1      45.314  27.815  32.450  1.00  0.00     0.049 A 
ATOM     54  H   UNL A   1      43.506  28.203  31.437  1.00  0.00     0.167 HD
ATOM     55  C   UNL A   1      45.176  26.018  30.749  1.00  0.00     0.074 A 
ATOM     56  C   UNL A   1      45.710  24.868  30.051  1.00  0.00     0.031 C 
ATOM     57  C   UNL A   1      45.793  26.629  31.790  1.00  0.00     0.034 A 
BRANCH  44  58
ATOM     58  C   UNL A   1      42.817  31.598  33.937  1.00  0.00     0.023 A 
ATOM     59  C   UNL A   1      43.284  32.870  33.548  1.00  0.00     0.012 A 
ATOM     60  C   UNL A   1      42.256  31.429  35.218  1.00  0.00     0.148 A 
ATOM     61  C   UNL A   1      43.219  33.951  34.425  1.00  0.00     0.002 A 
ATOM     62  C   UNL A   1      42.156  32.522  36.073  1.00  0.00     0.091 A 
ATOM     63  F   UNL A   1      41.833  30.209  35.575  1.00  0.00    -0.205 F 
ATOM     64  C   UNL A   1      42.645  33.780  35.682  1.00  0.00     0.022 A 
BRANCH  62  65
ATOM     65  S   UNL A   1      41.369  32.430  37.685  1.00  0.00     0.127 S 
ATOM     66  O   UNL A   1      40.045  31.919  37.339  1.00  0.00    -0.237 OA
ATOM     67  O   UNL A   1      42.225  31.476  38.390  1.00  0.00    -0.237 OA
ATOM     68  O   UNL A   1      41.392  33.784  38.223  1.00  0.00    -0.744 OA
ENDBRANCH  62  65
ENDBRANCH  44  58
BRANCH  45  69
ATOM     69  C   UNL A   1      42.693  24.223  27.175  1.00  0.00     0.023 A 
ATOM     70  C   UNL A   1      43.312  24.449  25.929  1.00  0.00     0.012 A 
ATOM     71  C   UNL A   1      42.098  22.973  27.427  1.00  0.00     0.148 A 
ATOM     72  C   UNL A   1      43.297  23.468  24.937  1.00  0.00     0.002 A 
ATOM     73  C   UNL A   1      42.136  21.979  26.454  1.00  0.00     0.091 A 
ATOM     74  F   UNL A   1      41.500  22.777  28.611  1.00  0.00    -0.205 F 
ATOM     75  C   UNL A   1      42.716  22.230  25.203  1.00  0.00     0.022 A 
BRANCH  73  76
ATOM     76  S   UNL A   1      41.529  20.318  26.773  1.00  0.00     0.127 S 
ATOM     77  O   UNL A   1      42.368  19.901  27.892  1.00  0.00    -0.237 OA
ATOM     78  O   UNL A   1      40.125  20.561  27.112  1.00  0.00    -0.237 OA
ATOM     79  O   UNL A   1      41.720  19.596  25.522  1.00  0.00    -0.744 OA
ENDBRANCH  73  76
ENDBRANCH  45  69
BRANCH  57  80
ATOM     80  C   UNL A   1      47.095  26.042  32.268  1.00  0.00     0.023 A 
ATOM     81  C   UNL A   1      48.309  26.483  31.707  1.00  0.00     0.012 A 
ATOM     82  C   UNL A   1      47.116  25.103  33.317  1.00  0.00     0.148 A 
ATOM     83  C   UNL A   1      49.525  25.971  32.159  1.00  0.00     0.002 A 
ATOM     84  C   UNL A   1      48.333  24.633  33.795  1.00  0.00     0.091 A 
ATOM     85  F   UNL A   1      45.947  24.681  33.824  1.00  0.00    -0.205 F 
ATOM     86  C   UNL A   1      49.537  25.057  33.209  1.00  0.00     0.022 A 
BRANCH  84  87
ATOM     87  S   UNL A   1      48.448  23.526  35.205  1.00  0.00     0.127 S 
ATOM     88  O   UNL A   1      49.891  23.317  35.303  1.00  0.00    -0.237 OA
ATOM     89  O   UNL A   1      47.873  24.332  36.282  1.00  0.00    -0.237 OA
ATOM     90  O   UNL A   1      47.666  22.348  34.852  1.00  0.00    -0.744 OA
ENDBRANCH  84  87
ENDBRANCH  57  80
ENDBRANCH  31  32
ENDBRANCH  23  26
ENDBRANCH  21  22
ENDBRANCH   1  21
TORSDOF 15
ENDMDL
MODEL 2
REMARK VINA RESULT:     -10.9      3.671      9.001
REMARK SMILES C[C@@H]1C[N@@H+](C[C@]2(C(=O)NCCCNC(=O)c3ccc(-c4c5nc(c(-c6cccc(S(=O)(=O)[O-])c6F)c6ccc([nH]6)c(-c6cccc(S(=O)(=O)[O-])c6F)c6nc(c(-c7cccc(S(=O)(=O)[O-])c7F)c7ccc4[nH]7)C=C6)C=C5)cc3)CCOC2)C[C@@H]1C
REMARK SMILES IDX 11 1 10 2 9 3 7 4 8 5 6 7 79 8 82 9 80 10 81 11 5 12 4 13
REMARK SMILES IDX 1 14 2 15 3 16 84 17 83 18 85 19 12 21 13 22 14 23 15 25
REMARK SMILES IDX 16 26 17 27 78 28 18 29 77 30 19 31 20 32 21 33 71 34 22 35
REMARK SMILES IDX 76 36 70 37 72 38 23 39 75 40 69 41 68 42 24 44 56 45 36 46
REMARK SMILES IDX 55 47 37 48 40 49 54 50 73 51 38 52 39 53 53 55 74 56 41 57
REMARK SMILES IDX 25 58 26 59 34 60 27 61 29 62 35 63 28 64 30 65 31 66 32 67
REMARK SMILES IDX 33 68 57 69 58 70 66 71 59 72 61 73 67 74 60 75 62 76 63 77
REMARK SMILES IDX 64 78 65 79 42 80 43 81 51 82 44 83 46 84 52 85 45 86 47 87
REMARK SMILES IDX 48 88 49 89 50 90
REMARK H PARENT 9 6 4 20 13 24 72 43 40 54
REMARK Flexibility Score: inf
ROOT
ATOM      1  C   UNL A   1      31.418  31.945  26.530  1.00  0.00     0.042 C 
ENDROOT
BRANCH   1   2
ATOM      2  C   UNL A   1      31.586  30.522  26.011  1.00  0.00     0.117 C 
BRANCH   2   3
ATOM      3  N   UNL A   1      30.882  30.317  24.755  1.00  0.00    -0.355 N 
ATOM      4  C   UNL A   1      30.763  29.334  23.839  1.00  0.00     0.234 C 
ATOM      5  O   UNL A   1      30.092  29.673  22.850  1.00  0.00    -0.274 OA
ATOM      6  H   UNL A   1      30.350  31.108  24.508  1.00  0.00     0.163 HD
BRANCH   4   7
ATOM      7  C   UNL A   1      31.336  27.902  23.914  1.00  0.00     0.123 C 
ATOM      8  C   UNL A   1      30.682  27.224  25.125  1.00  0.00     0.054 C 
ATOM      9  C   UNL A   1      30.702  27.115  22.762  1.00  0.00     0.183 C 
ATOM     10  C   UNL A   1      30.299  25.836  24.658  1.00  0.00     0.161 C 
ATOM     11  O   UNL A   1      30.391  25.798  23.235  1.00  0.00    -0.380 OA
BRANCH   7  12
ATOM     12  C   UNL A   1      32.880  27.792  23.943  1.00  0.00     0.281 C 
BRANCH  12  13
ATOM     13  N   UNL A   1      33.598  26.544  24.090  1.00  0.00    -0.333 N 
ATOM     14  C   UNL A   1      33.974  23.117  22.764  1.00  0.00     0.014 C 
ATOM     15  C   UNL A   1      33.506  24.287  23.609  1.00  0.00     0.049 C 
ATOM     16  C   UNL A   1      33.783  25.641  22.975  1.00  0.00     0.265 C 
ATOM     17  C   UNL A   1      34.100  24.426  25.020  1.00  0.00     0.049 C 
ATOM     18  C   UNL A   1      33.802  25.896  25.368  1.00  0.00     0.265 C 
ATOM     19  C   UNL A   1      35.595  24.125  25.121  1.00  0.00     0.014 C 
ATOM     20  H   UNL A   1      34.347  27.236  24.049  1.00  0.00     0.348 HD
ENDBRANCH  12  13
ENDBRANCH   7  12
ENDBRANCH   4   7
ENDBRANCH   2   3
ENDBRANCH   1   2
BRANCH   1  21
ATOM     21  C   UNL A   1      32.656  32.486  27.244  1.00  0.00     0.118 C 
BRANCH  21  22
ATOM     22  N   UNL A   1      32.517  33.893  27.602  1.00  0.00    -0.352 N 
ATOM     23  C   UNL A   1      33.109  34.618  28.604  1.00  0.00     0.251 C 
ATOM     24  H   UNL A   1      31.899  34.405  27.032  1.00  0.00     0.163 HD
ATOM     25  O   UNL A   1      32.667  35.730  28.881  1.00  0.00    -0.269 OA
BRANCH  23  26
ATOM     26  C   UNL A   1      34.268  34.076  29.344  1.00  0.00     0.039 A 
ATOM     27  C   UNL A   1      34.040  33.261  30.457  1.00  0.00     0.014 A 
ATOM     28  C   UNL A   1      35.575  34.410  28.978  1.00  0.00     0.014 A 
ATOM     29  C   UNL A   1      35.122  32.742  31.170  1.00  0.00     0.010 A 
ATOM     30  C   UNL A   1      36.651  33.831  29.642  1.00  0.00     0.010 A 
ATOM     31  C   UNL A   1      36.437  33.002  30.753  1.00  0.00    -0.014 A 
BRANCH  31  32
ATOM     32  C   UNL A   1      37.602  32.417  31.464  1.00  0.00     0.031 A 
ATOM     33  C   UNL A   1      38.364  31.271  30.853  1.00  0.00     0.074 A 
ATOM     34  C   UNL A   1      37.921  32.867  32.694  1.00  0.00     0.049 A 
ATOM     35  N   UNL A   1      39.361  30.586  31.350  1.00  0.00    -0.248 NA
ATOM     36  C   UNL A   1      37.937  30.819  29.517  1.00  0.00     0.031 C 
ATOM     37  C   UNL A   1      37.210  33.921  33.422  1.00  0.00     0.029 A 
ATOM     38  N   UNL A   1      38.911  32.478  33.561  1.00  0.00    -0.354 N 
ATOM     39  C   UNL A   1      39.664  29.611  30.405  1.00  0.00     0.074 A 
ATOM     40  C   UNL A   1      38.717  29.766  29.322  1.00  0.00     0.031 C 
ATOM     41  C   UNL A   1      37.788  34.096  34.621  1.00  0.00     0.029 A 
ATOM     42  C   UNL A   1      38.891  33.153  34.760  1.00  0.00     0.049 A 
ATOM     43  H   UNL A   1      39.573  31.782  33.344  1.00  0.00     0.167 HD
ATOM     44  C   UNL A   1      40.663  28.697  30.419  1.00  0.00     0.034 A 
ATOM     45  C   UNL A   1      39.674  33.020  35.848  1.00  0.00     0.034 A 
ATOM     46  C   UNL A   1      41.628  28.577  31.477  1.00  0.00     0.049 A 
ATOM     47  C   UNL A   1      40.797  32.018  35.818  1.00  0.00     0.074 A 
ATOM     48  C   UNL A   1      42.709  27.716  31.564  1.00  0.00     0.029 A 
ATOM     49  N   UNL A   1      41.635  29.345  32.631  1.00  0.00    -0.354 N 
ATOM     50  N   UNL A   1      41.150  31.201  34.855  1.00  0.00    -0.248 NA
ATOM     51  C   UNL A   1      41.656  31.948  37.010  1.00  0.00     0.031 C 
ATOM     52  C   UNL A   1      43.368  27.964  32.772  1.00  0.00     0.029 A 
ATOM     53  C   UNL A   1      42.706  28.987  33.430  1.00  0.00     0.049 A 
ATOM     54  H   UNL A   1      40.976  30.043  32.849  1.00  0.00     0.167 HD
ATOM     55  C   UNL A   1      42.293  30.552  35.307  1.00  0.00     0.074 A 
ATOM     56  C   UNL A   1      42.588  31.089  36.619  1.00  0.00     0.031 C 
ATOM     57  C   UNL A   1      43.023  29.584  34.701  1.00  0.00     0.034 A 
BRANCH  44  58
ATOM     58  C   UNL A   1      40.815  27.807  29.213  1.00  0.00     0.023 A 
ATOM     59  C   UNL A   1      40.050  26.625  29.134  1.00  0.00     0.012 A 
ATOM     60  C   UNL A   1      41.644  28.168  28.132  1.00  0.00     0.148 A 
ATOM     61  C   UNL A   1      40.126  25.801  28.012  1.00  0.00     0.002 A 
ATOM     62  C   UNL A   1      41.682  27.362  26.998  1.00  0.00     0.091 A 
ATOM     63  F   UNL A   1      42.375  29.285  28.233  1.00  0.00    -0.205 F 
ATOM     64  C   UNL A   1      40.932  26.175  26.941  1.00  0.00     0.022 A 
BRANCH  62  65
ATOM     65  S   UNL A   1      42.630  27.786  25.532  1.00  0.00     0.127 S 
ATOM     66  O   UNL A   1      42.356  26.644  24.663  1.00  0.00    -0.237 OA
ATOM     67  O   UNL A   1      42.000  29.037  25.111  1.00  0.00    -0.237 OA
ATOM     68  O   UNL A   1      44.013  27.916  25.970  1.00  0.00    -0.744 OA
ENDBRANCH  62  65
ENDBRANCH  44  58
BRANCH  45  69
ATOM     69  C   UNL A   1      39.475  33.903  37.033  1.00  0.00     0.023 A 
ATOM     70  C   UNL A   1      39.920  35.239  36.980  1.00  0.00     0.012 A 
ATOM     71  C   UNL A   1      38.854  33.436  38.206  1.00  0.00     0.148 A 
ATOM     72  C   UNL A   1      39.793  36.078  38.087  1.00  0.00     0.002 A 
ATOM     73  C   UNL A   1      38.679  34.294  39.287  1.00  0.00     0.091 A 
ATOM     74  F   UNL A   1      38.448  32.158  38.249  1.00  0.00    -0.205 F 
ATOM     75  C   UNL A   1      39.165  35.608  39.238  1.00  0.00     0.022 A 
BRANCH  73  76
ATOM     76  S   UNL A   1      37.760  33.800  40.750  1.00  0.00     0.127 S 
ATOM     77  O   UNL A   1      37.579  35.075  41.437  1.00  0.00    -0.237 OA
ATOM     78  O   UNL A   1      36.540  33.232  40.172  1.00  0.00    -0.237 OA
ATOM     79  O   UNL A   1      38.608  32.824  41.421  1.00  0.00    -0.744 OA
ENDBRANCH  73  76
ENDBRANCH  45  69
BRANCH  57  80
ATOM     80  C   UNL A   1      44.239  29.072  35.428  1.00  0.00     0.023 A 
ATOM     81  C   UNL A   1      45.492  29.675  35.206  1.00  0.00     0.012 A 
ATOM     82  C   UNL A   1      44.124  28.040  36.378  1.00  0.00     0.148 A 
ATOM     83  C   UNL A   1      46.622  29.233  35.893  1.00  0.00     0.002 A 
ATOM     84  C   UNL A   1      45.245  27.637  37.094  1.00  0.00     0.091 A 
ATOM     85  F   UNL A   1      42.926  27.465  36.561  1.00  0.00    -0.205 F 
ATOM     86  C   UNL A   1      46.496  28.223  36.844  1.00  0.00     0.022 A 
BRANCH  84  87
ATOM     87  S   UNL A   1      45.158  26.410  38.404  1.00  0.00     0.127 S 
ATOM     88  O   UNL A   1      46.443  26.596  39.073  1.00  0.00    -0.237 OA
ATOM     89  O   UNL A   1      43.998  26.859  39.175  1.00  0.00    -0.237 OA
ATOM     90  O   UNL A   1      44.977  25.127  37.737  1.00  0.00    -0.744 OA
ENDBRANCH  84  87
ENDBRANCH  57  80
ENDBRANCH  31  32
ENDBRANCH  23  26
ENDBRANCH  21  22
ENDBRANCH   1  21
TORSDOF 15
ENDMDL
MODEL 3
REMARK VINA RESULT:     -10.8      1.323      2.261
REMARK SMILES C[C@@H]1C[N@@H+](C[C@]2(C(=O)NCCCNC(=O)c3ccc(-c4c5nc(c(-c6cccc(S(=O)(=O)[O-])c6F)c6ccc([nH]6)c(-c6cccc(S(=O)(=O)[O-])c6F)c6nc(c(-c7cccc(S(=O)(=O)[O-])c7F)c7ccc4[nH]7)C=C6)C=C5)cc3)CCOC2)C[C@@H]1C
REMARK SMILES IDX 11 1 10 2 9 3 7 4 8 5 6 7 79 8 82 9 80 10 81 11 5 12 4 13
REMARK SMILES IDX 1 14 2 15 3 16 84 17 83 18 85 19 12 21 13 22 14 23 15 25
REMARK SMILES IDX 16 26 17 27 78 28 18 29 77 30 19 31 20 32 21 33 71 34 22 35
REMARK SMILES IDX 76 36 70 37 72 38 23 39 75 40 69 41 68 42 24 44 56 45 36 46
REMARK SMILES IDX 55 47 37 48 40 49 54 50 73 51 38 52 39 53 53 55 74 56 41 57
REMARK SMILES IDX 25 58 26 59 34 60 27 61 29 62 35 63 28 64 30 65 31 66 32 67
REMARK SMILES IDX 33 68 57 69 58 70 66 71 59 72 61 73 67 74 60 75 62 76 63 77
REMARK SMILES IDX 64 78 65 79 42 80 43 81 51 82 44 83 46 84 52 85 45 86 47 87
REMARK SMILES IDX 48 88 49 89 50 90
REMARK H PARENT 9 6 4 20 13 24 72 43 40 54
REMARK Flexibility Score: inf
ROOT
ATOM      1  C   UNL A   1      33.463  27.992  27.102  1.00  0.00     0.042 C 
ENDROOT
BRANCH   1   2
ATOM      2  C   UNL A   1      31.987  28.190  27.430  1.00  0.00     0.117 C 
BRANCH   2   3
ATOM      3  N   UNL A   1      31.168  27.107  26.911  1.00  0.00    -0.355 N 
ATOM      4  C   UNL A   1      30.676  26.727  25.714  1.00  0.00     0.234 C 
ATOM      5  O   UNL A   1      29.925  25.740  25.790  1.00  0.00    -0.274 OA
ATOM      6  H   UNL A   1      30.900  26.484  27.625  1.00  0.00     0.163 HD
BRANCH   4   7
ATOM      7  C   UNL A   1      30.962  27.359  24.334  1.00  0.00     0.123 C 
ATOM      8  C   UNL A   1      29.728  27.101  23.460  1.00  0.00     0.054 C 
ATOM      9  C   UNL A   1      30.876  28.877  24.521  1.00  0.00     0.183 C 
ATOM     10  C   UNL A   1      29.454  28.406  22.745  1.00  0.00     0.161 C 
ATOM     11  O   UNL A   1      30.218  29.434  23.375  1.00  0.00    -0.380 OA
BRANCH   7  12
ATOM     12  C   UNL A   1      32.274  26.909  23.644  1.00  0.00     0.281 C 
BRANCH  12  13
ATOM     13  N   UNL A   1      32.755  25.544  23.637  1.00  0.00    -0.333 N 
ATOM     14  C   UNL A   1      35.720  23.396  24.130  1.00  0.00     0.014 C 
ATOM     15  C   UNL A   1      34.662  24.253  23.459  1.00  0.00     0.049 C 
ATOM     16  C   UNL A   1      33.895  25.138  24.429  1.00  0.00     0.265 C 
ATOM     17  C   UNL A   1      33.551  23.529  22.682  1.00  0.00     0.049 C 
ATOM     18  C   UNL A   1      32.459  24.608  22.573  1.00  0.00     0.265 C 
ATOM     19  C   UNL A   1      33.016  22.265  23.353  1.00  0.00     0.014 C 
ATOM     20  H   UNL A   1      31.932  25.494  24.237  1.00  0.00     0.348 HD
ENDBRANCH  12  13
ENDBRANCH   7  12
ENDBRANCH   4   7
ENDBRANCH   2   3
ENDBRANCH   1   2
BRANCH   1  21
ATOM     21  C   UNL A   1      34.046  29.094  26.218  1.00  0.00     0.118 C 
BRANCH  21  22
ATOM     22  N   UNL A   1      33.830  30.423  26.778  1.00  0.00    -0.352 N 
ATOM     23  C   UNL A   1      34.492  31.082  27.782  1.00  0.00     0.251 C 
ATOM     24  H   UNL A   1      33.092  30.929  26.370  1.00  0.00     0.163 HD
ATOM     25  O   UNL A   1      33.995  32.097  28.263  1.00  0.00    -0.269 OA
BRANCH  23  26
ATOM     26  C   UNL A   1      35.791  30.586  28.282  1.00  0.00     0.039 A 
ATOM     27  C   UNL A   1      35.817  29.801  29.440  1.00  0.00     0.014 A 
ATOM     28  C   UNL A   1      36.987  30.932  27.646  1.00  0.00     0.014 A 
ATOM     29  C   UNL A   1      37.035  29.325  29.928  1.00  0.00     0.010 A 
ATOM     30  C   UNL A   1      38.191  30.395  28.091  1.00  0.00     0.010 A 
ATOM     31  C   UNL A   1      38.229  29.596  29.243  1.00  0.00    -0.014 A 
BRANCH  31  32
ATOM     32  C   UNL A   1      39.529  29.056  29.715  1.00  0.00     0.031 A 
ATOM     33  C   UNL A   1      40.279  29.748  30.823  1.00  0.00     0.074 A 
ATOM     34  C   UNL A   1      40.069  27.989  29.092  1.00  0.00     0.049 A 
ATOM     35  N   UNL A   1      41.454  29.468  31.323  1.00  0.00    -0.248 NA
ATOM     36  C   UNL A   1      39.635  30.923  31.435  1.00  0.00     0.031 C 
ATOM     37  C   UNL A   1      39.473  27.280  27.957  1.00  0.00     0.029 A 
ATOM     38  N   UNL A   1      41.253  27.330  29.308  1.00  0.00    -0.354 N 
ATOM     39  C   UNL A   1      41.701  30.440  32.286  1.00  0.00     0.074 A 
ATOM     40  C   UNL A   1      40.571  31.344  32.272  1.00  0.00     0.031 C 
ATOM     41  C   UNL A   1      40.292  26.285  27.580  1.00  0.00     0.029 A 
ATOM     42  C   UNL A   1      41.480  26.300  28.426  1.00  0.00     0.049 A 
ATOM     43  H   UNL A   1      41.880  27.572  30.028  1.00  0.00     0.167 HD
ATOM     44  C   UNL A   1      42.753  30.550  33.132  1.00  0.00     0.034 A 
ATOM     45  C   UNL A   1      42.532  25.465  28.311  1.00  0.00     0.034 A 
ATOM     46  C   UNL A   1      43.852  29.624  33.172  1.00  0.00     0.049 A 
ATOM     47  C   UNL A   1      43.669  25.591  29.289  1.00  0.00     0.074 A 
ATOM     48  C   UNL A   1      44.942  29.617  34.024  1.00  0.00     0.029 A 
ATOM     49  N   UNL A   1      43.998  28.535  32.327  1.00  0.00    -0.354 N 
ATOM     50  N   UNL A   1      43.816  26.434  30.282  1.00  0.00    -0.248 NA
ATOM     51  C   UNL A   1      44.769  24.623  29.156  1.00  0.00     0.031 C 
ATOM     52  C   UNL A   1      45.749  28.524  33.693  1.00  0.00     0.029 A 
ATOM     53  C   UNL A   1      45.153  27.842  32.644  1.00  0.00     0.049 A 
ATOM     54  H   UNL A   1      43.372  28.289  31.609  1.00  0.00     0.167 HD
ATOM     55  C   UNL A   1      44.999  26.073  30.916  1.00  0.00     0.074 A 
ATOM     56  C   UNL A   1      45.516  24.919  30.211  1.00  0.00     0.031 C 
ATOM     57  C   UNL A   1      45.614  26.654  31.976  1.00  0.00     0.034 A 
BRANCH  44  58
ATOM     58  C   UNL A   1      42.726  31.666  34.144  1.00  0.00     0.023 A 
ATOM     59  C   UNL A   1      43.305  32.907  33.810  1.00  0.00     0.012 A 
ATOM     60  C   UNL A   1      42.069  31.520  35.382  1.00  0.00     0.148 A 
ATOM     61  C   UNL A   1      43.256  33.978  34.700  1.00  0.00     0.002 A 
ATOM     62  C   UNL A   1      41.988  32.607  36.247  1.00  0.00     0.091 A 
ATOM     63  F   UNL A   1      41.539  30.328  35.688  1.00  0.00    -0.205 F 
ATOM     64  C   UNL A   1      42.589  33.832  35.912  1.00  0.00     0.022 A 
BRANCH  62  65
ATOM     65  S   UNL A   1      41.089  32.550  37.802  1.00  0.00     0.127 S 
ATOM     66  O   UNL A   1      41.951  31.688  38.610  1.00  0.00    -0.237 OA
ATOM     67  O   UNL A   1      41.084  33.956  38.205  1.00  0.00    -0.237 OA
ATOM     68  O   UNL A   1      39.777  31.999  37.490  1.00  0.00    -0.744 OA
ENDBRANCH  62  65
ENDBRANCH  44  58
BRANCH  45  69
ATOM     69  C   UNL A   1      42.532  24.389  27.279  1.00  0.00     0.023 A 
ATOM     70  C   UNL A   1      43.371  24.514  26.153  1.00  0.00     0.012 A 
ATOM     71  C   UNL A   1      41.713  23.251  27.398  1.00  0.00     0.148 A 
ATOM     72  C   UNL A   1      43.359  23.549  25.145  1.00  0.00     0.002 A 
ATOM     73  C   UNL A   1      41.748  22.265  26.418  1.00  0.00     0.091 A 
ATOM     74  F   UNL A   1      40.909  23.152  28.467  1.00  0.00    -0.205 F 
ATOM     75  C   UNL A   1      42.554  22.421  25.281  1.00  0.00     0.022 A 
BRANCH  73  76
ATOM     76  S   UNL A   1      40.842  20.723  26.591  1.00  0.00     0.127 S 
ATOM     77  O   UNL A   1      39.512  21.102  26.123  1.00  0.00    -0.237 OA
ATOM     78  O   UNL A   1      41.579  19.829  25.696  1.00  0.00    -0.237 OA
ATOM     79  O   UNL A   1      40.951  20.373  28.001  1.00  0.00    -0.744 OA
ENDBRANCH  73  76
ENDBRANCH  45  69
BRANCH  57  80
ATOM     80  C   UNL A   1      46.892  26.028  32.466  1.00  0.00     0.023 A 
ATOM     81  C   UNL A   1      48.129  26.478  31.964  1.00  0.00     0.012 A 
ATOM     82  C   UNL A   1      46.869  25.043  33.472  1.00  0.00     0.148 A 
ATOM     83  C   UNL A   1      49.323  25.930  32.430  1.00  0.00     0.002 A 
ATOM     84  C   UNL A   1      48.065  24.535  33.965  1.00  0.00     0.091 A 
ATOM     85  F   UNL A   1      45.680  24.614  33.923  1.00  0.00    -0.205 F 
ATOM     86  C   UNL A   1      49.291  24.969  33.437  1.00  0.00     0.022 A 
BRANCH  84  87
ATOM     87  S   UNL A   1      48.122  23.364  35.326  1.00  0.00     0.127 S 
ATOM     88  O   UNL A   1      47.440  24.104  36.385  1.00  0.00    -0.237 OA
ATOM     89  O   UNL A   1      47.368  22.229  34.792  1.00  0.00    -0.237 OA
ATOM     90  O   UNL A   1      49.535  23.092  35.559  1.00  0.00    -0.744 OA
ENDBRANCH  84  87
ENDBRANCH  57  80
ENDBRANCH  31  32
ENDBRANCH  23  26
ENDBRANCH  21  22
ENDBRANCH   1  21
TORSDOF 15
ENDMDL
