MODEL 1
REMARK VINA RESULT:     -12.7      0.000      0.000
REMARK SMILES Cc1cc2c(c(C)c1Cl)C=C(C(=O)NCCCNC(=O)c1ccc(-c3c4nc(c(-c5cccc(S(=O)(=O)[O-])c5F)c5ccc([nH]5)c(-c5cccc(S(=O)(=O)[O-])c5F)c5nc(c(-c6cccc(S(=O)(=O)[O-])c6F)c6ccc3[nH]6)C=C5)C=C4)cc1)[C@H](C(F)(F)F)O2
REMARK SMILES IDX 17 1 16 2 15 3 14 4 12 5 13 6 11 8 1 9 2 10 3 11 8 12 4 13
REMARK SMILES IDX 6 14 9 15 5 16 89 17 7 18 10 19 84 20 85 21 86 22 87 23
REMARK SMILES IDX 88 24 18 25 19 26 20 28 21 29 22 30 83 31 23 32 82 33 24 34
REMARK SMILES IDX 25 35 26 36 76 37 27 38 81 39 75 40 77 41 28 42 80 43 74 44
REMARK SMILES IDX 73 45 29 47 61 48 41 49 60 50 42 51 45 52 59 53 78 54 43 55
REMARK SMILES IDX 44 56 58 58 79 59 46 60 30 61 31 62 39 63 32 64 34 65 40 66
REMARK SMILES IDX 33 67 35 68 36 69 37 70 38 71 62 72 63 73 71 74 64 75 66 76
REMARK SMILES IDX 72 77 65 78 67 79 68 80 69 81 70 82 47 83 48 84 56 85 49 86
REMARK SMILES IDX 51 87 57 88 50 89 52 90 53 91 54 92 55 93
REMARK H PARENT 14 7 18 27 77 46 45 57
REMARK Flexibility Score: inf
ROOT
ATOM      1  C   UNL A   1      32.632  30.368  26.937  1.00  0.00     0.118 C 
ENDROOT
BRANCH   1   2
ATOM      2  C   UNL A   1      32.507  29.814  25.521  1.00  0.00     0.042 C 
BRANCH   2   3
ATOM      3  C   UNL A   1      33.566  28.763  25.207  1.00  0.00     0.118 C 
BRANCH   3   4
ATOM      4  N   UNL A   1      33.857  28.691  23.782  1.00  0.00    -0.352 N 
ATOM      5  C   UNL A   1      33.724  27.787  22.786  1.00  0.00     0.251 C 
ATOM      6  O   UNL A   1      34.017  28.204  21.659  1.00  0.00    -0.270 OA
ATOM      7  H   UNL A   1      34.258  29.529  23.456  1.00  0.00     0.163 HD
BRANCH   5   8
ATOM      8  C   UNL A   1      33.258  26.380  22.949  1.00  0.00     0.067 C 
ATOM      9  C   UNL A   1      32.528  19.991  23.965  1.00  0.00     0.046 C 
ATOM     10  C   UNL A   1      33.009  21.414  23.870  1.00  0.00    -0.028 A 
ATOM     11  C   UNL A   1      32.166  22.361  23.281  1.00  0.00     0.052 A 
ATOM     12  C   UNL A   1      34.283  21.820  24.319  1.00  0.00     0.047 A 
ATOM     13  C   UNL A   1      32.569  23.685  23.157  1.00  0.00     0.128 A 
ATOM     14  C   UNL A   1      34.707  23.166  24.198  1.00  0.00    -0.021 A 
ATOM     15  Cl  UNL A   1      35.335  20.618  25.008  1.00  0.00    -0.084 Cl
ATOM     16  C   UNL A   1      33.832  24.102  23.592  1.00  0.00     0.022 A 
ATOM     17  O   UNL A   1      31.672  24.516  22.548  1.00  0.00    -0.475 OA
ATOM     18  C   UNL A   1      36.058  23.624  24.695  1.00  0.00     0.047 C 
ATOM     19  C   UNL A   1      34.198  25.500  23.343  1.00  0.00     0.026 C 
ATOM     20  C   UNL A   1      31.832  25.936  22.801  1.00  0.00     0.314 C 
BRANCH  20  21
ATOM     21  C   UNL A   1      30.923  26.390  23.955  1.00  0.00     0.429 C 
ATOM     22  F   UNL A   1      30.612  27.702  23.886  1.00  0.00    -0.167 F 
ATOM     23  F   UNL A   1      29.758  25.704  23.990  1.00  0.00    -0.167 F 
ATOM     24  F   UNL A   1      31.543  26.173  25.142  1.00  0.00    -0.167 F 
ENDBRANCH  20  21
ENDBRANCH   5   8
ENDBRANCH   3   4
ENDBRANCH   2   3
ENDBRANCH   1   2
BRANCH   1  25
ATOM     25  N   UNL A   1      32.772  31.820  26.934  1.00  0.00    -0.352 N 
ATOM     26  C   UNL A   1      33.669  32.612  27.604  1.00  0.00     0.251 C 
ATOM     27  H   UNL A   1      32.127  32.304  26.368  1.00  0.00     0.163 HD
ATOM     28  O   UNL A   1      33.450  33.822  27.705  1.00  0.00    -0.269 OA
BRANCH  26  29
ATOM     29  C   UNL A   1      34.886  32.026  28.202  1.00  0.00     0.039 A 
ATOM     30  C   UNL A   1      36.079  32.753  28.181  1.00  0.00     0.014 A 
ATOM     31  C   UNL A   1      34.858  30.743  28.754  1.00  0.00     0.014 A 
ATOM     32  C   UNL A   1      37.229  32.211  28.760  1.00  0.00     0.010 A 
ATOM     33  C   UNL A   1      35.978  30.244  29.409  1.00  0.00     0.010 A 
ATOM     34  C   UNL A   1      37.182  30.963  29.403  1.00  0.00    -0.014 A 
BRANCH  34  35
ATOM     35  C   UNL A   1      38.384  30.384  30.054  1.00  0.00     0.031 A 
ATOM     36  C   UNL A   1      38.800  30.851  31.424  1.00  0.00     0.074 A 
ATOM     37  C   UNL A   1      39.133  29.483  29.388  1.00  0.00     0.049 A 
ATOM     38  N   UNL A   1      39.826  30.479  32.142  1.00  0.00    -0.248 NA
ATOM     39  C   UNL A   1      37.971  31.890  32.060  1.00  0.00     0.031 C 
ATOM     40  C   UNL A   1      38.872  29.007  28.028  1.00  0.00     0.029 A 
ATOM     41  N   UNL A   1      40.273  28.815  29.758  1.00  0.00    -0.354 N 
ATOM     42  C   UNL A   1      39.779  31.250  33.298  1.00  0.00     0.074 A 
ATOM     43  C   UNL A   1      38.655  32.147  33.165  1.00  0.00     0.031 C 
ATOM     44  C   UNL A   1      39.807  28.107  27.689  1.00  0.00     0.029 A 
ATOM     45  C   UNL A   1      40.752  27.961  28.792  1.00  0.00     0.049 A 
ATOM     46  H   UNL A   1      40.707  28.935  30.634  1.00  0.00     0.167 HD
ATOM     47  C   UNL A   1      40.572  31.186  34.393  1.00  0.00     0.034 A 
ATOM     48  C   UNL A   1      41.828  27.147  28.798  1.00  0.00     0.034 A 
ATOM     49  C   UNL A   1      41.659  30.256  34.539  1.00  0.00     0.049 A 
ATOM     50  C   UNL A   1      42.684  27.080  30.034  1.00  0.00     0.074 A 
ATOM     51  C   UNL A   1      42.477  30.061  35.638  1.00  0.00     0.029 A 
ATOM     52  N   UNL A   1      42.079  29.368  33.562  1.00  0.00    -0.354 N 
ATOM     53  N   UNL A   1      42.534  27.709  31.175  1.00  0.00    -0.248 NA
ATOM     54  C   UNL A   1      43.837  26.167  30.001  1.00  0.00     0.031 C 
ATOM     55  C   UNL A   1      43.407  29.070  35.314  1.00  0.00     0.029 A 
ATOM     56  C   UNL A   1      43.152  28.628  34.025  1.00  0.00     0.049 A 
ATOM     57  H   UNL A   1      41.675  29.278  32.668  1.00  0.00     0.167 HD
ATOM     58  C   UNL A   1      43.553  27.250  32.003  1.00  0.00     0.074 A 
ATOM     59  C   UNL A   1      44.299  26.271  31.240  1.00  0.00     0.031 C 
ATOM     60  C   UNL A   1      43.852  27.619  33.272  1.00  0.00     0.034 A 
BRANCH  47  61
ATOM     61  C   UNL A   1      40.249  32.089  35.554  1.00  0.00     0.023 A 
ATOM     62  C   UNL A   1      40.992  33.275  35.732  1.00  0.00     0.012 A 
ATOM     63  C   UNL A   1      39.165  31.820  36.413  1.00  0.00     0.148 A 
ATOM     64  C   UNL A   1      40.682  34.163  36.761  1.00  0.00     0.002 A 
ATOM     65  C   UNL A   1      38.832  32.733  37.406  1.00  0.00     0.091 A 
ATOM     66  F   UNL A   1      38.481  30.679  36.240  1.00  0.00    -0.205 F 
ATOM     67  C   UNL A   1      39.596  33.898  37.589  1.00  0.00     0.022 A 
BRANCH  65  68
ATOM     68  S   UNL A   1      37.399  32.532  38.473  1.00  0.00     0.127 S 
ATOM     69  O   UNL A   1      37.759  33.377  39.611  1.00  0.00    -0.237 OA
ATOM     70  O   UNL A   1      36.321  33.062  37.638  1.00  0.00    -0.237 OA
ATOM     71  O   UNL A   1      37.307  31.108  38.761  1.00  0.00    -0.744 OA
ENDBRANCH  65  68
ENDBRANCH  47  61
BRANCH  48  72
ATOM     72  C   UNL A   1      42.091  26.263  27.626  1.00  0.00     0.023 A 
ATOM     73  C   UNL A   1      42.819  26.772  26.532  1.00  0.00     0.012 A 
ATOM     74  C   UNL A   1      41.683  24.914  27.609  1.00  0.00     0.148 A 
ATOM     75  C   UNL A   1      43.117  25.964  25.435  1.00  0.00     0.002 A 
ATOM     76  C   UNL A   1      42.034  24.098  26.538  1.00  0.00     0.091 A 
ATOM     77  F   UNL A   1      40.983  24.450  28.653  1.00  0.00    -0.205 F 
ATOM     78  C   UNL A   1      42.737  24.625  25.443  1.00  0.00     0.022 A 
BRANCH  76  79
ATOM     79  S   UNL A   1      41.711  22.331  26.522  1.00  0.00     0.127 S 
ATOM     80  O   UNL A   1      42.303  21.907  27.789  1.00  0.00    -0.237 OA
ATOM     81  O   UNL A   1      40.248  22.294  26.482  1.00  0.00    -0.237 OA
ATOM     82  O   UNL A   1      42.359  21.822  25.322  1.00  0.00    -0.744 OA
ENDBRANCH  76  79
ENDBRANCH  48  72
BRANCH  60  83
ATOM     83  C   UNL A   1      45.030  26.963  33.945  1.00  0.00     0.023 A 
ATOM     84  C   UNL A   1      46.294  27.583  33.887  1.00  0.00     0.012 A 
ATOM     85  C   UNL A   1      44.856  25.816  34.744  1.00  0.00     0.148 A 
ATOM     86  C   UNL A   1      47.370  27.062  34.603  1.00  0.00     0.002 A 
ATOM     87  C   UNL A   1      45.920  25.334  35.497  1.00  0.00     0.091 A 
ATOM     88  F   UNL A   1      43.647  25.235  34.774  1.00  0.00    -0.205 F 
ATOM     89  C   UNL A   1      47.180  25.949  35.419  1.00  0.00     0.022 A 
BRANCH  87  90
ATOM     90  S   UNL A   1      45.747  23.975  36.661  1.00  0.00     0.127 S 
ATOM     91  O   UNL A   1      47.094  23.890  37.222  1.00  0.00    -0.237 OA
ATOM     92  O   UNL A   1      44.732  24.487  37.583  1.00  0.00    -0.237 OA
ATOM     93  O   UNL A   1      45.327  22.822  35.876  1.00  0.00    -0.744 OA
ENDBRANCH  87  90
ENDBRANCH  60  83
ENDBRANCH  34  35
ENDBRANCH  26  29
ENDBRANCH   1  25
TORSDOF 14
ENDMDL
MODEL 2
REMARK VINA RESULT:     -12.7      1.426      1.814
REMARK SMILES Cc1cc2c(c(C)c1Cl)C=C(C(=O)NCCCNC(=O)c1ccc(-c3c4nc(c(-c5cccc(S(=O)(=O)[O-])c5F)c5ccc([nH]5)c(-c5cccc(S(=O)(=O)[O-])c5F)c5nc(c(-c6cccc(S(=O)(=O)[O-])c6F)c6ccc3[nH]6)C=C5)C=C4)cc1)[C@H](C(F)(F)F)O2
REMARK SMILES IDX 17 1 16 2 15 3 14 4 12 5 13 6 11 8 1 9 2 10 3 11 8 12 4 13
REMARK SMILES IDX 6 14 9 15 5 16 89 17 7 18 10 19 84 20 85 21 86 22 87 23
REMARK SMILES IDX 88 24 18 25 19 26 20 28 21 29 22 30 83 31 23 32 82 33 24 34
REMARK SMILES IDX 25 35 26 36 76 37 27 38 81 39 75 40 77 41 28 42 80 43 74 44
REMARK SMILES IDX 73 45 29 47 61 48 41 49 60 50 42 51 45 52 59 53 78 54 43 55
REMARK SMILES IDX 44 56 58 58 79 59 46 60 30 61 31 62 39 63 32 64 34 65 40 66
REMARK SMILES IDX 33 67 35 68 36 69 37 70 38 71 62 72 63 73 71 74 64 75 66 76
REMARK SMILES IDX 72 77 65 78 67 79 68 80 69 81 70 82 47 83 48 84 56 85 49 86
REMARK SMILES IDX 51 87 57 88 50 89 52 90 53 91 54 92 55 93
REMARK H PARENT 14 7 18 27 77 46 45 57
REMARK Flexibility Score: inf
ROOT
ATOM      1  C   UNL A   1      33.122  29.256  25.281  1.00  0.00     0.118 C 
ENDROOT
BRANCH   1   2
ATOM      2  C   UNL A   1      32.833  29.081  23.794  1.00  0.00     0.042 C 
BRANCH   2   3
ATOM      3  C   UNL A   1      33.612  27.925  23.176  1.00  0.00     0.118 C 
BRANCH   3   4
ATOM      4  N   UNL A   1      32.928  27.363  22.020  1.00  0.00    -0.352 N 
ATOM      5  C   UNL A   1      32.302  26.207  21.701  1.00  0.00     0.251 C 
ATOM      6  O   UNL A   1      31.750  26.201  20.596  1.00  0.00    -0.270 OA
ATOM      7  H   UNL A   1      32.918  27.996  21.267  1.00  0.00     0.163 HD
BRANCH   5   8
ATOM      8  C   UNL A   1      32.229  24.994  22.566  1.00  0.00     0.067 C 
ATOM      9  C   UNL A   1      33.206  19.517  25.946  1.00  0.00     0.046 C 
ATOM     10  C   UNL A   1      33.323  20.770  25.120  1.00  0.00    -0.028 A 
ATOM     11  C   UNL A   1      32.154  21.466  24.801  1.00  0.00     0.052 A 
ATOM     12  C   UNL A   1      34.557  21.248  24.632  1.00  0.00     0.047 A 
ATOM     13  C   UNL A   1      32.208  22.621  24.030  1.00  0.00     0.128 A 
ATOM     14  C   UNL A   1      34.626  22.423  23.843  1.00  0.00    -0.021 A 
ATOM     15  Cl  UNL A   1      35.996  20.343  25.002  1.00  0.00    -0.084 Cl
ATOM     16  C   UNL A   1      33.422  23.104  23.532  1.00  0.00     0.022 A 
ATOM     17  O   UNL A   1      31.002  23.205  23.765  1.00  0.00    -0.475 OA
ATOM     18  C   UNL A   1      35.941  22.963  23.331  1.00  0.00     0.047 C 
ATOM     19  C   UNL A   1      33.368  24.281  22.660  1.00  0.00     0.026 C 
ATOM     20  C   UNL A   1      31.032  24.603  23.381  1.00  0.00     0.314 C 
BRANCH  20  21
ATOM     21  C   UNL A   1      30.796  25.509  24.601  1.00  0.00     0.429 C 
ATOM     22  F   UNL A   1      30.164  26.659  24.280  1.00  0.00    -0.167 F 
ATOM     23  F   UNL A   1      30.057  24.899  25.556  1.00  0.00    -0.167 F 
ATOM     24  F   UNL A   1      31.984  25.834  25.170  1.00  0.00    -0.167 F 
ENDBRANCH  20  21
ENDBRANCH   5   8
ENDBRANCH   3   4
ENDBRANCH   2   3
ENDBRANCH   1   2
BRANCH   1  25
ATOM     25  N   UNL A   1      32.715  30.574  25.757  1.00  0.00    -0.352 N 
ATOM     26  C   UNL A   1      33.151  31.281  26.847  1.00  0.00     0.251 C 
ATOM     27  H   UNL A   1      32.025  31.021  25.215  1.00  0.00     0.163 HD
ATOM     28  O   UNL A   1      32.489  32.242  27.249  1.00  0.00    -0.269 OA
BRANCH  26  29
ATOM     29  C   UNL A   1      34.400  30.900  27.538  1.00  0.00     0.039 A 
ATOM     30  C   UNL A   1      35.408  31.853  27.708  1.00  0.00     0.014 A 
ATOM     31  C   UNL A   1      34.590  29.593  27.990  1.00  0.00     0.014 A 
ATOM     32  C   UNL A   1      36.584  31.503  28.376  1.00  0.00     0.010 A 
ATOM     33  C   UNL A   1      35.720  29.271  28.733  1.00  0.00     0.010 A 
ATOM     34  C   UNL A   1      36.739  30.216  28.918  1.00  0.00    -0.014 A 
BRANCH  34  35
ATOM     35  C   UNL A   1      37.966  29.834  29.661  1.00  0.00     0.031 A 
ATOM     36  C   UNL A   1      38.222  30.391  31.036  1.00  0.00     0.074 A 
ATOM     37  C   UNL A   1      38.878  29.033  29.074  1.00  0.00     0.049 A 
ATOM     38  N   UNL A   1      39.241  30.190  31.828  1.00  0.00    -0.248 NA
ATOM     39  C   UNL A   1      37.213  31.316  31.584  1.00  0.00     0.031 C 
ATOM     40  C   UNL A   1      38.777  28.490  27.718  1.00  0.00     0.029 A 
ATOM     41  N   UNL A   1      40.075  28.547  29.536  1.00  0.00    -0.354 N 
ATOM     42  C   UNL A   1      39.009  30.976  32.951  1.00  0.00     0.074 A 
ATOM     43  C   UNL A   1      37.780  31.698  32.718  1.00  0.00     0.031 C 
ATOM     44  C   UNL A   1      39.851  27.726  27.468  1.00  0.00     0.029 A 
ATOM     45  C   UNL A   1      40.733  27.746  28.631  1.00  0.00     0.049 A 
ATOM     46  H   UNL A   1      40.430  28.751  30.432  1.00  0.00     0.167 HD
ATOM     47  C   UNL A   1      39.731  31.055  34.094  1.00  0.00     0.034 A 
ATOM     48  C   UNL A   1      41.911  27.096  28.730  1.00  0.00     0.034 A 
ATOM     49  C   UNL A   1      40.927  30.297  34.339  1.00  0.00     0.049 A 
ATOM     50  C   UNL A   1      42.685  27.186  30.018  1.00  0.00     0.074 A 
ATOM     51  C   UNL A   1      41.691  30.250  35.490  1.00  0.00     0.029 A 
ATOM     52  N   UNL A   1      41.532  29.454  33.420  1.00  0.00    -0.354 N 
ATOM     53  N   UNL A   1      42.373  27.816  31.124  1.00  0.00    -0.248 NA
ATOM     54  C   UNL A   1      43.956  26.449  30.086  1.00  0.00     0.031 C 
ATOM     55  C   UNL A   1      42.772  29.396  35.259  1.00  0.00     0.029 A 
ATOM     56  C   UNL A   1      42.668  28.889  33.973  1.00  0.00     0.049 A 
ATOM     57  H   UNL A   1      41.204  29.283  32.507  1.00  0.00     0.167 HD
ATOM     58  C   UNL A   1      43.391  27.530  32.029  1.00  0.00     0.074 A 
ATOM     59  C   UNL A   1      44.317  26.650  31.347  1.00  0.00     0.031 C 
ATOM     60  C   UNL A   1      43.552  27.971  33.300  1.00  0.00     0.034 A 
BRANCH  47  61
ATOM     61  C   UNL A   1      39.207  31.933  35.201  1.00  0.00     0.023 A 
ATOM     62  C   UNL A   1      38.242  31.417  36.090  1.00  0.00     0.012 A 
ATOM     63  C   UNL A   1      39.726  33.225  35.418  1.00  0.00     0.148 A 
ATOM     64  C   UNL A   1      37.779  32.182  37.160  1.00  0.00     0.002 A 
ATOM     65  C   UNL A   1      39.294  33.963  36.514  1.00  0.00     0.091 A 
ATOM     66  F   UNL A   1      40.630  33.706  34.552  1.00  0.00    -0.205 F 
ATOM     67  C   UNL A   1      38.313  33.448  37.379  1.00  0.00     0.022 A 
BRANCH  65  68
ATOM     68  S   UNL A   1      39.980  35.569  36.938  1.00  0.00     0.127 S 
ATOM     69  O   UNL A   1      39.290  35.861  38.194  1.00  0.00    -0.237 OA
ATOM     70  O   UNL A   1      41.404  35.264  37.083  1.00  0.00    -0.237 OA
ATOM     71  O   UNL A   1      39.653  36.452  35.829  1.00  0.00    -0.744 OA
ENDBRANCH  65  68
ENDBRANCH  47  61
BRANCH  48  72
ATOM     72  C   UNL A   1      42.373  26.229  27.608  1.00  0.00     0.023 A 
ATOM     73  C   UNL A   1      43.299  26.745  26.679  1.00  0.00     0.012 A 
ATOM     74  C   UNL A   1      41.955  24.890  27.486  1.00  0.00     0.148 A 
ATOM     75  C   UNL A   1      43.783  25.952  25.638  1.00  0.00     0.002 A 
ATOM     76  C   UNL A   1      42.486  24.087  26.481  1.00  0.00     0.091 A 
ATOM     77  F   UNL A   1      41.066  24.419  28.372  1.00  0.00    -0.205 F 
ATOM     78  C   UNL A   1      43.387  24.621  25.547  1.00  0.00     0.022 A 
BRANCH  76  79
ATOM     79  S   UNL A   1      42.144  22.327  26.367  1.00  0.00     0.127 S 
ATOM     80  O   UNL A   1      40.696  22.315  26.170  1.00  0.00    -0.237 OA
ATOM     81  O   UNL A   1      42.929  21.946  25.191  1.00  0.00    -0.237 OA
ATOM     82  O   UNL A   1      42.616  21.751  27.617  1.00  0.00    -0.744 OA
ENDBRANCH  76  79
ENDBRANCH  48  72
BRANCH  60  83
ATOM     83  C   UNL A   1      44.765  27.510  34.066  1.00  0.00     0.023 A 
ATOM     84  C   UNL A   1      45.907  28.333  34.114  1.00  0.00     0.012 A 
ATOM     85  C   UNL A   1      44.721  26.337  34.845  1.00  0.00     0.148 A 
ATOM     86  C   UNL A   1      46.994  27.987  34.915  1.00  0.00     0.002 A 
ATOM     87  C   UNL A   1      45.787  26.027  35.681  1.00  0.00     0.091 A 
ATOM     88  F   UNL A   1      43.628  25.563  34.773  1.00  0.00    -0.205 F 
ATOM     89  C   UNL A   1      46.928  26.845  35.709  1.00  0.00     0.022 A 
BRANCH  87  90
ATOM     90  S   UNL A   1      45.750  24.639  36.823  1.00  0.00     0.127 S 
ATOM     91  O   UNL A   1      45.657  23.503  35.907  1.00  0.00    -0.237 OA
ATOM     92  O   UNL A   1      47.037  24.769  37.507  1.00  0.00    -0.237 OA
ATOM     93  O   UNL A   1      44.586  24.848  37.674  1.00  0.00    -0.744 OA
ENDBRANCH  87  90
ENDBRANCH  60  83
ENDBRANCH  34  35
ENDBRANCH  26  29
ENDBRANCH   1  25
TORSDOF 14
ENDMDL
MODEL 3
REMARK VINA RESULT:     -12.6      5.374     10.258
REMARK SMILES Cc1cc2c(c(C)c1Cl)C=C(C(=O)NCCCNC(=O)c1ccc(-c3c4nc(c(-c5cccc(S(=O)(=O)[O-])c5F)c5ccc([nH]5)c(-c5cccc(S(=O)(=O)[O-])c5F)c5nc(c(-c6cccc(S(=O)(=O)[O-])c6F)c6ccc3[nH]6)C=C5)C=C4)cc1)[C@H](C(F)(F)F)O2
REMARK SMILES IDX 17 1 16 2 15 3 14 4 12 5 13 6 11 8 1 9 2 10 3 11 8 12 4 13
REMARK SMILES IDX 6 14 9 15 5 16 89 17 7 18 10 19 84 20 85 21 86 22 87 23
REMARK SMILES IDX 88 24 18 25 19 26 20 28 21 29 22 30 83 31 23 32 82 33 24 34
REMARK SMILES IDX 25 35 26 36 76 37 27 38 81 39 75 40 77 41 28 42 80 43 74 44
REMARK SMILES IDX 73 45 29 47 61 48 41 49 60 50 42 51 45 52 59 53 78 54 43 55
REMARK SMILES IDX 44 56 58 58 79 59 46 60 30 61 31 62 39 63 32 64 34 65 40 66
REMARK SMILES IDX 33 67 35 68 36 69 37 70 38 71 62 72 63 73 71 74 64 75 66 76
REMARK SMILES IDX 72 77 65 78 67 79 68 80 69 81 70 82 47 83 48 84 56 85 49 86
REMARK SMILES IDX 51 87 57 88 50 89 52 90 53 91 54 92 55 93
REMARK H PARENT 14 7 18 27 77 46 45 57
REMARK Flexibility Score: inf
ROOT
ATOM      1  C   UNL A   1      37.722  21.913  25.034  1.00  0.00     0.118 C 
ENDROOT
BRANCH   1   2
ATOM      2  C   UNL A   1      36.253  21.821  25.435  1.00  0.00     0.042 C 
BRANCH   2   3
ATOM      3  C   UNL A   1      35.803  23.002  26.289  1.00  0.00     0.118 C 
BRANCH   3   4
ATOM      4  N   UNL A   1      34.763  22.624  27.234  1.00  0.00    -0.352 N 
ATOM      5  C   UNL A   1      33.421  22.761  27.342  1.00  0.00     0.251 C 
ATOM      6  O   UNL A   1      32.912  22.169  28.301  1.00  0.00    -0.270 OA
ATOM      7  H   UNL A   1      35.137  22.139  28.004  1.00  0.00     0.163 HD
BRANCH   5   8
ATOM      8  C   UNL A   1      32.551  23.536  26.412  1.00  0.00     0.067 C 
ATOM      9  C   UNL A   1      29.214  28.002  23.050  1.00  0.00     0.046 C 
ATOM     10  C   UNL A   1      30.147  27.247  23.958  1.00  0.00    -0.028 A 
ATOM     11  C   UNL A   1      30.039  25.854  24.010  1.00  0.00     0.052 A 
ATOM     12  C   UNL A   1      31.100  27.888  24.776  1.00  0.00     0.047 A 
ATOM     13  C   UNL A   1      30.869  25.112  24.842  1.00  0.00     0.128 A 
ATOM     14  C   UNL A   1      31.951  27.144  25.630  1.00  0.00    -0.021 A 
ATOM     15  Cl  UNL A   1      31.189  29.625  24.731  1.00  0.00    -0.084 Cl
ATOM     16  C   UNL A   1      31.814  25.734  25.665  1.00  0.00     0.022 A 
ATOM     17  O   UNL A   1      30.660  23.762  24.825  1.00  0.00    -0.475 OA
ATOM     18  C   UNL A   1      32.993  27.812  26.496  1.00  0.00     0.047 C 
ATOM     19  C   UNL A   1      32.585  24.873  26.567  1.00  0.00     0.026 C 
ATOM     20  C   UNL A   1      31.754  22.933  25.293  1.00  0.00     0.314 C 
BRANCH  20  21
ATOM     21  C   UNL A   1      32.616  22.451  24.114  1.00  0.00     0.429 C 
ATOM     22  F   UNL A   1      33.617  23.308  23.819  1.00  0.00    -0.167 F 
ATOM     23  F   UNL A   1      33.179  21.244  24.351  1.00  0.00    -0.167 F 
ATOM     24  F   UNL A   1      31.846  22.316  23.006  1.00  0.00    -0.167 F 
ENDBRANCH  20  21
ENDBRANCH   5   8
ENDBRANCH   3   4
ENDBRANCH   2   3
ENDBRANCH   1   2
BRANCH   1  25
ATOM     25  N   UNL A   1      38.531  20.914  25.725  1.00  0.00    -0.352 N 
ATOM     26  C   UNL A   1      39.710  21.067  26.408  1.00  0.00     0.251 C 
ATOM     27  H   UNL A   1      38.178  19.995  25.698  1.00  0.00     0.163 HD
ATOM     28  O   UNL A   1      40.389  20.071  26.674  1.00  0.00    -0.269 OA
BRANCH  26  29
ATOM     29  C   UNL A   1      40.169  22.409  26.821  1.00  0.00     0.039 A 
ATOM     30  C   UNL A   1      41.080  22.528  27.874  1.00  0.00     0.014 A 
ATOM     31  C   UNL A   1      39.675  23.553  26.191  1.00  0.00     0.014 A 
ATOM     32  C   UNL A   1      41.531  23.793  28.258  1.00  0.00     0.010 A 
ATOM     33  C   UNL A   1      40.193  24.803  26.513  1.00  0.00     0.010 A 
ATOM     34  C   UNL A   1      41.111  24.940  27.563  1.00  0.00    -0.014 A 
BRANCH  34  35
ATOM     35  C   UNL A   1      41.604  26.291  27.933  1.00  0.00     0.031 A 
ATOM     36  C   UNL A   1      43.023  26.687  27.625  1.00  0.00     0.074 A 
ATOM     37  C   UNL A   1      40.792  27.137  28.598  1.00  0.00     0.049 A 
ATOM     38  N   UNL A   1      43.639  27.810  27.888  1.00  0.00    -0.248 NA
ATOM     39  C   UNL A   1      43.872  25.683  26.959  1.00  0.00     0.031 C 
ATOM     40  C   UNL A   1      39.421  26.839  29.017  1.00  0.00     0.029 A 
ATOM     41  N   UNL A   1      41.005  28.415  29.051  1.00  0.00    -0.354 N 
ATOM     42  C   UNL A   1      44.944  27.641  27.441  1.00  0.00     0.074 A 
ATOM     43  C   UNL A   1      45.049  26.290  26.939  1.00  0.00     0.031 C 
ATOM     44  C   UNL A   1      38.908  27.910  29.640  1.00  0.00     0.029 A 
ATOM     45  C   UNL A   1      39.919  28.961  29.694  1.00  0.00     0.049 A 
ATOM     46  H   UNL A   1      41.856  28.896  28.927  1.00  0.00     0.167 HD
ATOM     47  C   UNL A   1      45.953  28.543  27.410  1.00  0.00     0.034 A 
ATOM     48  C   UNL A   1      39.755  30.176  30.257  1.00  0.00     0.034 A 
ATOM     49  C   UNL A   1      45.827  29.900  27.867  1.00  0.00     0.049 A 
ATOM     50  C   UNL A   1      40.886  31.167  30.193  1.00  0.00     0.074 A 
ATOM     51  C   UNL A   1      46.767  30.913  27.811  1.00  0.00     0.029 A 
ATOM     52  N   UNL A   1      44.694  30.434  28.460  1.00  0.00    -0.354 N 
ATOM     53  N   UNL A   1      42.064  31.037  29.633  1.00  0.00    -0.248 NA
ATOM     54  C   UNL A   1      40.657  32.484  30.807  1.00  0.00     0.031 C 
ATOM     55  C   UNL A   1      46.209  32.054  28.393  1.00  0.00     0.029 A 
ATOM     56  C   UNL A   1      44.913  31.760  28.787  1.00  0.00     0.049 A 
ATOM     57  H   UNL A   1      43.858  29.941  28.627  1.00  0.00     0.167 HD
ATOM     58  C   UNL A   1      42.705  32.261  29.800  1.00  0.00     0.074 A 
ATOM     59  C   UNL A   1      41.775  33.126  30.494  1.00  0.00     0.031 C 
ATOM     60  C   UNL A   1      43.957  32.626  29.429  1.00  0.00     0.034 A 
BRANCH  47  61
ATOM     61  C   UNL A   1      47.260  28.119  26.792  1.00  0.00     0.023 A 
ATOM     62  C   UNL A   1      48.343  27.785  27.631  1.00  0.00     0.012 A 
ATOM     63  C   UNL A   1      47.395  27.966  25.398  1.00  0.00     0.148 A 
ATOM     64  C   UNL A   1      49.548  27.334  27.095  1.00  0.00     0.002 A 
ATOM     65  C   UNL A   1      48.583  27.471  24.873  1.00  0.00     0.091 A 
ATOM     66  F   UNL A   1      46.362  28.306  24.614  1.00  0.00    -0.205 F 
ATOM     67  C   UNL A   1      49.664  27.166  25.719  1.00  0.00     0.022 A 
BRANCH  65  68
ATOM     68  S   UNL A   1      48.809  27.133  23.123  1.00  0.00     0.127 S 
ATOM     69  O   UNL A   1      48.129  28.275  22.512  1.00  0.00    -0.237 OA
ATOM     70  O   UNL A   1      50.266  27.152  22.993  1.00  0.00    -0.237 OA
ATOM     71  O   UNL A   1      48.190  25.839  22.879  1.00  0.00    -0.744 OA
ENDBRANCH  65  68
ENDBRANCH  47  61
BRANCH  48  72
ATOM     72  C   UNL A   1      38.434  30.547  30.842  1.00  0.00     0.023 A 
ATOM     73  C   UNL A   1      38.179  30.259  32.198  1.00  0.00     0.012 A 
ATOM     74  C   UNL A   1      37.456  31.229  30.091  1.00  0.00     0.148 A 
ATOM     75  C   UNL A   1      36.969  30.625  32.790  1.00  0.00     0.002 A 
ATOM     76  C   UNL A   1      36.277  31.642  30.703  1.00  0.00     0.091 A 
ATOM     77  F   UNL A   1      37.712  31.484  28.800  1.00  0.00    -0.205 F 
ATOM     78  C   UNL A   1      36.025  31.327  32.047  1.00  0.00     0.022 A 
BRANCH  76  79
ATOM     79  S   UNL A   1      35.063  32.670  29.868  1.00  0.00     0.127 S 
ATOM     80  O   UNL A   1      34.129  32.971  30.951  1.00  0.00    -0.237 OA
ATOM     81  O   UNL A   1      35.881  33.802  29.428  1.00  0.00    -0.237 OA
ATOM     82  O   UNL A   1      34.532  31.856  28.785  1.00  0.00    -0.744 OA
ENDBRANCH  76  79
ENDBRANCH  48  72
BRANCH  60  83
ATOM     83  C   UNL A   1      44.412  34.027  29.744  1.00  0.00     0.023 A 
ATOM     84  C   UNL A   1      45.026  34.293  30.984  1.00  0.00     0.012 A 
ATOM     85  C   UNL A   1      44.358  35.038  28.765  1.00  0.00     0.148 A 
ATOM     86  C   UNL A   1      45.566  35.551  31.250  1.00  0.00     0.002 A 
ATOM     87  C   UNL A   1      44.946  36.273  29.018  1.00  0.00     0.091 A 
ATOM     88  F   UNL A   1      43.758  34.766  27.597  1.00  0.00    -0.205 F 
ATOM     89  C   UNL A   1      45.541  36.533  30.263  1.00  0.00     0.022 A 
BRANCH  87  90
ATOM     90  S   UNL A   1      45.062  37.563  27.773  1.00  0.00     0.127 S 
ATOM     91  O   UNL A   1      43.653  37.831  27.489  1.00  0.00    -0.237 OA
ATOM     92  O   UNL A   1      45.752  38.630  28.498  1.00  0.00    -0.237 OA
ATOM     93  O   UNL A   1      45.820  36.991  26.668  1.00  0.00    -0.744 OA
ENDBRANCH  87  90
ENDBRANCH  60  83
ENDBRANCH  34  35
ENDBRANCH  26  29
ENDBRANCH   1  25
TORSDOF 14
ENDMDL
