MODEL 1
REMARK VINA RESULT:     -13.1      0.000      0.000
REMARK SMILES Cc1cc(C(=O)NCCCNC(=O)c2ccc(-c3c4nc(c(-c5cccc(S(=O)(=O)[O-])c5F)c5ccc([nH]5)c(-c5cccc(S(=O)(=O)[O-])c5F)c5nc(c(-c6cccc(S(=O)(=O)[O-])c6F)c6ccc3[nH]6)C=C5)C=C4)cc2)ccc1NC(=O)c1ccc(=O)n(CCOc2ccccc2)n1
REMARK SMILES IDX 5 1 6 2 7 3 4 5 1 6 2 7 3 8 79 9 78 10 77 11 80 12 81 13
REMARK SMILES IDX 82 15 83 16 84 17 98 18 85 19 88 20 86 21 87 22 89 23 90 24
REMARK SMILES IDX 91 25 92 26 93 27 97 28 94 29 96 30 95 31 8 32 9 33 10 34
REMARK SMILES IDX 11 35 12 36 13 38 14 39 15 40 76 41 16 42 75 43 17 44 18 45
REMARK SMILES IDX 19 46 69 47 20 48 74 49 68 50 70 51 21 52 73 53 67 54 66 55
REMARK SMILES IDX 22 57 54 58 34 59 53 60 35 61 38 62 52 63 71 64 36 65 37 66
REMARK SMILES IDX 51 68 72 69 39 70 23 71 24 72 32 73 25 74 27 75 33 76 26 77
REMARK SMILES IDX 28 78 29 79 30 80 31 81 55 82 56 83 64 84 57 85 59 86 65 87
REMARK SMILES IDX 58 88 60 89 61 90 62 91 63 92 40 93 41 94 49 95 42 96 44 97
REMARK SMILES IDX 50 98 43 99 45 100 46 101 47 102 48 103
REMARK H PARENT 7 4 80 14 11 37 70 56 38 67
REMARK Flexibility Score: inf
ROOT
ATOM      1  C   UNL A   1      36.423  22.698  24.157  1.00  0.00     0.251 C 
ATOM      2  O   UNL A   1      36.412  23.696  23.438  1.00  0.00    -0.269 OA
ATOM      3  N   UNL A   1      37.550  21.900  24.170  1.00  0.00    -0.352 N 
ATOM      4  H   UNL A   1      38.195  22.103  23.455  1.00  0.00     0.163 HD
ENDROOT
BRANCH   1   5
ATOM      5  C   UNL A   1      35.223  22.427  25.000  1.00  0.00     0.040 A 
ATOM      6  C   UNL A   1      32.152  20.180  24.908  1.00  0.00     0.046 C 
ATOM      7  C   UNL A   1      33.038  21.322  25.317  1.00  0.00    -0.027 A 
ATOM      8  C   UNL A   1      34.222  21.547  24.561  1.00  0.00     0.019 A 
ATOM      9  C   UNL A   1      32.828  22.074  26.477  1.00  0.00     0.044 A 
ATOM     10  C   UNL A   1      33.949  22.671  27.022  1.00  0.00     0.027 A 
ATOM     11  C   UNL A   1      35.115  22.877  26.298  1.00  0.00     0.016 A 
BRANCH   9  12
ATOM     12  N   UNL A   1      31.546  22.226  27.058  1.00  0.00    -0.320 N 
ATOM     13  C   UNL A   1      30.601  23.235  26.885  1.00  0.00     0.276 C 
ATOM     14  H   UNL A   1      31.281  21.509  27.679  1.00  0.00     0.170 HD
ATOM     15  O   UNL A   1      29.516  23.213  27.458  1.00  0.00    -0.267 OA
BRANCH  13  16
ATOM     16  C   UNL A   1      30.921  24.426  25.998  1.00  0.00     0.149 A 
ATOM     17  C   UNL A   1      30.654  24.184  24.563  1.00  0.00     0.042 A 
ATOM     18  N   UNL A   1      31.307  25.563  26.505  1.00  0.00    -0.164 NA
ATOM     19  C   UNL A   1      30.279  25.269  23.888  1.00  0.00     0.076 A 
ATOM     20  N   UNL A   1      31.179  26.664  25.644  1.00  0.00    -0.226 N 
ATOM     21  C   UNL A   1      30.313  26.579  24.563  1.00  0.00     0.266 A 
ATOM     22  O   UNL A   1      29.653  27.501  24.077  1.00  0.00    -0.268 OA
BRANCH  20  23
ATOM     23  C   UNL A   1      31.685  27.971  26.096  1.00  0.00     0.190 C 
BRANCH  23  24
ATOM     24  C   UNL A   1      33.232  28.078  26.109  1.00  0.00     0.253 C 
BRANCH  24  25
ATOM     25  O   UNL A   1      33.850  28.407  24.839  1.00  0.00    -0.492 OA
BRANCH  25  26
ATOM     26  C   UNL A   1      33.681  27.444  23.886  1.00  0.00     0.119 A 
ATOM     27  C   UNL A   1      34.027  26.118  24.105  1.00  0.00     0.046 A 
ATOM     28  C   UNL A   1      33.303  27.818  22.610  1.00  0.00     0.046 A 
ATOM     29  C   UNL A   1      33.822  25.170  23.089  1.00  0.00     0.004 A 
ATOM     30  C   UNL A   1      32.992  26.883  21.628  1.00  0.00     0.004 A 
ATOM     31  C   UNL A   1      33.241  25.543  21.875  1.00  0.00     0.000 A 
ENDBRANCH  25  26
ENDBRANCH  24  25
ENDBRANCH  23  24
ENDBRANCH  20  23
ENDBRANCH  13  16
ENDBRANCH   9  12
ENDBRANCH   1   5
BRANCH   3  32
ATOM     32  C   UNL A   1      37.959  20.809  25.050  1.00  0.00     0.118 C 
BRANCH  32  33
ATOM     33  C   UNL A   1      38.953  21.239  26.120  1.00  0.00     0.042 C 
BRANCH  33  34
ATOM     34  C   UNL A   1      39.319  22.707  26.176  1.00  0.00     0.118 C 
BRANCH  34  35
ATOM     35  N   UNL A   1      40.384  22.984  27.146  1.00  0.00    -0.352 N 
ATOM     36  C   UNL A   1      40.716  24.160  27.806  1.00  0.00     0.251 C 
ATOM     37  H   UNL A   1      40.954  22.213  27.367  1.00  0.00     0.163 HD
ATOM     38  O   UNL A   1      41.727  24.211  28.496  1.00  0.00    -0.269 OA
BRANCH  36  39
ATOM     39  C   UNL A   1      39.756  25.291  27.778  1.00  0.00     0.039 A 
ATOM     40  C   UNL A   1      40.072  26.295  26.863  1.00  0.00     0.014 A 
ATOM     41  C   UNL A   1      39.043  25.585  28.931  1.00  0.00     0.014 A 
ATOM     42  C   UNL A   1      40.073  27.606  27.304  1.00  0.00     0.010 A 
ATOM     43  C   UNL A   1      39.166  26.863  29.425  1.00  0.00     0.010 A 
ATOM     44  C   UNL A   1      39.787  27.840  28.642  1.00  0.00    -0.014 A 
BRANCH  44  45
ATOM     45  C   UNL A   1      39.927  29.129  29.278  1.00  0.00     0.031 A 
ATOM     46  C   UNL A   1      38.917  30.131  28.903  1.00  0.00     0.074 A 
ATOM     47  C   UNL A   1      40.851  29.345  30.242  1.00  0.00     0.049 A 
ATOM     48  N   UNL A   1      39.034  31.389  29.120  1.00  0.00    -0.248 NA
ATOM     49  C   UNL A   1      37.702  29.773  28.174  1.00  0.00     0.031 C 
ATOM     50  C   UNL A   1      40.861  30.424  31.224  1.00  0.00     0.029 A 
ATOM     51  N   UNL A   1      42.030  28.678  30.541  1.00  0.00    -0.354 N 
ATOM     52  C   UNL A   1      37.804  31.953  28.862  1.00  0.00     0.074 A 
ATOM     53  C   UNL A   1      37.081  30.952  28.126  1.00  0.00     0.031 C 
ATOM     54  C   UNL A   1      42.085  30.502  31.780  1.00  0.00     0.029 A 
ATOM     55  C   UNL A   1      42.949  29.622  31.021  1.00  0.00     0.049 A 
ATOM     56  H   UNL A   1      42.194  27.713  30.434  1.00  0.00     0.167 HD
ATOM     57  C   UNL A   1      37.505  33.126  29.481  1.00  0.00     0.034 A 
ATOM     58  C   UNL A   1      44.081  30.024  30.352  1.00  0.00     0.034 A 
ATOM     59  C   UNL A   1      38.710  33.652  30.163  1.00  0.00     0.049 A 
ATOM     60  C   UNL A   1      44.043  31.510  29.970  1.00  0.00     0.074 A 
ATOM     61  C   UNL A   1      39.157  33.628  31.475  1.00  0.00     0.029 A 
ATOM     62  N   UNL A   1      39.824  33.976  29.395  1.00  0.00    -0.354 N 
ATOM     63  N   UNL A   1      43.067  32.330  30.256  1.00  0.00    -0.248 NA
ATOM     64  C   UNL A   1      45.055  32.145  29.126  1.00  0.00     0.031 C 
ATOM     65  C   UNL A   1      40.561  33.899  31.475  1.00  0.00     0.029 A 
ATOM     66  C   UNL A   1      40.964  34.135  30.173  1.00  0.00     0.049 A 
ATOM     67  H   UNL A   1      39.806  34.082  28.416  1.00  0.00     0.167 HD
ATOM     68  C   UNL A   1      43.197  33.491  29.534  1.00  0.00     0.074 A 
ATOM     69  C   UNL A   1      44.467  33.318  28.841  1.00  0.00     0.031 C 
ATOM     70  C   UNL A   1      42.229  34.468  29.513  1.00  0.00     0.034 A 
BRANCH  57  71
ATOM     71  C   UNL A   1      36.094  33.650  29.731  1.00  0.00     0.023 A 
ATOM     72  C   UNL A   1      35.368  34.069  28.595  1.00  0.00     0.012 A 
ATOM     73  C   UNL A   1      35.438  33.844  30.976  1.00  0.00     0.148 A 
ATOM     74  C   UNL A   1      34.121  34.699  28.681  1.00  0.00     0.002 A 
ATOM     75  C   UNL A   1      34.200  34.491  31.069  1.00  0.00     0.091 A 
ATOM     76  F   UNL A   1      35.972  33.380  32.101  1.00  0.00    -0.205 F 
ATOM     77  C   UNL A   1      33.542  34.927  29.921  1.00  0.00     0.022 A 
BRANCH  75  78
ATOM     78  S   UNL A   1      33.390  34.836  32.647  1.00  0.00     0.127 S 
ATOM     79  O   UNL A   1      32.120  35.424  32.217  1.00  0.00    -0.237 OA
ATOM     80  O   UNL A   1      33.271  33.503  33.236  1.00  0.00    -0.237 OA
ATOM     81  O   UNL A   1      34.260  35.755  33.372  1.00  0.00    -0.744 OA
ENDBRANCH  75  78
ENDBRANCH  57  71
BRANCH  58  82
ATOM     82  C   UNL A   1      44.654  28.947  29.475  1.00  0.00     0.023 A 
ATOM     83  C   UNL A   1      44.918  27.708  30.104  1.00  0.00     0.012 A 
ATOM     84  C   UNL A   1      44.405  28.961  28.097  1.00  0.00     0.148 A 
ATOM     85  C   UNL A   1      44.569  26.520  29.460  1.00  0.00     0.002 A 
ATOM     86  C   UNL A   1      44.100  27.771  27.451  1.00  0.00     0.091 A 
ATOM     87  F   UNL A   1      44.401  30.121  27.431  1.00  0.00    -0.205 F 
ATOM     88  C   UNL A   1      44.083  26.561  28.156  1.00  0.00     0.022 A 
BRANCH  86  89
ATOM     89  S   UNL A   1      43.625  27.825  25.724  1.00  0.00     0.127 S 
ATOM     90  O   UNL A   1      42.595  28.860  25.730  1.00  0.00    -0.237 OA
ATOM     91  O   UNL A   1      44.865  28.206  25.053  1.00  0.00    -0.237 OA
ATOM     92  O   UNL A   1      43.179  26.469  25.441  1.00  0.00    -0.744 OA
ENDBRANCH  86  89
ENDBRANCH  58  82
BRANCH  70  93
ATOM     93  C   UNL A   1      42.361  35.819  28.807  1.00  0.00     0.023 A 
ATOM     94  C   UNL A   1      41.925  36.026  27.485  1.00  0.00     0.012 A 
ATOM     95  C   UNL A   1      43.018  36.927  29.412  1.00  0.00     0.148 A 
ATOM     96  C   UNL A   1      41.965  37.280  26.867  1.00  0.00     0.002 A 
ATOM     97  C   UNL A   1      43.079  38.171  28.794  1.00  0.00     0.091 A 
ATOM     98  F   UNL A   1      43.668  36.772  30.570  1.00  0.00    -0.205 F 
ATOM     99  C   UNL A   1      42.518  38.362  27.532  1.00  0.00     0.022 A 
BRANCH  97 100
ATOM    100  S   UNL A   1      43.909  39.578  29.546  1.00  0.00     0.127 S 
ATOM    101  O   UNL A   1      42.789  40.269  30.185  1.00  0.00    -0.237 OA
ATOM    102  O   UNL A   1      44.830  38.921  30.474  1.00  0.00    -0.237 OA
ATOM    103  O   UNL A   1      44.553  40.305  28.461  1.00  0.00    -0.744 OA
ENDBRANCH  97 100
ENDBRANCH  70  93
ENDBRANCH  44  45
ENDBRANCH  36  39
ENDBRANCH  34  35
ENDBRANCH  33  34
ENDBRANCH  32  33
ENDBRANCH   3  32
TORSDOF 19
ENDMDL
MODEL 2
REMARK VINA RESULT:     -12.8      2.016      2.657
REMARK SMILES Cc1cc(C(=O)NCCCNC(=O)c2ccc(-c3c4nc(c(-c5cccc(S(=O)(=O)[O-])c5F)c5ccc([nH]5)c(-c5cccc(S(=O)(=O)[O-])c5F)c5nc(c(-c6cccc(S(=O)(=O)[O-])c6F)c6ccc3[nH]6)C=C5)C=C4)cc2)ccc1NC(=O)c1ccc(=O)n(CCOc2ccccc2)n1
REMARK SMILES IDX 5 1 6 2 7 3 4 5 1 6 2 7 3 8 79 9 78 10 77 11 80 12 81 13
REMARK SMILES IDX 82 15 83 16 84 17 98 18 85 19 88 20 86 21 87 22 89 23 90 24
REMARK SMILES IDX 91 25 92 26 93 27 97 28 94 29 96 30 95 31 8 32 9 33 10 34
REMARK SMILES IDX 11 35 12 36 13 38 14 39 15 40 76 41 16 42 75 43 17 44 18 45
REMARK SMILES IDX 19 46 69 47 20 48 74 49 68 50 70 51 21 52 73 53 67 54 66 55
REMARK SMILES IDX 22 57 54 58 34 59 53 60 35 61 38 62 52 63 71 64 36 65 37 66
REMARK SMILES IDX 51 68 72 69 39 70 23 71 24 72 32 73 25 74 27 75 33 76 26 77
REMARK SMILES IDX 28 78 29 79 30 80 31 81 55 82 56 83 64 84 57 85 59 86 65 87
REMARK SMILES IDX 58 88 60 89 61 90 62 91 63 92 40 93 41 94 49 95 42 96 44 97
REMARK SMILES IDX 50 98 43 99 45 100 46 101 47 102 48 103
REMARK H PARENT 7 4 80 14 11 37 70 56 38 67
REMARK Flexibility Score: inf
ROOT
ATOM      1  C   UNL A   1      36.651  22.498  23.982  1.00  0.00     0.251 C 
ATOM      2  O   UNL A   1      36.665  23.376  23.121  1.00  0.00    -0.269 OA
ATOM      3  N   UNL A   1      37.801  21.767  24.205  1.00  0.00    -0.352 N 
ATOM      4  H   UNL A   1      38.498  21.893  23.521  1.00  0.00     0.163 HD
ENDROOT
BRANCH   1   5
ATOM      5  C   UNL A   1      35.394  22.296  24.758  1.00  0.00     0.040 A 
ATOM      6  C   UNL A   1      31.947  20.777  24.212  1.00  0.00     0.046 C 
ATOM      7  C   UNL A   1      33.026  21.605  24.850  1.00  0.00    -0.027 A 
ATOM      8  C   UNL A   1      34.255  21.748  24.149  1.00  0.00     0.019 A 
ATOM      9  C   UNL A   1      32.928  22.116  26.148  1.00  0.00     0.044 A 
ATOM     10  C   UNL A   1      34.126  22.348  26.798  1.00  0.00     0.027 A 
ATOM     11  C   UNL A   1      35.333  22.469  26.124  1.00  0.00     0.016 A 
BRANCH   9  12
ATOM     12  N   UNL A   1      31.683  22.391  26.761  1.00  0.00    -0.320 N 
ATOM     13  C   UNL A   1      30.886  23.532  26.693  1.00  0.00     0.276 C 
ATOM     14  H   UNL A   1      31.324  21.665  27.322  1.00  0.00     0.170 HD
ATOM     15  O   UNL A   1      29.812  23.610  27.280  1.00  0.00    -0.267 OA
BRANCH  13  16
ATOM     16  C   UNL A   1      31.364  24.742  25.908  1.00  0.00     0.149 A 
ATOM     17  C   UNL A   1      32.634  25.310  26.412  1.00  0.00     0.042 A 
ATOM     18  N   UNL A   1      30.732  25.151  24.844  1.00  0.00    -0.164 NA
ATOM     19  C   UNL A   1      33.397  25.861  25.468  1.00  0.00     0.076 A 
ATOM     20  N   UNL A   1      31.477  25.993  24.005  1.00  0.00    -0.226 N 
ATOM     21  C   UNL A   1      32.861  25.988  24.100  1.00  0.00     0.266 A 
ATOM     22  O   UNL A   1      33.662  26.162  23.178  1.00  0.00    -0.268 OA
BRANCH  20  23
ATOM     23  C   UNL A   1      30.811  26.586  22.833  1.00  0.00     0.190 C 
BRANCH  23  24
ATOM     24  C   UNL A   1      30.339  28.047  23.048  1.00  0.00     0.253 C 
BRANCH  24  25
ATOM     25  O   UNL A   1      29.431  28.568  22.046  1.00  0.00    -0.492 OA
BRANCH  25  26
ATOM     26  C   UNL A   1      29.100  29.879  22.240  1.00  0.00     0.119 A 
ATOM     27  C   UNL A   1      29.217  30.496  23.477  1.00  0.00     0.046 A 
ATOM     28  C   UNL A   1      28.480  30.575  21.218  1.00  0.00     0.046 A 
ATOM     29  C   UNL A   1      28.869  31.850  23.613  1.00  0.00     0.004 A 
ATOM     30  C   UNL A   1      28.230  31.941  21.302  1.00  0.00     0.004 A 
ATOM     31  C   UNL A   1      28.440  32.588  22.508  1.00  0.00     0.000 A 
ENDBRANCH  25  26
ENDBRANCH  24  25
ENDBRANCH  23  24
ENDBRANCH  20  23
ENDBRANCH  13  16
ENDBRANCH   9  12
ENDBRANCH   1   5
BRANCH   3  32
ATOM     32  C   UNL A   1      38.174  20.840  25.270  1.00  0.00     0.118 C 
BRANCH  32  33
ATOM     33  C   UNL A   1      39.322  21.344  26.133  1.00  0.00     0.042 C 
BRANCH  33  34
ATOM     34  C   UNL A   1      39.259  22.783  26.601  1.00  0.00     0.118 C 
BRANCH  34  35
ATOM     35  N   UNL A   1      40.406  23.153  27.436  1.00  0.00    -0.352 N 
ATOM     36  C   UNL A   1      40.791  24.389  27.940  1.00  0.00     0.251 C 
ATOM     37  H   UNL A   1      40.998  22.405  27.681  1.00  0.00     0.163 HD
ATOM     38  O   UNL A   1      41.860  24.506  28.527  1.00  0.00    -0.269 OA
BRANCH  36  39
ATOM     39  C   UNL A   1      39.825  25.514  27.885  1.00  0.00     0.039 A 
ATOM     40  C   UNL A   1      40.150  26.509  26.963  1.00  0.00     0.014 A 
ATOM     41  C   UNL A   1      39.095  25.818  29.024  1.00  0.00     0.014 A 
ATOM     42  C   UNL A   1      40.139  27.825  27.388  1.00  0.00     0.010 A 
ATOM     43  C   UNL A   1      39.205  27.103  29.504  1.00  0.00     0.010 A 
ATOM     44  C   UNL A   1      39.832  28.074  28.720  1.00  0.00    -0.014 A 
BRANCH  44  45
ATOM     45  C   UNL A   1      39.957  29.371  29.342  1.00  0.00     0.031 A 
ATOM     46  C   UNL A   1      38.935  30.356  28.957  1.00  0.00     0.074 A 
ATOM     47  C   UNL A   1      40.878  29.607  30.303  1.00  0.00     0.049 A 
ATOM     48  N   UNL A   1      39.037  31.618  29.160  1.00  0.00    -0.248 NA
ATOM     49  C   UNL A   1      37.725  29.977  28.231  1.00  0.00     0.031 C 
ATOM     50  C   UNL A   1      40.876  30.697  31.275  1.00  0.00     0.029 A 
ATOM     51  N   UNL A   1      42.065  28.957  30.610  1.00  0.00    -0.354 N 
ATOM     52  C   UNL A   1      37.801  32.165  28.896  1.00  0.00     0.074 A 
ATOM     53  C   UNL A   1      37.090  31.148  28.171  1.00  0.00     0.031 C 
ATOM     54  C   UNL A   1      42.098  30.794  31.830  1.00  0.00     0.029 A 
ATOM     55  C   UNL A   1      42.973  29.916  31.080  1.00  0.00     0.049 A 
ATOM     56  H   UNL A   1      42.240  27.993  30.513  1.00  0.00     0.167 HD
ATOM     57  C   UNL A   1      37.489  33.341  29.504  1.00  0.00     0.034 A 
ATOM     58  C   UNL A   1      44.100  30.325  30.406  1.00  0.00     0.034 A 
ATOM     59  C   UNL A   1      38.687  33.888  30.180  1.00  0.00     0.049 A 
ATOM     60  C   UNL A   1      44.045  31.807  30.009  1.00  0.00     0.074 A 
ATOM     61  C   UNL A   1      39.134  33.883  31.492  1.00  0.00     0.029 A 
ATOM     62  N   UNL A   1      39.797  34.217  29.409  1.00  0.00    -0.354 N 
ATOM     63  N   UNL A   1      43.059  32.618  30.287  1.00  0.00    -0.248 NA
ATOM     64  C   UNL A   1      45.049  32.444  29.160  1.00  0.00     0.031 C 
ATOM     65  C   UNL A   1      40.535  34.170  31.490  1.00  0.00     0.029 A 
ATOM     66  C   UNL A   1      40.935  34.397  30.186  1.00  0.00     0.049 A 
ATOM     67  H   UNL A   1      39.778  34.313  28.429  1.00  0.00     0.167 HD
ATOM     68  C   UNL A   1      43.176  33.773  29.553  1.00  0.00     0.074 A 
ATOM     69  C   UNL A   1      44.447  33.607  28.862  1.00  0.00     0.031 C 
ATOM     70  C   UNL A   1      42.197  34.738  29.521  1.00  0.00     0.034 A 
BRANCH  57  71
ATOM     71  C   UNL A   1      36.071  33.851  29.748  1.00  0.00     0.023 A 
ATOM     72  C   UNL A   1      35.390  34.376  28.629  1.00  0.00     0.012 A 
ATOM     73  C   UNL A   1      35.370  33.937  30.980  1.00  0.00     0.148 A 
ATOM     74  C   UNL A   1      34.143  35.005  28.726  1.00  0.00     0.002 A 
ATOM     75  C   UNL A   1      34.133  34.582  31.087  1.00  0.00     0.091 A 
ATOM     76  F   UNL A   1      35.860  33.368  32.078  1.00  0.00    -0.205 F 
ATOM     77  C   UNL A   1      33.519  35.125  29.959  1.00  0.00     0.022 A 
BRANCH  75  78
ATOM     78  S   UNL A   1      33.266  34.790  32.658  1.00  0.00     0.127 S 
ATOM     79  O   UNL A   1      34.162  35.692  33.385  1.00  0.00    -0.237 OA
ATOM     80  O   UNL A   1      32.003  35.397  32.241  1.00  0.00    -0.237 OA
ATOM     81  O   UNL A   1      33.146  33.462  33.249  1.00  0.00    -0.744 OA
ENDBRANCH  75  78
ENDBRANCH  57  71
BRANCH  58  82
ATOM     82  C   UNL A   1      44.685  29.246  29.541  1.00  0.00     0.023 A 
ATOM     83  C   UNL A   1      44.174  29.157  28.226  1.00  0.00     0.012 A 
ATOM     84  C   UNL A   1      45.981  28.774  29.792  1.00  0.00     0.148 A 
ATOM     85  C   UNL A   1      45.051  28.967  27.157  1.00  0.00     0.002 A 
ATOM     86  C   UNL A   1      46.837  28.545  28.724  1.00  0.00     0.091 A 
ATOM     87  F   UNL A   1      46.399  28.612  31.052  1.00  0.00    -0.205 F 
ATOM     88  C   UNL A   1      46.402  28.739  27.407  1.00  0.00     0.022 A 
BRANCH  86  89
ATOM     89  S   UNL A   1      48.539  28.101  29.064  1.00  0.00     0.127 S 
ATOM     90  O   UNL A   1      49.012  29.270  29.800  1.00  0.00    -0.237 OA
ATOM     91  O   UNL A   1      48.408  26.889  29.870  1.00  0.00    -0.237 OA
ATOM     92  O   UNL A   1      49.116  27.887  27.745  1.00  0.00    -0.744 OA
ENDBRANCH  86  89
ENDBRANCH  58  82
BRANCH  70  93
ATOM     93  C   UNL A   1      42.313  36.083  28.802  1.00  0.00     0.023 A 
ATOM     94  C   UNL A   1      41.904  36.263  27.468  1.00  0.00     0.012 A 
ATOM     95  C   UNL A   1      42.928  37.214  29.408  1.00  0.00     0.148 A 
ATOM     96  C   UNL A   1      41.929  37.511  26.834  1.00  0.00     0.002 A 
ATOM     97  C   UNL A   1      42.973  38.452  28.776  1.00  0.00     0.091 A 
ATOM     98  F   UNL A   1      43.553  37.090  30.583  1.00  0.00    -0.205 F 
ATOM     99  C   UNL A   1      42.438  38.614  27.499  1.00  0.00     0.022 A 
BRANCH  97 100
ATOM    100  S   UNL A   1      43.751  39.888  29.529  1.00  0.00     0.127 S 
ATOM    101  O   UNL A   1      45.047  39.339  29.929  1.00  0.00    -0.237 OA
ATOM    102  O   UNL A   1      43.806  40.824  28.406  1.00  0.00    -0.237 OA
ATOM    103  O   UNL A   1      42.885  40.300  30.624  1.00  0.00    -0.744 OA
ENDBRANCH  97 100
ENDBRANCH  70  93
ENDBRANCH  44  45
ENDBRANCH  36  39
ENDBRANCH  34  35
ENDBRANCH  33  34
ENDBRANCH  32  33
ENDBRANCH   3  32
TORSDOF 19
ENDMDL
MODEL 3
REMARK VINA RESULT:     -12.8      2.167      2.798
REMARK SMILES Cc1cc(C(=O)NCCCNC(=O)c2ccc(-c3c4nc(c(-c5cccc(S(=O)(=O)[O-])c5F)c5ccc([nH]5)c(-c5cccc(S(=O)(=O)[O-])c5F)c5nc(c(-c6cccc(S(=O)(=O)[O-])c6F)c6ccc3[nH]6)C=C5)C=C4)cc2)ccc1NC(=O)c1ccc(=O)n(CCOc2ccccc2)n1
REMARK SMILES IDX 5 1 6 2 7 3 4 5 1 6 2 7 3 8 79 9 78 10 77 11 80 12 81 13
REMARK SMILES IDX 82 15 83 16 84 17 98 18 85 19 88 20 86 21 87 22 89 23 90 24
REMARK SMILES IDX 91 25 92 26 93 27 97 28 94 29 96 30 95 31 8 32 9 33 10 34
REMARK SMILES IDX 11 35 12 36 13 38 14 39 15 40 76 41 16 42 75 43 17 44 18 45
REMARK SMILES IDX 19 46 69 47 20 48 74 49 68 50 70 51 21 52 73 53 67 54 66 55
REMARK SMILES IDX 22 57 54 58 34 59 53 60 35 61 38 62 52 63 71 64 36 65 37 66
REMARK SMILES IDX 51 68 72 69 39 70 23 71 24 72 32 73 25 74 27 75 33 76 26 77
REMARK SMILES IDX 28 78 29 79 30 80 31 81 55 82 56 83 64 84 57 85 59 86 65 87
REMARK SMILES IDX 58 88 60 89 61 90 62 91 63 92 40 93 41 94 49 95 42 96 44 97
REMARK SMILES IDX 50 98 43 99 45 100 46 101 47 102 48 103
REMARK H PARENT 7 4 80 14 11 37 70 56 38 67
REMARK Flexibility Score: inf
ROOT
ATOM      1  C   UNL A   1      36.678  22.258  23.875  1.00  0.00     0.251 C 
ATOM      2  O   UNL A   1      36.782  23.212  23.106  1.00  0.00    -0.269 OA
ATOM      3  N   UNL A   1      37.747  21.396  24.015  1.00  0.00    -0.352 N 
ATOM      4  H   UNL A   1      38.453  21.518  23.341  1.00  0.00     0.163 HD
ENDROOT
BRANCH   1   5
ATOM      5  C   UNL A   1      35.406  22.109  24.639  1.00  0.00     0.040 A 
ATOM      6  C   UNL A   1      31.762  21.266  23.927  1.00  0.00     0.046 C 
ATOM      7  C   UNL A   1      32.958  21.785  24.674  1.00  0.00    -0.027 A 
ATOM      8  C   UNL A   1      34.194  21.866  23.974  1.00  0.00     0.019 A 
ATOM      9  C   UNL A   1      32.944  22.052  26.047  1.00  0.00     0.044 A 
ATOM     10  C   UNL A   1      34.164  21.971  26.691  1.00  0.00     0.027 A 
ATOM     11  C   UNL A   1      35.374  22.030  26.014  1.00  0.00     0.016 A 
BRANCH   9  12
ATOM     12  N   UNL A   1      31.757  22.394  26.738  1.00  0.00    -0.320 N 
ATOM     13  C   UNL A   1      31.012  23.572  26.706  1.00  0.00     0.276 C 
ATOM     14  H   UNL A   1      31.403  21.693  27.333  1.00  0.00     0.170 HD
ATOM     15  O   UNL A   1      29.985  23.708  27.362  1.00  0.00    -0.267 OA
BRANCH  13  16
ATOM     16  C   UNL A   1      31.493  24.747  25.871  1.00  0.00     0.149 A 
ATOM     17  C   UNL A   1      32.826  25.250  26.269  1.00  0.00     0.042 A 
ATOM     18  N   UNL A   1      30.804  25.180  24.853  1.00  0.00    -0.164 NA
ATOM     19  C   UNL A   1      33.542  25.750  25.263  1.00  0.00     0.076 A 
ATOM     20  N   UNL A   1      31.526  25.973  23.949  1.00  0.00    -0.226 N 
ATOM     21  C   UNL A   1      32.912  25.894  23.938  1.00  0.00     0.266 A 
ATOM     22  O   UNL A   1      33.647  26.017  22.956  1.00  0.00    -0.268 OA
BRANCH  20  23
ATOM     23  C   UNL A   1      30.805  26.590  22.823  1.00  0.00     0.190 C 
BRANCH  23  24
ATOM     24  C   UNL A   1      30.781  28.140  22.863  1.00  0.00     0.253 C 
BRANCH  24  25
ATOM     25  O   UNL A   1      30.047  28.786  21.793  1.00  0.00    -0.492 OA
BRANCH  25  26
ATOM     26  C   UNL A   1      29.428  29.941  22.177  1.00  0.00     0.119 A 
ATOM     27  C   UNL A   1      29.441  30.385  23.492  1.00  0.00     0.046 A 
ATOM     28  C   UNL A   1      28.630  30.612  21.269  1.00  0.00     0.046 A 
ATOM     29  C   UNL A   1      28.794  31.586  23.825  1.00  0.00     0.004 A 
ATOM     30  C   UNL A   1      28.074  31.855  21.552  1.00  0.00     0.004 A 
ATOM     31  C   UNL A   1      28.169  32.354  22.840  1.00  0.00     0.000 A 
ENDBRANCH  25  26
ENDBRANCH  24  25
ENDBRANCH  23  24
ENDBRANCH  20  23
ENDBRANCH  13  16
ENDBRANCH   9  12
ENDBRANCH   1   5
BRANCH   3  32
ATOM     32  C   UNL A   1      38.021  20.334  24.980  1.00  0.00     0.118 C 
BRANCH  32  33
ATOM     33  C   UNL A   1      39.207  20.635  25.886  1.00  0.00     0.042 C 
BRANCH  33  34
ATOM     34  C   UNL A   1      39.331  22.047  26.420  1.00  0.00     0.118 C 
BRANCH  34  35
ATOM     35  N   UNL A   1      40.726  22.477  26.552  1.00  0.00    -0.352 N 
ATOM     36  C   UNL A   1      41.275  23.753  26.596  1.00  0.00     0.251 C 
ATOM     37  H   UNL A   1      41.381  21.745  26.623  1.00  0.00     0.163 HD
ATOM     38  O   UNL A   1      42.491  23.897  26.592  1.00  0.00    -0.269 OA
BRANCH  36  39
ATOM     39  C   UNL A   1      40.370  24.912  26.797  1.00  0.00     0.039 A 
ATOM     40  C   UNL A   1      40.784  26.083  26.163  1.00  0.00     0.014 A 
ATOM     41  C   UNL A   1      39.608  24.966  27.954  1.00  0.00     0.014 A 
ATOM     42  C   UNL A   1      40.821  27.250  26.905  1.00  0.00     0.010 A 
ATOM     43  C   UNL A   1      39.763  26.082  28.744  1.00  0.00     0.010 A 
ATOM     44  C   UNL A   1      40.470  27.179  28.246  1.00  0.00    -0.014 A 
BRANCH  44  45
ATOM     45  C   UNL A   1      40.634  28.270  29.177  1.00  0.00     0.031 A 
ATOM     46  C   UNL A   1      39.687  29.384  29.016  1.00  0.00     0.074 A 
ATOM     47  C   UNL A   1      41.518  28.202  30.198  1.00  0.00     0.049 A 
ATOM     48  N   UNL A   1      39.846  30.547  29.531  1.00  0.00    -0.248 NA
ATOM     49  C   UNL A   1      38.495  29.274  28.178  1.00  0.00     0.031 C 
ATOM     50  C   UNL A   1      41.527  29.015  31.410  1.00  0.00     0.029 A 
ATOM     51  N   UNL A   1      42.652  27.421  30.372  1.00  0.00    -0.354 N 
ATOM     52  C   UNL A   1      38.656  31.220  29.371  1.00  0.00     0.074 A 
ATOM     53  C   UNL A   1      37.928  30.462  28.390  1.00  0.00     0.031 C 
ATOM     54  C   UNL A   1      42.724  28.893  32.014  1.00  0.00     0.029 A 
ATOM     55  C   UNL A   1      43.586  28.174  31.098  1.00  0.00     0.049 A 
ATOM     56  H   UNL A   1      42.780  26.502  30.043  1.00  0.00     0.167 HD
ATOM     57  C   UNL A   1      38.377  32.227  30.242  1.00  0.00     0.034 A 
ATOM     58  C   UNL A   1      44.765  28.664  30.587  1.00  0.00     0.034 A 
ATOM     59  C   UNL A   1      39.569  32.511  31.074  1.00  0.00     0.049 A 
ATOM     60  C   UNL A   1      44.809  30.198  30.572  1.00  0.00     0.074 A 
ATOM     61  C   UNL A   1      39.950  32.153  32.358  1.00  0.00     0.029 A 
ATOM     62  N   UNL A   1      40.731  32.949  30.448  1.00  0.00    -0.354 N 
ATOM     63  N   UNL A   1      43.856  30.977  31.010  1.00  0.00    -0.248 NA
ATOM     64  C   UNL A   1      45.887  30.960  29.943  1.00  0.00     0.031 C 
ATOM     65  C   UNL A   1      41.362  32.341  32.475  1.00  0.00     0.029 A 
ATOM     66  C   UNL A   1      41.838  32.858  31.284  1.00  0.00     0.049 A 
ATOM     67  H   UNL A   1      40.766  33.285  29.523  1.00  0.00     0.167 HD
ATOM     68  C   UNL A   1      44.070  32.268  30.592  1.00  0.00     0.074 A 
ATOM     69  C   UNL A   1      45.363  32.197  29.926  1.00  0.00     0.031 C 
ATOM     70  C   UNL A   1      43.147  33.271  30.769  1.00  0.00     0.034 A 
BRANCH  57  71
ATOM     71  C   UNL A   1      36.979  32.750  30.557  1.00  0.00     0.023 A 
ATOM     72  C   UNL A   1      36.444  32.395  31.815  1.00  0.00     0.012 A 
ATOM     73  C   UNL A   1      36.107  33.489  29.714  1.00  0.00     0.148 A 
ATOM     74  C   UNL A   1      35.125  32.683  32.187  1.00  0.00     0.002 A 
ATOM     75  C   UNL A   1      34.782  33.761  30.072  1.00  0.00     0.091 A 
ATOM     76  F   UNL A   1      36.541  33.979  28.557  1.00  0.00    -0.205 F 
ATOM     77  C   UNL A   1      34.286  33.352  31.309  1.00  0.00     0.022 A 
BRANCH  75  78
ATOM     78  S   UNL A   1      33.625  34.614  28.978  1.00  0.00     0.127 S 
ATOM     79  O   UNL A   1      33.302  33.572  28.002  1.00  0.00    -0.237 OA
ATOM     80  O   UNL A   1      32.530  34.955  29.884  1.00  0.00    -0.237 OA
ATOM     81  O   UNL A   1      34.341  35.755  28.419  1.00  0.00    -0.744 OA
ENDBRANCH  75  78
ENDBRANCH  57  71
BRANCH  58  82
ATOM     82  C   UNL A   1      45.334  27.797  29.501  1.00  0.00     0.023 A 
ATOM     83  C   UNL A   1      45.562  26.443  29.840  1.00  0.00     0.012 A 
ATOM     84  C   UNL A   1      45.113  28.125  28.156  1.00  0.00     0.148 A 
ATOM     85  C   UNL A   1      45.202  25.438  28.940  1.00  0.00     0.002 A 
ATOM     86  C   UNL A   1      44.798  27.118  27.256  1.00  0.00     0.091 A 
ATOM     87  F   UNL A   1      45.145  29.405  27.768  1.00  0.00    -0.205 F 
ATOM     88  C   UNL A   1      44.743  25.781  27.671  1.00  0.00     0.022 A 
BRANCH  86  89
ATOM     89  S   UNL A   1      44.357  27.568  25.578  1.00  0.00     0.127 S 
ATOM     90  O   UNL A   1      43.372  28.623  25.801  1.00  0.00    -0.237 OA
ATOM     91  O   UNL A   1      45.625  28.029  25.018  1.00  0.00    -0.237 OA
ATOM     92  O   UNL A   1      43.859  26.327  25.002  1.00  0.00    -0.744 OA
ENDBRANCH  86  89
ENDBRANCH  58  82
BRANCH  70  93
ATOM     93  C   UNL A   1      43.370  34.742  30.414  1.00  0.00     0.023 A 
ATOM     94  C   UNL A   1      43.710  35.709  31.378  1.00  0.00     0.012 A 
ATOM     95  C   UNL A   1      43.158  35.242  29.098  1.00  0.00     0.148 A 
ATOM     96  C   UNL A   1      43.999  37.036  31.044  1.00  0.00     0.002 A 
ATOM     97  C   UNL A   1      43.425  36.566  28.764  1.00  0.00     0.091 A 
ATOM     98  F   UNL A   1      42.616  34.458  28.161  1.00  0.00    -0.205 F 
ATOM     99  C   UNL A   1      43.884  37.460  29.730  1.00  0.00     0.022 A 
BRANCH  97 100
ATOM    100  S   UNL A   1      43.157  37.211  27.107  1.00  0.00     0.127 S 
ATOM    101  O   UNL A   1      43.254  35.993  26.303  1.00  0.00    -0.237 OA
ATOM    102  O   UNL A   1      41.808  37.765  27.216  1.00  0.00    -0.237 OA
ATOM    103  O   UNL A   1      44.203  38.196  26.874  1.00  0.00    -0.744 OA
ENDBRANCH  97 100
ENDBRANCH  70  93
ENDBRANCH  44  45
ENDBRANCH  36  39
ENDBRANCH  34  35
ENDBRANCH  33  34
ENDBRANCH  32  33
ENDBRANCH   3  32
TORSDOF 19
ENDMDL
