MODEL 1
REMARK VINA RESULT:     -11.5      0.000      0.000
REMARK SMILES C[C@H]1[C@H](C(=O)NCCCNC(=O)c2ccc(-c3c4nc(c(-c5cccc(S(=O)(=O)[O-])c5F)c5ccc([nH]5)c(-c5cccc(S(=O)(=O)[O-])c5F)c5nc(c(-c6cccc(S(=O)(=O)[O-])c6F)c6ccc3[nH]6)C=C5)C=C4)cc2)CCN1C(=O)Cc1csc(N)n1
REMARK SMILES IDX 7 1 6 2 4 3 5 4 3 6 1 7 2 8 78 9 76 10 77 11 79 12 80 13
REMARK SMILES IDX 81 14 82 15 83 16 87 17 84 18 85 19 86 20 8 23 9 24 10 25
REMARK SMILES IDX 11 26 12 28 13 29 14 30 75 31 15 32 74 33 16 34 17 35 18 36
REMARK SMILES IDX 68 37 19 38 73 39 67 40 69 41 20 42 72 43 66 44 65 45 21 47
REMARK SMILES IDX 53 48 33 49 52 50 34 51 37 52 51 53 70 54 35 55 36 56 50 58
REMARK SMILES IDX 71 59 38 60 22 61 23 62 31 63 24 64 26 65 32 66 25 67 27 68
REMARK SMILES IDX 28 69 29 70 30 71 54 72 55 73 63 74 56 75 58 76 64 77 57 78
REMARK SMILES IDX 59 79 60 80 61 81 62 82 39 83 40 84 48 85 41 86 43 87 49 88
REMARK SMILES IDX 42 89 44 90 45 91 46 92 47 93
REMARK H PARENT 6 5 86 21 86 22 10 27 69 46 37 57
REMARK Flexibility Score: inf
ROOT
ATOM      1  C   UNL A   1      31.736  30.709  26.082  1.00  0.00     0.117 C 
ENDROOT
BRANCH   1   2
ATOM      2  N   UNL A   1      31.545  29.532  26.910  1.00  0.00    -0.356 N 
ATOM      3  C   UNL A   1      31.649  28.210  26.631  1.00  0.00     0.225 C 
ATOM      4  O   UNL A   1      31.410  27.422  27.552  1.00  0.00    -0.275 OA
ATOM      5  H   UNL A   1      31.292  29.731  27.841  1.00  0.00     0.163 HD
BRANCH   3   6
ATOM      6  C   UNL A   1      32.025  27.675  25.261  1.00  0.00     0.102 C 
ATOM      7  C   UNL A   1      33.805  26.008  24.719  1.00  0.00     0.032 C 
ATOM      8  C   UNL A   1      32.384  26.181  25.275  1.00  0.00     0.094 C 
ATOM      9  N   UNL A   1      31.407  25.553  24.390  1.00  0.00    -0.339 N 
ATOM     10  C   UNL A   1      30.971  27.871  24.167  1.00  0.00     0.037 C 
ATOM     11  C   UNL A   1      30.848  26.523  23.470  1.00  0.00     0.120 C 
BRANCH   9  12
ATOM     12  C   UNL A   1      31.053  24.215  24.290  1.00  0.00     0.228 C 
ATOM     13  O   UNL A   1      30.427  23.821  23.300  1.00  0.00    -0.274 OA
BRANCH  12  14
ATOM     14  C   UNL A   1      31.265  23.282  25.475  1.00  0.00     0.157 C 
BRANCH  14  15
ATOM     15  C   UNL A   1      32.230  22.164  25.270  1.00  0.00     0.063 A 
ATOM     16  C   UNL A   1      33.603  22.286  25.144  1.00  0.00     0.093 A 
ATOM     17  N   UNL A   1      31.773  20.855  25.261  1.00  0.00    -0.225 NA
ATOM     18  S   UNL A   1      34.321  20.742  24.970  1.00  0.00    -0.106 S 
ATOM     19  C   UNL A   1      32.775  20.019  25.147  1.00  0.00     0.180 A 
BRANCH  19  20
ATOM     20  N   UNL A   1      32.632  18.690  25.169  1.00  0.00    -0.375 N 
ATOM     21  H   UNL A   1      32.797  18.163  24.354  1.00  0.00     0.159 HD
ATOM     22  H   UNL A   1      32.361  18.238  26.001  1.00  0.00     0.159 HD
ENDBRANCH  19  20
ENDBRANCH  14  15
ENDBRANCH  12  14
ENDBRANCH   9  12
ENDBRANCH   3   6
ENDBRANCH   1   2
BRANCH   1  23
ATOM     23  C   UNL A   1      31.515  31.999  26.857  1.00  0.00     0.042 C 
BRANCH  23  24
ATOM     24  C   UNL A   1      32.797  32.732  27.230  1.00  0.00     0.118 C 
BRANCH  24  25
ATOM     25  N   UNL A   1      32.559  34.107  27.652  1.00  0.00    -0.352 N 
ATOM     26  C   UNL A   1      33.118  34.826  28.676  1.00  0.00     0.251 C 
ATOM     27  H   UNL A   1      31.892  34.595  27.117  1.00  0.00     0.163 HD
ATOM     28  O   UNL A   1      32.635  35.920  28.976  1.00  0.00    -0.269 OA
BRANCH  26  29
ATOM     29  C   UNL A   1      34.277  34.300  29.427  1.00  0.00     0.039 A 
ATOM     30  C   UNL A   1      34.053  33.625  30.630  1.00  0.00     0.014 A 
ATOM     31  C   UNL A   1      35.583  34.484  28.965  1.00  0.00     0.014 A 
ATOM     32  C   UNL A   1      35.132  33.087  31.335  1.00  0.00     0.010 A 
ATOM     33  C   UNL A   1      36.646  33.867  29.619  1.00  0.00     0.010 A 
ATOM     34  C   UNL A   1      36.435  33.170  30.816  1.00  0.00    -0.014 A 
BRANCH  34  35
ATOM     35  C   UNL A   1      37.579  32.525  31.510  1.00  0.00     0.031 A 
ATOM     36  C   UNL A   1      38.305  31.367  30.879  1.00  0.00     0.074 A 
ATOM     37  C   UNL A   1      37.918  32.937  32.748  1.00  0.00     0.049 A 
ATOM     38  N   UNL A   1      39.303  30.665  31.351  1.00  0.00    -0.248 NA
ATOM     39  C   UNL A   1      37.830  30.917  29.559  1.00  0.00     0.031 C 
ATOM     40  C   UNL A   1      37.234  33.986  33.507  1.00  0.00     0.029 A 
ATOM     41  N   UNL A   1      38.907  32.506  33.596  1.00  0.00    -0.354 N 
ATOM     42  C   UNL A   1      39.556  29.679  30.405  1.00  0.00     0.074 A 
ATOM     43  C   UNL A   1      38.578  29.843  29.353  1.00  0.00     0.031 C 
ATOM     44  C   UNL A   1      37.828  34.123  34.703  1.00  0.00     0.029 A 
ATOM     45  C   UNL A   1      38.915  33.154  34.809  1.00  0.00     0.049 A 
ATOM     46  H   UNL A   1      39.551  31.800  33.359  1.00  0.00     0.167 HD
ATOM     47  C   UNL A   1      40.535  28.742  30.393  1.00  0.00     0.034 A 
ATOM     48  C   UNL A   1      39.700  32.983  35.890  1.00  0.00     0.034 A 
ATOM     49  C   UNL A   1      41.527  28.601  31.425  1.00  0.00     0.049 A 
ATOM     50  C   UNL A   1      40.806  31.967  35.835  1.00  0.00     0.074 A 
ATOM     51  C   UNL A   1      42.609  27.738  31.468  1.00  0.00     0.029 A 
ATOM     52  N   UNL A   1      41.556  29.335  32.601  1.00  0.00    -0.354 N 
ATOM     53  N   UNL A   1      41.131  31.152  34.861  1.00  0.00    -0.248 NA
ATOM     54  C   UNL A   1      41.683  31.876  37.011  1.00  0.00     0.031 C 
ATOM     55  C   UNL A   1      43.275  27.932  32.683  1.00  0.00     0.029 A 
ATOM     56  C   UNL A   1      42.630  28.940  33.381  1.00  0.00     0.049 A 
ATOM     57  H   UNL A   1      40.908  30.035  32.845  1.00  0.00     0.167 HD
ATOM     58  C   UNL A   1      42.264  30.472  35.293  1.00  0.00     0.074 A 
ATOM     59  C   UNL A   1      42.585  30.994  36.606  1.00  0.00     0.031 C 
ATOM     60  C   UNL A   1      42.964  29.494  34.668  1.00  0.00     0.034 A 
BRANCH  47  61
ATOM     61  C   UNL A   1      40.611  27.827  29.196  1.00  0.00     0.023 A 
ATOM     62  C   UNL A   1      39.742  26.718  29.113  1.00  0.00     0.012 A 
ATOM     63  C   UNL A   1      41.499  28.087  28.135  1.00  0.00     0.148 A 
ATOM     64  C   UNL A   1      39.783  25.862  28.014  1.00  0.00     0.002 A 
ATOM     65  C   UNL A   1      41.501  27.256  27.019  1.00  0.00     0.091 A 
ATOM     66  F   UNL A   1      42.331  29.133  28.238  1.00  0.00    -0.205 F 
ATOM     67  C   UNL A   1      40.655  26.136  26.964  1.00  0.00     0.022 A 
BRANCH  65  68
ATOM     68  S   UNL A   1      42.527  27.568  25.578  1.00  0.00     0.127 S 
ATOM     69  O   UNL A   1      43.838  27.776  26.190  1.00  0.00    -0.237 OA
ATOM     70  O   UNL A   1      42.394  26.318  24.830  1.00  0.00    -0.237 OA
ATOM     71  O   UNL A   1      41.953  28.733  24.921  1.00  0.00    -0.744 OA
ENDBRANCH  65  68
ENDBRANCH  47  61
BRANCH  48  72
ATOM     72  C   UNL A   1      39.499  33.838  37.094  1.00  0.00     0.023 A 
ATOM     73  C   UNL A   1      39.936  35.177  37.079  1.00  0.00     0.012 A 
ATOM     74  C   UNL A   1      38.849  33.339  38.238  1.00  0.00     0.148 A 
ATOM     75  C   UNL A   1      39.757  35.995  38.195  1.00  0.00     0.002 A 
ATOM     76  C   UNL A   1      38.622  34.176  39.324  1.00  0.00     0.091 A 
ATOM     77  F   UNL A   1      38.451  32.060  38.235  1.00  0.00    -0.205 F 
ATOM     78  C   UNL A   1      39.091  35.499  39.313  1.00  0.00     0.022 A 
BRANCH  76  79
ATOM     79  S   UNL A   1      37.654  33.662  40.748  1.00  0.00     0.127 S 
ATOM     80  O   UNL A   1      38.538  32.679  41.370  1.00  0.00    -0.237 OA
ATOM     81  O   UNL A   1      37.513  34.919  41.483  1.00  0.00    -0.237 OA
ATOM     82  O   UNL A   1      36.408  33.139  40.206  1.00  0.00    -0.744 OA
ENDBRANCH  76  79
ENDBRANCH  48  72
BRANCH  60  83
ATOM     83  C   UNL A   1      44.171  28.940  35.381  1.00  0.00     0.023 A 
ATOM     84  C   UNL A   1      45.437  29.528  35.181  1.00  0.00     0.012 A 
ATOM     85  C   UNL A   1      44.042  27.871  36.289  1.00  0.00     0.148 A 
ATOM     86  C   UNL A   1      46.560  29.032  35.841  1.00  0.00     0.002 A 
ATOM     87  C   UNL A   1      45.157  27.416  36.982  1.00  0.00     0.091 A 
ATOM     88  F   UNL A   1      42.833  27.312  36.452  1.00  0.00    -0.205 F 
ATOM     89  C   UNL A   1      46.420  27.985  36.748  1.00  0.00     0.022 A 
BRANCH  87  90
ATOM     90  S   UNL A   1      45.052  26.139  38.240  1.00  0.00     0.127 S 
ATOM     91  O   UNL A   1      44.274  26.808  39.281  1.00  0.00    -0.237 OA
ATOM     92  O   UNL A   1      44.338  25.070  37.539  1.00  0.00    -0.237 OA
ATOM     93  O   UNL A   1      46.427  25.814  38.597  1.00  0.00    -0.744 OA
ENDBRANCH  87  90
ENDBRANCH  60  83
ENDBRANCH  34  35
ENDBRANCH  26  29
ENDBRANCH  24  25
ENDBRANCH  23  24
ENDBRANCH   1  23
TORSDOF 17
ENDMDL
MODEL 2
REMARK VINA RESULT:     -11.5      2.537      8.328
REMARK SMILES C[C@H]1[C@H](C(=O)NCCCNC(=O)c2ccc(-c3c4nc(c(-c5cccc(S(=O)(=O)[O-])c5F)c5ccc([nH]5)c(-c5cccc(S(=O)(=O)[O-])c5F)c5nc(c(-c6cccc(S(=O)(=O)[O-])c6F)c6ccc3[nH]6)C=C5)C=C4)cc2)CCN1C(=O)Cc1csc(N)n1
REMARK SMILES IDX 7 1 6 2 4 3 5 4 3 6 1 7 2 8 78 9 76 10 77 11 79 12 80 13
REMARK SMILES IDX 81 14 82 15 83 16 87 17 84 18 85 19 86 20 8 23 9 24 10 25
REMARK SMILES IDX 11 26 12 28 13 29 14 30 75 31 15 32 74 33 16 34 17 35 18 36
REMARK SMILES IDX 68 37 19 38 73 39 67 40 69 41 20 42 72 43 66 44 65 45 21 47
REMARK SMILES IDX 53 48 33 49 52 50 34 51 37 52 51 53 70 54 35 55 36 56 50 58
REMARK SMILES IDX 71 59 38 60 22 61 23 62 31 63 24 64 26 65 32 66 25 67 27 68
REMARK SMILES IDX 28 69 29 70 30 71 54 72 55 73 63 74 56 75 58 76 64 77 57 78
REMARK SMILES IDX 59 79 60 80 61 81 62 82 39 83 40 84 48 85 41 86 43 87 49 88
REMARK SMILES IDX 42 89 44 90 45 91 46 92 47 93
REMARK H PARENT 6 5 86 21 86 22 10 27 69 46 37 57
REMARK Flexibility Score: inf
ROOT
ATOM      1  C   UNL A   1      31.187  29.241  24.937  1.00  0.00     0.117 C 
ENDROOT
BRANCH   1   2
ATOM      2  N   UNL A   1      30.592  29.488  23.637  1.00  0.00    -0.356 N 
ATOM      3  C   UNL A   1      30.241  28.646  22.635  1.00  0.00     0.225 C 
ATOM      4  O   UNL A   1      29.758  29.154  21.617  1.00  0.00    -0.275 OA
ATOM      5  H   UNL A   1      30.414  30.437  23.448  1.00  0.00     0.163 HD
BRANCH   3   6
ATOM      6  C   UNL A   1      30.427  27.141  22.708  1.00  0.00     0.102 C 
ATOM      7  C   UNL A   1      32.104  25.758  21.476  1.00  0.00     0.032 C 
ATOM      8  C   UNL A   1      31.903  26.713  22.662  1.00  0.00     0.094 C 
ATOM      9  N   UNL A   1      32.130  26.017  23.925  1.00  0.00    -0.339 N 
ATOM     10  C   UNL A   1      29.802  26.459  23.928  1.00  0.00     0.037 C 
ATOM     11  C   UNL A   1      30.880  25.536  24.479  1.00  0.00     0.120 C 
BRANCH   9  12
ATOM     12  C   UNL A   1      33.330  25.717  24.553  1.00  0.00     0.228 C 
ATOM     13  O   UNL A   1      33.805  26.508  25.375  1.00  0.00    -0.274 OA
BRANCH  12  14
ATOM     14  C   UNL A   1      34.149  24.518  24.091  1.00  0.00     0.157 C 
BRANCH  14  15
ATOM     15  C   UNL A   1      33.626  23.175  24.473  1.00  0.00     0.063 A 
ATOM     16  C   UNL A   1      32.957  22.295  23.640  1.00  0.00     0.093 A 
ATOM     17  N   UNL A   1      33.857  22.685  25.749  1.00  0.00    -0.225 NA
ATOM     18  S   UNL A   1      32.580  20.854  24.483  1.00  0.00    -0.106 S 
ATOM     19  C   UNL A   1      33.390  21.466  25.866  1.00  0.00     0.180 A 
BRANCH  19  20
ATOM     20  N   UNL A   1      33.525  20.728  26.972  1.00  0.00    -0.375 N 
ATOM     21  H   UNL A   1      34.288  20.113  27.064  1.00  0.00     0.159 HD
ATOM     22  H   UNL A   1      32.862  20.801  27.696  1.00  0.00     0.159 HD
ENDBRANCH  19  20
ENDBRANCH  14  15
ENDBRANCH  12  14
ENDBRANCH   9  12
ENDBRANCH   3   6
ENDBRANCH   1   2
BRANCH   1  23
ATOM     23  C   UNL A   1      32.638  29.695  25.001  1.00  0.00     0.042 C 
BRANCH  23  24
ATOM     24  C   UNL A   1      33.151  29.952  26.411  1.00  0.00     0.118 C 
BRANCH  24  25
ATOM     25  N   UNL A   1      33.132  31.364  26.771  1.00  0.00    -0.352 N 
ATOM     26  C   UNL A   1      33.940  32.071  27.622  1.00  0.00     0.251 C 
ATOM     27  H   UNL A   1      32.426  31.894  26.334  1.00  0.00     0.163 HD
ATOM     28  O   UNL A   1      33.630  33.224  27.927  1.00  0.00    -0.269 OA
BRANCH  26  29
ATOM     29  C   UNL A   1      35.164  31.462  28.185  1.00  0.00     0.039 A 
ATOM     30  C   UNL A   1      36.347  32.206  28.192  1.00  0.00     0.014 A 
ATOM     31  C   UNL A   1      35.159  30.157  28.685  1.00  0.00     0.014 A 
ATOM     32  C   UNL A   1      37.504  31.663  28.754  1.00  0.00     0.010 A 
ATOM     33  C   UNL A   1      36.287  29.654  29.328  1.00  0.00     0.010 A 
ATOM     34  C   UNL A   1      37.475  30.396  29.361  1.00  0.00    -0.014 A 
BRANCH  34  35
ATOM     35  C   UNL A   1      38.675  29.844  30.041  1.00  0.00     0.031 A 
ATOM     36  C   UNL A   1      39.080  30.339  31.404  1.00  0.00     0.074 A 
ATOM     37  C   UNL A   1      39.446  28.947  29.395  1.00  0.00     0.049 A 
ATOM     38  N   UNL A   1      40.110  29.993  32.133  1.00  0.00    -0.248 NA
ATOM     39  C   UNL A   1      38.237  31.379  32.017  1.00  0.00     0.031 C 
ATOM     40  C   UNL A   1      39.214  28.456  28.035  1.00  0.00     0.029 A 
ATOM     41  N   UNL A   1      40.594  28.305  29.787  1.00  0.00    -0.354 N 
ATOM     42  C   UNL A   1      40.056  30.788  33.271  1.00  0.00     0.074 A 
ATOM     43  C   UNL A   1      38.917  31.667  33.117  1.00  0.00     0.031 C 
ATOM     44  C   UNL A   1      40.183  27.586  27.708  1.00  0.00     0.029 A 
ATOM     45  C   UNL A   1      41.120  27.477  28.822  1.00  0.00     0.049 A 
ATOM     46  H   UNL A   1      41.002  28.424  30.675  1.00  0.00     0.167 HD
ATOM     47  C   UNL A   1      40.858  30.767  34.363  1.00  0.00     0.034 A 
ATOM     48  C   UNL A   1      42.235  26.723  28.827  1.00  0.00     0.034 A 
ATOM     49  C   UNL A   1      41.970  29.870  34.528  1.00  0.00     0.049 A 
ATOM     50  C   UNL A   1      43.085  26.684  30.067  1.00  0.00     0.074 A 
ATOM     51  C   UNL A   1      42.794  29.713  35.629  1.00  0.00     0.029 A 
ATOM     52  N   UNL A   1      42.422  28.982  33.563  1.00  0.00    -0.354 N 
ATOM     53  N   UNL A   1      42.923  27.325  31.198  1.00  0.00    -0.248 NA
ATOM     54  C   UNL A   1      44.247  25.784  30.047  1.00  0.00     0.031 C 
ATOM     55  C   UNL A   1      43.761  28.750  35.319  1.00  0.00     0.029 A 
ATOM     56  C   UNL A   1      43.517  28.282  34.038  1.00  0.00     0.049 A 
ATOM     57  H   UNL A   1      42.021  28.867  32.671  1.00  0.00     0.167 HD
ATOM     58  C   UNL A   1      43.944  26.887  32.035  1.00  0.00     0.074 A 
ATOM     59  C   UNL A   1      44.700  25.903  31.287  1.00  0.00     0.031 C 
ATOM     60  C   UNL A   1      44.238  27.275  33.300  1.00  0.00     0.034 A 
BRANCH  47  61
ATOM     61  C   UNL A   1      40.526  31.713  35.491  1.00  0.00     0.023 A 
ATOM     62  C   UNL A   1      41.371  32.815  35.745  1.00  0.00     0.012 A 
ATOM     63  C   UNL A   1      39.361  31.546  36.264  1.00  0.00     0.148 A 
ATOM     64  C   UNL A   1      41.084  33.710  36.773  1.00  0.00     0.002 A 
ATOM     65  C   UNL A   1      39.055  32.470  37.257  1.00  0.00     0.091 A 
ATOM     66  F   UNL A   1      38.580  30.483  36.023  1.00  0.00    -0.205 F 
ATOM     67  C   UNL A   1      39.922  33.544  37.522  1.00  0.00     0.022 A 
BRANCH  65  68
ATOM     68  S   UNL A   1      37.543  32.392  38.224  1.00  0.00     0.127 S 
ATOM     69  O   UNL A   1      37.921  33.143  39.420  1.00  0.00    -0.237 OA
ATOM     70  O   UNL A   1      36.586  33.074  37.352  1.00  0.00    -0.237 OA
ATOM     71  O   UNL A   1      37.274  30.978  38.434  1.00  0.00    -0.744 OA
ENDBRANCH  65  68
ENDBRANCH  47  61
BRANCH  48  72
ATOM     72  C   UNL A   1      42.578  25.899  27.634  1.00  0.00     0.023 A 
ATOM     73  C   UNL A   1      43.408  26.438  26.631  1.00  0.00     0.012 A 
ATOM     74  C   UNL A   1      42.113  24.577  27.504  1.00  0.00     0.148 A 
ATOM     75  C   UNL A   1      43.742  25.685  25.505  1.00  0.00     0.002 A 
ATOM     76  C   UNL A   1      42.497  23.813  26.409  1.00  0.00     0.091 A 
ATOM     77  F   UNL A   1      41.316  24.088  28.464  1.00  0.00    -0.205 F 
ATOM     78  C   UNL A   1      43.296  24.370  25.399  1.00  0.00     0.022 A 
BRANCH  76  79
ATOM     79  S   UNL A   1      42.082  22.072  26.259  1.00  0.00     0.127 S 
ATOM     80  O   UNL A   1      40.627  22.121  26.134  1.00  0.00    -0.237 OA
ATOM     81  O   UNL A   1      42.795  21.698  25.037  1.00  0.00    -0.237 OA
ATOM     82  O   UNL A   1      42.593  21.442  27.469  1.00  0.00    -0.744 OA
ENDBRANCH  76  79
ENDBRANCH  48  72
BRANCH  60  83
ATOM     83  C   UNL A   1      45.412  26.614  33.974  1.00  0.00     0.023 A 
ATOM     84  C   UNL A   1      46.687  27.212  33.912  1.00  0.00     0.012 A 
ATOM     85  C   UNL A   1      45.243  25.427  34.712  1.00  0.00     0.148 A 
ATOM     86  C   UNL A   1      47.781  26.617  34.538  1.00  0.00     0.002 A 
ATOM     87  C   UNL A   1      46.327  24.867  35.377  1.00  0.00     0.091 A 
ATOM     88  F   UNL A   1      44.027  24.862  34.745  1.00  0.00    -0.205 F 
ATOM     89  C   UNL A   1      47.600  25.452  35.279  1.00  0.00     0.022 A 
BRANCH  87  90
ATOM     90  S   UNL A   1      46.166  23.423  36.433  1.00  0.00     0.127 S 
ATOM     91  O   UNL A   1      45.838  22.380  35.464  1.00  0.00    -0.237 OA
ATOM     92  O   UNL A   1      47.504  23.314  37.016  1.00  0.00    -0.237 OA
ATOM     93  O   UNL A   1      45.115  23.742  37.390  1.00  0.00    -0.744 OA
ENDBRANCH  87  90
ENDBRANCH  60  83
ENDBRANCH  34  35
ENDBRANCH  26  29
ENDBRANCH  24  25
ENDBRANCH  23  24
ENDBRANCH   1  23
TORSDOF 17
ENDMDL
MODEL 3
REMARK VINA RESULT:     -11.4      2.418      8.011
REMARK SMILES C[C@H]1[C@H](C(=O)NCCCNC(=O)c2ccc(-c3c4nc(c(-c5cccc(S(=O)(=O)[O-])c5F)c5ccc([nH]5)c(-c5cccc(S(=O)(=O)[O-])c5F)c5nc(c(-c6cccc(S(=O)(=O)[O-])c6F)c6ccc3[nH]6)C=C5)C=C4)cc2)CCN1C(=O)Cc1csc(N)n1
REMARK SMILES IDX 7 1 6 2 4 3 5 4 3 6 1 7 2 8 78 9 76 10 77 11 79 12 80 13
REMARK SMILES IDX 81 14 82 15 83 16 87 17 84 18 85 19 86 20 8 23 9 24 10 25
REMARK SMILES IDX 11 26 12 28 13 29 14 30 75 31 15 32 74 33 16 34 17 35 18 36
REMARK SMILES IDX 68 37 19 38 73 39 67 40 69 41 20 42 72 43 66 44 65 45 21 47
REMARK SMILES IDX 53 48 33 49 52 50 34 51 37 52 51 53 70 54 35 55 36 56 50 58
REMARK SMILES IDX 71 59 38 60 22 61 23 62 31 63 24 64 26 65 32 66 25 67 27 68
REMARK SMILES IDX 28 69 29 70 30 71 54 72 55 73 63 74 56 75 58 76 64 77 57 78
REMARK SMILES IDX 59 79 60 80 61 81 62 82 39 83 40 84 48 85 41 86 43 87 49 88
REMARK SMILES IDX 42 89 44 90 45 91 46 92 47 93
REMARK H PARENT 6 5 86 21 86 22 10 27 69 46 37 57
REMARK Flexibility Score: inf
ROOT
ATOM      1  C   UNL A   1      33.595  28.479  25.528  1.00  0.00     0.117 C 
ENDROOT
BRANCH   1   2
ATOM      2  N   UNL A   1      32.909  27.479  26.326  1.00  0.00    -0.356 N 
ATOM      3  C   UNL A   1      32.055  26.485  25.980  1.00  0.00     0.225 C 
ATOM      4  O   UNL A   1      31.610  25.784  26.895  1.00  0.00    -0.275 OA
ATOM      5  H   UNL A   1      33.096  27.534  27.291  1.00  0.00     0.163 HD
BRANCH   3   6
ATOM      6  C   UNL A   1      31.624  26.216  24.549  1.00  0.00     0.102 C 
ATOM      7  C   UNL A   1      33.035  26.342  22.491  1.00  0.00     0.032 C 
ATOM      8  C   UNL A   1      32.698  25.489  23.723  1.00  0.00     0.094 C 
ATOM      9  N   UNL A   1      32.074  24.232  23.322  1.00  0.00    -0.339 N 
ATOM     10  C   UNL A   1      30.326  25.420  24.392  1.00  0.00     0.037 C 
ATOM     11  C   UNL A   1      30.629  24.338  23.364  1.00  0.00     0.120 C 
BRANCH   9  12
ATOM     12  C   UNL A   1      32.672  23.070  22.857  1.00  0.00     0.228 C 
ATOM     13  O   UNL A   1      31.996  22.043  22.727  1.00  0.00    -0.274 OA
BRANCH  12  14
ATOM     14  C   UNL A   1      34.186  23.008  22.692  1.00  0.00     0.157 C 
BRANCH  14  15
ATOM     15  C   UNL A   1      34.957  22.521  23.870  1.00  0.00     0.063 A 
ATOM     16  C   UNL A   1      36.336  22.433  23.961  1.00  0.00     0.093 A 
ATOM     17  N   UNL A   1      34.289  22.170  25.033  1.00  0.00    -0.225 NA
ATOM     18  S   UNL A   1      36.792  21.864  25.510  1.00  0.00    -0.106 S 
ATOM     19  C   UNL A   1      35.141  21.843  25.973  1.00  0.00     0.180 A 
BRANCH  19  20
ATOM     20  N   UNL A   1      34.775  21.518  27.217  1.00  0.00    -0.375 N 
ATOM     21  H   UNL A   1      34.287  22.167  27.774  1.00  0.00     0.159 HD
ATOM     22  H   UNL A   1      34.993  20.627  27.577  1.00  0.00     0.159 HD
ENDBRANCH  19  20
ENDBRANCH  14  15
ENDBRANCH  12  14
ENDBRANCH   9  12
ENDBRANCH   3   6
ENDBRANCH   1   2
BRANCH   1  23
ATOM     23  C   UNL A   1      32.752  29.728  25.325  1.00  0.00     0.042 C 
BRANCH  23  24
ATOM     24  C   UNL A   1      32.114  30.266  26.599  1.00  0.00     0.118 C 
BRANCH  24  25
ATOM     25  N   UNL A   1      32.178  31.719  26.694  1.00  0.00    -0.352 N 
ATOM     26  C   UNL A   1      33.069  32.524  27.355  1.00  0.00     0.251 C 
ATOM     27  H   UNL A   1      31.469  32.199  26.206  1.00  0.00     0.163 HD
ATOM     28  O   UNL A   1      32.830  33.728  27.459  1.00  0.00    -0.269 OA
BRANCH  26  29
ATOM     29  C   UNL A   1      34.299  31.961  27.951  1.00  0.00     0.039 A 
ATOM     30  C   UNL A   1      35.432  32.774  28.057  1.00  0.00     0.014 A 
ATOM     31  C   UNL A   1      34.351  30.634  28.387  1.00  0.00     0.014 A 
ATOM     32  C   UNL A   1      36.591  32.273  28.653  1.00  0.00     0.010 A 
ATOM     33  C   UNL A   1      35.475  30.168  29.064  1.00  0.00     0.010 A 
ATOM     34  C   UNL A   1      36.611  30.977  29.196  1.00  0.00    -0.014 A 
BRANCH  34  35
ATOM     35  C   UNL A   1      37.808  30.464  29.911  1.00  0.00     0.031 A 
ATOM     36  C   UNL A   1      38.139  30.947  31.298  1.00  0.00     0.074 A 
ATOM     37  C   UNL A   1      38.641  29.614  29.279  1.00  0.00     0.049 A 
ATOM     38  N   UNL A   1      39.155  30.632  32.059  1.00  0.00    -0.248 NA
ATOM     39  C   UNL A   1      37.228  31.938  31.897  1.00  0.00     0.031 C 
ATOM     40  C   UNL A   1      38.482  29.142  27.901  1.00  0.00     0.029 A 
ATOM     41  N   UNL A   1      39.801  29.014  29.702  1.00  0.00    -0.354 N 
ATOM     42  C   UNL A   1      39.023  31.400  33.209  1.00  0.00     0.074 A 
ATOM     43  C   UNL A   1      37.853  32.232  33.028  1.00  0.00     0.031 C 
ATOM     44  C   UNL A   1      39.500  28.321  27.596  1.00  0.00     0.029 A 
ATOM     45  C   UNL A   1      40.398  28.231  28.743  1.00  0.00     0.049 A 
ATOM     46  H   UNL A   1      40.170  29.133  30.607  1.00  0.00     0.167 HD
ATOM     47  C   UNL A   1      39.783  31.392  34.331  1.00  0.00     0.034 A 
ATOM     48  C   UNL A   1      41.545  27.525  28.777  1.00  0.00     0.034 A 
ATOM     49  C   UNL A   1      40.927  30.540  34.521  1.00  0.00     0.049 A 
ATOM     50  C   UNL A   1      42.348  27.498  30.047  1.00  0.00     0.074 A 
ATOM     51  C   UNL A   1      41.715  30.398  35.651  1.00  0.00     0.029 A 
ATOM     52  N   UNL A   1      41.453  29.693  33.558  1.00  0.00    -0.354 N 
ATOM     53  N   UNL A   1      42.116  28.109  31.184  1.00  0.00    -0.248 NA
ATOM     54  C   UNL A   1      43.549  26.650  30.056  1.00  0.00     0.031 C 
ATOM     55  C   UNL A   1      42.734  29.484  35.360  1.00  0.00     0.029 A 
ATOM     56  C   UNL A   1      42.560  29.032  34.062  1.00  0.00     0.049 A 
ATOM     57  H   UNL A   1      41.092  29.579  32.649  1.00  0.00     0.167 HD
ATOM     58  C   UNL A   1      43.123  27.698  32.051  1.00  0.00     0.074 A 
ATOM     59  C   UNL A   1      43.949  26.763  31.314  1.00  0.00     0.031 C 
ATOM     60  C   UNL A   1      43.351  28.073  33.333  1.00  0.00     0.034 A 
BRANCH  47  61
ATOM     61  C   UNL A   1      39.368  32.299  35.462  1.00  0.00     0.023 A 
ATOM     62  C   UNL A   1      38.506  31.809  36.466  1.00  0.00     0.012 A 
ATOM     63  C   UNL A   1      39.866  33.613  35.563  1.00  0.00     0.148 A 
ATOM     64  C   UNL A   1      38.115  32.622  37.528  1.00  0.00     0.002 A 
ATOM     65  C   UNL A   1      39.509  34.402  36.651  1.00  0.00     0.091 A 
ATOM     66  F   UNL A   1      40.667  34.070  34.591  1.00  0.00    -0.205 F 
ATOM     67  C   UNL A   1      38.623  33.914  37.626  1.00  0.00     0.022 A 
BRANCH  65  68
ATOM     68  S   UNL A   1      40.172  36.051  36.914  1.00  0.00     0.127 S 
ATOM     69  O   UNL A   1      41.607  35.781  36.998  1.00  0.00    -0.237 OA
ATOM     70  O   UNL A   1      39.752  36.748  35.698  1.00  0.00    -0.237 OA
ATOM     71  O   UNL A   1      39.557  36.541  38.139  1.00  0.00    -0.744 OA
ENDBRANCH  65  68
ENDBRANCH  47  61
BRANCH  48  72
ATOM     72  C   UNL A   1      41.969  26.742  27.582  1.00  0.00     0.023 A 
ATOM     73  C   UNL A   1      42.658  27.385  26.536  1.00  0.00     0.012 A 
ATOM     74  C   UNL A   1      41.720  25.359  27.494  1.00  0.00     0.148 A 
ATOM     75  C   UNL A   1      43.065  26.672  25.408  1.00  0.00     0.002 A 
ATOM     76  C   UNL A   1      42.179  24.644  26.394  1.00  0.00     0.091 A 
ATOM     77  F   UNL A   1      41.053  24.769  28.495  1.00  0.00    -0.205 F 
ATOM     78  C   UNL A   1      42.835  25.300  25.342  1.00  0.00     0.022 A 
BRANCH  76  79
ATOM     79  S   UNL A   1      42.047  22.855  26.289  1.00  0.00     0.127 S 
ATOM     80  O   UNL A   1      42.684  22.584  25.003  1.00  0.00    -0.237 OA
ATOM     81  O   UNL A   1      42.813  22.429  27.461  1.00  0.00    -0.237 OA
ATOM     82  O   UNL A   1      40.622  22.562  26.365  1.00  0.00    -0.744 OA
ENDBRANCH  76  79
ENDBRANCH  48  72
BRANCH  60  83
ATOM     83  C   UNL A   1      44.528  27.449  34.039  1.00  0.00     0.023 A 
ATOM     84  C   UNL A   1      45.791  28.073  33.987  1.00  0.00     0.012 A 
ATOM     85  C   UNL A   1      44.370  26.273  34.798  1.00  0.00     0.148 A 
ATOM     86  C   UNL A   1      46.886  27.513  34.643  1.00  0.00     0.002 A 
ATOM     87  C   UNL A   1      45.454  25.749  35.492  1.00  0.00     0.091 A 
ATOM     88  F   UNL A   1      43.166  25.683  34.821  1.00  0.00    -0.205 F 
ATOM     89  C   UNL A   1      46.716  26.358  35.403  1.00  0.00     0.022 A 
BRANCH  87  90
ATOM     90  S   UNL A   1      45.305  24.323  36.573  1.00  0.00     0.127 S 
ATOM     91  O   UNL A   1      46.696  24.101  36.967  1.00  0.00    -0.237 OA
ATOM     92  O   UNL A   1      44.444  24.831  37.641  1.00  0.00    -0.237 OA
ATOM     93  O   UNL A   1      44.707  23.268  35.765  1.00  0.00    -0.744 OA
ENDBRANCH  87  90
ENDBRANCH  60  83
ENDBRANCH  34  35
ENDBRANCH  26  29
ENDBRANCH  24  25
ENDBRANCH  23  24
ENDBRANCH   1  23
TORSDOF 17
ENDMDL
