MODEL 1
REMARK VINA RESULT:     -13.6      0.000      0.000
REMARK SMILES Cc1ccc(-c2nc(C)c(C(=O)N3CCC(C(=O)NCCCNC(=O)c4ccc(-c5c6nc(c(-c7cccc(S(=O)(=O)[O-])c7F)c7ccc([nH]7)c(-c7cccc(S(=O)(=O)[O-])c7F)c7nc(c(-c8cccc(S(=O)(=O)[O-])c8F)c8ccc5[nH]8)C=C7)C=C6)cc4)CC3)s2)o1
REMARK SMILES IDX 21 1 20 2 19 3 17 4 18 5 16 7 11 8 12 9 13 10 14 11 90 12
REMARK SMILES IDX 15 13 89 14 10 15 6 16 7 17 91 18 8 19 9 20 5 21 1 22 2 23
REMARK SMILES IDX 3 24 92 25 4 26 22 27 23 28 24 29 25 31 26 32 27 33 88 34
REMARK SMILES IDX 28 35 87 36 29 37 30 38 31 39 81 40 32 41 86 42 80 43 82 44
REMARK SMILES IDX 33 45 85 46 79 47 78 48 34 50 66 51 46 52 65 53 47 54 50 55
REMARK SMILES IDX 64 56 83 57 48 58 49 59 63 61 84 62 51 63 35 64 36 65 44 66
REMARK SMILES IDX 37 67 39 68 45 69 38 70 40 71 41 72 42 73 43 74 67 75 68 76
REMARK SMILES IDX 76 77 69 78 71 79 77 80 70 81 72 82 73 83 74 84 75 85 52 86
REMARK SMILES IDX 53 87 61 88 54 89 56 90 62 91 55 92 57 93 58 94 59 95 60 96
REMARK H PARENT 19 6 23 30 82 49 50 60
REMARK Flexibility Score: inf
ROOT
ATOM      1  C   UNL A   1      32.570  29.786  25.495  1.00  0.00     0.042 C 
ENDROOT
BRANCH   1   2
ATOM      2  C   UNL A   1      31.257  29.132  25.085  1.00  0.00     0.117 C 
BRANCH   2   3
ATOM      3  N   UNL A   1      30.786  29.587  23.785  1.00  0.00    -0.356 N 
ATOM      4  C   UNL A   1      30.731  28.959  22.581  1.00  0.00     0.223 C 
ATOM      5  O   UNL A   1      30.252  29.576  21.627  1.00  0.00    -0.275 OA
ATOM      6  H   UNL A   1      30.445  30.512  23.777  1.00  0.00     0.163 HD
BRANCH   4   7
ATOM      7  C   UNL A   1      31.215  27.530  22.401  1.00  0.00     0.082 C 
ATOM      8  C   UNL A   1      32.981  24.636  24.643  1.00  0.00     0.265 C 
ATOM      9  O   UNL A   1      33.799  25.313  25.272  1.00  0.00    -0.268 OA
ATOM     10  N   UNL A   1      32.398  25.162  23.494  1.00  0.00    -0.338 N 
ATOM     11  C   UNL A   1      33.205  25.981  22.604  1.00  0.00     0.120 C 
ATOM     12  C   UNL A   1      30.967  25.138  23.234  1.00  0.00     0.120 C 
ATOM     13  C   UNL A   1      32.734  27.422  22.580  1.00  0.00     0.035 C 
ATOM     14  C   UNL A   1      30.384  26.547  23.240  1.00  0.00     0.035 C 
BRANCH   8  15
ATOM     15  C   UNL A   1      32.675  23.253  24.981  1.00  0.00     0.115 A 
ATOM     16  C   UNL A   1      32.502  20.828  24.882  1.00  0.00     0.159 A 
ATOM     17  N   UNL A   1      31.579  21.308  25.683  1.00  0.00    -0.237 NA
ATOM     18  S   UNL A   1      33.593  21.983  24.252  1.00  0.00    -0.105 S 
ATOM     19  C   UNL A   1      31.643  22.691  25.725  1.00  0.00     0.062 A 
ATOM     20  C   UNL A   1      30.562  23.362  26.491  1.00  0.00     0.068 C 
BRANCH  16  21
ATOM     21  C   UNL A   1      32.531  19.436  24.529  1.00  0.00     0.162 A 
ATOM     22  C   UNL A   1      32.529  16.065  25.750  1.00  0.00     0.087 C 
ATOM     23  C   UNL A   1      32.558  17.246  24.867  1.00  0.00     0.101 A 
ATOM     24  C   UNL A   1      32.580  17.423  23.503  1.00  0.00     0.046 A 
ATOM     25  O   UNL A   1      32.553  18.452  25.491  1.00  0.00    -0.459 OA
ATOM     26  C   UNL A   1      32.548  18.824  23.286  1.00  0.00     0.054 A 
ENDBRANCH  16  21
ENDBRANCH   8  15
ENDBRANCH   4   7
ENDBRANCH   2   3
ENDBRANCH   1   2
BRANCH   1  27
ATOM     27  C   UNL A   1      32.570  30.335  26.912  1.00  0.00     0.118 C 
BRANCH  27  28
ATOM     28  N   UNL A   1      32.710  31.785  26.953  1.00  0.00    -0.352 N 
ATOM     29  C   UNL A   1      33.656  32.562  27.573  1.00  0.00     0.251 C 
ATOM     30  H   UNL A   1      32.020  32.284  26.460  1.00  0.00     0.163 HD
ATOM     31  O   UNL A   1      33.484  33.777  27.646  1.00  0.00    -0.269 OA
BRANCH  29  32
ATOM     32  C   UNL A   1      34.867  31.948  28.159  1.00  0.00     0.039 A 
ATOM     33  C   UNL A   1      36.057  32.683  28.182  1.00  0.00     0.014 A 
ATOM     34  C   UNL A   1      34.843  30.647  28.667  1.00  0.00     0.014 A 
ATOM     35  C   UNL A   1      37.201  32.131  28.762  1.00  0.00     0.010 A 
ATOM     36  C   UNL A   1      35.955  30.136  29.327  1.00  0.00     0.010 A 
ATOM     37  C   UNL A   1      37.152  30.863  29.367  1.00  0.00    -0.014 A 
BRANCH  37  38
ATOM     38  C   UNL A   1      38.343  30.279  30.033  1.00  0.00     0.031 A 
ATOM     39  C   UNL A   1      38.731  30.722  31.420  1.00  0.00     0.074 A 
ATOM     40  C   UNL A   1      39.126  29.415  29.359  1.00  0.00     0.049 A 
ATOM     41  N   UNL A   1      39.753  30.356  32.147  1.00  0.00    -0.248 NA
ATOM     42  C   UNL A   1      37.874  31.735  32.063  1.00  0.00     0.031 C 
ATOM     43  C   UNL A   1      38.916  28.984  27.974  1.00  0.00     0.029 A 
ATOM     44  N   UNL A   1      40.271  28.760  29.739  1.00  0.00    -0.354 N 
ATOM     45  C   UNL A   1      39.689  31.117  33.308  1.00  0.00     0.074 A 
ATOM     46  C   UNL A   1      38.549  31.996  33.174  1.00  0.00     0.031 C 
ATOM     47  C   UNL A   1      39.890  28.128  27.626  1.00  0.00     0.029 A 
ATOM     48  C   UNL A   1      40.804  27.963  28.753  1.00  0.00     0.049 A 
ATOM     49  H   UNL A   1      40.672  28.852  30.633  1.00  0.00     0.167 HD
ATOM     50  C   UNL A   1      40.482  31.065  34.405  1.00  0.00     0.034 A 
ATOM     51  C   UNL A   1      41.902  27.182  28.759  1.00  0.00     0.034 A 
ATOM     52  C   UNL A   1      41.574  30.144  34.562  1.00  0.00     0.049 A 
ATOM     53  C   UNL A   1      42.715  27.076  30.021  1.00  0.00     0.074 A 
ATOM     54  C   UNL A   1      42.377  29.942  35.670  1.00  0.00     0.029 A 
ATOM     55  N   UNL A   1      42.012  29.266  33.584  1.00  0.00    -0.354 N 
ATOM     56  N   UNL A   1      42.535  27.679  31.171  1.00  0.00    -0.248 NA
ATOM     57  C   UNL A   1      43.854  26.147  30.001  1.00  0.00     0.031 C 
ATOM     58  C   UNL A   1      43.308  28.944  35.359  1.00  0.00     0.029 A 
ATOM     59  C   UNL A   1      43.073  28.516  34.061  1.00  0.00     0.049 A 
ATOM     60  H   UNL A   1      41.626  29.186  32.682  1.00  0.00     0.167 HD
ATOM     61  C   UNL A   1      43.512  27.178  32.021  1.00  0.00     0.074 A 
ATOM     62  C   UNL A   1      44.268  26.204  31.260  1.00  0.00     0.031 C 
ATOM     63  C   UNL A   1      43.775  27.507  33.310  1.00  0.00     0.034 A 
BRANCH  50  64
ATOM     64  C   UNL A   1      40.148  31.982  35.553  1.00  0.00     0.023 A 
ATOM     65  C   UNL A   1      40.903  33.159  35.739  1.00  0.00     0.012 A 
ATOM     66  C   UNL A   1      39.065  31.714  36.412  1.00  0.00     0.148 A 
ATOM     67  C   UNL A   1      40.609  34.036  36.783  1.00  0.00     0.002 A 
ATOM     68  C   UNL A   1      38.751  32.615  37.425  1.00  0.00     0.091 A 
ATOM     69  F   UNL A   1      38.372  30.580  36.235  1.00  0.00    -0.205 F 
ATOM     70  C   UNL A   1      39.528  33.769  37.619  1.00  0.00     0.022 A 
BRANCH  68  71
ATOM     71  S   UNL A   1      37.331  32.401  38.505  1.00  0.00     0.127 S 
ATOM     72  O   UNL A   1      37.772  33.098  39.712  1.00  0.00    -0.237 OA
ATOM     73  O   UNL A   1      36.271  33.082  37.761  1.00  0.00    -0.237 OA
ATOM     74  O   UNL A   1      37.146  30.963  38.641  1.00  0.00    -0.744 OA
ENDBRANCH  68  71
ENDBRANCH  50  64
BRANCH  51  75
ATOM     75  C   UNL A   1      42.235  26.361  27.560  1.00  0.00     0.023 A 
ATOM     76  C   UNL A   1      42.953  26.952  26.502  1.00  0.00     0.012 A 
ATOM     77  C   UNL A   1      41.880  25.002  27.474  1.00  0.00     0.148 A 
ATOM     78  C   UNL A   1      43.285  26.213  25.367  1.00  0.00     0.002 A 
ATOM     79  C   UNL A   1      42.259  24.258  26.363  1.00  0.00     0.091 A 
ATOM     80  F   UNL A   1      41.185  24.461  28.486  1.00  0.00    -0.205 F 
ATOM     81  C   UNL A   1      42.947  24.864  25.301  1.00  0.00     0.022 A 
BRANCH  79  82
ATOM     82  S   UNL A   1      41.977  22.486  26.254  1.00  0.00     0.127 S 
ATOM     83  O   UNL A   1      40.519  22.418  26.204  1.00  0.00    -0.237 OA
ATOM     84  O   UNL A   1      42.654  22.146  25.001  1.00  0.00    -0.237 OA
ATOM     85  O   UNL A   1      42.601  21.920  27.442  1.00  0.00    -0.744 OA
ENDBRANCH  79  82
ENDBRANCH  51  75
BRANCH  63  86
ATOM     86  C   UNL A   1      44.906  26.788  33.996  1.00  0.00     0.023 A 
ATOM     87  C   UNL A   1      46.194  27.359  34.002  1.00  0.00     0.012 A 
ATOM     88  C   UNL A   1      44.679  25.584  34.691  1.00  0.00     0.148 A 
ATOM     89  C   UNL A   1      47.246  26.724  34.661  1.00  0.00     0.002 A 
ATOM     90  C   UNL A   1      45.722  24.981  35.384  1.00  0.00     0.091 A 
ATOM     91  F   UNL A   1      43.451  25.044  34.655  1.00  0.00    -0.205 F 
ATOM     92  C   UNL A   1      47.009  25.544  35.360  1.00  0.00     0.022 A 
BRANCH  90  93
ATOM     93  S   UNL A   1      45.477  23.511  36.385  1.00  0.00     0.127 S 
ATOM     94  O   UNL A   1      46.838  22.990  36.493  1.00  0.00    -0.237 OA
ATOM     95  O   UNL A   1      44.935  24.063  37.629  1.00  0.00    -0.237 OA
ATOM     96  O   UNL A   1      44.539  22.679  35.643  1.00  0.00    -0.744 OA
ENDBRANCH  90  93
ENDBRANCH  63  86
ENDBRANCH  37  38
ENDBRANCH  29  32
ENDBRANCH  27  28
ENDBRANCH   1  27
TORSDOF 15
ENDMDL
MODEL 2
REMARK VINA RESULT:     -13.4      5.065     10.596
REMARK SMILES Cc1ccc(-c2nc(C)c(C(=O)N3CCC(C(=O)NCCCNC(=O)c4ccc(-c5c6nc(c(-c7cccc(S(=O)(=O)[O-])c7F)c7ccc([nH]7)c(-c7cccc(S(=O)(=O)[O-])c7F)c7nc(c(-c8cccc(S(=O)(=O)[O-])c8F)c8ccc5[nH]8)C=C7)C=C6)cc4)CC3)s2)o1
REMARK SMILES IDX 21 1 20 2 19 3 17 4 18 5 16 7 11 8 12 9 13 10 14 11 90 12
REMARK SMILES IDX 15 13 89 14 10 15 6 16 7 17 91 18 8 19 9 20 5 21 1 22 2 23
REMARK SMILES IDX 3 24 92 25 4 26 22 27 23 28 24 29 25 31 26 32 27 33 88 34
REMARK SMILES IDX 28 35 87 36 29 37 30 38 31 39 81 40 32 41 86 42 80 43 82 44
REMARK SMILES IDX 33 45 85 46 79 47 78 48 34 50 66 51 46 52 65 53 47 54 50 55
REMARK SMILES IDX 64 56 83 57 48 58 49 59 63 61 84 62 51 63 35 64 36 65 44 66
REMARK SMILES IDX 37 67 39 68 45 69 38 70 40 71 41 72 42 73 43 74 67 75 68 76
REMARK SMILES IDX 76 77 69 78 71 79 77 80 70 81 72 82 73 83 74 84 75 85 52 86
REMARK SMILES IDX 53 87 61 88 54 89 56 90 62 91 55 92 57 93 58 94 59 95 60 96
REMARK H PARENT 19 6 23 30 82 49 50 60
REMARK Flexibility Score: inf
ROOT
ATOM      1  C   UNL A   1      35.825  21.705  24.382  1.00  0.00     0.042 C 
ENDROOT
BRANCH   1   2
ATOM      2  C   UNL A   1      35.109  21.392  25.689  1.00  0.00     0.117 C 
BRANCH   2   3
ATOM      3  N   UNL A   1      34.207  20.255  25.575  1.00  0.00    -0.356 N 
ATOM      4  C   UNL A   1      32.855  20.194  25.448  1.00  0.00     0.223 C 
ATOM      5  O   UNL A   1      32.333  19.081  25.342  1.00  0.00    -0.275 OA
ATOM      6  H   UNL A   1      34.654  19.377  25.590  1.00  0.00     0.163 HD
BRANCH   4   7
ATOM      7  C   UNL A   1      31.997  21.447  25.408  1.00  0.00     0.082 C 
ATOM      8  C   UNL A   1      32.483  25.416  24.679  1.00  0.00     0.265 C 
ATOM      9  O   UNL A   1      33.549  25.619  25.266  1.00  0.00    -0.268 OA
ATOM     10  N   UNL A   1      31.754  24.266  24.966  1.00  0.00    -0.338 N 
ATOM     11  C   UNL A   1      31.705  23.783  26.335  1.00  0.00     0.120 C 
ATOM     12  C   UNL A   1      31.217  23.378  23.945  1.00  0.00     0.120 C 
ATOM     13  C   UNL A   1      32.412  22.451  26.490  1.00  0.00     0.035 C 
ATOM     14  C   UNL A   1      31.905  22.018  23.984  1.00  0.00     0.035 C 
BRANCH   8  15
ATOM     15  C   UNL A   1      31.882  26.387  23.774  1.00  0.00     0.115 A 
ATOM     16  C   UNL A   1      30.382  28.052  22.826  1.00  0.00     0.159 A 
ATOM     17  N   UNL A   1      31.045  27.452  21.865  1.00  0.00    -0.237 NA
ATOM     18  S   UNL A   1      30.825  27.595  24.414  1.00  0.00    -0.105 S 
ATOM     19  C   UNL A   1      31.881  26.478  22.387  1.00  0.00     0.062 A 
ATOM     20  C   UNL A   1      32.585  25.633  21.388  1.00  0.00     0.068 C 
BRANCH  16  21
ATOM     21  C   UNL A   1      29.323  28.977  22.535  1.00  0.00     0.162 A 
ATOM     22  C   UNL A   1      28.210  31.640  20.407  1.00  0.00     0.087 C 
ATOM     23  C   UNL A   1      28.286  30.622  21.473  1.00  0.00     0.101 A 
ATOM     24  C   UNL A   1      27.425  30.201  22.459  1.00  0.00     0.046 A 
ATOM     25  O   UNL A   1      29.439  29.906  21.527  1.00  0.00    -0.459 OA
ATOM     26  C   UNL A   1      28.082  29.139  23.131  1.00  0.00     0.054 A 
ENDBRANCH  16  21
ENDBRANCH   8  15
ENDBRANCH   4   7
ENDBRANCH   2   3
ENDBRANCH   1   2
BRANCH   1  27
ATOM     27  C   UNL A   1      37.314  21.968  24.540  1.00  0.00     0.118 C 
BRANCH  27  28
ATOM     28  N   UNL A   1      37.998  20.906  25.268  1.00  0.00    -0.352 N 
ATOM     29  C   UNL A   1      39.097  20.965  26.087  1.00  0.00     0.251 C 
ATOM     30  H   UNL A   1      37.611  20.008  25.154  1.00  0.00     0.163 HD
ATOM     31  O   UNL A   1      39.633  19.921  26.452  1.00  0.00    -0.269 OA
BRANCH  29  32
ATOM     32  C   UNL A   1      39.642  22.270  26.522  1.00  0.00     0.039 A 
ATOM     33  C   UNL A   1      40.749  22.292  27.375  1.00  0.00     0.014 A 
ATOM     34  C   UNL A   1      39.055  23.470  26.110  1.00  0.00     0.014 A 
ATOM     35  C   UNL A   1      41.297  23.515  27.768  1.00  0.00     0.010 A 
ATOM     36  C   UNL A   1      39.658  24.683  26.425  1.00  0.00     0.010 A 
ATOM     37  C   UNL A   1      40.774  24.721  27.272  1.00  0.00    -0.014 A 
BRANCH  37  38
ATOM     38  C   UNL A   1      41.373  26.030  27.637  1.00  0.00     0.031 A 
ATOM     39  C   UNL A   1      42.796  26.345  27.258  1.00  0.00     0.074 A 
ATOM     40  C   UNL A   1      40.666  26.900  28.384  1.00  0.00     0.049 A 
ATOM     41  N   UNL A   1      43.502  27.414  27.520  1.00  0.00    -0.248 NA
ATOM     42  C   UNL A   1      43.537  25.310  26.515  1.00  0.00     0.031 C 
ATOM     43  C   UNL A   1      39.314  26.671  28.900  1.00  0.00     0.029 A 
ATOM     44  N   UNL A   1      40.994  28.146  28.858  1.00  0.00    -0.354 N 
ATOM     45  C   UNL A   1      44.773  27.167  27.014  1.00  0.00     0.074 A 
ATOM     46  C   UNL A   1      44.755  25.830  26.465  1.00  0.00     0.031 C 
ATOM     47  C   UNL A   1      38.925  27.743  29.608  1.00  0.00     0.029 A 
ATOM     48  C   UNL A   1      40.002  28.728  29.613  1.00  0.00     0.049 A 
ATOM     49  H   UNL A   1      41.858  28.581  28.676  1.00  0.00     0.167 HD
ATOM     50  C   UNL A   1      45.848  27.989  26.975  1.00  0.00     0.034 A 
ATOM     51  C   UNL A   1      39.963  29.924  30.232  1.00  0.00     0.034 A 
ATOM     52  C   UNL A   1      45.842  29.341  27.463  1.00  0.00     0.049 A 
ATOM     53  C   UNL A   1      41.139  30.854  30.097  1.00  0.00     0.074 A 
ATOM     54  C   UNL A   1      46.845  30.290  27.383  1.00  0.00     0.029 A 
ATOM     55  N   UNL A   1      44.776  29.939  28.117  1.00  0.00    -0.354 N 
ATOM     56  N   UNL A   1      42.271  30.664  29.464  1.00  0.00    -0.248 NA
ATOM     57  C   UNL A   1      41.013  32.179  30.720  1.00  0.00     0.031 C 
ATOM     58  C   UNL A   1      46.388  31.463  27.996  1.00  0.00     0.029 A 
ATOM     59  C   UNL A   1      45.094  31.246  28.445  1.00  0.00     0.049 A 
ATOM     60  H   UNL A   1      43.919  29.500  28.319  1.00  0.00     0.167 HD
ATOM     61  C   UNL A   1      42.978  31.855  29.583  1.00  0.00     0.074 A 
ATOM     62  C   UNL A   1      42.135  32.768  30.328  1.00  0.00     0.031 C 
ATOM     63  C   UNL A   1      44.220  32.160  29.132  1.00  0.00     0.034 A 
BRANCH  50  64
ATOM     64  C   UNL A   1      47.100  27.472  26.314  1.00  0.00     0.023 A 
ATOM     65  C   UNL A   1      47.337  27.772  24.956  1.00  0.00     0.012 A 
ATOM     66  C   UNL A   1      48.060  26.740  27.037  1.00  0.00     0.148 A 
ATOM     67  C   UNL A   1      48.492  27.321  24.319  1.00  0.00     0.002 A 
ATOM     68  C   UNL A   1      49.230  26.331  26.407  1.00  0.00     0.091 A 
ATOM     69  F   UNL A   1      47.808  26.445  28.321  1.00  0.00    -0.205 F 
ATOM     70  C   UNL A   1      49.443  26.610  25.046  1.00  0.00     0.022 A 
BRANCH  68  71
ATOM     71  S   UNL A   1      50.551  25.477  27.277  1.00  0.00     0.127 S 
ATOM     72  O   UNL A   1      49.872  24.260  27.721  1.00  0.00    -0.237 OA
ATOM     73  O   UNL A   1      51.538  25.271  26.216  1.00  0.00    -0.237 OA
ATOM     74  O   UNL A   1      50.980  26.379  28.336  1.00  0.00    -0.744 OA
ENDBRANCH  68  71
ENDBRANCH  50  64
BRANCH  51  75
ATOM     75  C   UNL A   1      38.727  30.349  30.948  1.00  0.00     0.023 A 
ATOM     76  C   UNL A   1      38.613  30.094  32.329  1.00  0.00     0.012 A 
ATOM     77  C   UNL A   1      37.687  31.028  30.287  1.00  0.00     0.148 A 
ATOM     78  C   UNL A   1      37.472  30.481  33.031  1.00  0.00     0.002 A 
ATOM     79  C   UNL A   1      36.576  31.457  31.004  1.00  0.00     0.091 A 
ATOM     80  F   UNL A   1      37.809  31.250  28.970  1.00  0.00    -0.205 F 
ATOM     81  C   UNL A   1      36.458  31.170  32.372  1.00  0.00     0.022 A 
BRANCH  79  82
ATOM     82  S   UNL A   1      35.285  32.462  30.262  1.00  0.00     0.127 S 
ATOM     83  O   UNL A   1      34.336  32.593  31.364  1.00  0.00    -0.237 OA
ATOM     84  O   UNL A   1      36.009  33.688  29.923  1.00  0.00    -0.237 OA
ATOM     85  O   UNL A   1      34.818  31.705  29.107  1.00  0.00    -0.744 OA
ENDBRANCH  79  82
ENDBRANCH  51  75
BRANCH  63  86
ATOM     86  C   UNL A   1      44.736  33.549  29.403  1.00  0.00     0.023 A 
ATOM     87  C   UNL A   1      45.373  33.830  30.627  1.00  0.00     0.012 A 
ATOM     88  C   UNL A   1      44.650  34.554  28.419  1.00  0.00     0.148 A 
ATOM     89  C   UNL A   1      45.888  35.101  30.880  1.00  0.00     0.002 A 
ATOM     90  C   UNL A   1      45.207  35.804  28.661  1.00  0.00     0.091 A 
ATOM     91  F   UNL A   1      44.020  34.273  27.268  1.00  0.00    -0.205 F 
ATOM     92  C   UNL A   1      45.815  36.083  29.896  1.00  0.00     0.022 A 
BRANCH  90  93
ATOM     93  S   UNL A   1      45.238  37.092  27.410  1.00  0.00     0.127 S 
ATOM     94  O   UNL A   1      43.815  37.263  27.121  1.00  0.00    -0.237 OA
ATOM     95  O   UNL A   1      45.854  38.212  28.124  1.00  0.00    -0.237 OA
ATOM     96  O   UNL A   1      46.045  36.563  26.318  1.00  0.00    -0.744 OA
ENDBRANCH  90  93
ENDBRANCH  63  86
ENDBRANCH  37  38
ENDBRANCH  29  32
ENDBRANCH  27  28
ENDBRANCH   1  27
TORSDOF 15
ENDMDL
MODEL 3
REMARK VINA RESULT:     -13.2      2.187      2.844
REMARK SMILES Cc1ccc(-c2nc(C)c(C(=O)N3CCC(C(=O)NCCCNC(=O)c4ccc(-c5c6nc(c(-c7cccc(S(=O)(=O)[O-])c7F)c7ccc([nH]7)c(-c7cccc(S(=O)(=O)[O-])c7F)c7nc(c(-c8cccc(S(=O)(=O)[O-])c8F)c8ccc5[nH]8)C=C7)C=C6)cc4)CC3)s2)o1
REMARK SMILES IDX 21 1 20 2 19 3 17 4 18 5 16 7 11 8 12 9 13 10 14 11 90 12
REMARK SMILES IDX 15 13 89 14 10 15 6 16 7 17 91 18 8 19 9 20 5 21 1 22 2 23
REMARK SMILES IDX 3 24 92 25 4 26 22 27 23 28 24 29 25 31 26 32 27 33 88 34
REMARK SMILES IDX 28 35 87 36 29 37 30 38 31 39 81 40 32 41 86 42 80 43 82 44
REMARK SMILES IDX 33 45 85 46 79 47 78 48 34 50 66 51 46 52 65 53 47 54 50 55
REMARK SMILES IDX 64 56 83 57 48 58 49 59 63 61 84 62 51 63 35 64 36 65 44 66
REMARK SMILES IDX 37 67 39 68 45 69 38 70 40 71 41 72 42 73 43 74 67 75 68 76
REMARK SMILES IDX 76 77 69 78 71 79 77 80 70 81 72 82 73 83 74 84 75 85 52 86
REMARK SMILES IDX 53 87 61 88 54 89 56 90 62 91 55 92 57 93 58 94 59 95 60 96
REMARK H PARENT 19 6 23 30 82 49 50 60
REMARK Flexibility Score: inf
ROOT
ATOM      1  C   UNL A   1      31.647  31.972  26.554  1.00  0.00     0.042 C 
ENDROOT
BRANCH   1   2
ATOM      2  C   UNL A   1      31.750  30.459  26.419  1.00  0.00     0.117 C 
BRANCH   2   3
ATOM      3  N   UNL A   1      32.151  30.041  25.083  1.00  0.00    -0.356 N 
ATOM      4  C   UNL A   1      32.458  28.816  24.582  1.00  0.00     0.223 C 
ATOM      5  O   UNL A   1      32.746  28.735  23.385  1.00  0.00    -0.275 OA
ATOM      6  H   UNL A   1      32.208  30.775  24.428  1.00  0.00     0.163 HD
BRANCH   4   7
ATOM      7  C   UNL A   1      32.428  27.567  25.446  1.00  0.00     0.082 C 
ATOM      8  C   UNL A   1      31.676  23.599  24.990  1.00  0.00     0.265 C 
ATOM      9  O   UNL A   1      30.704  23.644  24.231  1.00  0.00    -0.268 OA
ATOM     10  N   UNL A   1      32.046  24.739  25.695  1.00  0.00    -0.338 N 
ATOM     11  C   UNL A   1      31.010  25.617  26.213  1.00  0.00     0.120 C 
ATOM     12  C   UNL A   1      33.411  25.240  25.758  1.00  0.00     0.120 C 
ATOM     13  C   UNL A   1      31.019  26.968  25.526  1.00  0.00     0.035 C 
ATOM     14  C   UNL A   1      33.538  26.581  25.044  1.00  0.00     0.035 C 
BRANCH   8  15
ATOM     15  C   UNL A   1      32.396  22.365  25.278  1.00  0.00     0.115 A 
ATOM     16  C   UNL A   1      33.172  20.061  25.188  1.00  0.00     0.159 A 
ATOM     17  N   UNL A   1      33.393  20.559  26.383  1.00  0.00    -0.237 NA
ATOM     18  S   UNL A   1      32.535  21.162  24.045  1.00  0.00    -0.105 S 
ATOM     19  C   UNL A   1      32.927  21.861  26.460  1.00  0.00     0.062 A 
ATOM     20  C   UNL A   1      32.994  22.489  27.805  1.00  0.00     0.068 C 
BRANCH  16  21
ATOM     21  C   UNL A   1      33.402  18.672  24.906  1.00  0.00     0.162 A 
ATOM     22  C   UNL A   1      32.402  15.298  25.597  1.00  0.00     0.087 C 
ATOM     23  C   UNL A   1      33.102  16.482  25.062  1.00  0.00     0.101 A 
ATOM     24  C   UNL A   1      34.112  16.665  24.147  1.00  0.00     0.046 A 
ATOM     25  O   UNL A   1      32.686  17.683  25.540  1.00  0.00    -0.459 OA
ATOM     26  C   UNL A   1      34.295  18.067  24.035  1.00  0.00     0.054 A 
ENDBRANCH  16  21
ENDBRANCH   8  15
ENDBRANCH   4   7
ENDBRANCH   2   3
ENDBRANCH   1   2
BRANCH   1  27
ATOM     27  C   UNL A   1      32.888  32.626  27.142  1.00  0.00     0.118 C 
BRANCH  27  28
ATOM     28  N   UNL A   1      32.620  33.948  27.691  1.00  0.00    -0.352 N 
ATOM     29  C   UNL A   1      33.171  34.580  28.777  1.00  0.00     0.251 C 
ATOM     30  H   UNL A   1      31.938  34.469  27.208  1.00  0.00     0.163 HD
ATOM     31  O   UNL A   1      32.666  35.623  29.187  1.00  0.00    -0.269 OA
BRANCH  29  32
ATOM     32  C   UNL A   1      34.355  34.011  29.457  1.00  0.00     0.039 A 
ATOM     33  C   UNL A   1      34.163  33.125  30.522  1.00  0.00     0.014 A 
ATOM     34  C   UNL A   1      35.649  34.361  29.066  1.00  0.00     0.014 A 
ATOM     35  C   UNL A   1      35.269  32.553  31.155  1.00  0.00     0.010 A 
ATOM     36  C   UNL A   1      36.745  33.719  29.633  1.00  0.00     0.010 A 
ATOM     37  C   UNL A   1      36.569  32.822  30.696  1.00  0.00    -0.014 A 
BRANCH  37  38
ATOM     38  C   UNL A   1      37.756  32.184  31.321  1.00  0.00     0.031 A 
ATOM     39  C   UNL A   1      38.312  32.721  32.614  1.00  0.00     0.074 A 
ATOM     40  C   UNL A   1      38.384  31.178  30.683  1.00  0.00     0.049 A 
ATOM     41  N   UNL A   1      39.358  32.323  33.289  1.00  0.00    -0.248 NA
ATOM     42  C   UNL A   1      37.622  33.879  33.211  1.00  0.00     0.031 C 
ATOM     43  C   UNL A   1      38.005  30.635  29.376  1.00  0.00     0.029 A 
ATOM     44  N   UNL A   1      39.491  30.447  31.036  1.00  0.00    -0.354 N 
ATOM     45  C   UNL A   1      39.477  33.200  34.361  1.00  0.00     0.074 A 
ATOM     46  C   UNL A   1      38.420  34.177  34.226  1.00  0.00     0.031 C 
ATOM     47  C   UNL A   1      38.854  29.649  29.044  1.00  0.00     0.029 A 
ATOM     48  C   UNL A   1      39.850  29.502  30.102  1.00  0.00     0.049 A 
ATOM     49  H   UNL A   1      39.981  30.585  31.878  1.00  0.00     0.167 HD
ATOM     50  C   UNL A   1      40.361  33.175  35.387  1.00  0.00     0.034 A 
ATOM     51  C   UNL A   1      40.862  28.613  30.103  1.00  0.00     0.034 A 
ATOM     52  C   UNL A   1      41.368  32.163  35.553  1.00  0.00     0.049 A 
ATOM     53  C   UNL A   1      41.775  28.549  31.297  1.00  0.00     0.074 A 
ATOM     54  C   UNL A   1      42.249  31.989  36.606  1.00  0.00     0.029 A 
ATOM     55  N   UNL A   1      41.626  31.149  34.645  1.00  0.00    -0.354 N 
ATOM     56  N   UNL A   1      41.763  29.281  32.385  1.00  0.00    -0.248 NA
ATOM     57  C   UNL A   1      42.812  27.507  31.285  1.00  0.00     0.031 C 
ATOM     58  C   UNL A   1      43.045  30.872  36.331  1.00  0.00     0.029 A 
ATOM     59  C   UNL A   1      42.649  30.343  35.111  1.00  0.00     0.049 A 
ATOM     60  H   UNL A   1      41.151  31.021  33.792  1.00  0.00     0.167 HD
ATOM     61  C   UNL A   1      42.763  28.767  33.201  1.00  0.00     0.074 A 
ATOM     62  C   UNL A   1      43.346  27.646  32.492  1.00  0.00     0.031 C 
ATOM     63  C   UNL A   1      43.176  29.195  34.420  1.00  0.00     0.034 A 
BRANCH  50  64
ATOM     64  C   UNL A   1      40.226  34.233  36.451  1.00  0.00     0.023 A 
ATOM     65  C   UNL A   1      40.565  35.567  36.144  1.00  0.00     0.012 A 
ATOM     66  C   UNL A   1      39.721  33.926  37.729  1.00  0.00     0.148 A 
ATOM     67  C   UNL A   1      40.437  36.573  37.103  1.00  0.00     0.002 A 
ATOM     68  C   UNL A   1      39.556  34.941  38.666  1.00  0.00     0.091 A 
ATOM     69  F   UNL A   1      39.426  32.649  38.011  1.00  0.00    -0.205 F 
ATOM     70  C   UNL A   1      39.924  36.261  38.359  1.00  0.00     0.022 A 
BRANCH  68  71
ATOM     71  S   UNL A   1      38.830  34.655  40.284  1.00  0.00     0.127 S 
ATOM     72  O   UNL A   1      39.915  33.960  40.975  1.00  0.00    -0.237 OA
ATOM     73  O   UNL A   1      38.582  36.018  40.757  1.00  0.00    -0.237 OA
ATOM     74  O   UNL A   1      37.628  33.868  40.050  1.00  0.00    -0.744 OA
ENDBRANCH  68  71
ENDBRANCH  50  64
BRANCH  51  75
ATOM     75  C   UNL A   1      41.000  27.645  28.978  1.00  0.00     0.023 A 
ATOM     76  C   UNL A   1      40.228  26.467  28.988  1.00  0.00     0.012 A 
ATOM     77  C   UNL A   1      41.857  27.895  27.890  1.00  0.00     0.148 A 
ATOM     78  C   UNL A   1      40.330  25.541  27.951  1.00  0.00     0.002 A 
ATOM     79  C   UNL A   1      41.915  26.993  26.834  1.00  0.00     0.091 A 
ATOM     80  F   UNL A   1      42.594  29.016  27.905  1.00  0.00    -0.205 F 
ATOM     81  C   UNL A   1      41.164  25.808  26.869  1.00  0.00     0.022 A 
BRANCH  79  82
ATOM     82  S   UNL A   1      42.865  27.319  25.344  1.00  0.00     0.127 S 
ATOM     83  O   UNL A   1      42.644  26.097  24.575  1.00  0.00    -0.237 OA
ATOM     84  O   UNL A   1      42.200  28.510  24.813  1.00  0.00    -0.237 OA
ATOM     85  O   UNL A   1      44.231  27.549  25.797  1.00  0.00    -0.744 OA
ENDBRANCH  79  82
ENDBRANCH  51  75
BRANCH  63  86
ATOM     86  C   UNL A   1      44.292  28.432  35.084  1.00  0.00     0.023 A 
ATOM     87  C   UNL A   1      45.630  28.738  34.770  1.00  0.00     0.012 A 
ATOM     88  C   UNL A   1      44.016  27.461  36.068  1.00  0.00     0.148 A 
ATOM     89  C   UNL A   1      46.676  28.067  35.400  1.00  0.00     0.002 A 
ATOM     90  C   UNL A   1      45.065  26.829  36.724  1.00  0.00     0.091 A 
ATOM     91  F   UNL A   1      42.735  27.167  36.337  1.00  0.00    -0.205 F 
ATOM     92  C   UNL A   1      46.395  27.122  36.384  1.00  0.00     0.022 A 
BRANCH  90  93
ATOM     93  S   UNL A   1      44.787  25.670  38.068  1.00  0.00     0.127 S 
ATOM     94  O   UNL A   1      44.038  26.488  39.020  1.00  0.00    -0.237 OA
ATOM     95  O   UNL A   1      44.002  24.617  37.419  1.00  0.00    -0.237 OA
ATOM     96  O   UNL A   1      46.111  25.246  38.504  1.00  0.00    -0.744 OA
ENDBRANCH  90  93
ENDBRANCH  63  86
ENDBRANCH  37  38
ENDBRANCH  29  32
ENDBRANCH  27  28
ENDBRANCH   1  27
TORSDOF 15
ENDMDL
