MODEL 1
REMARK VINA RESULT:     -11.6      0.000      0.000
REMARK SMILES C[C@H](O)[C@H](C)[N@H+]1Cc2ccccc2C[C@@H]1C(=O)NCCCNC(=O)c1ccc(-c2c3nc(c(-c4cccc(S(=O)(=O)[O-])c4F)c4ccc([nH]4)c(-c4cccc(S(=O)(=O)[O-])c4F)c4nc(c(-c5cccc(S(=O)(=O)[O-])c5F)c5ccc2[nH]5)C=C4)C=C3)cc1
REMARK SMILES IDX 20 1 19 2 18 3 16 4 17 5 15 7 6 8 7 9 8 11 14 12 9 13 13 14
REMARK SMILES IDX 10 15 12 16 11 17 4 18 5 19 2 20 1 21 3 22 21 24 22 25 23 26
REMARK SMILES IDX 24 28 25 29 26 30 87 31 27 32 86 33 28 34 29 35 30 36 80 37
REMARK SMILES IDX 31 38 85 39 79 40 81 41 32 42 84 43 78 44 77 45 33 47 65 48
REMARK SMILES IDX 45 49 64 50 46 51 49 52 63 53 82 54 47 55 48 56 62 58 83 59
REMARK SMILES IDX 50 60 34 61 35 62 43 63 36 64 38 65 44 66 37 67 39 68 40 69
REMARK SMILES IDX 41 70 42 71 66 72 67 73 75 74 68 75 70 76 76 77 69 78 71 79
REMARK SMILES IDX 72 80 73 81 74 82 51 83 52 84 60 85 53 86 55 87 61 88 54 89
REMARK SMILES IDX 56 90 57 91 58 92 59 93
REMARK H PARENT 18 6 6 10 3 23 22 27 81 46 49 57
REMARK Flexibility Score: inf
ROOT
ATOM      1  C   UNL A   1      32.667  28.115  27.511  1.00  0.00     0.042 C 
ENDROOT
BRANCH   1   2
ATOM      2  C   UNL A   1      31.497  27.476  26.770  1.00  0.00     0.118 C 
BRANCH   2   3
ATOM      3  N   UNL A   1      31.474  26.036  26.952  1.00  0.00    -0.351 N 
ATOM      4  C   UNL A   1      31.826  25.018  26.115  1.00  0.00     0.278 C 
ATOM      5  O   UNL A   1      31.551  23.879  26.503  1.00  0.00    -0.268 OA
ATOM      6  H   UNL A   1      31.147  25.745  27.832  1.00  0.00     0.163 HD
BRANCH   4   7
ATOM      7  C   UNL A   1      32.574  25.312  24.788  1.00  0.00     0.279 C 
ATOM      8  N   UNL A   1      31.967  24.503  23.700  1.00  0.00    -0.316 N 
ATOM      9  C   UNL A   1      32.696  23.277  23.343  1.00  0.00     0.300 C 
ATOM     10  H   UNL A   1      31.118  24.104  24.104  1.00  0.00     0.349 HD
ATOM     11  C   UNL A   1      33.721  22.773  24.339  1.00  0.00     0.010 A 
ATOM     12  C   UNL A   1      34.086  25.132  25.015  1.00  0.00     0.111 C 
ATOM     13  C   UNL A   1      33.997  21.404  24.456  1.00  0.00     0.010 A 
ATOM     14  C   UNL A   1      34.445  23.680  25.121  1.00  0.00    -0.033 A 
ATOM     15  C   UNL A   1      34.970  20.953  25.349  1.00  0.00     0.001 A 
ATOM     16  C   UNL A   1      35.437  23.230  25.998  1.00  0.00     0.004 A 
ATOM     17  C   UNL A   1      35.693  21.865  26.115  1.00  0.00     0.000 A 
BRANCH   8  18
ATOM     18  C   UNL A   1      31.467  25.327  22.571  1.00  0.00     0.210 C 
ATOM     19  C   UNL A   1      30.670  26.560  23.043  1.00  0.00     0.078 C 
BRANCH  18  20
ATOM     20  C   UNL A   1      32.452  25.682  21.392  1.00  0.00     0.169 C 
ATOM     21  C   UNL A   1      33.438  26.822  21.599  1.00  0.00     0.045 C 
BRANCH  20  22
ATOM     22  O   UNL A   1      31.756  25.926  20.163  1.00  0.00    -0.387 OA
ATOM     23  H   UNL A   1      31.300  25.117  19.883  1.00  0.00     0.211 HD
ENDBRANCH  20  22
ENDBRANCH  18  20
ENDBRANCH   8  18
ENDBRANCH   4   7
ENDBRANCH   2   3
ENDBRANCH   1   2
BRANCH   1  24
ATOM     24  C   UNL A   1      33.638  28.873  26.609  1.00  0.00     0.118 C 
BRANCH  24  25
ATOM     25  N   UNL A   1      33.680  30.301  26.898  1.00  0.00    -0.352 N 
ATOM     26  C   UNL A   1      34.575  31.028  27.640  1.00  0.00     0.251 C 
ATOM     27  H   UNL A   1      32.950  30.826  26.497  1.00  0.00     0.163 HD
ATOM     28  O   UNL A   1      34.315  32.204  27.904  1.00  0.00    -0.269 OA
BRANCH  26  29
ATOM     29  C   UNL A   1      35.828  30.420  28.133  1.00  0.00     0.039 A 
ATOM     30  C   UNL A   1      36.970  30.491  27.330  1.00  0.00     0.014 A 
ATOM     31  C   UNL A   1      35.882  29.752  29.359  1.00  0.00     0.014 A 
ATOM     32  C   UNL A   1      38.172  29.936  27.779  1.00  0.00     0.010 A 
ATOM     33  C   UNL A   1      37.100  29.278  29.843  1.00  0.00     0.010 A 
ATOM     34  C   UNL A   1      38.255  29.350  29.052  1.00  0.00    -0.014 A 
BRANCH  34  35
ATOM     35  C   UNL A   1      39.544  28.814  29.563  1.00  0.00     0.031 A 
ATOM     36  C   UNL A   1      40.271  29.508  30.685  1.00  0.00     0.074 A 
ATOM     37  C   UNL A   1      40.098  27.740  28.970  1.00  0.00     0.049 A 
ATOM     38  N   UNL A   1      41.408  29.189  31.250  1.00  0.00    -0.248 NA
ATOM     39  C   UNL A   1      39.660  30.732  31.225  1.00  0.00     0.031 C 
ATOM     40  C   UNL A   1      39.544  27.037  27.810  1.00  0.00     0.029 A 
ATOM     41  N   UNL A   1      41.260  27.063  29.243  1.00  0.00    -0.354 N 
ATOM     42  C   UNL A   1      41.659  30.184  32.187  1.00  0.00     0.074 A 
ATOM     43  C   UNL A   1      40.582  31.144  32.081  1.00  0.00     0.031 C 
ATOM     44  C   UNL A   1      40.363  26.028  27.475  1.00  0.00     0.029 A 
ATOM     45  C   UNL A   1      41.511  26.026  28.375  1.00  0.00     0.049 A 
ATOM     46  H   UNL A   1      41.858  27.297  29.989  1.00  0.00     0.167 HD
ATOM     47  C   UNL A   1      42.674  30.276  33.081  1.00  0.00     0.034 A 
ATOM     48  C   UNL A   1      42.551  25.172  28.307  1.00  0.00     0.034 A 
ATOM     49  C   UNL A   1      43.728  29.306  33.205  1.00  0.00     0.049 A 
ATOM     50  C   UNL A   1      43.640  25.260  29.340  1.00  0.00     0.074 A 
ATOM     51  C   UNL A   1      44.755  29.261  34.130  1.00  0.00     0.029 A 
ATOM     52  N   UNL A   1      43.898  28.212  32.369  1.00  0.00    -0.354 N 
ATOM     53  N   UNL A   1      43.772  26.112  30.326  1.00  0.00    -0.248 NA
ATOM     54  C   UNL A   1      44.701  24.244  29.278  1.00  0.00     0.031 C 
ATOM     55  C   UNL A   1      45.561  28.156  33.838  1.00  0.00     0.029 A 
ATOM     56  C   UNL A   1      45.016  27.491  32.752  1.00  0.00     0.049 A 
ATOM     57  H   UNL A   1      43.309  27.981  31.614  1.00  0.00     0.167 HD
ATOM     58  C   UNL A   1      44.910  25.718  31.023  1.00  0.00     0.074 A 
ATOM     59  C   UNL A   1      45.417  24.536  30.355  1.00  0.00     0.031 C 
ATOM     60  C   UNL A   1      45.487  26.290  32.108  1.00  0.00     0.034 A 
BRANCH  47  61
ATOM     61  C   UNL A   1      42.657  31.446  34.034  1.00  0.00     0.023 A 
ATOM     62  C   UNL A   1      43.226  32.674  33.636  1.00  0.00     0.012 A 
ATOM     63  C   UNL A   1      42.050  31.348  35.301  1.00  0.00     0.148 A 
ATOM     64  C   UNL A   1      43.236  33.769  34.500  1.00  0.00     0.002 A 
ATOM     65  C   UNL A   1      42.020  32.458  36.137  1.00  0.00     0.091 A 
ATOM     66  F   UNL A   1      41.530  30.170  35.672  1.00  0.00    -0.205 F 
ATOM     67  C   UNL A   1      42.625  33.664  35.745  1.00  0.00     0.022 A 
BRANCH  65  68
ATOM     68  S   UNL A   1      41.183  32.451  37.727  1.00  0.00     0.127 S 
ATOM     69  O   UNL A   1      42.027  31.541  38.501  1.00  0.00    -0.237 OA
ATOM     70  O   UNL A   1      41.272  33.855  38.129  1.00  0.00    -0.237 OA
ATOM     71  O   UNL A   1      39.830  31.981  37.465  1.00  0.00    -0.744 OA
ENDBRANCH  65  68
ENDBRANCH  47  61
BRANCH  48  72
ATOM     72  C   UNL A   1      42.570  24.122  27.250  1.00  0.00     0.023 A 
ATOM     73  C   UNL A   1      43.262  24.355  26.046  1.00  0.00     0.012 A 
ATOM     74  C   UNL A   1      41.949  22.875  27.456  1.00  0.00     0.148 A 
ATOM     75  C   UNL A   1      43.312  23.375  25.054  1.00  0.00     0.002 A 
ATOM     76  C   UNL A   1      42.053  21.882  26.489  1.00  0.00     0.091 A 
ATOM     77  F   UNL A   1      41.289  22.677  28.605  1.00  0.00    -0.205 F 
ATOM     78  C   UNL A   1      42.719  22.135  25.279  1.00  0.00     0.022 A 
BRANCH  76  79
ATOM     79  S   UNL A   1      41.442  20.213  26.752  1.00  0.00     0.127 S 
ATOM     80  O   UNL A   1      42.337  19.729  27.800  1.00  0.00    -0.237 OA
ATOM     81  O   UNL A   1      40.066  20.463  27.184  1.00  0.00    -0.237 OA
ATOM     82  O   UNL A   1      41.555  19.544  25.464  1.00  0.00    -0.744 OA
ENDBRANCH  76  79
ENDBRANCH  48  72
BRANCH  60  83
ATOM     83  C   UNL A   1      46.717  25.631  32.674  1.00  0.00     0.023 A 
ATOM     84  C   UNL A   1      47.996  26.029  32.237  1.00  0.00     0.012 A 
ATOM     85  C   UNL A   1      46.606  24.665  33.696  1.00  0.00     0.148 A 
ATOM     86  C   UNL A   1      49.143  25.452  32.782  1.00  0.00     0.002 A 
ATOM     87  C   UNL A   1      47.753  24.134  34.270  1.00  0.00     0.091 A 
ATOM     88  F   UNL A   1      45.380  24.286  34.086  1.00  0.00    -0.205 F 
ATOM     89  C   UNL A   1      49.023  24.515  33.806  1.00  0.00     0.022 A 
BRANCH  87  90
ATOM     90  S   UNL A   1      47.697  22.995  35.659  1.00  0.00     0.127 S 
ATOM     91  O   UNL A   1      46.876  21.912  35.123  1.00  0.00    -0.237 OA
ATOM     92  O   UNL A   1      49.109  22.657  35.839  1.00  0.00    -0.237 OA
ATOM     93  O   UNL A   1      47.108  23.738  36.764  1.00  0.00    -0.744 OA
ENDBRANCH  87  90
ENDBRANCH  60  83
ENDBRANCH  34  35
ENDBRANCH  26  29
ENDBRANCH  24  25
ENDBRANCH   1  24
TORSDOF 16
ENDMDL
MODEL 2
REMARK VINA RESULT:     -11.4      1.677      2.032
REMARK SMILES C[C@H](O)[C@H](C)[N@H+]1Cc2ccccc2C[C@@H]1C(=O)NCCCNC(=O)c1ccc(-c2c3nc(c(-c4cccc(S(=O)(=O)[O-])c4F)c4ccc([nH]4)c(-c4cccc(S(=O)(=O)[O-])c4F)c4nc(c(-c5cccc(S(=O)(=O)[O-])c5F)c5ccc2[nH]5)C=C4)C=C3)cc1
REMARK SMILES IDX 20 1 19 2 18 3 16 4 17 5 15 7 6 8 7 9 8 11 14 12 9 13 13 14
REMARK SMILES IDX 10 15 12 16 11 17 4 18 5 19 2 20 1 21 3 22 21 24 22 25 23 26
REMARK SMILES IDX 24 28 25 29 26 30 87 31 27 32 86 33 28 34 29 35 30 36 80 37
REMARK SMILES IDX 31 38 85 39 79 40 81 41 32 42 84 43 78 44 77 45 33 47 65 48
REMARK SMILES IDX 45 49 64 50 46 51 49 52 63 53 82 54 47 55 48 56 62 58 83 59
REMARK SMILES IDX 50 60 34 61 35 62 43 63 36 64 38 65 44 66 37 67 39 68 40 69
REMARK SMILES IDX 41 70 42 71 66 72 67 73 75 74 68 75 70 76 76 77 69 78 71 79
REMARK SMILES IDX 72 80 73 81 74 82 51 83 52 84 60 85 53 86 55 87 61 88 54 89
REMARK SMILES IDX 56 90 57 91 58 92 59 93
REMARK H PARENT 18 6 6 10 3 23 22 27 81 46 49 57
REMARK Flexibility Score: inf
ROOT
ATOM      1  C   UNL A   1      31.922  29.193  26.799  1.00  0.00     0.042 C 
ENDROOT
BRANCH   1   2
ATOM      2  C   UNL A   1      32.313  27.908  27.519  1.00  0.00     0.118 C 
BRANCH   2   3
ATOM      3  N   UNL A   1      31.383  26.832  27.234  1.00  0.00    -0.351 N 
ATOM      4  C   UNL A   1      31.251  26.020  26.146  1.00  0.00     0.278 C 
ATOM      5  O   UNL A   1      30.258  25.288  26.133  1.00  0.00    -0.268 OA
ATOM      6  H   UNL A   1      30.733  26.658  27.952  1.00  0.00     0.163 HD
BRANCH   4   7
ATOM      7  C   UNL A   1      32.336  26.010  25.036  1.00  0.00     0.279 C 
ATOM      8  N   UNL A   1      31.788  25.336  23.830  1.00  0.00    -0.316 N 
ATOM      9  C   UNL A   1      32.198  23.935  23.650  1.00  0.00     0.300 C 
ATOM     10  H   UNL A   1      30.792  25.217  24.018  1.00  0.00     0.349 HD
ATOM     11  C   UNL A   1      32.778  23.229  24.857  1.00  0.00     0.010 A 
ATOM     12  C   UNL A   1      33.639  25.428  25.615  1.00  0.00     0.111 C 
ATOM     13  C   UNL A   1      32.615  21.847  25.029  1.00  0.00     0.010 A 
ATOM     14  C   UNL A   1      33.532  23.944  25.795  1.00  0.00    -0.033 A 
ATOM     15  C   UNL A   1      33.187  21.199  26.125  1.00  0.00     0.001 A 
ATOM     16  C   UNL A   1      34.124  23.290  26.880  1.00  0.00     0.004 A 
ATOM     17  C   UNL A   1      33.944  21.918  27.047  1.00  0.00     0.000 A 
BRANCH   8  18
ATOM     18  C   UNL A   1      31.819  26.195  22.620  1.00  0.00     0.210 C 
ATOM     19  C   UNL A   1      30.870  27.407  22.726  1.00  0.00     0.078 C 
BRANCH  18  20
ATOM     20  C   UNL A   1      33.215  26.596  22.004  1.00  0.00     0.169 C 
ATOM     21  C   UNL A   1      33.716  28.015  22.228  1.00  0.00     0.045 C 
BRANCH  20  22
ATOM     22  O   UNL A   1      33.281  26.328  20.599  1.00  0.00    -0.387 OA
ATOM     23  H   UNL A   1      34.174  26.523  20.274  1.00  0.00     0.211 HD
ENDBRANCH  20  22
ENDBRANCH  18  20
ENDBRANCH   8  18
ENDBRANCH   4   7
ENDBRANCH   2   3
ENDBRANCH   1   2
BRANCH   1  24
ATOM     24  C   UNL A   1      33.106  30.008  26.285  1.00  0.00     0.118 C 
BRANCH  24  25
ATOM     25  N   UNL A   1      33.045  31.407  26.684  1.00  0.00    -0.352 N 
ATOM     26  C   UNL A   1      33.812  32.107  27.580  1.00  0.00     0.251 C 
ATOM     27  H   UNL A   1      32.341  31.934  26.240  1.00  0.00     0.163 HD
ATOM     28  O   UNL A   1      33.468  33.247  27.900  1.00  0.00    -0.269 OA
BRANCH  26  29
ATOM     29  C   UNL A   1      35.029  31.511  28.170  1.00  0.00     0.039 A 
ATOM     30  C   UNL A   1      36.206  32.265  28.187  1.00  0.00     0.014 A 
ATOM     31  C   UNL A   1      35.032  30.208  28.675  1.00  0.00     0.014 A 
ATOM     32  C   UNL A   1      37.367  31.730  28.752  1.00  0.00     0.010 A 
ATOM     33  C   UNL A   1      36.164  29.710  29.316  1.00  0.00     0.010 A 
ATOM     34  C   UNL A   1      37.349  30.458  29.348  1.00  0.00    -0.014 A 
BRANCH  34  35
ATOM     35  C   UNL A   1      38.563  29.908  30.007  1.00  0.00     0.031 A 
ATOM     36  C   UNL A   1      39.008  30.427  31.349  1.00  0.00     0.074 A 
ATOM     37  C   UNL A   1      39.306  28.986  29.366  1.00  0.00     0.049 A 
ATOM     38  N   UNL A   1      40.044  30.072  32.067  1.00  0.00    -0.248 NA
ATOM     39  C   UNL A   1      38.205  31.503  31.952  1.00  0.00     0.031 C 
ATOM     40  C   UNL A   1      39.038  28.474  28.020  1.00  0.00     0.029 A 
ATOM     41  N   UNL A   1      40.451  28.332  29.747  1.00  0.00    -0.354 N 
ATOM     42  C   UNL A   1      40.032  30.896  33.186  1.00  0.00     0.074 A 
ATOM     43  C   UNL A   1      38.915  31.802  33.029  1.00  0.00     0.031 C 
ATOM     44  C   UNL A   1      39.988  27.584  27.691  1.00  0.00     0.029 A 
ATOM     45  C   UNL A   1      40.946  27.481  28.787  1.00  0.00     0.049 A 
ATOM     46  H   UNL A   1      40.878  28.461  30.625  1.00  0.00     0.167 HD
ATOM     47  C   UNL A   1      40.852  30.880  34.264  1.00  0.00     0.034 A 
ATOM     48  C   UNL A   1      42.049  26.708  28.785  1.00  0.00     0.034 A 
ATOM     49  C   UNL A   1      41.943  29.958  34.432  1.00  0.00     0.049 A 
ATOM     50  C   UNL A   1      42.917  26.667  30.012  1.00  0.00     0.074 A 
ATOM     51  C   UNL A   1      42.782  29.803  35.521  1.00  0.00     0.029 A 
ATOM     52  N   UNL A   1      42.357  29.041  33.477  1.00  0.00    -0.354 N 
ATOM     53  N   UNL A   1      42.791  27.336  31.132  1.00  0.00    -0.248 NA
ATOM     54  C   UNL A   1      44.053  25.735  29.993  1.00  0.00     0.031 C 
ATOM     55  C   UNL A   1      43.719  28.811  35.215  1.00  0.00     0.029 A 
ATOM     56  C   UNL A   1      43.443  28.322  33.948  1.00  0.00     0.049 A 
ATOM     57  H   UNL A   1      41.940  28.918  32.594  1.00  0.00     0.167 HD
ATOM     58  C   UNL A   1      43.810  26.883  31.964  1.00  0.00     0.074 A 
ATOM     59  C   UNL A   1      44.530  25.867  31.224  1.00  0.00     0.031 C 
ATOM     60  C   UNL A   1      44.126  27.282  33.221  1.00  0.00     0.034 A 
BRANCH  47  61
ATOM     61  C   UNL A   1      40.559  31.859  35.375  1.00  0.00     0.023 A 
ATOM     62  C   UNL A   1      41.413  32.965  35.568  1.00  0.00     0.012 A 
ATOM     63  C   UNL A   1      39.428  31.710  36.200  1.00  0.00     0.148 A 
ATOM     64  C   UNL A   1      41.174  33.880  36.593  1.00  0.00     0.002 A 
ATOM     65  C   UNL A   1      39.170  32.653  37.189  1.00  0.00     0.091 A 
ATOM     66  F   UNL A   1      38.636  30.644  36.017  1.00  0.00    -0.205 F 
ATOM     67  C   UNL A   1      40.048  33.729  37.397  1.00  0.00     0.022 A 
BRANCH  65  68
ATOM     68  S   UNL A   1      37.700  32.596  38.222  1.00  0.00     0.127 S 
ATOM     69  O   UNL A   1      37.782  31.246  38.777  1.00  0.00    -0.237 OA
ATOM     70  O   UNL A   1      37.958  33.668  39.184  1.00  0.00    -0.237 OA
ATOM     71  O   UNL A   1      36.575  32.840  37.331  1.00  0.00    -0.744 OA
ENDBRANCH  65  68
ENDBRANCH  47  61
BRANCH  48  72
ATOM     72  C   UNL A   1      42.353  25.866  27.594  1.00  0.00     0.023 A 
ATOM     73  C   UNL A   1      43.151  26.385  26.556  1.00  0.00     0.012 A 
ATOM     74  C   UNL A   1      41.897  24.536  27.511  1.00  0.00     0.148 A 
ATOM     75  C   UNL A   1      43.467  25.603  25.444  1.00  0.00     0.002 A 
ATOM     76  C   UNL A   1      42.264  23.745  26.430  1.00  0.00     0.091 A 
ATOM     77  F   UNL A   1      41.132  24.065  28.506  1.00  0.00    -0.205 F 
ATOM     78  C   UNL A   1      43.034  24.281  25.386  1.00  0.00     0.022 A 
BRANCH  76  79
ATOM     79  S   UNL A   1      41.871  21.994  26.340  1.00  0.00     0.127 S 
ATOM     80  O   UNL A   1      42.716  21.554  25.233  1.00  0.00    -0.237 OA
ATOM     81  O   UNL A   1      42.293  21.525  27.661  1.00  0.00    -0.237 OA
ATOM     82  O   UNL A   1      40.436  21.922  26.108  1.00  0.00    -0.744 OA
ENDBRANCH  76  79
ENDBRANCH  48  72
BRANCH  60  83
ATOM     83  C   UNL A   1      45.281  26.597  33.902  1.00  0.00     0.023 A 
ATOM     84  C   UNL A   1      46.574  27.151  33.826  1.00  0.00     0.012 A 
ATOM     85  C   UNL A   1      45.070  25.439  34.679  1.00  0.00     0.148 A 
ATOM     86  C   UNL A   1      47.645  26.546  34.485  1.00  0.00     0.002 A 
ATOM     87  C   UNL A   1      46.130  24.873  35.374  1.00  0.00     0.091 A 
ATOM     88  F   UNL A   1      43.836  24.916  34.724  1.00  0.00    -0.205 F 
ATOM     89  C   UNL A   1      47.421  25.416  35.268  1.00  0.00     0.022 A 
BRANCH  87  90
ATOM     90  S   UNL A   1      45.919  23.475  36.484  1.00  0.00     0.127 S 
ATOM     91  O   UNL A   1      44.975  22.645  35.739  1.00  0.00    -0.237 OA
ATOM     92  O   UNL A   1      47.276  22.935  36.563  1.00  0.00    -0.237 OA
ATOM     93  O   UNL A   1      45.415  24.027  37.734  1.00  0.00    -0.744 OA
ENDBRANCH  87  90
ENDBRANCH  60  83
ENDBRANCH  34  35
ENDBRANCH  26  29
ENDBRANCH  24  25
ENDBRANCH   1  24
TORSDOF 16
ENDMDL
MODEL 3
REMARK VINA RESULT:     -11.4      1.224      1.739
REMARK SMILES C[C@H](O)[C@H](C)[N@H+]1Cc2ccccc2C[C@@H]1C(=O)NCCCNC(=O)c1ccc(-c2c3nc(c(-c4cccc(S(=O)(=O)[O-])c4F)c4ccc([nH]4)c(-c4cccc(S(=O)(=O)[O-])c4F)c4nc(c(-c5cccc(S(=O)(=O)[O-])c5F)c5ccc2[nH]5)C=C4)C=C3)cc1
REMARK SMILES IDX 20 1 19 2 18 3 16 4 17 5 15 7 6 8 7 9 8 11 14 12 9 13 13 14
REMARK SMILES IDX 10 15 12 16 11 17 4 18 5 19 2 20 1 21 3 22 21 24 22 25 23 26
REMARK SMILES IDX 24 28 25 29 26 30 87 31 27 32 86 33 28 34 29 35 30 36 80 37
REMARK SMILES IDX 31 38 85 39 79 40 81 41 32 42 84 43 78 44 77 45 33 47 65 48
REMARK SMILES IDX 45 49 64 50 46 51 49 52 63 53 82 54 47 55 48 56 62 58 83 59
REMARK SMILES IDX 50 60 34 61 35 62 43 63 36 64 38 65 44 66 37 67 39 68 40 69
REMARK SMILES IDX 41 70 42 71 66 72 67 73 75 74 68 75 70 76 76 77 69 78 71 79
REMARK SMILES IDX 72 80 73 81 74 82 51 83 52 84 60 85 53 86 55 87 61 88 54 89
REMARK SMILES IDX 56 90 57 91 58 92 59 93
REMARK H PARENT 18 6 6 10 3 23 22 27 81 46 49 57
REMARK Flexibility Score: inf
ROOT
ATOM      1  C   UNL A   1      32.602  28.156  27.418  1.00  0.00     0.042 C 
ENDROOT
BRANCH   1   2
ATOM      2  C   UNL A   1      31.503  27.412  26.667  1.00  0.00     0.118 C 
BRANCH   2   3
ATOM      3  N   UNL A   1      31.541  25.988  26.940  1.00  0.00    -0.351 N 
ATOM      4  C   UNL A   1      32.088  24.951  26.241  1.00  0.00     0.278 C 
ATOM      5  O   UNL A   1      31.825  23.820  26.657  1.00  0.00    -0.268 OA
ATOM      6  H   UNL A   1      31.093  25.723  27.774  1.00  0.00     0.163 HD
BRANCH   4   7
ATOM      7  C   UNL A   1      33.023  25.223  25.033  1.00  0.00     0.279 C 
ATOM      8  N   UNL A   1      32.213  25.242  23.788  1.00  0.00    -0.316 N 
ATOM      9  C   UNL A   1      32.250  24.006  22.993  1.00  0.00     0.300 C 
ATOM     10  H   UNL A   1      31.241  25.235  24.100  1.00  0.00     0.349 HD
ATOM     11  C   UNL A   1      32.756  22.758  23.686  1.00  0.00     0.010 A 
ATOM     12  C   UNL A   1      34.196  24.226  25.074  1.00  0.00     0.111 C 
ATOM     13  C   UNL A   1      32.280  21.491  23.324  1.00  0.00     0.010 A 
ATOM     14  C   UNL A   1      33.750  22.854  24.668  1.00  0.00    -0.033 A 
ATOM     15  C   UNL A   1      32.781  20.344  23.942  1.00  0.00     0.001 A 
ATOM     16  C   UNL A   1      34.268  21.703  25.270  1.00  0.00     0.004 A 
ATOM     17  C   UNL A   1      33.777  20.449  24.910  1.00  0.00     0.000 A 
BRANCH   8  18
ATOM     18  C   UNL A   1      32.333  26.516  23.036  1.00  0.00     0.210 C 
ATOM     19  C   UNL A   1      33.070  26.345  21.691  1.00  0.00     0.078 C 
BRANCH  18  20
ATOM     20  C   UNL A   1      31.063  27.441  22.895  1.00  0.00     0.169 C 
ATOM     21  C   UNL A   1      29.753  26.958  23.500  1.00  0.00     0.045 C 
BRANCH  20  22
ATOM     22  O   UNL A   1      30.806  27.800  21.533  1.00  0.00    -0.387 OA
ATOM     23  H   UNL A   1      30.848  27.008  20.975  1.00  0.00     0.211 HD
ENDBRANCH  20  22
ENDBRANCH  18  20
ENDBRANCH   8  18
ENDBRANCH   4   7
ENDBRANCH   2   3
ENDBRANCH   1   2
BRANCH   1  24
ATOM     24  C   UNL A   1      33.604  28.870  26.515  1.00  0.00     0.118 C 
BRANCH  24  25
ATOM     25  N   UNL A   1      33.689  30.299  26.785  1.00  0.00    -0.352 N 
ATOM     26  C   UNL A   1      34.586  31.004  27.546  1.00  0.00     0.251 C 
ATOM     27  H   UNL A   1      32.993  30.845  26.352  1.00  0.00     0.163 HD
ATOM     28  O   UNL A   1      34.362  32.193  27.784  1.00  0.00    -0.269 OA
BRANCH  26  29
ATOM     29  C   UNL A   1      35.799  30.359  28.088  1.00  0.00     0.039 A 
ATOM     30  C   UNL A   1      36.966  30.367  27.319  1.00  0.00     0.014 A 
ATOM     31  C   UNL A   1      35.791  29.715  29.329  1.00  0.00     0.014 A 
ATOM     32  C   UNL A   1      38.131  29.776  27.814  1.00  0.00     0.010 A 
ATOM     33  C   UNL A   1      36.974  29.205  29.859  1.00  0.00     0.010 A 
ATOM     34  C   UNL A   1      38.153  29.214  29.102  1.00  0.00    -0.014 A 
BRANCH  34  35
ATOM     35  C   UNL A   1      39.405  28.640  29.662  1.00  0.00     0.031 A 
ATOM     36  C   UNL A   1      40.051  29.249  30.879  1.00  0.00     0.074 A 
ATOM     37  C   UNL A   1      40.001  27.609  29.033  1.00  0.00     0.049 A 
ATOM     38  N   UNL A   1      41.145  28.888  31.498  1.00  0.00    -0.248 NA
ATOM     39  C   UNL A   1      39.400  30.434  31.460  1.00  0.00     0.031 C 
ATOM     40  C   UNL A   1      39.531  26.992  27.791  1.00  0.00     0.029 A 
ATOM     41  N   UNL A   1      41.143  26.910  29.338  1.00  0.00    -0.354 N 
ATOM     42  C   UNL A   1      41.329  29.812  32.518  1.00  0.00     0.074 A 
ATOM     43  C   UNL A   1      40.260  30.780  32.406  1.00  0.00     0.031 C 
ATOM     44  C   UNL A   1      40.373  26.007  27.442  1.00  0.00     0.029 A 
ATOM     45  C   UNL A   1      41.456  25.937  28.418  1.00  0.00     0.049 A 
ATOM     46  H   UNL A   1      41.686  27.089  30.139  1.00  0.00     0.167 HD
ATOM     47  C   UNL A   1      42.278  29.837  33.485  1.00  0.00     0.034 A 
ATOM     48  C   UNL A   1      42.500  25.087  28.362  1.00  0.00     0.034 A 
ATOM     49  C   UNL A   1      43.323  28.857  33.613  1.00  0.00     0.049 A 
ATOM     50  C   UNL A   1      43.514  25.099  29.472  1.00  0.00     0.074 A 
ATOM     51  C   UNL A   1      44.283  28.744  34.603  1.00  0.00     0.029 A 
ATOM     52  N   UNL A   1      43.553  27.826  32.715  1.00  0.00    -0.354 N 
ATOM     53  N   UNL A   1      43.575  25.878  30.524  1.00  0.00    -0.248 NA
ATOM     54  C   UNL A   1      44.578  24.087  29.412  1.00  0.00     0.031 C 
ATOM     55  C   UNL A   1      45.110  27.661  34.289  1.00  0.00     0.029 A 
ATOM     56  C   UNL A   1      44.643  27.076  33.123  1.00  0.00     0.049 A 
ATOM     57  H   UNL A   1      43.018  27.651  31.906  1.00  0.00     0.167 HD
ATOM     58  C   UNL A   1      44.662  25.431  31.268  1.00  0.00     0.074 A 
ATOM     59  C   UNL A   1      45.217  24.299  30.555  1.00  0.00     0.031 C 
ATOM     60  C   UNL A   1      45.161  25.923  32.429  1.00  0.00     0.034 A 
BRANCH  47  61
ATOM     61  C   UNL A   1      42.192  30.937  34.516  1.00  0.00     0.023 A 
ATOM     62  C   UNL A   1      41.463  30.719  35.704  1.00  0.00     0.012 A 
ATOM     63  C   UNL A   1      42.858  32.164  34.332  1.00  0.00     0.148 A 
ATOM     64  C   UNL A   1      41.357  31.720  36.669  1.00  0.00     0.002 A 
ATOM     65  C   UNL A   1      42.788  33.139  35.321  1.00  0.00     0.091 A 
ATOM     66  F   UNL A   1      43.532  32.363  33.191  1.00  0.00    -0.205 F 
ATOM     67  C   UNL A   1      42.026  32.925  36.482  1.00  0.00     0.022 A 
BRANCH  65  68
ATOM     68  S   UNL A   1      43.684  34.693  35.215  1.00  0.00     0.127 S 
ATOM     69  O   UNL A   1      45.043  34.232  34.931  1.00  0.00    -0.237 OA
ATOM     70  O   UNL A   1      43.019  35.356  34.094  1.00  0.00    -0.237 OA
ATOM     71  O   UNL A   1      43.502  35.349  36.502  1.00  0.00    -0.744 OA
ENDBRANCH  65  68
ENDBRANCH  47  61
BRANCH  48  72
ATOM     72  C   UNL A   1      42.595  24.115  27.236  1.00  0.00     0.023 A 
ATOM     73  C   UNL A   1      43.327  24.454  26.082  1.00  0.00     0.012 A 
ATOM     74  C   UNL A   1      42.007  22.840  27.329  1.00  0.00     0.148 A 
ATOM     75  C   UNL A   1      43.449  23.547  25.028  1.00  0.00     0.002 A 
ATOM     76  C   UNL A   1      42.181  21.921  26.301  1.00  0.00     0.091 A 
ATOM     77  F   UNL A   1      41.308  22.542  28.433  1.00  0.00    -0.205 F 
ATOM     78  C   UNL A   1      42.886  22.278  25.141  1.00  0.00     0.022 A 
BRANCH  76  79
ATOM     79  S   UNL A   1      41.614  20.221  26.422  1.00  0.00     0.127 S 
ATOM     80  O   UNL A   1      40.170  20.375  26.266  1.00  0.00    -0.237 OA
ATOM     81  O   UNL A   1      42.293  19.598  25.284  1.00  0.00    -0.237 OA
ATOM     82  O   UNL A   1      42.063  19.746  27.723  1.00  0.00    -0.744 OA
ENDBRANCH  76  79
ENDBRANCH  48  72
BRANCH  60  83
ATOM     83  C   UNL A   1      46.350  25.221  33.031  1.00  0.00     0.023 A 
ATOM     84  C   UNL A   1      47.653  25.674  32.750  1.00  0.00     0.012 A 
ATOM     85  C   UNL A   1      46.168  24.156  33.937  1.00  0.00     0.148 A 
ATOM     86  C   UNL A   1      48.760  25.056  33.332  1.00  0.00     0.002 A 
ATOM     87  C   UNL A   1      47.272  23.580  34.553  1.00  0.00     0.091 A 
ATOM     88  F   UNL A   1      44.920  23.727  34.179  1.00  0.00    -0.205 F 
ATOM     89  C   UNL A   1      48.569  24.019  34.242  1.00  0.00     0.022 A 
BRANCH  87  90
ATOM     90  S   UNL A   1      47.117  22.305  35.810  1.00  0.00     0.127 S 
ATOM     91  O   UNL A   1      48.514  22.067  36.166  1.00  0.00    -0.237 OA
ATOM     92  O   UNL A   1      46.332  22.982  36.843  1.00  0.00    -0.237 OA
ATOM     93  O   UNL A   1      46.437  21.189  35.169  1.00  0.00    -0.744 OA
ENDBRANCH  87  90
ENDBRANCH  60  83
ENDBRANCH  34  35
ENDBRANCH  26  29
ENDBRANCH  24  25
ENDBRANCH   1  24
TORSDOF 16
ENDMDL
