MODEL 1
REMARK VINA RESULT:     -10.8      0.000      0.000
REMARK SMILES C[C@@H](C(=O)NCCCNC(=O)c1ccc(-c2c3nc(c(-c4cccc(S(=O)(=O)[O-])c4F)c4ccc([nH]4)c(-c4cccc(S(=O)(=O)[O-])c4F)c4nc(c(-c5cccc(S(=O)(=O)[O-])c5F)c5ccc2[nH]5)C=C4)C=C3)cc1)[C@@H](N[S@](=O)C(C)(C)C)C(C)(C)C
REMARK SMILES IDX 6 1 5 2 3 3 4 4 2 6 1 7 75 8 76 9 77 11 78 12 79 13 80 14
REMARK SMILES IDX 81 15 82 16 83 17 84 18 85 19 86 20 7 21 8 22 9 23 10 24
REMARK SMILES IDX 11 26 12 27 13 28 74 29 14 30 73 31 15 32 16 33 17 34 67 35
REMARK SMILES IDX 18 36 72 37 66 38 68 39 19 40 71 41 65 42 64 43 20 45 52 46
REMARK SMILES IDX 32 47 51 48 33 49 36 50 50 51 69 52 34 53 35 54 49 56 70 57
REMARK SMILES IDX 37 58 21 59 22 60 30 61 23 62 25 63 31 64 24 65 26 66 27 67
REMARK SMILES IDX 28 68 29 69 53 70 54 71 62 72 55 73 57 74 63 75 56 76 58 77
REMARK SMILES IDX 59 78 60 79 61 80 38 81 39 82 47 83 40 84 42 85 48 86 41 87
REMARK SMILES IDX 43 88 44 89 45 90 46 91
REMARK H PARENT 5 5 76 10 9 25 68 44 36 55
REMARK Flexibility Score: inf
ROOT
ATOM      1  C   UNL A   1      31.372  29.783  25.294  1.00  0.00     0.117 C 
ENDROOT
BRANCH   1   2
ATOM      2  N   UNL A   1      32.471  29.595  24.359  1.00  0.00    -0.356 N 
ATOM      3  C   UNL A   1      33.305  28.528  24.197  1.00  0.00     0.224 C 
ATOM      4  O   UNL A   1      34.381  28.718  23.630  1.00  0.00    -0.275 OA
ATOM      5  H   UNL A   1      32.638  30.352  23.751  1.00  0.00     0.163 HD
BRANCH   3   6
ATOM      6  C   UNL A   1      32.896  27.158  24.725  1.00  0.00     0.094 C 
ATOM      7  C   UNL A   1      33.666  27.005  26.052  1.00  0.00     0.020 C 
BRANCH   6   8
ATOM      8  C   UNL A   1      33.174  25.996  23.674  1.00  0.00     0.085 C 
BRANCH   8   9
ATOM      9  N   UNL A   1      33.619  24.795  24.445  1.00  0.00    -0.233 NA
ATOM     10  H   UNL A   1      32.774  24.245  24.600  1.00  0.00     0.138 HD
BRANCH   9  11
ATOM     11  S   UNL A   1      34.764  23.709  23.942  1.00  0.00     0.097 S 
ATOM     12  O   UNL A   1      34.645  23.386  22.484  1.00  0.00    -0.242 OA
BRANCH  11  13
ATOM     13  C   UNL A   1      34.225  22.207  24.894  1.00  0.00     0.052 C 
ATOM     14  C   UNL A   1      35.427  21.325  25.251  1.00  0.00     0.027 C 
ATOM     15  C   UNL A   1      33.590  22.743  26.193  1.00  0.00     0.027 C 
ATOM     16  C   UNL A   1      33.165  21.407  24.130  1.00  0.00     0.027 C 
ENDBRANCH  11  13
ENDBRANCH   9  11
ENDBRANCH   8   9
BRANCH   8  17
ATOM     17  C   UNL A   1      31.939  25.703  22.672  1.00  0.00    -0.021 C 
ATOM     18  C   UNL A   1      30.889  26.838  22.629  1.00  0.00     0.012 C 
ATOM     19  C   UNL A   1      32.406  25.575  21.196  1.00  0.00     0.012 C 
ATOM     20  C   UNL A   1      31.189  24.414  23.066  1.00  0.00     0.012 C 
ENDBRANCH   8  17
ENDBRANCH   6   8
ENDBRANCH   3   6
ENDBRANCH   1   2
BRANCH   1  21
ATOM     21  C   UNL A   1      31.287  31.242  25.748  1.00  0.00     0.042 C 
BRANCH  21  22
ATOM     22  C   UNL A   1      32.086  31.555  27.013  1.00  0.00     0.118 C 
BRANCH  22  23
ATOM     23  N   UNL A   1      32.220  32.986  27.253  1.00  0.00    -0.352 N 
ATOM     24  C   UNL A   1      33.199  33.675  27.925  1.00  0.00     0.251 C 
ATOM     25  H   UNL A   1      31.501  33.542  26.875  1.00  0.00     0.163 HD
ATOM     26  O   UNL A   1      33.035  34.871  28.168  1.00  0.00    -0.269 OA
BRANCH  24  27
ATOM     27  C   UNL A   1      34.429  32.991  28.383  1.00  0.00     0.039 A 
ATOM     28  C   UNL A   1      35.644  33.678  28.312  1.00  0.00     0.014 A 
ATOM     29  C   UNL A   1      34.397  31.683  28.874  1.00  0.00     0.014 A 
ATOM     30  C   UNL A   1      36.808  33.088  28.809  1.00  0.00     0.010 A 
ATOM     31  C   UNL A   1      35.547  31.120  29.430  1.00  0.00     0.010 A 
ATOM     32  C   UNL A   1      36.761  31.822  29.419  1.00  0.00    -0.014 A 
BRANCH  32  33
ATOM     33  C   UNL A   1      37.951  31.266  30.118  1.00  0.00     0.031 A 
ATOM     34  C   UNL A   1      38.794  30.190  29.486  1.00  0.00     0.074 A 
ATOM     35  C   UNL A   1      38.218  31.672  31.378  1.00  0.00     0.049 A 
ATOM     36  N   UNL A   1      39.828  29.561  29.980  1.00  0.00    -0.248 NA
ATOM     37  C   UNL A   1      38.418  29.752  28.131  1.00  0.00     0.031 C 
ATOM     38  C   UNL A   1      37.433  32.652  32.133  1.00  0.00     0.029 A 
ATOM     39  N   UNL A   1      39.201  31.289  32.258  1.00  0.00    -0.354 N 
ATOM     40  C   UNL A   1      40.208  28.632  29.019  1.00  0.00     0.074 A 
ATOM     41  C   UNL A   1      39.283  28.770  27.914  1.00  0.00     0.031 C 
ATOM     42  C   UNL A   1      37.960  32.790  33.360  1.00  0.00     0.029 A 
ATOM     43  C   UNL A   1      39.094  31.882  33.497  1.00  0.00     0.049 A 
ATOM     44  H   UNL A   1      39.915  30.652  32.026  1.00  0.00     0.167 HD
ATOM     45  C   UNL A   1      41.242  27.757  29.048  1.00  0.00     0.034 A 
ATOM     46  C   UNL A   1      39.807  31.699  34.624  1.00  0.00     0.034 A 
ATOM     47  C   UNL A   1      42.181  27.646  30.132  1.00  0.00     0.049 A 
ATOM     48  C   UNL A   1      40.959  30.730  34.615  1.00  0.00     0.074 A 
ATOM     49  C   UNL A   1      43.322  26.863  30.202  1.00  0.00     0.029 A 
ATOM     50  N   UNL A   1      42.083  28.313  31.342  1.00  0.00    -0.354 N 
ATOM     51  N   UNL A   1      41.412  29.998  33.628  1.00  0.00    -0.248 NA
ATOM     52  C   UNL A   1      41.716  30.584  35.867  1.00  0.00     0.031 C 
ATOM     53  C   UNL A   1      43.887  27.023  31.469  1.00  0.00     0.029 A 
ATOM     54  C   UNL A   1      43.123  27.937  32.176  1.00  0.00     0.049 A 
ATOM     55  H   UNL A   1      41.377  28.958  31.575  1.00  0.00     0.167 HD
ATOM     56  C   UNL A   1      42.521  29.327  34.130  1.00  0.00     0.074 A 
ATOM     57  C   UNL A   1      42.693  29.767  35.498  1.00  0.00     0.031 C 
ATOM     58  C   UNL A   1      43.315  28.412  33.521  1.00  0.00     0.034 A 
BRANCH  45  59
ATOM     59  C   UNL A   1      41.454  26.862  27.855  1.00  0.00     0.023 A 
ATOM     60  C   UNL A   1      42.172  27.341  26.741  1.00  0.00     0.012 A 
ATOM     61  C   UNL A   1      41.051  25.512  27.890  1.00  0.00     0.148 A 
ATOM     62  C   UNL A   1      42.471  26.497  25.674  1.00  0.00     0.002 A 
ATOM     63  C   UNL A   1      41.391  24.665  26.842  1.00  0.00     0.091 A 
ATOM     64  F   UNL A   1      40.356  25.080  28.952  1.00  0.00    -0.205 F 
ATOM     65  C   UNL A   1      42.093  25.158  25.730  1.00  0.00     0.022 A 
BRANCH  63  66
ATOM     66  S   UNL A   1      41.025  22.906  26.854  1.00  0.00     0.127 S 
ATOM     67  O   UNL A   1      41.735  22.450  25.659  1.00  0.00    -0.237 OA
ATOM     68  O   UNL A   1      41.621  22.478  28.118  1.00  0.00    -0.237 OA
ATOM     69  O   UNL A   1      39.574  22.794  26.791  1.00  0.00    -0.744 OA
ENDBRANCH  63  66
ENDBRANCH  45  59
BRANCH  46  70
ATOM     70  C   UNL A   1      39.472  32.462  35.861  1.00  0.00     0.023 A 
ATOM     71  C   UNL A   1      40.083  33.709  36.100  1.00  0.00     0.012 A 
ATOM     72  C   UNL A   1      38.563  31.953  36.809  1.00  0.00     0.148 A 
ATOM     73  C   UNL A   1      39.831  34.411  37.279  1.00  0.00     0.002 A 
ATOM     74  C   UNL A   1      38.268  32.687  37.952  1.00  0.00     0.091 A 
ATOM     75  F   UNL A   1      38.001  30.759  36.574  1.00  0.00    -0.205 F 
ATOM     76  C   UNL A   1      38.919  33.905  38.201  1.00  0.00     0.022 A 
BRANCH  74  77
ATOM     77  S   UNL A   1      37.003  32.173  39.119  1.00  0.00     0.127 S 
ATOM     78  O   UNL A   1      35.791  32.705  38.500  1.00  0.00    -0.237 OA
ATOM     79  O   UNL A   1      37.128  30.716  39.080  1.00  0.00    -0.237 OA
ATOM     80  O   UNL A   1      37.382  32.770  40.392  1.00  0.00    -0.744 OA
ENDBRANCH  74  77
ENDBRANCH  46  70
BRANCH  58  81
ATOM     81  C   UNL A   1      44.460  27.841  34.315  1.00  0.00     0.023 A 
ATOM     82  C   UNL A   1      45.698  28.513  34.343  1.00  0.00     0.012 A 
ATOM     83  C   UNL A   1      44.291  26.673  35.085  1.00  0.00     0.148 A 
ATOM     84  C   UNL A   1      46.761  28.012  35.093  1.00  0.00     0.002 A 
ATOM     85  C   UNL A   1      45.338  26.209  35.873  1.00  0.00     0.091 A 
ATOM     86  F   UNL A   1      43.109  26.040  35.035  1.00  0.00    -0.205 F 
ATOM     87  C   UNL A   1      46.577  26.868  35.867  1.00  0.00     0.022 A 
BRANCH  85  88
ATOM     88  S   UNL A   1      45.168  24.801  36.975  1.00  0.00     0.127 S 
ATOM     89  O   UNL A   1      44.864  23.723  36.034  1.00  0.00    -0.237 OA
ATOM     90  O   UNL A   1      46.496  24.722  37.583  1.00  0.00    -0.237 OA
ATOM     91  O   UNL A   1      44.095  25.138  37.900  1.00  0.00    -0.744 OA
ENDBRANCH  85  88
ENDBRANCH  58  81
ENDBRANCH  32  33
ENDBRANCH  24  27
ENDBRANCH  22  23
ENDBRANCH  21  22
ENDBRANCH   1  21
TORSDOF 18
ENDMDL
MODEL 2
REMARK VINA RESULT:     -10.8      5.717     10.917
REMARK SMILES C[C@@H](C(=O)NCCCNC(=O)c1ccc(-c2c3nc(c(-c4cccc(S(=O)(=O)[O-])c4F)c4ccc([nH]4)c(-c4cccc(S(=O)(=O)[O-])c4F)c4nc(c(-c5cccc(S(=O)(=O)[O-])c5F)c5ccc2[nH]5)C=C4)C=C3)cc1)[C@@H](N[S@](=O)C(C)(C)C)C(C)(C)C
REMARK SMILES IDX 6 1 5 2 3 3 4 4 2 6 1 7 75 8 76 9 77 11 78 12 79 13 80 14
REMARK SMILES IDX 81 15 82 16 83 17 84 18 85 19 86 20 7 21 8 22 9 23 10 24
REMARK SMILES IDX 11 26 12 27 13 28 74 29 14 30 73 31 15 32 16 33 17 34 67 35
REMARK SMILES IDX 18 36 72 37 66 38 68 39 19 40 71 41 65 42 64 43 20 45 52 46
REMARK SMILES IDX 32 47 51 48 33 49 36 50 50 51 69 52 34 53 35 54 49 56 70 57
REMARK SMILES IDX 37 58 21 59 22 60 30 61 23 62 25 63 31 64 24 65 26 66 27 67
REMARK SMILES IDX 28 68 29 69 53 70 54 71 62 72 55 73 57 74 63 75 56 76 58 77
REMARK SMILES IDX 59 78 60 79 61 80 38 81 39 82 47 83 40 84 42 85 48 86 41 87
REMARK SMILES IDX 43 88 44 89 45 90 46 91
REMARK H PARENT 5 5 76 10 9 25 68 44 36 55
REMARK Flexibility Score: inf
ROOT
ATOM      1  C   UNL A   1      35.531  21.052  25.765  1.00  0.00     0.117 C 
ENDROOT
BRANCH   1   2
ATOM      2  N   UNL A   1      34.269  20.589  25.206  1.00  0.00    -0.356 N 
ATOM      3  C   UNL A   1      33.011  21.094  25.357  1.00  0.00     0.224 C 
ATOM      4  O   UNL A   1      32.059  20.351  25.121  1.00  0.00    -0.275 OA
ATOM      5  H   UNL A   1      34.334  19.792  24.632  1.00  0.00     0.163 HD
BRANCH   3   6
ATOM      6  C   UNL A   1      32.822  22.535  25.818  1.00  0.00     0.094 C 
ATOM      7  C   UNL A   1      31.496  22.522  26.605  1.00  0.00     0.020 C 
BRANCH   6   8
ATOM      8  C   UNL A   1      32.851  23.567  24.608  1.00  0.00     0.085 C 
BRANCH   8   9
ATOM      9  N   UNL A   1      31.632  24.426  24.726  1.00  0.00    -0.233 NA
ATOM     10  H   UNL A   1      31.964  25.317  25.094  1.00  0.00     0.138 HD
BRANCH   9  11
ATOM     11  S   UNL A   1      30.616  24.817  23.478  1.00  0.00     0.097 S 
ATOM     12  O   UNL A   1      31.329  24.891  22.162  1.00  0.00    -0.242 OA
BRANCH  11  13
ATOM     13  C   UNL A   1      30.158  26.550  23.964  1.00  0.00     0.052 C 
ATOM     14  C   UNL A   1      30.739  27.568  22.977  1.00  0.00     0.027 C 
ATOM     15  C   UNL A   1      28.618  26.608  23.899  1.00  0.00     0.027 C 
ATOM     16  C   UNL A   1      30.594  26.866  25.399  1.00  0.00     0.027 C 
ENDBRANCH  11  13
ENDBRANCH   9  11
ENDBRANCH   8   9
BRANCH   8  17
ATOM     17  C   UNL A   1      34.227  24.407  24.489  1.00  0.00    -0.021 C 
ATOM     18  C   UNL A   1      35.213  23.839  23.441  1.00  0.00     0.012 C 
ATOM     19  C   UNL A   1      33.979  25.864  24.013  1.00  0.00     0.012 C 
ATOM     20  C   UNL A   1      34.978  24.449  25.835  1.00  0.00     0.012 C 
ENDBRANCH   8  17
ENDBRANCH   6   8
ENDBRANCH   3   6
ENDBRANCH   1   2
BRANCH   1  21
ATOM     21  C   UNL A   1      36.706  20.623  24.884  1.00  0.00     0.042 C 
BRANCH  21  22
ATOM     22  C   UNL A   1      38.077  21.042  25.416  1.00  0.00     0.118 C 
BRANCH  22  23
ATOM     23  N   UNL A   1      38.957  19.906  25.655  1.00  0.00    -0.352 N 
ATOM     24  C   UNL A   1      40.272  19.882  26.051  1.00  0.00     0.251 C 
ATOM     25  H   UNL A   1      38.547  19.022  25.513  1.00  0.00     0.163 HD
ATOM     26  O   UNL A   1      40.889  18.818  26.026  1.00  0.00    -0.269 OA
BRANCH  24  27
ATOM     27  C   UNL A   1      40.958  21.123  26.476  1.00  0.00     0.039 A 
ATOM     28  C   UNL A   1      41.652  21.867  25.518  1.00  0.00     0.014 A 
ATOM     29  C   UNL A   1      40.930  21.553  27.805  1.00  0.00     0.014 A 
ATOM     30  C   UNL A   1      42.242  23.082  25.874  1.00  0.00     0.010 A 
ATOM     31  C   UNL A   1      41.463  22.797  28.145  1.00  0.00     0.010 A 
ATOM     32  C   UNL A   1      42.111  23.584  27.181  1.00  0.00    -0.014 A 
BRANCH  32  33
ATOM     33  C   UNL A   1      42.570  24.956  27.523  1.00  0.00     0.031 A 
ATOM     34  C   UNL A   1      41.628  25.967  28.120  1.00  0.00     0.074 A 
ATOM     35  C   UNL A   1      43.830  25.322  27.205  1.00  0.00     0.049 A 
ATOM     36  N   UNL A   1      41.853  27.219  28.425  1.00  0.00    -0.248 NA
ATOM     37  C   UNL A   1      40.250  25.522  28.394  1.00  0.00     0.031 C 
ATOM     38  C   UNL A   1      44.820  24.460  26.553  1.00  0.00     0.029 A 
ATOM     39  N   UNL A   1      44.485  26.520  27.355  1.00  0.00    -0.354 N 
ATOM     40  C   UNL A   1      40.645  27.722  28.894  1.00  0.00     0.074 A 
ATOM     41  C   UNL A   1      39.683  26.643  28.820  1.00  0.00     0.031 C 
ATOM     42  C   UNL A   1      45.950  25.156  26.355  1.00  0.00     0.029 A 
ATOM     43  C   UNL A   1      45.758  26.523  26.827  1.00  0.00     0.049 A 
ATOM     44  H   UNL A   1      44.084  27.302  27.797  1.00  0.00     0.167 HD
ATOM     45  C   UNL A   1      40.368  28.965  29.359  1.00  0.00     0.034 A 
ATOM     46  C   UNL A   1      46.660  27.516  26.711  1.00  0.00     0.034 A 
ATOM     47  C   UNL A   1      41.334  30.026  29.464  1.00  0.00     0.049 A 
ATOM     48  C   UNL A   1      46.323  28.880  27.252  1.00  0.00     0.074 A 
ATOM     49  C   UNL A   1      41.169  31.283  30.022  1.00  0.00     0.029 A 
ATOM     50  N   UNL A   1      42.633  29.971  28.985  1.00  0.00    -0.354 N 
ATOM     51  N   UNL A   1      45.234  29.280  27.860  1.00  0.00    -0.248 NA
ATOM     52  C   UNL A   1      47.351  29.923  27.115  1.00  0.00     0.031 C 
ATOM     53  C   UNL A   1      42.353  32.002  29.840  1.00  0.00     0.029 A 
ATOM     54  C   UNL A   1      43.270  31.181  29.206  1.00  0.00     0.049 A 
ATOM     55  H   UNL A   1      43.041  29.188  28.551  1.00  0.00     0.167 HD
ATOM     56  C   UNL A   1      45.457  30.608  28.205  1.00  0.00     0.074 A 
ATOM     57  C   UNL A   1      46.797  30.935  27.768  1.00  0.00     0.031 C 
ATOM     58  C   UNL A   1      44.620  31.486  28.810  1.00  0.00     0.034 A 
BRANCH  45  59
ATOM     59  C   UNL A   1      38.968  29.254  29.834  1.00  0.00     0.023 A 
ATOM     60  C   UNL A   1      38.590  28.905  31.146  1.00  0.00     0.012 A 
ATOM     61  C   UNL A   1      38.072  29.980  29.025  1.00  0.00     0.148 A 
ATOM     62  C   UNL A   1      37.336  29.259  31.640  1.00  0.00     0.002 A 
ATOM     63  C   UNL A   1      36.840  30.369  29.540  1.00  0.00     0.091 A 
ATOM     64  F   UNL A   1      38.446  30.290  27.775  1.00  0.00    -0.205 F 
ATOM     65  C   UNL A   1      36.468  30.001  30.843  1.00  0.00     0.022 A 
BRANCH  63  66
ATOM     66  S   UNL A   1      35.684  31.397  28.626  1.00  0.00     0.127 S 
ATOM     67  O   UNL A   1      35.212  30.468  27.599  1.00  0.00    -0.237 OA
ATOM     68  O   UNL A   1      34.694  31.727  29.651  1.00  0.00    -0.237 OA
ATOM     69  O   UNL A   1      36.453  32.529  28.130  1.00  0.00    -0.744 OA
ENDBRANCH  63  66
ENDBRANCH  45  59
BRANCH  46  70
ATOM     70  C   UNL A   1      47.983  27.264  26.070  1.00  0.00     0.023 A 
ATOM     71  C   UNL A   1      49.072  26.847  26.860  1.00  0.00     0.012 A 
ATOM     72  C   UNL A   1      48.171  27.447  24.686  1.00  0.00     0.148 A 
ATOM     73  C   UNL A   1      50.334  26.664  26.292  1.00  0.00     0.002 A 
ATOM     74  C   UNL A   1      49.414  27.202  24.117  1.00  0.00     0.091 A 
ATOM     75  F   UNL A   1      47.128  27.858  23.951  1.00  0.00    -0.205 F 
ATOM     76  C   UNL A   1      50.503  26.833  24.921  1.00  0.00     0.022 A 
BRANCH  74  77
ATOM     77  S   UNL A   1      49.682  27.261  22.341  1.00  0.00     0.127 S 
ATOM     78  O   UNL A   1      49.417  28.667  22.045  1.00  0.00    -0.237 OA
ATOM     79  O   UNL A   1      51.085  26.861  22.232  1.00  0.00    -0.237 OA
ATOM     80  O   UNL A   1      48.743  26.303  21.773  1.00  0.00    -0.744 OA
ENDBRANCH  74  77
ENDBRANCH  46  70
BRANCH  58  81
ATOM     81  C   UNL A   1      45.131  32.880  29.062  1.00  0.00     0.023 A 
ATOM     82  C   UNL A   1      45.826  33.167  30.254  1.00  0.00     0.012 A 
ATOM     83  C   UNL A   1      44.981  33.890  28.090  1.00  0.00     0.148 A 
ATOM     84  C   UNL A   1      46.329  34.445  30.492  1.00  0.00     0.002 A 
ATOM     85  C   UNL A   1      45.532  35.147  28.311  1.00  0.00     0.091 A 
ATOM     86  F   UNL A   1      44.305  33.601  26.968  1.00  0.00    -0.205 F 
ATOM     87  C   UNL A   1      46.193  35.430  29.517  1.00  0.00     0.022 A 
BRANCH  85  88
ATOM     88  S   UNL A   1      45.490  36.450  27.077  1.00  0.00     0.127 S 
ATOM     89  O   UNL A   1      44.052  36.675  26.930  1.00  0.00    -0.237 OA
ATOM     90  O   UNL A   1      46.211  37.533  27.747  1.00  0.00    -0.237 OA
ATOM     91  O   UNL A   1      46.158  35.914  25.899  1.00  0.00    -0.744 OA
ENDBRANCH  85  88
ENDBRANCH  58  81
ENDBRANCH  32  33
ENDBRANCH  24  27
ENDBRANCH  22  23
ENDBRANCH  21  22
ENDBRANCH   1  21
TORSDOF 18
ENDMDL
MODEL 3
REMARK VINA RESULT:     -10.4      5.809      9.556
REMARK SMILES C[C@@H](C(=O)NCCCNC(=O)c1ccc(-c2c3nc(c(-c4cccc(S(=O)(=O)[O-])c4F)c4ccc([nH]4)c(-c4cccc(S(=O)(=O)[O-])c4F)c4nc(c(-c5cccc(S(=O)(=O)[O-])c5F)c5ccc2[nH]5)C=C4)C=C3)cc1)[C@@H](N[S@](=O)C(C)(C)C)C(C)(C)C
REMARK SMILES IDX 6 1 5 2 3 3 4 4 2 6 1 7 75 8 76 9 77 11 78 12 79 13 80 14
REMARK SMILES IDX 81 15 82 16 83 17 84 18 85 19 86 20 7 21 8 22 9 23 10 24
REMARK SMILES IDX 11 26 12 27 13 28 74 29 14 30 73 31 15 32 16 33 17 34 67 35
REMARK SMILES IDX 18 36 72 37 66 38 68 39 19 40 71 41 65 42 64 43 20 45 52 46
REMARK SMILES IDX 32 47 51 48 33 49 36 50 50 51 69 52 34 53 35 54 49 56 70 57
REMARK SMILES IDX 37 58 21 59 22 60 30 61 23 62 25 63 31 64 24 65 26 66 27 67
REMARK SMILES IDX 28 68 29 69 53 70 54 71 62 72 55 73 57 74 63 75 56 76 58 77
REMARK SMILES IDX 59 78 60 79 61 80 38 81 39 82 47 83 40 84 42 85 48 86 41 87
REMARK SMILES IDX 43 88 44 89 45 90 46 91
REMARK H PARENT 5 5 76 10 9 25 68 44 36 55
REMARK Flexibility Score: inf
ROOT
ATOM      1  C   UNL A   1      37.000  20.940  24.682  1.00  0.00     0.117 C 
ENDROOT
BRANCH   1   2
ATOM      2  N   UNL A   1      35.852  20.802  25.566  1.00  0.00    -0.356 N 
ATOM      3  C   UNL A   1      34.886  21.710  25.890  1.00  0.00     0.224 C 
ATOM      4  O   UNL A   1      34.243  21.523  26.923  1.00  0.00    -0.275 OA
ATOM      5  H   UNL A   1      35.757  19.920  25.993  1.00  0.00     0.163 HD
BRANCH   3   6
ATOM      6  C   UNL A   1      34.645  22.915  24.989  1.00  0.00     0.094 C 
ATOM      7  C   UNL A   1      35.521  24.033  25.590  1.00  0.00     0.020 C 
BRANCH   6   8
ATOM      8  C   UNL A   1      33.103  23.287  24.875  1.00  0.00     0.085 C 
BRANCH   8   9
ATOM      9  N   UNL A   1      32.962  24.726  25.258  1.00  0.00    -0.233 NA
ATOM     10  H   UNL A   1      32.569  25.187  24.437  1.00  0.00     0.138 HD
BRANCH   9  11
ATOM     11  S   UNL A   1      32.082  25.290  26.542  1.00  0.00     0.097 S 
ATOM     12  O   UNL A   1      30.677  24.770  26.545  1.00  0.00    -0.242 OA
BRANCH  11  13
ATOM     13  C   UNL A   1      32.009  27.097  26.116  1.00  0.00     0.052 C 
ATOM     14  C   UNL A   1      31.712  27.942  27.360  1.00  0.00     0.027 C 
ATOM     15  C   UNL A   1      33.413  27.457  25.587  1.00  0.00     0.027 C 
ATOM     16  C   UNL A   1      30.988  27.373  25.008  1.00  0.00     0.027 C 
ENDBRANCH  11  13
ENDBRANCH   9  11
ENDBRANCH   8   9
BRANCH   8  17
ATOM     17  C   UNL A   1      32.441  22.929  23.445  1.00  0.00    -0.021 C 
ATOM     18  C   UNL A   1      32.350  21.410  23.165  1.00  0.00     0.012 C 
ATOM     19  C   UNL A   1      30.967  23.412  23.349  1.00  0.00     0.012 C 
ATOM     20  C   UNL A   1      33.241  23.552  22.283  1.00  0.00     0.012 C 
ENDBRANCH   8  17
ENDBRANCH   6   8
ENDBRANCH   3   6
ENDBRANCH   1   2
BRANCH   1  21
ATOM     21  C   UNL A   1      38.039  19.853  24.965  1.00  0.00     0.042 C 
BRANCH  21  22
ATOM     22  C   UNL A   1      39.171  20.291  25.894  1.00  0.00     0.118 C 
BRANCH  22  23
ATOM     23  N   UNL A   1      40.221  19.288  26.011  1.00  0.00    -0.352 N 
ATOM     24  C   UNL A   1      41.573  19.450  26.187  1.00  0.00     0.251 C 
ATOM     25  H   UNL A   1      39.915  18.354  25.959  1.00  0.00     0.163 HD
ATOM     26  O   UNL A   1      42.315  18.472  26.085  1.00  0.00    -0.269 OA
BRANCH  24  27
ATOM     27  C   UNL A   1      42.148  20.785  26.466  1.00  0.00     0.039 A 
ATOM     28  C   UNL A   1      42.472  21.613  25.388  1.00  0.00     0.014 A 
ATOM     29  C   UNL A   1      42.375  21.222  27.773  1.00  0.00     0.014 A 
ATOM     30  C   UNL A   1      42.942  22.908  25.622  1.00  0.00     0.010 A 
ATOM     31  C   UNL A   1      42.782  22.538  28.006  1.00  0.00     0.010 A 
ATOM     32  C   UNL A   1      43.054  23.400  26.934  1.00  0.00    -0.014 A 
BRANCH  32  33
ATOM     33  C   UNL A   1      43.371  24.831  27.190  1.00  0.00     0.031 A 
ATOM     34  C   UNL A   1      44.770  25.361  27.021  1.00  0.00     0.074 A 
ATOM     35  C   UNL A   1      42.402  25.639  27.669  1.00  0.00     0.049 A 
ATOM     36  N   UNL A   1      45.225  26.565  27.254  1.00  0.00    -0.248 NA
ATOM     37  C   UNL A   1      45.795  24.415  26.547  1.00  0.00     0.031 C 
ATOM     38  C   UNL A   1      41.023  25.230  27.950  1.00  0.00     0.029 A 
ATOM     39  N   UNL A   1      42.433  26.963  28.037  1.00  0.00    -0.354 N 
ATOM     40  C   UNL A   1      46.589  26.517  26.989  1.00  0.00     0.074 A 
ATOM     41  C   UNL A   1      46.892  25.159  26.590  1.00  0.00     0.031 C 
ATOM     42  C   UNL A   1      40.344  26.275  28.449  1.00  0.00     0.029 A 
ATOM     43  C   UNL A   1      41.244  27.418  28.562  1.00  0.00     0.049 A 
ATOM     44  H   UNL A   1      43.230  27.532  27.935  1.00  0.00     0.167 HD
ATOM     45  C   UNL A   1      47.501  27.517  27.057  1.00  0.00     0.034 A 
ATOM     46  C   UNL A   1      40.918  28.609  29.099  1.00  0.00     0.034 A 
ATOM     47  C   UNL A   1      47.191  28.874  27.420  1.00  0.00     0.049 A 
ATOM     48  C   UNL A   1      41.953  29.702  29.143  1.00  0.00     0.074 A 
ATOM     49  C   UNL A   1      48.031  29.976  27.412  1.00  0.00     0.029 A 
ATOM     50  N   UNL A   1      45.961  29.315  27.878  1.00  0.00    -0.354 N 
ATOM     51  N   UNL A   1      43.189  29.684  28.712  1.00  0.00    -0.248 NA
ATOM     52  C   UNL A   1      41.537  30.988  29.722  1.00  0.00     0.031 C 
ATOM     53  C   UNL A   1      47.319  31.073  27.907  1.00  0.00     0.029 A 
ATOM     54  C   UNL A   1      46.025  30.665  28.185  1.00  0.00     0.049 A 
ATOM     55  H   UNL A   1      45.159  28.752  27.972  1.00  0.00     0.167 HD
ATOM     56  C   UNL A   1      43.690  30.961  28.940  1.00  0.00     0.074 A 
ATOM     57  C   UNL A   1      42.612  31.737  29.515  1.00  0.00     0.031 C 
ATOM     58  C   UNL A   1      44.937  31.443  28.714  1.00  0.00     0.034 A 
BRANCH  45  59
ATOM     59  C   UNL A   1      48.930  27.207  26.694  1.00  0.00     0.023 A 
ATOM     60  C   UNL A   1      49.319  27.198  25.340  1.00  0.00     0.012 A 
ATOM     61  C   UNL A   1      49.906  27.048  27.696  1.00  0.00     0.148 A 
ATOM     62  C   UNL A   1      50.656  27.019  24.988  1.00  0.00     0.002 A 
ATOM     63  C   UNL A   1      51.244  26.915  27.340  1.00  0.00     0.091 A 
ATOM     64  F   UNL A   1      49.512  27.046  28.978  1.00  0.00    -0.205 F 
ATOM     65  C   UNL A   1      51.618  26.891  25.987  1.00  0.00     0.022 A 
BRANCH  63  66
ATOM     66  S   UNL A   1      52.570  26.827  28.549  1.00  0.00     0.127 S 
ATOM     67  O   UNL A   1      53.645  26.223  27.763  1.00  0.00    -0.237 OA
ATOM     68  O   UNL A   1      52.774  28.237  28.880  1.00  0.00    -0.237 OA
ATOM     69  O   UNL A   1      52.067  26.008  29.642  1.00  0.00    -0.744 OA
ENDBRANCH  63  66
ENDBRANCH  45  59
BRANCH  46  70
ATOM     70  C   UNL A   1      39.543  28.849  29.625  1.00  0.00     0.023 A 
ATOM     71  C   UNL A   1      39.221  28.458  30.940  1.00  0.00     0.012 A 
ATOM     72  C   UNL A   1      38.550  29.451  28.827  1.00  0.00     0.148 A 
ATOM     73  C   UNL A   1      37.925  28.617  31.432  1.00  0.00     0.002 A 
ATOM     74  C   UNL A   1      37.278  29.663  29.346  1.00  0.00     0.091 A 
ATOM     75  F   UNL A   1      38.869  29.803  27.574  1.00  0.00    -0.205 F 
ATOM     76  C   UNL A   1      36.957  29.225  30.639  1.00  0.00     0.022 A 
BRANCH  74  77
ATOM     77  S   UNL A   1      36.016  30.565  28.441  1.00  0.00     0.127 S 
ATOM     78  O   UNL A   1      35.529  29.549  27.511  1.00  0.00    -0.237 OA
ATOM     79  O   UNL A   1      35.079  30.927  29.506  1.00  0.00    -0.237 OA
ATOM     80  O   UNL A   1      36.702  31.701  27.841  1.00  0.00    -0.744 OA
ENDBRANCH  74  77
ENDBRANCH  46  70
BRANCH  58  81
ATOM     81  C   UNL A   1      45.203  32.884  29.063  1.00  0.00     0.023 A 
ATOM     82  C   UNL A   1      45.800  33.208  30.297  1.00  0.00     0.012 A 
ATOM     83  C   UNL A   1      44.922  33.912  28.141  1.00  0.00     0.148 A 
ATOM     84  C   UNL A   1      46.077  34.534  30.625  1.00  0.00     0.002 A 
ATOM     85  C   UNL A   1      45.251  35.226  28.452  1.00  0.00     0.091 A 
ATOM     86  F   UNL A   1      44.342  33.586  26.976  1.00  0.00    -0.205 F 
ATOM     87  C   UNL A   1      45.814  35.541  29.699  1.00  0.00     0.022 A 
BRANCH  85  88
ATOM     88  S   UNL A   1      45.037  36.577  27.289  1.00  0.00     0.127 S 
ATOM     89  O   UNL A   1      45.295  37.742  28.135  1.00  0.00    -0.237 OA
ATOM     90  O   UNL A   1      46.078  36.300  26.299  1.00  0.00    -0.237 OA
ATOM     91  O   UNL A   1      43.675  36.466  26.784  1.00  0.00    -0.744 OA
ENDBRANCH  85  88
ENDBRANCH  58  81
ENDBRANCH  32  33
ENDBRANCH  24  27
ENDBRANCH  22  23
ENDBRANCH  21  22
ENDBRANCH   1  21
TORSDOF 18
ENDMDL
