MODEL 1
REMARK VINA RESULT:     -13.3      0.000      0.000
REMARK SMILES Cc1ccc(C(=O)N2CCC3(CCC(=O)N(CC(=O)NCCCNC(=O)c4ccc(-c5c6nc(c(-c7cccc(S(=O)(=O)[O-])c7F)c7ccc([nH]7)c(-c7cccc(S(=O)(=O)[O-])c7F)c7nc(c(-c8cccc(S(=O)(=O)[O-])c8F)c8ccc5[nH]8)C=C7)C=C6)cc4)C3)CC2)cc1O
REMARK SMILES IDX 22 1 21 2 20 3 18 4 19 5 17 7 16 8 6 9 7 10 8 11 9 12 92 13
REMARK SMILES IDX 10 14 91 15 11 16 12 17 90 18 13 19 14 20 15 21 5 22 1 23
REMARK SMILES IDX 2 24 3 25 94 26 4 27 93 28 95 29 23 31 24 32 25 33 26 35
REMARK SMILES IDX 27 36 28 37 89 38 29 39 88 40 30 41 31 42 32 43 82 44 33 45
REMARK SMILES IDX 87 46 81 47 83 48 34 49 86 50 80 51 79 52 35 54 67 55 47 56
REMARK SMILES IDX 66 57 48 58 51 59 65 60 84 61 49 62 50 63 64 65 85 66 52 67
REMARK SMILES IDX 36 68 37 69 45 70 38 71 40 72 46 73 39 74 41 75 42 76 43 77
REMARK SMILES IDX 44 78 68 79 69 80 77 81 70 82 72 83 78 84 71 85 73 86 74 87
REMARK SMILES IDX 75 88 76 89 53 90 54 91 62 92 55 93 57 94 63 95 56 96 58 97
REMARK SMILES IDX 59 98 60 99 61 100
REMARK H PARENT 20 6 95 30 24 34 83 53 51 64
REMARK Flexibility Score: inf
ROOT
ATOM      1  C   UNL A   1      31.393  31.782  26.922  1.00  0.00     0.042 C 
ENDROOT
BRANCH   1   2
ATOM      2  C   UNL A   1      31.443  30.866  25.710  1.00  0.00     0.117 C 
BRANCH   2   3
ATOM      3  N   UNL A   1      32.519  29.905  25.789  1.00  0.00    -0.354 N 
ATOM      4  C   UNL A   1      33.012  29.088  24.815  1.00  0.00     0.239 C 
ATOM      5  O   UNL A   1      34.098  28.542  25.035  1.00  0.00    -0.273 OA
ATOM      6  H   UNL A   1      32.956  29.830  26.667  1.00  0.00     0.163 HD
BRANCH   4   7
ATOM      7  C   UNL A   1      32.350  29.025  23.434  1.00  0.00     0.219 C 
BRANCH   7   8
ATOM      8  N   UNL A   1      31.435  27.915  23.147  1.00  0.00    -0.333 N 
ATOM      9  C   UNL A   1      32.540  22.694  26.689  1.00  0.00     0.253 C 
ATOM     10  O   UNL A   1      32.268  22.762  27.889  1.00  0.00    -0.269 OA
ATOM     11  N   UNL A   1      31.840  23.435  25.742  1.00  0.00    -0.339 N 
ATOM     12  C   UNL A   1      31.191  24.659  26.179  1.00  0.00     0.120 C 
ATOM     13  C   UNL A   1      31.502  23.006  24.385  1.00  0.00     0.120 C 
ATOM     14  C   UNL A   1      31.618  25.790  25.253  1.00  0.00     0.030 C 
ATOM     15  C   UNL A   1      31.822  24.106  23.363  1.00  0.00     0.030 C 
ATOM     16  C   UNL A   1      31.283  25.508  23.765  1.00  0.00    -0.008 C 
ATOM     17  C   UNL A   1      29.775  25.596  23.455  1.00  0.00     0.019 C 
ATOM     18  C   UNL A   1      31.957  26.578  22.892  1.00  0.00     0.127 C 
ATOM     19  C   UNL A   1      29.201  26.985  23.687  1.00  0.00     0.101 C 
ATOM     20  C   UNL A   1      30.079  28.159  23.287  1.00  0.00     0.223 C 
ATOM     21  O   UNL A   1      29.613  29.296  23.258  1.00  0.00    -0.275 OA
BRANCH   9  22
ATOM     22  C   UNL A   1      33.761  21.927  26.299  1.00  0.00     0.043 A 
ATOM     23  C   UNL A   1      37.329  20.130  24.628  1.00  0.00     0.048 C 
ATOM     24  C   UNL A   1      36.114  20.756  25.246  1.00  0.00    -0.009 A 
ATOM     25  C   UNL A   1      34.862  20.165  25.035  1.00  0.00     0.008 A 
ATOM     26  C   UNL A   1      36.169  21.938  25.993  1.00  0.00     0.119 A 
ATOM     27  C   UNL A   1      33.700  20.758  25.535  1.00  0.00     0.014 A 
ATOM     28  C   UNL A   1      35.013  22.513  26.524  1.00  0.00     0.060 A 
BRANCH  26  29
ATOM     29  O   UNL A   1      37.334  22.616  26.213  1.00  0.00    -0.508 OA
ATOM     30  H   UNL A   1      37.759  23.061  25.506  1.00  0.00     0.293 HD
ENDBRANCH  26  29
ENDBRANCH   9  22
ENDBRANCH   7   8
ENDBRANCH   4   7
ENDBRANCH   2   3
ENDBRANCH   1   2
BRANCH   1  31
ATOM     31  C   UNL A   1      32.715  32.477  27.227  1.00  0.00     0.118 C 
BRANCH  31  32
ATOM     32  N   UNL A   1      32.545  33.887  27.557  1.00  0.00    -0.352 N 
ATOM     33  C   UNL A   1      33.150  34.650  28.525  1.00  0.00     0.251 C 
ATOM     34  H   UNL A   1      31.895  34.369  26.997  1.00  0.00     0.163 HD
ATOM     35  O   UNL A   1      32.714  35.776  28.760  1.00  0.00    -0.269 OA
BRANCH  33  36
ATOM     36  C   UNL A   1      34.299  34.124  29.292  1.00  0.00     0.039 A 
ATOM     37  C   UNL A   1      34.057  33.265  30.368  1.00  0.00     0.014 A 
ATOM     38  C   UNL A   1      35.609  34.492  28.974  1.00  0.00     0.014 A 
ATOM     39  C   UNL A   1      35.130  32.727  31.081  1.00  0.00     0.010 A 
ATOM     40  C   UNL A   1      36.678  33.890  29.630  1.00  0.00     0.010 A 
ATOM     41  C   UNL A   1      36.451  33.007  30.696  1.00  0.00    -0.014 A 
BRANCH  41  42
ATOM     42  C   UNL A   1      37.608  32.380  31.385  1.00  0.00     0.031 A 
ATOM     43  C   UNL A   1      38.331  31.219  30.755  1.00  0.00     0.074 A 
ATOM     44  C   UNL A   1      37.952  32.800  32.618  1.00  0.00     0.049 A 
ATOM     45  N   UNL A   1      39.321  30.509  31.230  1.00  0.00    -0.248 NA
ATOM     46  C   UNL A   1      37.863  30.781  29.430  1.00  0.00     0.031 C 
ATOM     47  C   UNL A   1      37.281  33.866  33.366  1.00  0.00     0.029 A 
ATOM     48  N   UNL A   1      38.934  32.364  33.472  1.00  0.00    -0.354 N 
ATOM     49  C   UNL A   1      39.572  29.524  30.283  1.00  0.00     0.074 A 
ATOM     50  C   UNL A   1      38.604  29.703  29.223  1.00  0.00     0.031 C 
ATOM     51  C   UNL A   1      37.876  34.008  34.561  1.00  0.00     0.029 A 
ATOM     52  C   UNL A   1      38.946  33.022  34.680  1.00  0.00     0.049 A 
ATOM     53  H   UNL A   1      39.570  31.649  33.242  1.00  0.00     0.167 HD
ATOM     54  C   UNL A   1      40.539  28.575  30.279  1.00  0.00     0.034 A 
ATOM     55  C   UNL A   1      39.725  32.847  35.765  1.00  0.00     0.034 A 
ATOM     56  C   UNL A   1      41.520  28.422  31.320  1.00  0.00     0.049 A 
ATOM     57  C   UNL A   1      40.806  31.801  35.726  1.00  0.00     0.074 A 
ATOM     58  C   UNL A   1      42.589  27.545  31.372  1.00  0.00     0.029 A 
ATOM     59  N   UNL A   1      41.547  29.156  32.496  1.00  0.00    -0.354 N 
ATOM     60  N   UNL A   1      41.126  30.981  34.755  1.00  0.00    -0.248 NA
ATOM     61  C   UNL A   1      41.657  31.682  36.919  1.00  0.00     0.031 C 
ATOM     62  C   UNL A   1      43.246  27.731  32.594  1.00  0.00     0.029 A 
ATOM     63  C   UNL A   1      42.606  28.746  33.287  1.00  0.00     0.049 A 
ATOM     64  H   UNL A   1      40.906  29.865  32.734  1.00  0.00     0.167 HD
ATOM     65  C   UNL A   1      42.238  30.275  35.203  1.00  0.00     0.074 A 
ATOM     66  C   UNL A   1      42.546  30.779  36.526  1.00  0.00     0.031 C 
ATOM     67  C   UNL A   1      42.933  29.291  34.580  1.00  0.00     0.034 A 
BRANCH  54  68
ATOM     68  C   UNL A   1      40.612  27.658  29.084  1.00  0.00     0.023 A 
ATOM     69  C   UNL A   1      39.715  26.574  28.984  1.00  0.00     0.012 A 
ATOM     70  C   UNL A   1      41.532  27.890  28.043  1.00  0.00     0.148 A 
ATOM     71  C   UNL A   1      39.760  25.711  27.890  1.00  0.00     0.002 A 
ATOM     72  C   UNL A   1      41.538  27.053  26.932  1.00  0.00     0.091 A 
ATOM     73  F   UNL A   1      42.391  28.911  28.163  1.00  0.00    -0.205 F 
ATOM     74  C   UNL A   1      40.664  25.956  26.861  1.00  0.00     0.022 A 
BRANCH  72  75
ATOM     75  S   UNL A   1      42.608  27.332  25.516  1.00  0.00     0.127 S 
ATOM     76  O   UNL A   1      43.912  27.489  26.158  1.00  0.00    -0.237 OA
ATOM     77  O   UNL A   1      42.447  26.089  24.760  1.00  0.00    -0.237 OA
ATOM     78  O   UNL A   1      42.091  28.518  24.850  1.00  0.00    -0.744 OA
ENDBRANCH  72  75
ENDBRANCH  54  68
BRANCH  55  79
ATOM     79  C   UNL A   1      39.558  33.734  36.952  1.00  0.00     0.023 A 
ATOM     80  C   UNL A   1      39.992  35.071  36.880  1.00  0.00     0.012 A 
ATOM     81  C   UNL A   1      38.942  33.273  38.132  1.00  0.00     0.148 A 
ATOM     82  C   UNL A   1      39.848  35.927  37.973  1.00  0.00     0.002 A 
ATOM     83  C   UNL A   1      38.749  34.146  39.196  1.00  0.00     0.091 A 
ATOM     84  F   UNL A   1      38.542  31.995  38.183  1.00  0.00    -0.205 F 
ATOM     85  C   UNL A   1      39.219  35.467  39.127  1.00  0.00     0.022 A 
BRANCH  83  86
ATOM     86  S   UNL A   1      37.824  33.685  40.666  1.00  0.00     0.127 S 
ATOM     87  O   UNL A   1      38.713  32.706  41.285  1.00  0.00    -0.237 OA
ATOM     88  O   UNL A   1      37.725  34.963  41.373  1.00  0.00    -0.237 OA
ATOM     89  O   UNL A   1      36.550  33.168  40.186  1.00  0.00    -0.744 OA
ENDBRANCH  83  86
ENDBRANCH  55  79
BRANCH  67  90
ATOM     90  C   UNL A   1      44.124  28.715  35.300  1.00  0.00     0.023 A 
ATOM     91  C   UNL A   1      45.410  29.242  35.068  1.00  0.00     0.012 A 
ATOM     92  C   UNL A   1      43.957  27.696  36.259  1.00  0.00     0.148 A 
ATOM     93  C   UNL A   1      46.516  28.742  35.755  1.00  0.00     0.002 A 
ATOM     94  C   UNL A   1      45.055  27.239  36.978  1.00  0.00     0.091 A 
ATOM     95  F   UNL A   1      42.729  27.194  36.452  1.00  0.00    -0.205 F 
ATOM     96  C   UNL A   1      46.337  27.751  36.718  1.00  0.00     0.022 A 
BRANCH  94  97
ATOM     97  S   UNL A   1      44.906  26.035  38.303  1.00  0.00     0.127 S 
ATOM     98  O   UNL A   1      44.289  24.905  37.610  1.00  0.00    -0.237 OA
ATOM     99  O   UNL A   1      46.302  25.826  38.689  1.00  0.00    -0.237 OA
ATOM    100  O   UNL A   1      44.084  26.664  39.327  1.00  0.00    -0.744 OA
ENDBRANCH  94  97
ENDBRANCH  67  90
ENDBRANCH  41  42
ENDBRANCH  33  36
ENDBRANCH  31  32
ENDBRANCH   1  31
TORSDOF 16
ENDMDL
MODEL 2
REMARK VINA RESULT:     -13.2      3.206      8.326
REMARK SMILES Cc1ccc(C(=O)N2CCC3(CCC(=O)N(CC(=O)NCCCNC(=O)c4ccc(-c5c6nc(c(-c7cccc(S(=O)(=O)[O-])c7F)c7ccc([nH]7)c(-c7cccc(S(=O)(=O)[O-])c7F)c7nc(c(-c8cccc(S(=O)(=O)[O-])c8F)c8ccc5[nH]8)C=C7)C=C6)cc4)C3)CC2)cc1O
REMARK SMILES IDX 22 1 21 2 20 3 18 4 19 5 17 7 16 8 6 9 7 10 8 11 9 12 92 13
REMARK SMILES IDX 10 14 91 15 11 16 12 17 90 18 13 19 14 20 15 21 5 22 1 23
REMARK SMILES IDX 2 24 3 25 94 26 4 27 93 28 95 29 23 31 24 32 25 33 26 35
REMARK SMILES IDX 27 36 28 37 89 38 29 39 88 40 30 41 31 42 32 43 82 44 33 45
REMARK SMILES IDX 87 46 81 47 83 48 34 49 86 50 80 51 79 52 35 54 67 55 47 56
REMARK SMILES IDX 66 57 48 58 51 59 65 60 84 61 49 62 50 63 64 65 85 66 52 67
REMARK SMILES IDX 36 68 37 69 45 70 38 71 40 72 46 73 39 74 41 75 42 76 43 77
REMARK SMILES IDX 44 78 68 79 69 80 77 81 70 82 72 83 78 84 71 85 73 86 74 87
REMARK SMILES IDX 75 88 76 89 53 90 54 91 62 92 55 93 57 94 63 95 56 96 58 97
REMARK SMILES IDX 59 98 60 99 61 100
REMARK H PARENT 20 6 95 30 24 34 83 53 51 64
REMARK Flexibility Score: inf
ROOT
ATOM      1  C   UNL A   1      33.858  28.283  26.259  1.00  0.00     0.042 C 
ENDROOT
BRANCH   1   2
ATOM      2  C   UNL A   1      33.539  29.189  25.080  1.00  0.00     0.117 C 
BRANCH   2   3
ATOM      3  N   UNL A   1      34.115  28.710  23.846  1.00  0.00    -0.354 N 
ATOM      4  C   UNL A   1      33.518  28.529  22.634  1.00  0.00     0.239 C 
ATOM      5  O   UNL A   1      34.258  28.361  21.660  1.00  0.00    -0.273 OA
ATOM      6  H   UNL A   1      35.072  28.483  23.885  1.00  0.00     0.163 HD
BRANCH   4   7
ATOM      7  C   UNL A   1      32.008  28.739  22.464  1.00  0.00     0.219 C 
BRANCH   7   8
ATOM      8  N   UNL A   1      31.126  27.570  22.552  1.00  0.00    -0.333 N 
ATOM      9  C   UNL A   1      33.389  22.918  26.328  1.00  0.00     0.253 C 
ATOM     10  O   UNL A   1      33.410  23.139  27.540  1.00  0.00    -0.269 OA
ATOM     11  N   UNL A   1      32.434  23.500  25.499  1.00  0.00    -0.339 N 
ATOM     12  C   UNL A   1      31.831  24.750  25.929  1.00  0.00     0.120 C 
ATOM     13  C   UNL A   1      31.808  22.880  24.332  1.00  0.00     0.120 C 
ATOM     14  C   UNL A   1      31.949  25.759  24.793  1.00  0.00     0.030 C 
ATOM     15  C   UNL A   1      31.800  23.841  23.135  1.00  0.00     0.030 C 
ATOM     16  C   UNL A   1      31.284  25.266  23.481  1.00  0.00    -0.008 C 
ATOM     17  C   UNL A   1      29.743  25.262  23.546  1.00  0.00     0.019 C 
ATOM     18  C   UNL A   1      31.657  26.229  22.343  1.00  0.00     0.127 C 
ATOM     19  C   UNL A   1      29.153  26.650  23.738  1.00  0.00     0.101 C 
ATOM     20  C   UNL A   1      29.830  27.787  22.992  1.00  0.00     0.223 C 
ATOM     21  O   UNL A   1      29.298  28.894  22.939  1.00  0.00    -0.275 OA
BRANCH   9  22
ATOM     22  C   UNL A   1      34.527  22.145  25.747  1.00  0.00     0.043 A 
ATOM     23  C   UNL A   1      37.871  19.607  24.685  1.00  0.00     0.048 C 
ATOM     24  C   UNL A   1      36.691  20.471  25.017  1.00  0.00    -0.009 A 
ATOM     25  C   UNL A   1      36.904  21.811  25.360  1.00  0.00     0.008 A 
ATOM     26  C   UNL A   1      35.379  19.984  25.042  1.00  0.00     0.119 A 
ATOM     27  C   UNL A   1      35.838  22.629  25.743  1.00  0.00     0.014 A 
ATOM     28  C   UNL A   1      34.308  20.808  25.390  1.00  0.00     0.060 A 
BRANCH  26  29
ATOM     29  O   UNL A   1      35.072  18.680  24.772  1.00  0.00    -0.508 OA
ATOM     30  H   UNL A   1      34.472  18.473  24.083  1.00  0.00     0.293 HD
ENDBRANCH  26  29
ENDBRANCH   9  22
ENDBRANCH   7   8
ENDBRANCH   4   7
ENDBRANCH   2   3
ENDBRANCH   1   2
BRANCH   1  31
ATOM     31  C   UNL A   1      33.403  28.836  27.604  1.00  0.00     0.118 C 
BRANCH  31  32
ATOM     32  N   UNL A   1      33.548  30.284  27.695  1.00  0.00    -0.352 N 
ATOM     33  C   UNL A   1      34.572  31.042  28.207  1.00  0.00     0.251 C 
ATOM     34  H   UNL A   1      32.794  30.801  27.331  1.00  0.00     0.163 HD
ATOM     35  O   UNL A   1      34.405  32.251  28.364  1.00  0.00    -0.269 OA
BRANCH  33  36
ATOM     36  C   UNL A   1      35.858  30.417  28.585  1.00  0.00     0.039 A 
ATOM     37  C   UNL A   1      36.935  30.497  27.699  1.00  0.00     0.014 A 
ATOM     38  C   UNL A   1      35.999  29.732  29.795  1.00  0.00     0.014 A 
ATOM     39  C   UNL A   1      38.168  29.947  28.054  1.00  0.00     0.010 A 
ATOM     40  C   UNL A   1      37.249  29.259  30.183  1.00  0.00     0.010 A 
ATOM     41  C   UNL A   1      38.345  29.354  29.314  1.00  0.00    -0.014 A 
BRANCH  41  42
ATOM     42  C   UNL A   1      39.669  28.838  29.747  1.00  0.00     0.031 A 
ATOM     43  C   UNL A   1      40.440  29.537  30.835  1.00  0.00     0.074 A 
ATOM     44  C   UNL A   1      40.216  27.790  29.101  1.00  0.00     0.049 A 
ATOM     45  N   UNL A   1      41.630  29.269  31.305  1.00  0.00    -0.248 NA
ATOM     46  C   UNL A   1      39.801  30.709  31.458  1.00  0.00     0.031 C 
ATOM     47  C   UNL A   1      39.600  27.073  27.981  1.00  0.00     0.029 A 
ATOM     48  N   UNL A   1      41.423  27.161  29.274  1.00  0.00    -0.354 N 
ATOM     49  C   UNL A   1      41.897  30.252  32.250  1.00  0.00     0.074 A 
ATOM     50  C   UNL A   1      40.761  31.147  32.259  1.00  0.00     0.031 C 
ATOM     51  C   UNL A   1      40.429  26.098  27.574  1.00  0.00     0.029 A 
ATOM     52  C   UNL A   1      41.647  26.141  28.377  1.00  0.00     0.049 A 
ATOM     53  H   UNL A   1      42.068  27.415  29.972  1.00  0.00     0.167 HD
ATOM     54  C   UNL A   1      42.975  30.383  33.060  1.00  0.00     0.034 A 
ATOM     55  C   UNL A   1      42.714  25.336  28.215  1.00  0.00     0.034 A 
ATOM     56  C   UNL A   1      44.088  29.472  33.070  1.00  0.00     0.049 A 
ATOM     57  C   UNL A   1      43.890  25.487  29.142  1.00  0.00     0.074 A 
ATOM     58  C   UNL A   1      45.191  29.470  33.906  1.00  0.00     0.029 A 
ATOM     59  N   UNL A   1      44.247  28.406  32.198  1.00  0.00    -0.354 N 
ATOM     60  N   UNL A   1      44.056  26.329  30.134  1.00  0.00    -0.248 NA
ATOM     61  C   UNL A   1      45.010  24.555  28.951  1.00  0.00     0.031 C 
ATOM     62  C   UNL A   1      46.029  28.418  33.520  1.00  0.00     0.029 A 
ATOM     63  C   UNL A   1      45.433  27.746  32.466  1.00  0.00     0.049 A 
ATOM     64  H   UNL A   1      43.608  28.155  31.491  1.00  0.00     0.167 HD
ATOM     65  C   UNL A   1      45.279  26.003  30.710  1.00  0.00     0.074 A 
ATOM     66  C   UNL A   1      45.803  24.875  29.966  1.00  0.00     0.031 C 
ATOM     67  C   UNL A   1      45.917  26.592  31.751  1.00  0.00     0.034 A 
BRANCH  54  68
ATOM     68  C   UNL A   1      42.978  31.531  34.038  1.00  0.00     0.023 A 
ATOM     69  C   UNL A   1      43.579  32.753  33.674  1.00  0.00     0.012 A 
ATOM     70  C   UNL A   1      42.353  31.418  35.295  1.00  0.00     0.148 A 
ATOM     71  C   UNL A   1      43.596  33.831  34.559  1.00  0.00     0.002 A 
ATOM     72  C   UNL A   1      42.331  32.512  36.153  1.00  0.00     0.091 A 
ATOM     73  F   UNL A   1      41.804  30.243  35.635  1.00  0.00    -0.205 F 
ATOM     74  C   UNL A   1      42.964  33.713  35.793  1.00  0.00     0.022 A 
BRANCH  72  75
ATOM     75  S   UNL A   1      41.472  32.489  37.731  1.00  0.00     0.127 S 
ATOM     76  O   UNL A   1      42.281  31.538  38.493  1.00  0.00    -0.237 OA
ATOM     77  O   UNL A   1      41.594  33.880  38.168  1.00  0.00    -0.237 OA
ATOM     78  O   UNL A   1      40.112  32.061  37.441  1.00  0.00    -0.744 OA
ENDBRANCH  72  75
ENDBRANCH  54  68
BRANCH  55  79
ATOM     79  C   UNL A   1      42.689  24.266  27.178  1.00  0.00     0.023 A 
ATOM     80  C   UNL A   1      43.304  24.497  25.933  1.00  0.00     0.012 A 
ATOM     81  C   UNL A   1      42.093  23.013  27.428  1.00  0.00     0.148 A 
ATOM     82  C   UNL A   1      43.299  23.515  24.942  1.00  0.00     0.002 A 
ATOM     83  C   UNL A   1      42.143  22.019  26.459  1.00  0.00     0.091 A 
ATOM     84  F   UNL A   1      41.507  22.815  28.617  1.00  0.00    -0.205 F 
ATOM     85  C   UNL A   1      42.727  22.274  25.208  1.00  0.00     0.022 A 
BRANCH  83  86
ATOM     86  S   UNL A   1      41.560  20.347  26.761  1.00  0.00     0.127 S 
ATOM     87  O   UNL A   1      40.147  20.570  27.055  1.00  0.00    -0.237 OA
ATOM     88  O   UNL A   1      41.829  19.697  25.478  1.00  0.00    -0.237 OA
ATOM     89  O   UNL A   1      42.363  19.842  27.866  1.00  0.00    -0.744 OA
ENDBRANCH  83  86
ENDBRANCH  55  79
BRANCH  67  90
ATOM     90  C   UNL A   1      47.237  26.008  32.183  1.00  0.00     0.023 A 
ATOM     91  C   UNL A   1      48.431  26.432  31.566  1.00  0.00     0.012 A 
ATOM     92  C   UNL A   1      47.299  25.091  33.250  1.00  0.00     0.148 A 
ATOM     93  C   UNL A   1      49.662  25.926  31.982  1.00  0.00     0.002 A 
ATOM     94  C   UNL A   1      48.533  24.631  33.695  1.00  0.00     0.091 A 
ATOM     95  F   UNL A   1      46.151  24.685  33.812  1.00  0.00    -0.205 F 
ATOM     96  C   UNL A   1      49.714  25.037  33.053  1.00  0.00     0.022 A 
BRANCH  94  97
ATOM     97  S   UNL A   1      48.704  23.561  35.127  1.00  0.00     0.127 S 
ATOM     98  O   UNL A   1      48.017  22.351  34.678  1.00  0.00    -0.237 OA
ATOM     99  O   UNL A   1      50.157  23.429  35.243  1.00  0.00    -0.237 OA
ATOM    100  O   UNL A   1      48.071  24.265  36.233  1.00  0.00    -0.744 OA
ENDBRANCH  94  97
ENDBRANCH  67  90
ENDBRANCH  41  42
ENDBRANCH  33  36
ENDBRANCH  31  32
ENDBRANCH   1  31
TORSDOF 16
ENDMDL
MODEL 3
REMARK VINA RESULT:     -13.0      6.018     11.582
REMARK SMILES Cc1ccc(C(=O)N2CCC3(CCC(=O)N(CC(=O)NCCCNC(=O)c4ccc(-c5c6nc(c(-c7cccc(S(=O)(=O)[O-])c7F)c7ccc([nH]7)c(-c7cccc(S(=O)(=O)[O-])c7F)c7nc(c(-c8cccc(S(=O)(=O)[O-])c8F)c8ccc5[nH]8)C=C7)C=C6)cc4)C3)CC2)cc1O
REMARK SMILES IDX 22 1 21 2 20 3 18 4 19 5 17 7 16 8 6 9 7 10 8 11 9 12 92 13
REMARK SMILES IDX 10 14 91 15 11 16 12 17 90 18 13 19 14 20 15 21 5 22 1 23
REMARK SMILES IDX 2 24 3 25 94 26 4 27 93 28 95 29 23 31 24 32 25 33 26 35
REMARK SMILES IDX 27 36 28 37 89 38 29 39 88 40 30 41 31 42 32 43 82 44 33 45
REMARK SMILES IDX 87 46 81 47 83 48 34 49 86 50 80 51 79 52 35 54 67 55 47 56
REMARK SMILES IDX 66 57 48 58 51 59 65 60 84 61 49 62 50 63 64 65 85 66 52 67
REMARK SMILES IDX 36 68 37 69 45 70 38 71 40 72 46 73 39 74 41 75 42 76 43 77
REMARK SMILES IDX 44 78 68 79 69 80 77 81 70 82 72 83 78 84 71 85 73 86 74 87
REMARK SMILES IDX 75 88 76 89 53 90 54 91 62 92 55 93 57 94 63 95 56 96 58 97
REMARK SMILES IDX 59 98 60 99 61 100
REMARK H PARENT 20 6 95 30 24 34 83 53 51 64
REMARK Flexibility Score: inf
ROOT
ATOM      1  C   UNL A   1      37.814  19.989  24.631  1.00  0.00     0.042 C 
ENDROOT
BRANCH   1   2
ATOM      2  C   UNL A   1      36.348  20.144  25.002  1.00  0.00     0.117 C 
BRANCH   2   3
ATOM      3  N   UNL A   1      36.077  21.395  25.671  1.00  0.00    -0.354 N 
ATOM      4  C   UNL A   1      34.954  21.786  26.336  1.00  0.00     0.239 C 
ATOM      5  O   UNL A   1      35.042  22.791  27.049  1.00  0.00    -0.273 OA
ATOM      6  H   UNL A   1      36.805  22.057  25.642  1.00  0.00     0.163 HD
BRANCH   4   7
ATOM      7  C   UNL A   1      33.706  20.896  26.361  1.00  0.00     0.219 C 
BRANCH   7   8
ATOM      8  N   UNL A   1      32.686  21.093  25.326  1.00  0.00    -0.333 N 
ATOM      9  C   UNL A   1      33.082  26.764  22.375  1.00  0.00     0.253 C 
ATOM     10  O   UNL A   1      34.044  26.941  21.625  1.00  0.00    -0.269 OA
ATOM     11  N   UNL A   1      32.542  25.498  22.579  1.00  0.00    -0.339 N 
ATOM     12  C   UNL A   1      33.406  24.348  22.369  1.00  0.00     0.120 C 
ATOM     13  C   UNL A   1      31.128  25.181  22.778  1.00  0.00     0.120 C 
ATOM     14  C   UNL A   1      33.335  23.459  23.604  1.00  0.00     0.030 C 
ATOM     15  C   UNL A   1      30.939  24.222  23.961  1.00  0.00     0.030 C 
ATOM     16  C   UNL A   1      31.891  22.993  23.926  1.00  0.00    -0.008 C 
ATOM     17  C   UNL A   1      31.355  21.945  22.931  1.00  0.00     0.019 C 
ATOM     18  C   UNL A   1      31.885  22.311  25.304  1.00  0.00     0.127 C 
ATOM     19  C   UNL A   1      32.152  20.650  22.946  1.00  0.00     0.101 C 
ATOM     20  C   UNL A   1      32.634  20.162  24.301  1.00  0.00     0.223 C 
ATOM     21  O   UNL A   1      33.109  19.034  24.419  1.00  0.00    -0.275 OA
BRANCH   9  22
ATOM     22  C   UNL A   1      32.623  27.925  23.196  1.00  0.00     0.043 A 
ATOM     23  C   UNL A   1      31.217  30.828  26.086  1.00  0.00     0.048 C 
ATOM     24  C   UNL A   1      31.740  29.849  25.076  1.00  0.00    -0.009 A 
ATOM     25  C   UNL A   1      30.860  29.319  24.124  1.00  0.00     0.008 A 
ATOM     26  C   UNL A   1      33.066  29.402  25.070  1.00  0.00     0.119 A 
ATOM     27  C   UNL A   1      31.292  28.352  23.213  1.00  0.00     0.014 A 
ATOM     28  C   UNL A   1      33.509  28.463  24.138  1.00  0.00     0.060 A 
BRANCH  26  29
ATOM     29  O   UNL A   1      33.988  29.821  25.988  1.00  0.00    -0.508 OA
ATOM     30  H   UNL A   1      34.549  29.198  26.406  1.00  0.00     0.293 HD
ENDBRANCH  26  29
ENDBRANCH   9  22
ENDBRANCH   7   8
ENDBRANCH   4   7
ENDBRANCH   2   3
ENDBRANCH   1   2
BRANCH   1  31
ATOM     31  C   UNL A   1      38.778  20.384  25.743  1.00  0.00     0.118 C 
BRANCH  31  32
ATOM     32  N   UNL A   1      39.828  19.394  25.955  1.00  0.00    -0.352 N 
ATOM     33  C   UNL A   1      41.172  19.561  26.176  1.00  0.00     0.251 C 
ATOM     34  H   UNL A   1      39.525  18.458  25.937  1.00  0.00     0.163 HD
ATOM     35  O   UNL A   1      41.914  18.580  26.132  1.00  0.00    -0.269 OA
BRANCH  33  36
ATOM     36  C   UNL A   1      41.732  20.902  26.446  1.00  0.00     0.039 A 
ATOM     37  C   UNL A   1      41.935  21.778  25.376  1.00  0.00     0.014 A 
ATOM     38  C   UNL A   1      42.081  21.291  27.742  1.00  0.00     0.014 A 
ATOM     39  C   UNL A   1      42.426  23.063  25.614  1.00  0.00     0.010 A 
ATOM     40  C   UNL A   1      42.490  22.599  27.988  1.00  0.00     0.010 A 
ATOM     41  C   UNL A   1      42.675  23.497  26.927  1.00  0.00    -0.014 A 
BRANCH  41  42
ATOM     42  C   UNL A   1      43.117  24.885  27.212  1.00  0.00     0.031 A 
ATOM     43  C   UNL A   1      42.192  25.852  27.902  1.00  0.00     0.074 A 
ATOM     44  C   UNL A   1      44.321  25.302  26.772  1.00  0.00     0.049 A 
ATOM     45  N   UNL A   1      42.379  27.115  28.183  1.00  0.00    -0.248 NA
ATOM     46  C   UNL A   1      40.871  25.340  28.305  1.00  0.00     0.031 C 
ATOM     47  C   UNL A   1      45.278  24.481  26.026  1.00  0.00     0.029 A 
ATOM     48  N   UNL A   1      44.934  26.525  26.864  1.00  0.00    -0.354 N 
ATOM     49  C   UNL A   1      41.196  27.557  28.762  1.00  0.00     0.074 A 
ATOM     50  C   UNL A   1      40.281  26.437  28.756  1.00  0.00     0.031 C 
ATOM     51  C   UNL A   1      46.361  25.221  25.738  1.00  0.00     0.029 A 
ATOM     52  C   UNL A   1      46.162  26.575  26.245  1.00  0.00     0.049 A 
ATOM     53  H   UNL A   1      44.535  27.295  27.330  1.00  0.00     0.167 HD
ATOM     54  C   UNL A   1      40.905  28.774  29.279  1.00  0.00     0.034 A 
ATOM     55  C   UNL A   1      47.027  27.596  26.095  1.00  0.00     0.034 A 
ATOM     56  C   UNL A   1      41.829  29.876  29.311  1.00  0.00     0.049 A 
ATOM     57  C   UNL A   1      46.690  28.933  26.699  1.00  0.00     0.074 A 
ATOM     58  C   UNL A   1      41.660  31.124  29.884  1.00  0.00     0.029 A 
ATOM     59  N   UNL A   1      43.092  29.867  28.740  1.00  0.00    -0.354 N 
ATOM     60  N   UNL A   1      45.627  29.286  27.379  1.00  0.00    -0.248 NA
ATOM     61  C   UNL A   1      47.688  30.001  26.545  1.00  0.00     0.031 C 
ATOM     62  C   UNL A   1      42.812  31.879  29.634  1.00  0.00     0.029 A 
ATOM     63  C   UNL A   1      43.710  31.089  28.934  1.00  0.00     0.049 A 
ATOM     64  H   UNL A   1      43.491  29.102  28.264  1.00  0.00     0.167 HD
ATOM     65  C   UNL A   1      45.844  30.603  27.768  1.00  0.00     0.074 A 
ATOM     66  C   UNL A   1      47.149  30.978  27.263  1.00  0.00     0.031 C 
ATOM     67  C   UNL A   1      45.031  31.432  28.470  1.00  0.00     0.034 A 
BRANCH  54  68
ATOM     68  C   UNL A   1      39.543  28.962  29.898  1.00  0.00     0.023 A 
ATOM     69  C   UNL A   1      39.291  28.459  31.191  1.00  0.00     0.012 A 
ATOM     70  C   UNL A   1      38.529  29.671  29.225  1.00  0.00     0.148 A 
ATOM     71  C   UNL A   1      38.041  28.620  31.787  1.00  0.00     0.002 A 
ATOM     72  C   UNL A   1      37.299  29.869  29.845  1.00  0.00     0.091 A 
ATOM     73  F   UNL A   1      38.777  30.125  27.988  1.00  0.00    -0.205 F 
ATOM     74  C   UNL A   1      37.050  29.332  31.119  1.00  0.00     0.022 A 
BRANCH  72  75
ATOM     75  S   UNL A   1      35.985  30.843  29.103  1.00  0.00     0.127 S 
ATOM     76  O   UNL A   1      36.741  31.742  28.231  1.00  0.00    -0.237 OA
ATOM     77  O   UNL A   1      35.208  29.823  28.398  1.00  0.00    -0.237 OA
ATOM     78  O   UNL A   1      35.287  31.483  30.208  1.00  0.00    -0.744 OA
ENDBRANCH  72  75
ENDBRANCH  54  68
BRANCH  55  79
ATOM     79  C   UNL A   1      48.330  27.373  25.405  1.00  0.00     0.023 A 
ATOM     80  C   UNL A   1      49.450  26.972  26.158  1.00  0.00     0.012 A 
ATOM     81  C   UNL A   1      48.457  27.520  24.010  1.00  0.00     0.148 A 
ATOM     82  C   UNL A   1      50.682  26.754  25.541  1.00  0.00     0.002 A 
ATOM     83  C   UNL A   1      49.672  27.244  23.394  1.00  0.00     0.091 A 
ATOM     84  F   UNL A   1      47.381  27.909  23.311  1.00  0.00    -0.205 F 
ATOM     85  C   UNL A   1      50.790  26.880  24.159  1.00  0.00     0.022 A 
BRANCH  83  86
ATOM     86  S   UNL A   1      49.870  27.243  21.608  1.00  0.00     0.127 S 
ATOM     87  O   UNL A   1      48.816  26.323  21.189  1.00  0.00    -0.237 OA
ATOM     88  O   UNL A   1      49.630  28.649  21.277  1.00  0.00    -0.237 OA
ATOM     89  O   UNL A   1      51.234  26.797  21.362  1.00  0.00    -0.744 OA
ENDBRANCH  83  86
ENDBRANCH  55  79
BRANCH  67  90
ATOM     90  C   UNL A   1      45.539  32.818  28.773  1.00  0.00     0.023 A 
ATOM     91  C   UNL A   1      46.309  33.048  29.931  1.00  0.00     0.012 A 
ATOM     92  C   UNL A   1      45.314  33.876  27.871  1.00  0.00     0.148 A 
ATOM     93  C   UNL A   1      46.816  34.318  30.203  1.00  0.00     0.002 A 
ATOM     94  C   UNL A   1      45.866  35.126  28.122  1.00  0.00     0.091 A 
ATOM     95  F   UNL A   1      44.564  33.641  26.785  1.00  0.00    -0.205 F 
ATOM     96  C   UNL A   1      46.606  35.352  29.294  1.00  0.00     0.022 A 
BRANCH  94  97
ATOM     97  S   UNL A   1      45.730  36.491  26.961  1.00  0.00     0.127 S 
ATOM     98  O   UNL A   1      46.342  35.922  25.761  1.00  0.00    -0.237 OA
ATOM     99  O   UNL A   1      44.281  36.681  26.876  1.00  0.00    -0.237 OA
ATOM    100  O   UNL A   1      46.451  37.603  27.562  1.00  0.00    -0.744 OA
ENDBRANCH  94  97
ENDBRANCH  67  90
ENDBRANCH  41  42
ENDBRANCH  33  36
ENDBRANCH  31  32
ENDBRANCH   1  31
TORSDOF 16
ENDMDL
