MODEL 1
REMARK VINA RESULT:     -12.4      0.000      0.000
REMARK SMILES Cc1ccc(N2C(=O)[NH+]=C(NCCCNC(=O)c3ccc(-c4c5nc(c(-c6cccc(S(=O)(=O)[O-])c6F)c6ccc([nH]6)c(-c6cccc(S(=O)(=O)[O-])c6F)c6nc(c(-c7cccc(S(=O)(=O)[O-])c7F)c7ccc4[nH]7)C=C6)C=C5)cc3)/C(=C\c3ccccc3OCc3cccc(C(=O)[O-])c3)C2=O)cc1
REMARK SMILES IDX 12 1 11 2 6 3 7 4 100 5 8 6 9 7 81 8 101 9 10 10 82 12 5 14
REMARK SMILES IDX 1 15 2 16 3 17 103 18 4 19 102 20 83 21 84 22 88 23 85 24
REMARK SMILES IDX 87 25 86 26 89 27 90 28 91 29 92 30 99 31 93 32 95 33 94 34
REMARK SMILES IDX 96 35 97 36 98 37 13 38 14 39 15 40 16 41 17 43 18 44 19 45
REMARK SMILES IDX 80 46 20 47 79 48 21 49 22 50 23 51 73 52 24 53 78 54 72 55
REMARK SMILES IDX 74 56 25 57 77 58 71 59 70 60 26 62 58 63 38 64 57 65 39 66
REMARK SMILES IDX 42 67 56 68 75 69 40 70 41 71 55 73 76 74 43 75 27 76 28 77
REMARK SMILES IDX 36 78 29 79 31 80 37 81 30 82 32 83 33 84 34 85 35 86 59 87
REMARK SMILES IDX 60 88 68 89 61 90 63 91 69 92 62 93 64 94 65 95 66 96 67 97
REMARK SMILES IDX 44 98 45 99 53 100 46 101 48 102 54 103 47 104 49 105 50 106
REMARK SMILES IDX 51 107 52 108
REMARK H PARENT 9 11 11 13 15 42 74 61 42 72
REMARK Flexibility Score: inf
ROOT
ATOM      1  C   UNL A   1      42.751  28.204  27.527  1.00  0.00     0.195 C 
ENDROOT
BRANCH   1   2
ATOM      2  N   UNL A   1      43.116  27.100  26.632  1.00  0.00    -0.305 N 
ATOM      3  N   UNL A   1      46.801  27.137  24.701  1.00  0.00    -0.155 N 
ATOM      4  C   UNL A   1      46.129  28.290  25.134  1.00  0.00     0.448 C 
ATOM      5  C   UNL A   1      46.263  25.864  24.822  1.00  0.00     0.328 C 
ATOM      6  O   UNL A   1      46.607  29.417  25.008  1.00  0.00    -0.212 OA
ATOM      7  N   UNL A   1      44.881  28.186  25.675  1.00  0.00    -0.209 N 
ATOM      8  C   UNL A   1      45.120  25.796  25.755  1.00  0.00     0.129 C 
ATOM      9  O   UNL A   1      46.734  24.827  24.352  1.00  0.00    -0.249 OA
ATOM     10  C   UNL A   1      44.356  27.050  26.018  1.00  0.00     0.236 C 
ATOM     11  H   UNL A   1      44.357  29.008  25.811  1.00  0.00     0.270 HD
ATOM     12  C   UNL A   1      45.081  24.650  26.462  1.00  0.00     0.034 C 
ATOM     13  H   UNL A   1      42.466  26.380  26.464  1.00  0.00     0.256 HD
BRANCH   3  14
ATOM     14  C   UNL A   1      48.113  27.267  24.143  1.00  0.00     0.111 A 
ATOM     15  C   UNL A   1      52.075  27.602  22.474  1.00  0.00     0.044 C 
ATOM     16  C   UNL A   1      50.699  27.476  23.046  1.00  0.00    -0.051 A 
ATOM     17  C   UNL A   1      50.529  27.176  24.400  1.00  0.00     0.007 A 
ATOM     18  C   UNL A   1      49.572  27.643  22.237  1.00  0.00     0.007 A 
ATOM     19  C   UNL A   1      49.249  27.082  24.944  1.00  0.00     0.044 A 
ATOM     20  C   UNL A   1      48.293  27.536  22.780  1.00  0.00     0.044 A 
ENDBRANCH   3  14
BRANCH  12  21
ATOM     21  C   UNL A   1      44.206  24.394  27.592  1.00  0.00     0.018 A 
ATOM     22  C   UNL A   1      44.785  24.712  28.817  1.00  0.00     0.012 A 
ATOM     23  C   UNL A   1      42.986  23.699  27.541  1.00  0.00     0.127 A 
ATOM     24  C   UNL A   1      44.247  24.176  29.965  1.00  0.00     0.001 A 
ATOM     25  C   UNL A   1      42.435  23.202  28.715  1.00  0.00     0.047 A 
ATOM     26  C   UNL A   1      43.091  23.403  29.913  1.00  0.00     0.004 A 
BRANCH  23  27
ATOM     27  O   UNL A   1      42.346  23.230  26.436  1.00  0.00    -0.488 OA
BRANCH  27  28
ATOM     28  C   UNL A   1      41.635  22.007  26.503  1.00  0.00     0.265 C 
BRANCH  28  29
ATOM     29  C   UNL A   1      42.575  20.918  26.042  1.00  0.00    -0.010 A 
ATOM     30  C   UNL A   1      42.150  19.584  26.042  1.00  0.00     0.007 A 
ATOM     31  C   UNL A   1      43.887  21.217  25.638  1.00  0.00     0.017 A 
ATOM     32  C   UNL A   1      43.017  18.567  25.646  1.00  0.00     0.001 A 
ATOM     33  C   UNL A   1      44.767  20.199  25.263  1.00  0.00    -0.002 A 
ATOM     34  C   UNL A   1      44.326  18.871  25.267  1.00  0.00     0.010 A 
BRANCH  33  35
ATOM     35  C   UNL A   1      46.171  20.495  24.908  1.00  0.00     0.071 C 
ATOM     36  O   UNL A   1      46.584  21.559  24.457  1.00  0.00    -0.545 OA
ATOM     37  O   UNL A   1      46.992  19.454  25.111  1.00  0.00    -0.545 OA
ENDBRANCH  33  35
ENDBRANCH  28  29
ENDBRANCH  27  28
ENDBRANCH  23  27
ENDBRANCH  12  21
ENDBRANCH   1   2
BRANCH   1  38
ATOM     38  C   UNL A   1      41.503  27.904  28.343  1.00  0.00     0.059 C 
BRANCH  38  39
ATOM     39  C   UNL A   1      40.687  29.140  28.665  1.00  0.00     0.119 C 
BRANCH  39  40
ATOM     40  N   UNL A   1      39.327  29.129  28.161  1.00  0.00    -0.352 N 
ATOM     41  C   UNL A   1      38.168  29.608  28.744  1.00  0.00     0.251 C 
ATOM     42  H   UNL A   1      39.212  28.718  27.274  1.00  0.00     0.163 HD
ATOM     43  O   UNL A   1      37.102  29.271  28.231  1.00  0.00    -0.269 OA
BRANCH  41  44
ATOM     44  C   UNL A   1      38.196  30.633  29.829  1.00  0.00     0.039 A 
ATOM     45  C   UNL A   1      38.024  31.975  29.457  1.00  0.00     0.014 A 
ATOM     46  C   UNL A   1      38.649  30.355  31.112  1.00  0.00     0.014 A 
ATOM     47  C   UNL A   1      38.594  32.991  30.220  1.00  0.00     0.010 A 
ATOM     48  C   UNL A   1      39.303  31.336  31.813  1.00  0.00     0.010 A 
ATOM     49  C   UNL A   1      39.360  32.638  31.310  1.00  0.00    -0.014 A 
BRANCH  49  50
ATOM     50  C   UNL A   1      40.220  33.524  32.072  1.00  0.00     0.031 A 
ATOM     51  C   UNL A   1      39.652  34.117  33.285  1.00  0.00     0.074 A 
ATOM     52  C   UNL A   1      41.558  33.425  31.898  1.00  0.00     0.049 A 
ATOM     53  N   UNL A   1      40.325  34.843  34.092  1.00  0.00    -0.248 NA
ATOM     54  C   UNL A   1      38.271  33.905  33.700  1.00  0.00     0.031 C 
ATOM     55  C   UNL A   1      42.618  33.598  32.891  1.00  0.00     0.029 A 
ATOM     56  N   UNL A   1      42.262  33.133  30.737  1.00  0.00    -0.354 N 
ATOM     57  C   UNL A   1      39.580  35.003  35.233  1.00  0.00     0.074 A 
ATOM     58  C   UNL A   1      38.287  34.447  34.921  1.00  0.00     0.031 C 
ATOM     59  C   UNL A   1      43.811  33.616  32.272  1.00  0.00     0.029 A 
ATOM     60  C   UNL A   1      43.538  33.699  30.850  1.00  0.00     0.049 A 
ATOM     61  H   UNL A   1      41.923  32.618  29.969  1.00  0.00     0.167 HD
ATOM     62  C   UNL A   1      40.217  35.489  36.331  1.00  0.00     0.034 A 
ATOM     63  C   UNL A   1      43.955  34.694  30.008  1.00  0.00     0.034 A 
ATOM     64  C   UNL A   1      41.620  35.817  36.003  1.00  0.00     0.049 A 
ATOM     65  C   UNL A   1      44.098  36.012  30.766  1.00  0.00     0.074 A 
ATOM     66  C   UNL A   1      42.841  35.180  36.158  1.00  0.00     0.029 A 
ATOM     67  N   UNL A   1      41.846  36.831  35.092  1.00  0.00    -0.354 N 
ATOM     68  N   UNL A   1      43.938  36.139  32.057  1.00  0.00    -0.248 NA
ATOM     69  C   UNL A   1      44.363  37.300  30.129  1.00  0.00     0.031 C 
ATOM     70  C   UNL A   1      43.789  35.825  35.298  1.00  0.00     0.029 A 
ATOM     71  C   UNL A   1      43.153  36.868  34.644  1.00  0.00     0.049 A 
ATOM     72  H   UNL A   1      41.150  37.459  34.793  1.00  0.00     0.167 HD
ATOM     73  C   UNL A   1      43.876  37.457  32.401  1.00  0.00     0.074 A 
ATOM     74  C   UNL A   1      44.196  38.150  31.160  1.00  0.00     0.031 C 
ATOM     75  C   UNL A   1      43.515  37.883  33.654  1.00  0.00     0.034 A 
BRANCH  62  76
ATOM     76  C   UNL A   1      39.670  35.526  37.740  1.00  0.00     0.023 A 
ATOM     77  C   UNL A   1      39.726  36.777  38.395  1.00  0.00     0.012 A 
ATOM     78  C   UNL A   1      39.114  34.458  38.486  1.00  0.00     0.148 A 
ATOM     79  C   UNL A   1      39.315  36.955  39.717  1.00  0.00     0.002 A 
ATOM     80  C   UNL A   1      38.740  34.625  39.825  1.00  0.00     0.091 A 
ATOM     81  F   UNL A   1      38.884  33.281  37.902  1.00  0.00    -0.205 F 
ATOM     82  C   UNL A   1      38.839  35.875  40.440  1.00  0.00     0.022 A 
BRANCH  80  83
ATOM     83  S   UNL A   1      38.160  33.269  40.863  1.00  0.00     0.127 S 
ATOM     84  O   UNL A   1      37.914  33.949  42.137  1.00  0.00    -0.237 OA
ATOM     85  O   UNL A   1      36.952  32.833  40.168  1.00  0.00    -0.237 OA
ATOM     86  O   UNL A   1      39.243  32.294  40.909  1.00  0.00    -0.744 OA
ENDBRANCH  80  83
ENDBRANCH  62  76
BRANCH  63  87
ATOM     87  C   UNL A   1      43.388  34.498  28.626  1.00  0.00     0.023 A 
ATOM     88  C   UNL A   1      42.409  35.449  28.232  1.00  0.00     0.012 A 
ATOM     89  C   UNL A   1      44.152  33.868  27.627  1.00  0.00     0.148 A 
ATOM     90  C   UNL A   1      42.385  35.944  26.924  1.00  0.00     0.002 A 
ATOM     91  C   UNL A   1      44.093  34.345  26.317  1.00  0.00     0.091 A 
ATOM     92  F   UNL A   1      45.016  32.910  27.985  1.00  0.00    -0.205 F 
ATOM     93  C   UNL A   1      43.268  35.431  25.980  1.00  0.00     0.022 A 
BRANCH  91  94
ATOM     94  S   UNL A   1      45.183  33.672  25.054  1.00  0.00     0.127 S 
ATOM     95  O   UNL A   1      44.655  34.300  23.849  1.00  0.00    -0.237 OA
ATOM     96  O   UNL A   1      46.500  34.153  25.471  1.00  0.00    -0.237 OA
ATOM     97  O   UNL A   1      45.014  32.231  25.168  1.00  0.00    -0.744 OA
ENDBRANCH  91  94
ENDBRANCH  63  87
BRANCH  75  98
ATOM     98  C   UNL A   1      43.471  39.348  34.043  1.00  0.00     0.023 A 
ATOM     99  C   UNL A   1      42.669  40.247  33.317  1.00  0.00     0.012 A 
ATOM    100  C   UNL A   1      44.310  39.903  35.042  1.00  0.00     0.148 A 
ATOM    101  C   UNL A   1      42.629  41.608  33.629  1.00  0.00     0.002 A 
ATOM    102  C   UNL A   1      44.357  41.271  35.267  1.00  0.00     0.091 A 
ATOM    103  F   UNL A   1      45.037  39.107  35.833  1.00  0.00    -0.205 F 
ATOM    104  C   UNL A   1      43.484  42.125  34.594  1.00  0.00     0.022 A 
BRANCH 102 105
ATOM    105  S   UNL A   1      45.596  42.026  36.332  1.00  0.00     0.127 S 
ATOM    106  O   UNL A   1      45.353  41.335  37.600  1.00  0.00    -0.237 OA
ATOM    107  O   UNL A   1      46.837  41.650  35.658  1.00  0.00    -0.237 OA
ATOM    108  O   UNL A   1      45.292  43.449  36.357  1.00  0.00    -0.744 OA
ENDBRANCH 102 105
ENDBRANCH  75  98
ENDBRANCH  49  50
ENDBRANCH  41  44
ENDBRANCH  39  40
ENDBRANCH  38  39
ENDBRANCH   1  38
TORSDOF 18
ENDMDL
MODEL 2
REMARK VINA RESULT:     -12.3      4.209     11.709
REMARK SMILES Cc1ccc(N2C(=O)[NH+]=C(NCCCNC(=O)c3ccc(-c4c5nc(c(-c6cccc(S(=O)(=O)[O-])c6F)c6ccc([nH]6)c(-c6cccc(S(=O)(=O)[O-])c6F)c6nc(c(-c7cccc(S(=O)(=O)[O-])c7F)c7ccc4[nH]7)C=C6)C=C5)cc3)/C(=C\c3ccccc3OCc3cccc(C(=O)[O-])c3)C2=O)cc1
REMARK SMILES IDX 12 1 11 2 6 3 7 4 100 5 8 6 9 7 81 8 101 9 10 10 82 12 5 14
REMARK SMILES IDX 1 15 2 16 3 17 103 18 4 19 102 20 83 21 84 22 88 23 85 24
REMARK SMILES IDX 87 25 86 26 89 27 90 28 91 29 92 30 99 31 93 32 95 33 94 34
REMARK SMILES IDX 96 35 97 36 98 37 13 38 14 39 15 40 16 41 17 43 18 44 19 45
REMARK SMILES IDX 80 46 20 47 79 48 21 49 22 50 23 51 73 52 24 53 78 54 72 55
REMARK SMILES IDX 74 56 25 57 77 58 71 59 70 60 26 62 58 63 38 64 57 65 39 66
REMARK SMILES IDX 42 67 56 68 75 69 40 70 41 71 55 73 76 74 43 75 27 76 28 77
REMARK SMILES IDX 36 78 29 79 31 80 37 81 30 82 32 83 33 84 34 85 35 86 59 87
REMARK SMILES IDX 60 88 68 89 61 90 63 91 69 92 62 93 64 94 65 95 66 96 67 97
REMARK SMILES IDX 44 98 45 99 53 100 46 101 48 102 54 103 47 104 49 105 50 106
REMARK SMILES IDX 51 107 52 108
REMARK H PARENT 9 11 11 13 15 42 74 61 42 72
REMARK Flexibility Score: inf
ROOT
ATOM      1  C   UNL A   1      35.843  31.071  31.809  1.00  0.00     0.195 C 
ENDROOT
BRANCH   1   2
ATOM      2  N   UNL A   1      36.562  31.266  30.545  1.00  0.00    -0.305 N 
ATOM      3  N   UNL A   1      39.590  28.627  29.462  1.00  0.00    -0.155 N 
ATOM      4  C   UNL A   1      39.202  28.877  30.787  1.00  0.00     0.448 C 
ATOM      5  C   UNL A   1      39.035  29.292  28.378  1.00  0.00     0.328 C 
ATOM      6  O   UNL A   1      39.710  28.293  31.743  1.00  0.00    -0.212 OA
ATOM      7  N   UNL A   1      38.261  29.828  31.050  1.00  0.00    -0.209 N 
ATOM      8  C   UNL A   1      37.778  29.995  28.702  1.00  0.00     0.129 C 
ATOM      9  O   UNL A   1      39.413  29.220  27.209  1.00  0.00    -0.249 OA
ATOM     10  C   UNL A   1      37.535  30.376  30.125  1.00  0.00     0.236 C 
ATOM     11  H   UNL A   1      38.128  30.112  31.984  1.00  0.00     0.270 HD
ATOM     12  C   UNL A   1      36.879  29.966  27.699  1.00  0.00     0.034 C 
ATOM     13  H   UNL A   1      36.348  32.046  29.983  1.00  0.00     0.256 HD
BRANCH   3  14
ATOM     14  C   UNL A   1      40.574  27.618  29.205  1.00  0.00     0.111 A 
ATOM     15  C   UNL A   1      43.542  24.574  28.488  1.00  0.00     0.044 C 
ATOM     16  C   UNL A   1      42.506  25.622  28.744  1.00  0.00    -0.051 A 
ATOM     17  C   UNL A   1      42.863  26.817  29.375  1.00  0.00     0.007 A 
ATOM     18  C   UNL A   1      41.176  25.418  28.370  1.00  0.00     0.007 A 
ATOM     19  C   UNL A   1      41.907  27.808  29.595  1.00  0.00     0.044 A 
ATOM     20  C   UNL A   1      40.220  26.405  28.602  1.00  0.00     0.044 A 
ENDBRANCH   3  14
BRANCH  12  21
ATOM     21  C   UNL A   1      35.494  30.383  27.804  1.00  0.00     0.018 A 
ATOM     22  C   UNL A   1      34.596  29.321  27.763  1.00  0.00     0.012 A 
ATOM     23  C   UNL A   1      35.031  31.709  27.734  1.00  0.00     0.127 A 
ATOM     24  C   UNL A   1      33.277  29.577  27.467  1.00  0.00     0.001 A 
ATOM     25  C   UNL A   1      33.687  31.948  27.477  1.00  0.00     0.047 A 
ATOM     26  C   UNL A   1      32.827  30.883  27.299  1.00  0.00     0.004 A 
BRANCH  23  27
ATOM     27  O   UNL A   1      35.778  32.843  27.661  1.00  0.00    -0.488 OA
BRANCH  27  28
ATOM     28  C   UNL A   1      36.097  33.550  28.845  1.00  0.00     0.265 C 
BRANCH  28  29
ATOM     29  C   UNL A   1      35.006  34.572  29.063  1.00  0.00    -0.010 A 
ATOM     30  C   UNL A   1      34.684  35.477  28.045  1.00  0.00     0.007 A 
ATOM     31  C   UNL A   1      34.323  34.651  30.288  1.00  0.00     0.017 A 
ATOM     32  C   UNL A   1      33.699  36.443  28.245  1.00  0.00     0.001 A 
ATOM     33  C   UNL A   1      33.352  35.632  30.502  1.00  0.00    -0.002 A 
ATOM     34  C   UNL A   1      33.041  36.528  29.473  1.00  0.00     0.010 A 
BRANCH  33  35
ATOM     35  C   UNL A   1      32.681  35.772  31.812  1.00  0.00     0.071 C 
ATOM     36  O   UNL A   1      32.295  34.846  32.518  1.00  0.00    -0.545 OA
ATOM     37  O   UNL A   1      32.503  37.051  32.174  1.00  0.00    -0.545 OA
ENDBRANCH  33  35
ENDBRANCH  28  29
ENDBRANCH  27  28
ENDBRANCH  23  27
ENDBRANCH  12  21
ENDBRANCH   1   2
BRANCH   1  38
ATOM     38  C   UNL A   1      35.935  32.282  32.724  1.00  0.00     0.059 C 
BRANCH  38  39
ATOM     39  C   UNL A   1      36.845  33.370  32.188  1.00  0.00     0.119 C 
BRANCH  39  40
ATOM     40  N   UNL A   1      37.272  34.353  33.165  1.00  0.00    -0.352 N 
ATOM     41  C   UNL A   1      38.514  34.535  33.746  1.00  0.00     0.251 C 
ATOM     42  H   UNL A   1      36.575  34.982  33.459  1.00  0.00     0.163 HD
ATOM     43  O   UNL A   1      38.572  35.281  34.723  1.00  0.00    -0.269 OA
BRANCH  41  44
ATOM     44  C   UNL A   1      39.762  34.007  33.120  1.00  0.00     0.039 A 
ATOM     45  C   UNL A   1      40.950  34.720  33.344  1.00  0.00     0.014 A 
ATOM     46  C   UNL A   1      39.752  33.033  32.132  1.00  0.00     0.014 A 
ATOM     47  C   UNL A   1      41.974  34.688  32.400  1.00  0.00     0.010 A 
ATOM     48  C   UNL A   1      40.706  33.075  31.146  1.00  0.00     0.010 A 
ATOM     49  C   UNL A   1      41.766  33.979  31.235  1.00  0.00    -0.014 A 
BRANCH  49  50
ATOM     50  C   UNL A   1      42.599  34.025  30.048  1.00  0.00     0.031 A 
ATOM     51  C   UNL A   1      43.148  32.752  29.576  1.00  0.00     0.074 A 
ATOM     52  C   UNL A   1      42.480  35.090  29.222  1.00  0.00     0.049 A 
ATOM     53  N   UNL A   1      43.824  32.637  28.497  1.00  0.00    -0.248 NA
ATOM     54  C   UNL A   1      42.946  31.491  30.278  1.00  0.00     0.031 C 
ATOM     55  C   UNL A   1      42.587  35.123  27.763  1.00  0.00     0.029 A 
ATOM     56  N   UNL A   1      42.227  36.415  29.547  1.00  0.00    -0.354 N 
ATOM     57  C   UNL A   1      43.947  31.298  28.221  1.00  0.00     0.074 A 
ATOM     58  C   UNL A   1      43.432  30.623  29.387  1.00  0.00     0.031 C 
ATOM     59  C   UNL A   1      42.609  36.401  27.347  1.00  0.00     0.029 A 
ATOM     60  C   UNL A   1      42.761  37.220  28.533  1.00  0.00     0.049 A 
ATOM     61  H   UNL A   1      41.754  36.734  30.350  1.00  0.00     0.167 HD
ATOM     62  C   UNL A   1      44.371  30.955  26.977  1.00  0.00     0.034 A 
ATOM     63  C   UNL A   1      43.784  38.096  28.780  1.00  0.00     0.034 A 
ATOM     64  C   UNL A   1      44.684  32.167  26.192  1.00  0.00     0.049 A 
ATOM     65  C   UNL A   1      45.064  37.633  28.087  1.00  0.00     0.074 A 
ATOM     66  C   UNL A   1      44.016  32.925  25.243  1.00  0.00     0.029 A 
ATOM     67  N   UNL A   1      45.734  32.957  26.623  1.00  0.00    -0.354 N 
ATOM     68  N   UNL A   1      45.136  36.599  27.291  1.00  0.00    -0.248 NA
ATOM     69  C   UNL A   1      46.373  38.250  28.285  1.00  0.00     0.031 C 
ATOM     70  C   UNL A   1      44.680  34.191  25.141  1.00  0.00     0.029 A 
ATOM     71  C   UNL A   1      45.764  34.192  26.004  1.00  0.00     0.049 A 
ATOM     72  H   UNL A   1      46.389  32.670  27.299  1.00  0.00     0.167 HD
ATOM     73  C   UNL A   1      46.439  36.287  27.033  1.00  0.00     0.074 A 
ATOM     74  C   UNL A   1      47.179  37.383  27.643  1.00  0.00     0.031 C 
ATOM     75  C   UNL A   1      46.815  35.133  26.394  1.00  0.00     0.034 A 
BRANCH  62  76
ATOM     76  C   UNL A   1      44.356  29.566  26.378  1.00  0.00     0.023 A 
ATOM     77  C   UNL A   1      43.089  28.948  26.278  1.00  0.00     0.012 A 
ATOM     78  C   UNL A   1      45.456  28.807  25.912  1.00  0.00     0.148 A 
ATOM     79  C   UNL A   1      42.919  27.647  25.802  1.00  0.00     0.002 A 
ATOM     80  C   UNL A   1      45.294  27.487  25.474  1.00  0.00     0.091 A 
ATOM     81  F   UNL A   1      46.667  29.362  25.829  1.00  0.00    -0.205 F 
ATOM     82  C   UNL A   1      44.024  26.907  25.418  1.00  0.00     0.022 A 
BRANCH  80  83
ATOM     83  S   UNL A   1      46.675  26.427  25.004  1.00  0.00     0.127 S 
ATOM     84  O   UNL A   1      47.213  27.131  23.836  1.00  0.00    -0.237 OA
ATOM     85  O   UNL A   1      47.530  26.479  26.187  1.00  0.00    -0.237 OA
ATOM     86  O   UNL A   1      46.106  25.119  24.700  1.00  0.00    -0.744 OA
ENDBRANCH  80  83
ENDBRANCH  62  76
BRANCH  63  87
ATOM     87  C   UNL A   1      43.662  38.685  30.161  1.00  0.00     0.023 A 
ATOM     88  C   UNL A   1      44.485  38.086  31.151  1.00  0.00     0.012 A 
ATOM     89  C   UNL A   1      43.280  40.028  30.329  1.00  0.00     0.148 A 
ATOM     90  C   UNL A   1      45.119  38.871  32.121  1.00  0.00     0.002 A 
ATOM     91  C   UNL A   1      43.890  40.795  31.324  1.00  0.00     0.091 A 
ATOM     92  F   UNL A   1      42.435  40.573  29.445  1.00  0.00    -0.205 F 
ATOM     93  C   UNL A   1      44.863  40.238  32.169  1.00  0.00     0.022 A 
BRANCH  91  94
ATOM     94  S   UNL A   1      43.547  42.556  31.453  1.00  0.00     0.127 S 
ATOM     95  O   UNL A   1      44.092  43.051  30.195  1.00  0.00    -0.237 OA
ATOM     96  O   UNL A   1      42.088  42.598  31.550  1.00  0.00    -0.237 OA
ATOM     97  O   UNL A   1      44.235  42.965  32.668  1.00  0.00    -0.744 OA
ENDBRANCH  91  94
ENDBRANCH  63  87
BRANCH  75  98
ATOM     98  C   UNL A   1      48.261  34.800  26.085  1.00  0.00     0.023 A 
ATOM     99  C   UNL A   1      48.942  35.490  25.066  1.00  0.00     0.012 A 
ATOM    100  C   UNL A   1      48.947  33.718  26.693  1.00  0.00     0.148 A 
ATOM    101  C   UNL A   1      50.265  35.187  24.734  1.00  0.00     0.002 A 
ATOM    102  C   UNL A   1      50.217  33.342  26.277  1.00  0.00     0.091 A 
ATOM    103  F   UNL A   1      48.403  33.068  27.726  1.00  0.00    -0.205 F 
ATOM    104  C   UNL A   1      50.899  34.104  25.328  1.00  0.00     0.022 A 
BRANCH 102 105
ATOM    105  S   UNL A   1      50.999  31.822  26.838  1.00  0.00     0.127 S 
ATOM    106  O   UNL A   1      51.092  32.055  28.280  1.00  0.00    -0.237 OA
ATOM    107  O   UNL A   1      50.015  30.818  26.443  1.00  0.00    -0.237 OA
ATOM    108  O   UNL A   1      52.284  31.756  26.157  1.00  0.00    -0.744 OA
ENDBRANCH 102 105
ENDBRANCH  75  98
ENDBRANCH  49  50
ENDBRANCH  41  44
ENDBRANCH  39  40
ENDBRANCH  38  39
ENDBRANCH   1  38
TORSDOF 18
ENDMDL
MODEL 3
REMARK VINA RESULT:     -11.9      5.410     14.532
REMARK SMILES Cc1ccc(N2C(=O)[NH+]=C(NCCCNC(=O)c3ccc(-c4c5nc(c(-c6cccc(S(=O)(=O)[O-])c6F)c6ccc([nH]6)c(-c6cccc(S(=O)(=O)[O-])c6F)c6nc(c(-c7cccc(S(=O)(=O)[O-])c7F)c7ccc4[nH]7)C=C6)C=C5)cc3)/C(=C\c3ccccc3OCc3cccc(C(=O)[O-])c3)C2=O)cc1
REMARK SMILES IDX 12 1 11 2 6 3 7 4 100 5 8 6 9 7 81 8 101 9 10 10 82 12 5 14
REMARK SMILES IDX 1 15 2 16 3 17 103 18 4 19 102 20 83 21 84 22 88 23 85 24
REMARK SMILES IDX 87 25 86 26 89 27 90 28 91 29 92 30 99 31 93 32 95 33 94 34
REMARK SMILES IDX 96 35 97 36 98 37 13 38 14 39 15 40 16 41 17 43 18 44 19 45
REMARK SMILES IDX 80 46 20 47 79 48 21 49 22 50 23 51 73 52 24 53 78 54 72 55
REMARK SMILES IDX 74 56 25 57 77 58 71 59 70 60 26 62 58 63 38 64 57 65 39 66
REMARK SMILES IDX 42 67 56 68 75 69 40 70 41 71 55 73 76 74 43 75 27 76 28 77
REMARK SMILES IDX 36 78 29 79 31 80 37 81 30 82 32 83 33 84 34 85 35 86 59 87
REMARK SMILES IDX 60 88 68 89 61 90 63 91 69 92 62 93 64 94 65 95 66 96 67 97
REMARK SMILES IDX 44 98 45 99 53 100 46 101 48 102 54 103 47 104 49 105 50 106
REMARK SMILES IDX 51 107 52 108
REMARK H PARENT 9 11 11 13 15 42 74 61 42 72
REMARK Flexibility Score: inf
ROOT
ATOM      1  C   UNL A   1      39.941  28.566  31.600  1.00  0.00     0.195 C 
ENDROOT
BRANCH   1   2
ATOM      2  N   UNL A   1      39.514  29.970  31.622  1.00  0.00    -0.305 N 
ATOM      3  N   UNL A   1      42.177  32.960  30.494  1.00  0.00    -0.155 N 
ATOM      4  C   UNL A   1      42.566  31.713  31.005  1.00  0.00     0.448 C 
ATOM      5  C   UNL A   1      40.849  33.341  30.373  1.00  0.00     0.328 C 
ATOM      6  O   UNL A   1      43.747  31.389  31.123  1.00  0.00    -0.212 OA
ATOM      7  N   UNL A   1      41.619  30.830  31.435  1.00  0.00    -0.209 N 
ATOM      8  C   UNL A   1      39.902  32.212  30.478  1.00  0.00     0.129 C 
ATOM      9  O   UNL A   1      40.438  34.458  30.057  1.00  0.00    -0.249 OA
ATOM     10  C   UNL A   1      40.353  30.986  31.199  1.00  0.00     0.236 C 
ATOM     11  H   UNL A   1      41.910  30.041  31.947  1.00  0.00     0.270 HD
ATOM     12  C   UNL A   1      38.833  32.339  29.668  1.00  0.00     0.034 C 
ATOM     13  H   UNL A   1      38.611  30.194  31.944  1.00  0.00     0.256 HD
BRANCH   3  14
ATOM     14  C   UNL A   1      43.186  33.870  30.040  1.00  0.00     0.111 A 
ATOM     15  C   UNL A   1      46.184  36.635  28.641  1.00  0.00     0.044 C 
ATOM     16  C   UNL A   1      45.137  35.685  29.129  1.00  0.00    -0.051 A 
ATOM     17  C   UNL A   1      44.535  34.791  28.240  1.00  0.00     0.007 A 
ATOM     18  C   UNL A   1      44.741  35.686  30.468  1.00  0.00     0.007 A 
ATOM     19  C   UNL A   1      43.575  33.887  28.694  1.00  0.00     0.044 A 
ATOM     20  C   UNL A   1      43.773  34.790  30.917  1.00  0.00     0.044 A 
ENDBRANCH   3  14
BRANCH  12  21
ATOM     21  C   UNL A   1      37.856  31.299  29.403  1.00  0.00     0.018 A 
ATOM     22  C   UNL A   1      38.180  30.510  28.304  1.00  0.00     0.012 A 
ATOM     23  C   UNL A   1      36.596  31.187  30.014  1.00  0.00     0.127 A 
ATOM     24  C   UNL A   1      37.191  29.759  27.711  1.00  0.00     0.001 A 
ATOM     25  C   UNL A   1      35.622  30.390  29.423  1.00  0.00     0.047 A 
ATOM     26  C   UNL A   1      35.910  29.718  28.253  1.00  0.00     0.004 A 
BRANCH  23  27
ATOM     27  O   UNL A   1      36.093  31.948  31.022  1.00  0.00    -0.488 OA
BRANCH  27  28
ATOM     28  C   UNL A   1      34.751  32.395  30.962  1.00  0.00     0.265 C 
BRANCH  28  29
ATOM     29  C   UNL A   1      34.656  33.639  31.813  1.00  0.00    -0.010 A 
ATOM     30  C   UNL A   1      35.126  33.621  33.132  1.00  0.00     0.007 A 
ATOM     31  C   UNL A   1      34.073  34.815  31.313  1.00  0.00     0.017 A 
ATOM     32  C   UNL A   1      35.017  34.753  33.936  1.00  0.00     0.001 A 
ATOM     33  C   UNL A   1      33.940  35.946  32.122  1.00  0.00    -0.002 A 
ATOM     34  C   UNL A   1      34.416  35.911  33.438  1.00  0.00     0.010 A 
BRANCH  33  35
ATOM     35  C   UNL A   1      33.261  37.163  31.630  1.00  0.00     0.071 C 
ATOM     36  O   UNL A   1      32.878  37.350  30.479  1.00  0.00    -0.545 OA
ATOM     37  O   UNL A   1      33.106  38.097  32.581  1.00  0.00    -0.545 OA
ENDBRANCH  33  35
ENDBRANCH  28  29
ENDBRANCH  27  28
ENDBRANCH  23  27
ENDBRANCH  12  21
ENDBRANCH   1   2
BRANCH   1  38
ATOM     38  C   UNL A   1      39.165  27.737  30.589  1.00  0.00     0.059 C 
BRANCH  38  39
ATOM     39  C   UNL A   1      40.052  27.059  29.562  1.00  0.00     0.119 C 
BRANCH  39  40
ATOM     40  N   UNL A   1      39.423  25.985  28.818  1.00  0.00    -0.352 N 
ATOM     41  C   UNL A   1      39.966  25.131  27.875  1.00  0.00     0.251 C 
ATOM     42  H   UNL A   1      38.468  25.845  29.012  1.00  0.00     0.163 HD
ATOM     43  O   UNL A   1      39.180  24.459  27.209  1.00  0.00    -0.269 OA
BRANCH  41  44
ATOM     44  C   UNL A   1      41.436  24.888  27.786  1.00  0.00     0.039 A 
ATOM     45  C   UNL A   1      41.980  23.902  28.623  1.00  0.00     0.014 A 
ATOM     46  C   UNL A   1      42.302  25.756  27.137  1.00  0.00     0.014 A 
ATOM     47  C   UNL A   1      43.305  23.996  29.046  1.00  0.00     0.010 A 
ATOM     48  C   UNL A   1      43.573  25.919  27.628  1.00  0.00     0.010 A 
ATOM     49  C   UNL A   1      44.037  25.098  28.658  1.00  0.00    -0.014 A 
BRANCH  49  50
ATOM     50  C   UNL A   1      45.331  25.492  29.185  1.00  0.00     0.031 A 
ATOM     51  C   UNL A   1      46.505  25.156  28.376  1.00  0.00     0.074 A 
ATOM     52  C   UNL A   1      45.373  26.477  30.110  1.00  0.00     0.049 A 
ATOM     53  N   UNL A   1      47.692  25.519  28.678  1.00  0.00    -0.248 NA
ATOM     54  C   UNL A   1      46.421  24.402  27.131  1.00  0.00     0.031 C 
ATOM     55  C   UNL A   1      46.394  27.509  30.292  1.00  0.00     0.029 A 
ATOM     56  N   UNL A   1      44.461  26.758  31.119  1.00  0.00    -0.354 N 
ATOM     57  C   UNL A   1      48.494  25.275  27.592  1.00  0.00     0.074 A 
ATOM     58  C   UNL A   1      47.670  24.529  26.673  1.00  0.00     0.031 C 
ATOM     59  C   UNL A   1      46.166  28.164  31.443  1.00  0.00     0.029 A 
ATOM     60  C   UNL A   1      45.144  27.416  32.150  1.00  0.00     0.049 A 
ATOM     61  H   UNL A   1      43.502  26.535  31.112  1.00  0.00     0.167 HD
ATOM     62  C   UNL A   1      49.725  25.851  27.585  1.00  0.00     0.034 A 
ATOM     63  C   UNL A   1      45.271  26.858  33.393  1.00  0.00     0.034 A 
ATOM     64  C   UNL A   1      49.952  26.586  28.846  1.00  0.00     0.049 A 
ATOM     65  C   UNL A   1      46.725  26.471  33.661  1.00  0.00     0.074 A 
ATOM     66  C   UNL A   1      49.854  27.909  29.246  1.00  0.00     0.029 A 
ATOM     67  N   UNL A   1      50.008  25.850  30.016  1.00  0.00    -0.354 N 
ATOM     68  N   UNL A   1      47.716  26.732  32.850  1.00  0.00    -0.248 NA
ATOM     69  C   UNL A   1      47.168  25.704  34.822  1.00  0.00     0.031 C 
ATOM     70  C   UNL A   1      49.828  27.937  30.679  1.00  0.00     0.029 A 
ATOM     71  C   UNL A   1      49.938  26.638  31.148  1.00  0.00     0.049 A 
ATOM     72  H   UNL A   1      50.089  24.869  30.038  1.00  0.00     0.167 HD
ATOM     73  C   UNL A   1      48.834  26.049  33.230  1.00  0.00     0.074 A 
ATOM     74  C   UNL A   1      48.453  25.452  34.503  1.00  0.00     0.031 C 
ATOM     75  C   UNL A   1      49.961  25.975  32.453  1.00  0.00     0.034 A 
BRANCH  62  76
ATOM     76  C   UNL A   1      50.674  25.919  26.409  1.00  0.00     0.023 A 
ATOM     77  C   UNL A   1      51.863  25.164  26.527  1.00  0.00     0.012 A 
ATOM     78  C   UNL A   1      50.520  26.652  25.207  1.00  0.00     0.148 A 
ATOM     79  C   UNL A   1      52.862  25.172  25.552  1.00  0.00     0.002 A 
ATOM     80  C   UNL A   1      51.538  26.695  24.248  1.00  0.00     0.091 A 
ATOM     81  F   UNL A   1      49.369  27.274  24.944  1.00  0.00    -0.205 F 
ATOM     82  C   UNL A   1      52.710  25.953  24.420  1.00  0.00     0.022 A 
BRANCH  80  83
ATOM     83  S   UNL A   1      51.456  27.723  22.768  1.00  0.00     0.127 S 
ATOM     84  O   UNL A   1      50.426  27.039  21.982  1.00  0.00    -0.237 OA
ATOM     85  O   UNL A   1      51.046  29.018  23.305  1.00  0.00    -0.237 OA
ATOM     86  O   UNL A   1      52.785  27.686  22.167  1.00  0.00    -0.744 OA
ENDBRANCH  80  83
ENDBRANCH  62  76
BRANCH  63  87
ATOM     87  C   UNL A   1      44.041  26.067  33.752  1.00  0.00     0.023 A 
ATOM     88  C   UNL A   1      44.119  24.672  33.493  1.00  0.00     0.012 A 
ATOM     89  C   UNL A   1      43.183  26.512  34.774  1.00  0.00     0.148 A 
ATOM     90  C   UNL A   1      43.573  23.750  34.392  1.00  0.00     0.002 A 
ATOM     91  C   UNL A   1      42.612  25.582  35.644  1.00  0.00     0.091 A 
ATOM     92  F   UNL A   1      43.039  27.830  34.967  1.00  0.00    -0.205 F 
ATOM     93  C   UNL A   1      42.868  24.209  35.500  1.00  0.00     0.022 A 
BRANCH  91  94
ATOM     94  S   UNL A   1      41.650  26.132  37.061  1.00  0.00     0.127 S 
ATOM     95  O   UNL A   1      40.871  24.938  37.365  1.00  0.00    -0.237 OA
ATOM     96  O   UNL A   1      42.680  26.462  38.046  1.00  0.00    -0.237 OA
ATOM     97  O   UNL A   1      40.913  27.285  36.565  1.00  0.00    -0.744 OA
ENDBRANCH  91  94
ENDBRANCH  63  87
BRANCH  75  98
ATOM     98  C   UNL A   1      51.212  25.237  32.887  1.00  0.00     0.023 A 
ATOM     99  C   UNL A   1      52.423  25.934  33.046  1.00  0.00     0.012 A 
ATOM    100  C   UNL A   1      51.263  23.826  33.025  1.00  0.00     0.148 A 
ATOM    101  C   UNL A   1      53.602  25.281  33.415  1.00  0.00     0.002 A 
ATOM    102  C   UNL A   1      52.460  23.169  33.272  1.00  0.00     0.091 A 
ATOM    103  F   UNL A   1      50.142  23.101  32.975  1.00  0.00    -0.205 F 
ATOM    104  C   UNL A   1      53.625  23.896  33.514  1.00  0.00     0.022 A 
BRANCH 102 105
ATOM    105  S   UNL A   1      52.604  21.377  33.187  1.00  0.00     0.127 S 
ATOM    106  O   UNL A   1      52.059  21.102  31.856  1.00  0.00    -0.237 OA
ATOM    107  O   UNL A   1      54.048  21.189  33.307  1.00  0.00    -0.237 OA
ATOM    108  O   UNL A   1      51.801  20.856  34.283  1.00  0.00    -0.744 OA
ENDBRANCH 102 105
ENDBRANCH  75  98
ENDBRANCH  49  50
ENDBRANCH  41  44
ENDBRANCH  39  40
ENDBRANCH  38  39
ENDBRANCH   1  38
TORSDOF 18
ENDMDL
