MODEL 1
REMARK VINA RESULT:     -11.0      0.000      0.000
REMARK SMILES COc1ccc([C@@H]2CC(c3ccc(Cl)cc3)=NN2C2=[NH+]C(=O)[C@@H](CC(=O)NCCCNC(=O)c3ccc(-c4c5nc(c(-c6cccc(S(=O)(=O)[O-])c6F)c6ccc([nH]6)c(-c6cccc(S(=O)(=O)[O-])c6F)c6nc(c(-c7cccc(S(=O)(=O)[O-])c7F)c7ccc4[nH]7)C=C6)C=C5)cc3)S2)cc1OC
REMARK SMILES IDX 28 1 27 2 25 3 26 4 24 6 23 7 19 8 20 9 97 10 21 11 22 13
REMARK SMILES IDX 18 14 7 15 8 16 9 17 17 18 6 19 3 20 4 21 99 22 5 23 98 24
REMARK SMILES IDX 2 25 1 26 100 27 101 28 10 29 11 30 16 31 12 32 15 33 13 34
REMARK SMILES IDX 14 35 29 36 30 37 31 38 32 39 33 41 34 42 35 43 96 44 36 45
REMARK SMILES IDX 95 46 37 47 38 48 39 49 89 50 40 51 94 52 88 53 90 54 41 55
REMARK SMILES IDX 93 56 87 57 86 58 42 60 74 61 54 62 73 63 55 64 58 65 72 66
REMARK SMILES IDX 91 67 56 68 57 69 71 71 92 72 59 73 43 74 44 75 52 76 45 77
REMARK SMILES IDX 47 78 53 79 46 80 48 81 49 82 50 83 51 84 75 85 76 86 84 87
REMARK SMILES IDX 77 88 79 89 85 90 78 91 80 92 81 93 82 94 83 95 60 96 61 97
REMARK SMILES IDX 69 98 62 99 64 100 70 101 63 102 65 103 66 104 67 105 68 106
REMARK H PARENT 27 5 20 12 31 40 90 59 58 70
REMARK Flexibility Score: inf
ROOT
ATOM      1  C   UNL A   1      41.163  19.777  27.318  1.00  0.00     0.117 C 
ENDROOT
BRANCH   1   2
ATOM      2  N   UNL A   1      41.356  21.217  27.346  1.00  0.00    -0.356 N 
ATOM      3  C   UNL A   1      40.591  22.190  26.776  1.00  0.00     0.221 C 
ATOM      4  O   UNL A   1      41.047  23.329  26.683  1.00  0.00    -0.275 OA
ATOM      5  H   UNL A   1      42.145  21.532  27.843  1.00  0.00     0.163 HD
BRANCH   3   6
ATOM      6  C   UNL A   1      39.173  21.883  26.369  1.00  0.00     0.127 C 
BRANCH   6   7
ATOM      7  C   UNL A   1      38.508  22.863  25.408  1.00  0.00     0.183 C 
ATOM      8  C   UNL A   1      36.013  22.430  25.376  1.00  0.00     0.340 C 
ATOM      9  N   UNL A   1      36.309  23.186  26.384  1.00  0.00    -0.202 N 
ATOM     10  S   UNL A   1      37.309  22.192  24.216  1.00  0.00    -0.020 SA
ATOM     11  C   UNL A   1      37.588  23.702  26.280  1.00  0.00     0.322 C 
ATOM     12  H   UNL A   1      35.698  23.371  27.135  1.00  0.00     0.316 HD
ATOM     13  O   UNL A   1      37.986  24.670  26.915  1.00  0.00    -0.246 OA
BRANCH   8  14
ATOM     14  N   UNL A   1      34.809  21.794  25.139  1.00  0.00    -0.120 N 
ATOM     15  C   UNL A   1      34.052  22.024  23.901  1.00  0.00     0.243 C 
ATOM     16  C   UNL A   1      33.401  20.678  23.595  1.00  0.00     0.118 C 
ATOM     17  C   UNL A   1      33.867  19.878  24.773  1.00  0.00     0.096 C 
ATOM     18  N   UNL A   1      34.587  20.522  25.638  1.00  0.00    -0.086 NA
BRANCH  15  19
ATOM     19  C   UNL A   1      33.057  23.168  24.064  1.00  0.00     0.003 A 
ATOM     20  C   UNL A   1      31.259  25.297  24.596  1.00  0.00     0.160 A 
ATOM     21  C   UNL A   1      30.795  24.077  24.089  1.00  0.00     0.051 A 
ATOM     22  C   UNL A   1      32.629  25.475  24.816  1.00  0.00     0.161 A 
ATOM     23  C   UNL A   1      31.682  23.019  23.833  1.00  0.00     0.012 A 
ATOM     24  C   UNL A   1      33.510  24.418  24.524  1.00  0.00     0.058 A 
BRANCH  20  25
ATOM     25  O   UNL A   1      30.350  26.193  25.088  1.00  0.00    -0.493 OA
ATOM     26  C   UNL A   1      29.431  26.702  24.126  1.00  0.00     0.278 C 
ENDBRANCH  20  25
BRANCH  22  27
ATOM     27  O   UNL A   1      33.272  26.554  25.362  1.00  0.00    -0.493 OA
ATOM     28  C   UNL A   1      33.398  27.739  24.590  1.00  0.00     0.278 C 
ENDBRANCH  22  27
ENDBRANCH  15  19
BRANCH  17  29
ATOM     29  C   UNL A   1      33.540  18.441  24.895  1.00  0.00     0.000 A 
ATOM     30  C   UNL A   1      32.532  18.026  25.771  1.00  0.00     0.011 A 
ATOM     31  C   UNL A   1      34.274  17.491  24.173  1.00  0.00     0.011 A 
ATOM     32  C   UNL A   1      32.241  16.662  25.906  1.00  0.00     0.021 A 
ATOM     33  C   UNL A   1      33.996  16.131  24.326  1.00  0.00     0.021 A 
ATOM     34  C   UNL A   1      32.978  15.722  25.188  1.00  0.00     0.041 A 
ATOM     35  Cl  UNL A   1      32.656  14.041  25.364  1.00  0.00    -0.084 Cl
ENDBRANCH  17  29
ENDBRANCH   8  14
ENDBRANCH   6   7
ENDBRANCH   3   6
ENDBRANCH   1   2
BRANCH   1  36
ATOM     36  C   UNL A   1      41.866  19.170  26.112  1.00  0.00     0.042 C 
BRANCH  36  37
ATOM     37  C   UNL A   1      43.346  18.927  26.309  1.00  0.00     0.118 C 
BRANCH  37  38
ATOM     38  N   UNL A   1      44.133  19.076  25.102  1.00  0.00    -0.352 N 
ATOM     39  C   UNL A   1      44.737  20.179  24.565  1.00  0.00     0.251 C 
ATOM     40  H   UNL A   1      44.252  18.247  24.582  1.00  0.00     0.163 HD
ATOM     41  O   UNL A   1      45.445  20.069  23.566  1.00  0.00    -0.269 OA
BRANCH  39  42
ATOM     42  C   UNL A   1      44.548  21.515  25.149  1.00  0.00     0.039 A 
ATOM     43  C   UNL A   1      43.912  22.490  24.368  1.00  0.00     0.014 A 
ATOM     44  C   UNL A   1      45.108  21.847  26.383  1.00  0.00     0.014 A 
ATOM     45  C   UNL A   1      43.879  23.808  24.805  1.00  0.00     0.010 A 
ATOM     46  C   UNL A   1      44.999  23.143  26.860  1.00  0.00     0.010 A 
ATOM     47  C   UNL A   1      44.455  24.138  26.039  1.00  0.00    -0.014 A 
BRANCH  47  48
ATOM     48  C   UNL A   1      44.680  25.546  26.411  1.00  0.00     0.031 A 
ATOM     49  C   UNL A   1      46.055  26.120  26.200  1.00  0.00     0.074 A 
ATOM     50  C   UNL A   1      43.688  26.250  26.977  1.00  0.00     0.049 A 
ATOM     51  N   UNL A   1      46.538  27.273  26.573  1.00  0.00    -0.248 NA
ATOM     52  C   UNL A   1      47.034  25.261  25.503  1.00  0.00     0.031 C 
ATOM     53  C   UNL A   1      42.339  25.744  27.237  1.00  0.00     0.029 A 
ATOM     54  N   UNL A   1      43.670  27.527  27.466  1.00  0.00    -0.354 N 
ATOM     55  C   UNL A   1      47.883  27.252  26.215  1.00  0.00     0.074 A 
ATOM     56  C   UNL A   1      48.147  25.967  25.614  1.00  0.00     0.031 C 
ATOM     57  C   UNL A   1      41.626  26.699  27.854  1.00  0.00     0.029 A 
ATOM     58  C   UNL A   1      42.480  27.861  28.066  1.00  0.00     0.049 A 
ATOM     59  H   UNL A   1      44.434  28.144  27.396  1.00  0.00     0.167 HD
ATOM     60  C   UNL A   1      48.806  28.231  26.366  1.00  0.00     0.034 A 
ATOM     61  C   UNL A   1      42.141  28.978  28.735  1.00  0.00     0.034 A 
ATOM     62  C   UNL A   1      48.490  29.512  26.935  1.00  0.00     0.049 A 
ATOM     63  C   UNL A   1      43.168  30.072  28.840  1.00  0.00     0.074 A 
ATOM     64  C   UNL A   1      49.307  30.615  27.091  1.00  0.00     0.029 A 
ATOM     65  N   UNL A   1      47.244  29.857  27.445  1.00  0.00    -0.354 N 
ATOM     66  N   UNL A   1      44.412  30.078  28.417  1.00  0.00    -0.248 NA
ATOM     67  C   UNL A   1      42.739  31.322  29.474  1.00  0.00     0.031 C 
ATOM     68  C   UNL A   1      48.561  31.616  27.724  1.00  0.00     0.029 A 
ATOM     69  C   UNL A   1      47.267  31.154  27.918  1.00  0.00     0.049 A 
ATOM     70  H   UNL A   1      46.459  29.263  27.465  1.00  0.00     0.167 HD
ATOM     71  C   UNL A   1      44.904  31.344  28.697  1.00  0.00     0.074 A 
ATOM     72  C   UNL A   1      43.813  32.083  29.307  1.00  0.00     0.031 C 
ATOM     73  C   UNL A   1      46.143  31.856  28.485  1.00  0.00     0.034 A 
BRANCH  60  74
ATOM     74  C   UNL A   1      50.214  27.953  25.900  1.00  0.00     0.023 A 
ATOM     75  C   UNL A   1      50.537  28.033  24.528  1.00  0.00     0.012 A 
ATOM     76  C   UNL A   1      51.229  27.634  26.824  1.00  0.00     0.148 A 
ATOM     77  C   UNL A   1      51.830  27.758  24.081  1.00  0.00     0.002 A 
ATOM     78  C   UNL A   1      52.527  27.412  26.376  1.00  0.00     0.091 A 
ATOM     79  F   UNL A   1      50.905  27.538  28.122  1.00  0.00    -0.205 F 
ATOM     80  C   UNL A   1      52.826  27.458  25.005  1.00  0.00     0.022 A 
BRANCH  78  81
ATOM     81  S   UNL A   1      53.900  27.096  27.490  1.00  0.00     0.127 S 
ATOM     82  O   UNL A   1      54.237  28.448  27.937  1.00  0.00    -0.237 OA
ATOM     83  O   UNL A   1      53.277  26.254  28.512  1.00  0.00    -0.237 OA
ATOM     84  O   UNL A   1      54.923  26.433  26.693  1.00  0.00    -0.744 OA
ENDBRANCH  78  81
ENDBRANCH  60  74
BRANCH  61  85
ATOM     85  C   UNL A   1      40.767  29.122  29.292  1.00  0.00     0.023 A 
ATOM     86  C   UNL A   1      39.678  29.309  28.420  1.00  0.00     0.012 A 
ATOM     87  C   UNL A   1      40.525  29.006  30.675  1.00  0.00     0.148 A 
ATOM     88  C   UNL A   1      38.377  29.408  28.917  1.00  0.00     0.002 A 
ATOM     89  C   UNL A   1      39.222  29.042  31.157  1.00  0.00     0.091 A 
ATOM     90  F   UNL A   1      41.575  28.833  31.491  1.00  0.00    -0.205 F 
ATOM     91  C   UNL A   1      38.147  29.263  30.282  1.00  0.00     0.022 A 
BRANCH  89  92
ATOM     92  S   UNL A   1      38.820  28.711  32.877  1.00  0.00     0.127 S 
ATOM     93  O   UNL A   1      39.093  30.002  33.501  1.00  0.00    -0.237 OA
ATOM     94  O   UNL A   1      37.404  28.351  32.792  1.00  0.00    -0.237 OA
ATOM     95  O   UNL A   1      39.689  27.615  33.282  1.00  0.00    -0.744 OA
ENDBRANCH  89  92
ENDBRANCH  61  85
BRANCH  73  96
ATOM     96  C   UNL A   1      46.356  33.294  28.872  1.00  0.00     0.023 A 
ATOM     97  C   UNL A   1      46.898  33.617  30.130  1.00  0.00     0.012 A 
ATOM     98  C   UNL A   1      46.052  34.323  27.959  1.00  0.00     0.148 A 
ATOM     99  C   UNL A   1      47.085  34.948  30.497  1.00  0.00     0.002 A 
ATOM    100  C   UNL A   1      46.299  35.643  28.308  1.00  0.00     0.091 A 
ATOM    101  F   UNL A   1      45.521  33.993  26.773  1.00  0.00    -0.205 F 
ATOM    102  C   UNL A   1      46.796  35.959  29.583  1.00  0.00     0.022 A 
BRANCH 100 103
ATOM    103  S   UNL A   1      46.058  36.996  27.153  1.00  0.00     0.127 S 
ATOM    104  O   UNL A   1      44.602  37.027  27.032  1.00  0.00    -0.237 OA
ATOM    105  O   UNL A   1      46.635  38.128  27.879  1.00  0.00    -0.237 OA
ATOM    106  O   UNL A   1      46.781  36.623  25.945  1.00  0.00    -0.744 OA
ENDBRANCH 100 103
ENDBRANCH  73  96
ENDBRANCH  47  48
ENDBRANCH  39  42
ENDBRANCH  37  38
ENDBRANCH  36  37
ENDBRANCH   1  36
TORSDOF 19
ENDMDL
MODEL 2
REMARK VINA RESULT:     -10.9      2.409      4.155
REMARK SMILES COc1ccc([C@@H]2CC(c3ccc(Cl)cc3)=NN2C2=[NH+]C(=O)[C@@H](CC(=O)NCCCNC(=O)c3ccc(-c4c5nc(c(-c6cccc(S(=O)(=O)[O-])c6F)c6ccc([nH]6)c(-c6cccc(S(=O)(=O)[O-])c6F)c6nc(c(-c7cccc(S(=O)(=O)[O-])c7F)c7ccc4[nH]7)C=C6)C=C5)cc3)S2)cc1OC
REMARK SMILES IDX 28 1 27 2 25 3 26 4 24 6 23 7 19 8 20 9 97 10 21 11 22 13
REMARK SMILES IDX 18 14 7 15 8 16 9 17 17 18 6 19 3 20 4 21 99 22 5 23 98 24
REMARK SMILES IDX 2 25 1 26 100 27 101 28 10 29 11 30 16 31 12 32 15 33 13 34
REMARK SMILES IDX 14 35 29 36 30 37 31 38 32 39 33 41 34 42 35 43 96 44 36 45
REMARK SMILES IDX 95 46 37 47 38 48 39 49 89 50 40 51 94 52 88 53 90 54 41 55
REMARK SMILES IDX 93 56 87 57 86 58 42 60 74 61 54 62 73 63 55 64 58 65 72 66
REMARK SMILES IDX 91 67 56 68 57 69 71 71 92 72 59 73 43 74 44 75 52 76 45 77
REMARK SMILES IDX 47 78 53 79 46 80 48 81 49 82 50 83 51 84 75 85 76 86 84 87
REMARK SMILES IDX 77 88 79 89 85 90 78 91 80 92 81 93 82 94 83 95 60 96 61 97
REMARK SMILES IDX 69 98 62 99 64 100 70 101 63 102 65 103 66 104 67 105 68 106
REMARK H PARENT 27 5 20 12 31 40 90 59 58 70
REMARK Flexibility Score: inf
ROOT
ATOM      1  C   UNL A   1      40.267  21.434  27.058  1.00  0.00     0.117 C 
ENDROOT
BRANCH   1   2
ATOM      2  N   UNL A   1      39.809  20.608  25.954  1.00  0.00    -0.356 N 
ATOM      3  C   UNL A   1      38.553  20.495  25.438  1.00  0.00     0.221 C 
ATOM      4  O   UNL A   1      38.302  19.558  24.681  1.00  0.00    -0.275 OA
ATOM      5  H   UNL A   1      40.499  20.056  25.521  1.00  0.00     0.163 HD
BRANCH   3   6
ATOM      6  C   UNL A   1      37.532  21.567  25.718  1.00  0.00     0.127 C 
BRANCH   6   7
ATOM      7  C   UNL A   1      37.589  22.814  24.841  1.00  0.00     0.183 C 
ATOM      8  C   UNL A   1      35.283  23.854  24.724  1.00  0.00     0.340 C 
ATOM      9  N   UNL A   1      35.881  24.245  25.803  1.00  0.00    -0.202 N 
ATOM     10  S   UNL A   1      36.303  23.010  23.571  1.00  0.00    -0.020 SA
ATOM     11  C   UNL A   1      37.235  23.963  25.771  1.00  0.00     0.322 C 
ATOM     12  H   UNL A   1      35.427  24.688  26.557  1.00  0.00     0.316 HD
ATOM     13  O   UNL A   1      38.060  24.497  26.499  1.00  0.00    -0.246 OA
BRANCH   8  14
ATOM     14  N   UNL A   1      33.947  24.017  24.408  1.00  0.00    -0.120 N 
ATOM     15  C   UNL A   1      32.892  23.334  25.168  1.00  0.00     0.243 C 
ATOM     16  C   UNL A   1      31.728  24.319  25.177  1.00  0.00     0.118 C 
ATOM     17  C   UNL A   1      32.306  25.429  24.351  1.00  0.00     0.096 C 
ATOM     18  N   UNL A   1      33.499  25.219  23.890  1.00  0.00    -0.086 NA
BRANCH  15  19
ATOM     19  C   UNL A   1      32.551  21.981  24.551  1.00  0.00     0.003 A 
ATOM     20  C   UNL A   1      32.131  19.395  23.462  1.00  0.00     0.160 A 
ATOM     21  C   UNL A   1      32.068  20.534  22.649  1.00  0.00     0.051 A 
ATOM     22  C   UNL A   1      32.377  19.539  24.831  1.00  0.00     0.161 A 
ATOM     23  C   UNL A   1      32.284  21.814  23.184  1.00  0.00     0.012 A 
ATOM     24  C   UNL A   1      32.558  20.830  25.359  1.00  0.00     0.058 A 
BRANCH  20  25
ATOM     25  O   UNL A   1      32.192  18.165  22.866  1.00  0.00    -0.493 OA
ATOM     26  C   UNL A   1      32.142  18.186  21.443  1.00  0.00     0.278 C 
ENDBRANCH  20  25
BRANCH  22  27
ATOM     27  O   UNL A   1      32.541  18.561  25.776  1.00  0.00    -0.493 OA
ATOM     28  C   UNL A   1      32.464  17.201  25.375  1.00  0.00     0.278 C 
ENDBRANCH  22  27
ENDBRANCH  15  19
BRANCH  17  29
ATOM     29  C   UNL A   1      31.554  26.682  24.126  1.00  0.00     0.000 A 
ATOM     30  C   UNL A   1      30.360  26.658  23.397  1.00  0.00     0.011 A 
ATOM     31  C   UNL A   1      32.063  27.899  24.595  1.00  0.00     0.011 A 
ATOM     32  C   UNL A   1      29.663  27.850  23.161  1.00  0.00     0.021 A 
ATOM     33  C   UNL A   1      31.376  29.088  24.339  1.00  0.00     0.021 A 
ATOM     34  C   UNL A   1      30.177  29.059  23.627  1.00  0.00     0.041 A 
ATOM     35  Cl  UNL A   1      29.350  30.536  23.319  1.00  0.00    -0.084 Cl
ENDBRANCH  17  29
ENDBRANCH   8  14
ENDBRANCH   6   7
ENDBRANCH   3   6
ENDBRANCH   1   2
BRANCH   1  36
ATOM     36  C   UNL A   1      41.776  21.622  26.993  1.00  0.00     0.042 C 
BRANCH  36  37
ATOM     37  C   UNL A   1      42.573  20.352  27.192  1.00  0.00     0.118 C 
BRANCH  37  38
ATOM     38  N   UNL A   1      43.126  19.806  25.969  1.00  0.00    -0.352 N 
ATOM     39  C   UNL A   1      44.040  20.329  25.096  1.00  0.00     0.251 C 
ATOM     40  H   UNL A   1      42.789  18.913  25.727  1.00  0.00     0.163 HD
ATOM     41  O   UNL A   1      44.449  19.653  24.154  1.00  0.00    -0.269 OA
BRANCH  39  42
ATOM     42  C   UNL A   1      44.542  21.703  25.245  1.00  0.00     0.039 A 
ATOM     43  C   UNL A   1      45.333  21.996  26.363  1.00  0.00     0.014 A 
ATOM     44  C   UNL A   1      44.128  22.718  24.380  1.00  0.00     0.014 A 
ATOM     45  C   UNL A   1      45.671  23.314  26.641  1.00  0.00     0.010 A 
ATOM     46  C   UNL A   1      44.538  24.021  24.607  1.00  0.00     0.010 A 
ATOM     47  C   UNL A   1      45.242  24.330  25.778  1.00  0.00    -0.014 A 
BRANCH  47  48
ATOM     48  C   UNL A   1      45.345  25.747  26.173  1.00  0.00     0.031 A 
ATOM     49  C   UNL A   1      46.703  26.394  26.131  1.00  0.00     0.074 A 
ATOM     50  C   UNL A   1      44.255  26.394  26.613  1.00  0.00     0.049 A 
ATOM     51  N   UNL A   1      47.074  27.569  26.558  1.00  0.00    -0.248 NA
ATOM     52  C   UNL A   1      47.803  25.592  25.560  1.00  0.00     0.031 C 
ATOM     53  C   UNL A   1      42.913  25.815  26.706  1.00  0.00     0.029 A 
ATOM     54  N   UNL A   1      44.109  27.665  27.095  1.00  0.00    -0.354 N 
ATOM     55  C   UNL A   1      48.451  27.622  26.368  1.00  0.00     0.074 A 
ATOM     56  C   UNL A   1      48.856  26.355  25.805  1.00  0.00     0.031 C 
ATOM     57  C   UNL A   1      42.080  26.728  27.231  1.00  0.00     0.029 A 
ATOM     58  C   UNL A   1      42.839  27.933  27.545  1.00  0.00     0.049 A 
ATOM     59  H   UNL A   1      44.842  28.322  27.118  1.00  0.00     0.167 HD
ATOM     60  C   UNL A   1      49.296  28.647  26.629  1.00  0.00     0.034 A 
ATOM     61  C   UNL A   1      42.361  29.026  28.166  1.00  0.00     0.034 A 
ATOM     62  C   UNL A   1      48.845  29.907  27.154  1.00  0.00     0.049 A 
ATOM     63  C   UNL A   1      43.308  30.172  28.394  1.00  0.00     0.074 A 
ATOM     64  C   UNL A   1      49.577  31.051  27.408  1.00  0.00     0.029 A 
ATOM     65  N   UNL A   1      47.530  30.182  27.508  1.00  0.00    -0.354 N 
ATOM     66  N   UNL A   1      44.592  30.246  28.126  1.00  0.00    -0.248 NA
ATOM     67  C   UNL A   1      42.739  31.395  28.970  1.00  0.00     0.031 C 
ATOM     68  C   UNL A   1      48.707  32.007  27.943  1.00  0.00     0.029 A 
ATOM     69  C   UNL A   1      47.425  31.476  27.978  1.00  0.00     0.049 A 
ATOM     70  H   UNL A   1      46.781  29.547  27.432  1.00  0.00     0.167 HD
ATOM     71  C   UNL A   1      44.979  31.536  28.463  1.00  0.00     0.074 A 
ATOM     72  C   UNL A   1      43.783  32.212  28.934  1.00  0.00     0.031 C 
ATOM     73  C   UNL A   1      46.205  32.114  28.403  1.00  0.00     0.034 A 
BRANCH  60  74
ATOM     74  C   UNL A   1      50.763  28.447  26.339  1.00  0.00     0.023 A 
ATOM     75  C   UNL A   1      51.291  28.794  25.077  1.00  0.00     0.012 A 
ATOM     76  C   UNL A   1      51.629  27.934  27.325  1.00  0.00     0.148 A 
ATOM     77  C   UNL A   1      52.642  28.595  24.788  1.00  0.00     0.002 A 
ATOM     78  C   UNL A   1      52.984  27.786  27.047  1.00  0.00     0.091 A 
ATOM     79  F   UNL A   1      51.112  27.585  28.512  1.00  0.00    -0.205 F 
ATOM     80  C   UNL A   1      53.489  28.101  25.775  1.00  0.00     0.022 A 
BRANCH  78  81
ATOM     81  S   UNL A   1      54.175  27.233  28.273  1.00  0.00     0.127 S 
ATOM     82  O   UNL A   1      54.313  25.816  27.934  1.00  0.00    -0.237 OA
ATOM     83  O   UNL A   1      55.344  28.053  27.953  1.00  0.00    -0.237 OA
ATOM     84  O   UNL A   1      53.575  27.505  29.571  1.00  0.00    -0.744 OA
ENDBRANCH  78  81
ENDBRANCH  60  74
BRANCH  61  85
ATOM     85  C   UNL A   1      40.924  29.094  28.551  1.00  0.00     0.023 A 
ATOM     86  C   UNL A   1      39.941  29.219  27.551  1.00  0.00     0.012 A 
ATOM     87  C   UNL A   1      40.522  28.966  29.895  1.00  0.00     0.148 A 
ATOM     88  C   UNL A   1      38.586  29.246  27.885  1.00  0.00     0.002 A 
ATOM     89  C   UNL A   1      39.170  28.931  30.214  1.00  0.00     0.091 A 
ATOM     90  F   UNL A   1      41.473  28.853  30.833  1.00  0.00    -0.205 F 
ATOM     91  C   UNL A   1      38.200  29.090  29.213  1.00  0.00     0.022 A 
BRANCH  89  92
ATOM     92  S   UNL A   1      38.581  28.580  31.876  1.00  0.00     0.127 S 
ATOM     93  O   UNL A   1      39.267  29.603  32.658  1.00  0.00    -0.237 OA
ATOM     94  O   UNL A   1      37.137  28.774  31.731  1.00  0.00    -0.237 OA
ATOM     95  O   UNL A   1      38.971  27.204  32.151  1.00  0.00    -0.744 OA
ENDBRANCH  89  92
ENDBRANCH  61  85
BRANCH  73  96
ATOM     96  C   UNL A   1      46.292  33.560  28.811  1.00  0.00     0.023 A 
ATOM     97  C   UNL A   1      46.540  33.903  30.154  1.00  0.00     0.012 A 
ATOM     98  C   UNL A   1      46.167  34.575  27.844  1.00  0.00     0.148 A 
ATOM     99  C   UNL A   1      46.609  35.240  30.538  1.00  0.00     0.002 A 
ATOM    100  C   UNL A   1      46.298  35.903  28.224  1.00  0.00     0.091 A 
ATOM    101  F   UNL A   1      45.914  34.225  26.574  1.00  0.00    -0.205 F 
ATOM    102  C   UNL A   1      46.498  36.239  29.573  1.00  0.00     0.022 A 
BRANCH 100 103
ATOM    103  S   UNL A   1      46.279  37.243  27.030  1.00  0.00     0.127 S 
ATOM    104  O   UNL A   1      44.855  37.571  26.974  1.00  0.00    -0.237 OA
ATOM    105  O   UNL A   1      47.113  38.252  27.684  1.00  0.00    -0.237 OA
ATOM    106  O   UNL A   1      46.846  36.695  25.805  1.00  0.00    -0.744 OA
ENDBRANCH 100 103
ENDBRANCH  73  96
ENDBRANCH  47  48
ENDBRANCH  39  42
ENDBRANCH  37  38
ENDBRANCH  36  37
ENDBRANCH   1  36
TORSDOF 19
ENDMDL
MODEL 3
REMARK VINA RESULT:     -10.7      4.543      8.247
REMARK SMILES COc1ccc([C@@H]2CC(c3ccc(Cl)cc3)=NN2C2=[NH+]C(=O)[C@@H](CC(=O)NCCCNC(=O)c3ccc(-c4c5nc(c(-c6cccc(S(=O)(=O)[O-])c6F)c6ccc([nH]6)c(-c6cccc(S(=O)(=O)[O-])c6F)c6nc(c(-c7cccc(S(=O)(=O)[O-])c7F)c7ccc4[nH]7)C=C6)C=C5)cc3)S2)cc1OC
REMARK SMILES IDX 28 1 27 2 25 3 26 4 24 6 23 7 19 8 20 9 97 10 21 11 22 13
REMARK SMILES IDX 18 14 7 15 8 16 9 17 17 18 6 19 3 20 4 21 99 22 5 23 98 24
REMARK SMILES IDX 2 25 1 26 100 27 101 28 10 29 11 30 16 31 12 32 15 33 13 34
REMARK SMILES IDX 14 35 29 36 30 37 31 38 32 39 33 41 34 42 35 43 96 44 36 45
REMARK SMILES IDX 95 46 37 47 38 48 39 49 89 50 40 51 94 52 88 53 90 54 41 55
REMARK SMILES IDX 93 56 87 57 86 58 42 60 74 61 54 62 73 63 55 64 58 65 72 66
REMARK SMILES IDX 91 67 56 68 57 69 71 71 92 72 59 73 43 74 44 75 52 76 45 77
REMARK SMILES IDX 47 78 53 79 46 80 48 81 49 82 50 83 51 84 75 85 76 86 84 87
REMARK SMILES IDX 77 88 79 89 85 90 78 91 80 92 81 93 82 94 83 95 60 96 61 97
REMARK SMILES IDX 69 98 62 99 64 100 70 101 63 102 65 103 66 104 67 105 68 106
REMARK H PARENT 27 5 20 12 31 40 90 59 58 70
REMARK Flexibility Score: inf
ROOT
ATOM      1  C   UNL A   1      40.406  21.731  27.015  1.00  0.00     0.117 C 
ENDROOT
BRANCH   1   2
ATOM      2  N   UNL A   1      40.034  20.712  26.047  1.00  0.00    -0.356 N 
ATOM      3  C   UNL A   1      38.795  20.394  25.580  1.00  0.00     0.221 C 
ATOM      4  O   UNL A   1      38.642  19.338  24.967  1.00  0.00    -0.275 OA
ATOM      5  H   UNL A   1      40.778  20.181  25.681  1.00  0.00     0.163 HD
BRANCH   3   6
ATOM      6  C   UNL A   1      37.666  21.380  25.728  1.00  0.00     0.127 C 
BRANCH   6   7
ATOM      7  C   UNL A   1      37.715  22.618  24.838  1.00  0.00     0.183 C 
ATOM      8  C   UNL A   1      35.403  23.646  24.718  1.00  0.00     0.340 C 
ATOM      9  N   UNL A   1      36.003  24.051  25.791  1.00  0.00    -0.202 N 
ATOM     10  S   UNL A   1      36.423  22.795  23.570  1.00  0.00    -0.020 SA
ATOM     11  C   UNL A   1      37.358  23.775  25.757  1.00  0.00     0.322 C 
ATOM     12  H   UNL A   1      35.550  24.501  26.541  1.00  0.00     0.316 HD
ATOM     13  O   UNL A   1      38.183  24.320  26.477  1.00  0.00    -0.246 OA
BRANCH   8  14
ATOM     14  N   UNL A   1      34.066  23.800  24.404  1.00  0.00    -0.120 N 
ATOM     15  C   UNL A   1      33.016  23.125  25.177  1.00  0.00     0.243 C 
ATOM     16  C   UNL A   1      31.848  24.107  25.176  1.00  0.00     0.118 C 
ATOM     17  C   UNL A   1      32.420  25.206  24.332  1.00  0.00     0.096 C 
ATOM     18  N   UNL A   1      33.612  24.994  23.869  1.00  0.00    -0.086 NA
BRANCH  15  19
ATOM     19  C   UNL A   1      32.677  21.763  24.581  1.00  0.00     0.003 A 
ATOM     20  C   UNL A   1      32.254  19.153  23.551  1.00  0.00     0.160 A 
ATOM     21  C   UNL A   1      32.296  20.263  22.697  1.00  0.00     0.051 A 
ATOM     22  C   UNL A   1      32.395  19.339  24.930  1.00  0.00     0.161 A 
ATOM     23  C   UNL A   1      32.513  21.554  23.204  1.00  0.00     0.012 A 
ATOM     24  C   UNL A   1      32.579  20.643  25.427  1.00  0.00     0.058 A 
BRANCH  20  25
ATOM     25  O   UNL A   1      32.318  17.901  23.004  1.00  0.00    -0.493 OA
ATOM     26  C   UNL A   1      33.637  17.410  22.785  1.00  0.00     0.278 C 
ENDBRANCH  20  25
BRANCH  22  27
ATOM     27  O   UNL A   1      32.449  18.392  25.917  1.00  0.00    -0.493 OA
ATOM     28  C   UNL A   1      33.107  17.162  25.653  1.00  0.00     0.278 C 
ENDBRANCH  22  27
ENDBRANCH  15  19
BRANCH  17  29
ATOM     29  C   UNL A   1      31.662  26.453  24.091  1.00  0.00     0.000 A 
ATOM     30  C   UNL A   1      30.873  26.580  22.944  1.00  0.00     0.011 A 
ATOM     31  C   UNL A   1      31.778  27.527  24.983  1.00  0.00     0.011 A 
ATOM     32  C   UNL A   1      30.178  27.772  22.703  1.00  0.00     0.021 A 
ATOM     33  C   UNL A   1      31.100  28.721  24.729  1.00  0.00     0.021 A 
ATOM     34  C   UNL A   1      30.300  28.838  23.592  1.00  0.00     0.041 A 
ATOM     35  Cl  UNL A   1      29.478  30.320  23.296  1.00  0.00    -0.084 Cl
ENDBRANCH  17  29
ENDBRANCH   8  14
ENDBRANCH   6   7
ENDBRANCH   3   6
ENDBRANCH   1   2
BRANCH   1  36
ATOM     36  C   UNL A   1      41.171  22.857  26.335  1.00  0.00     0.042 C 
BRANCH  36  37
ATOM     37  C   UNL A   1      42.628  22.951  26.730  1.00  0.00     0.118 C 
BRANCH  37  38
ATOM     38  N   UNL A   1      43.531  23.140  25.613  1.00  0.00    -0.352 N 
ATOM     39  C   UNL A   1      44.326  24.203  25.283  1.00  0.00     0.251 C 
ATOM     40  H   UNL A   1      43.579  22.380  24.988  1.00  0.00     0.163 HD
ATOM     41  O   UNL A   1      45.097  24.122  24.328  1.00  0.00    -0.269 OA
BRANCH  39  42
ATOM     42  C   UNL A   1      44.273  25.463  26.039  1.00  0.00     0.039 A 
ATOM     43  C   UNL A   1      45.467  25.955  26.581  1.00  0.00     0.014 A 
ATOM     44  C   UNL A   1      43.053  26.075  26.331  1.00  0.00     0.014 A 
ATOM     45  C   UNL A   1      45.433  27.035  27.454  1.00  0.00     0.010 A 
ATOM     46  C   UNL A   1      43.028  27.206  27.132  1.00  0.00     0.010 A 
ATOM     47  C   UNL A   1      44.205  27.638  27.754  1.00  0.00    -0.014 A 
BRANCH  47  48
ATOM     48  C   UNL A   1      44.091  28.597  28.868  1.00  0.00     0.031 A 
ATOM     49  C   UNL A   1      43.910  28.047  30.257  1.00  0.00     0.074 A 
ATOM     50  C   UNL A   1      44.088  29.914  28.612  1.00  0.00     0.049 A 
ATOM     51  N   UNL A   1      43.647  28.675  31.370  1.00  0.00    -0.248 NA
ATOM     52  C   UNL A   1      44.004  26.581  30.408  1.00  0.00     0.031 C 
ATOM     53  C   UNL A   1      44.229  30.514  27.284  1.00  0.00     0.029 A 
ATOM     54  N   UNL A   1      43.926  30.982  29.450  1.00  0.00    -0.354 N 
ATOM     55  C   UNL A   1      43.482  27.684  32.332  1.00  0.00     0.074 A 
ATOM     56  C   UNL A   1      43.654  26.411  31.672  1.00  0.00     0.031 C 
ATOM     57  C   UNL A   1      44.133  31.847  27.395  1.00  0.00     0.029 A 
ATOM     58  C   UNL A   1      43.883  32.187  28.791  1.00  0.00     0.049 A 
ATOM     59  H   UNL A   1      43.848  30.897  30.428  1.00  0.00     0.167 HD
ATOM     60  C   UNL A   1      43.224  27.832  33.653  1.00  0.00     0.034 A 
ATOM     61  C   UNL A   1      43.640  33.420  29.271  1.00  0.00     0.034 A 
ATOM     62  C   UNL A   1      43.099  29.120  34.278  1.00  0.00     0.049 A 
ATOM     63  C   UNL A   1      43.411  33.563  30.751  1.00  0.00     0.074 A 
ATOM     64  C   UNL A   1      42.901  29.420  35.611  1.00  0.00     0.029 A 
ATOM     65  N   UNL A   1      43.160  30.330  33.596  1.00  0.00    -0.354 N 
ATOM     66  N   UNL A   1      43.348  32.625  31.670  1.00  0.00    -0.248 NA
ATOM     67  C   UNL A   1      43.261  34.926  31.268  1.00  0.00     0.031 C 
ATOM     68  C   UNL A   1      42.812  30.811  35.730  1.00  0.00     0.029 A 
ATOM     69  C   UNL A   1      43.003  31.380  34.479  1.00  0.00     0.049 A 
ATOM     70  H   UNL A   1      43.296  30.424  32.626  1.00  0.00     0.167 HD
ATOM     71  C   UNL A   1      43.189  33.286  32.880  1.00  0.00     0.074 A 
ATOM     72  C   UNL A   1      43.189  34.706  32.574  1.00  0.00     0.031 C 
ATOM     73  C   UNL A   1      43.045  32.778  34.130  1.00  0.00     0.034 A 
BRANCH  60  74
ATOM     74  C   UNL A   1      43.079  26.584  34.490  1.00  0.00     0.023 A 
ATOM     75  C   UNL A   1      41.796  26.101  34.827  1.00  0.00     0.012 A 
ATOM     76  C   UNL A   1      44.215  25.875  34.928  1.00  0.00     0.148 A 
ATOM     77  C   UNL A   1      41.648  24.960  35.618  1.00  0.00     0.002 A 
ATOM     78  C   UNL A   1      44.058  24.710  35.673  1.00  0.00     0.091 A 
ATOM     79  F   UNL A   1      45.428  26.358  34.622  1.00  0.00    -0.205 F 
ATOM     80  C   UNL A   1      42.778  24.261  36.032  1.00  0.00     0.022 A 
BRANCH  78  81
ATOM     81  S   UNL A   1      45.444  23.691  36.189  1.00  0.00     0.127 S 
ATOM     82  O   UNL A   1      45.598  24.086  37.589  1.00  0.00    -0.237 OA
ATOM     83  O   UNL A   1      44.919  22.340  35.991  1.00  0.00    -0.237 OA
ATOM     84  O   UNL A   1      46.555  24.048  35.318  1.00  0.00    -0.744 OA
ENDBRANCH  78  81
ENDBRANCH  60  74
BRANCH  61  85
ATOM     85  C   UNL A   1      43.662  34.593  28.354  1.00  0.00     0.023 A 
ATOM     86  C   UNL A   1      42.452  35.097  27.840  1.00  0.00     0.012 A 
ATOM     87  C   UNL A   1      44.866  35.255  28.045  1.00  0.00     0.148 A 
ATOM     88  C   UNL A   1      42.444  36.219  27.010  1.00  0.00     0.002 A 
ATOM     89  C   UNL A   1      44.845  36.408  27.270  1.00  0.00     0.091 A 
ATOM     90  F   UNL A   1      46.009  34.757  28.540  1.00  0.00    -0.205 F 
ATOM     91  C   UNL A   1      43.637  36.882  26.735  1.00  0.00     0.022 A 
BRANCH  89  92
ATOM     92  S   UNL A   1      46.311  37.411  26.992  1.00  0.00     0.127 S 
ATOM     93  O   UNL A   1      45.745  38.597  26.358  1.00  0.00    -0.237 OA
ATOM     94  O   UNL A   1      46.802  37.611  28.356  1.00  0.00    -0.237 OA
ATOM     95  O   UNL A   1      47.189  36.603  26.156  1.00  0.00    -0.744 OA
ENDBRANCH  89  92
ENDBRANCH  61  85
BRANCH  73  96
ATOM     96  C   UNL A   1      42.929  33.770  35.254  1.00  0.00     0.023 A 
ATOM     97  C   UNL A   1      44.083  34.229  35.916  1.00  0.00     0.012 A 
ATOM     98  C   UNL A   1      41.667  34.276  35.622  1.00  0.00     0.148 A 
ATOM     99  C   UNL A   1      43.978  35.139  36.967  1.00  0.00     0.002 A 
ATOM    100  C   UNL A   1      41.576  35.227  36.627  1.00  0.00     0.091 A 
ATOM    101  F   UNL A   1      40.580  33.811  34.989  1.00  0.00    -0.205 F 
ATOM    102  C   UNL A   1      42.727  35.645  37.315  1.00  0.00     0.022 A 
BRANCH 100 103
ATOM    103  S   UNL A   1      40.021  36.010  37.062  1.00  0.00     0.127 S 
ATOM    104  O   UNL A   1      40.438  36.940  38.110  1.00  0.00    -0.237 OA
ATOM    105  O   UNL A   1      39.631  36.644  35.802  1.00  0.00    -0.237 OA
ATOM    106  O   UNL A   1      39.139  34.934  37.493  1.00  0.00    -0.744 OA
ENDBRANCH 100 103
ENDBRANCH  73  96
ENDBRANCH  47  48
ENDBRANCH  39  42
ENDBRANCH  37  38
ENDBRANCH  36  37
ENDBRANCH   1  36
TORSDOF 19
ENDMDL
