MODEL 1
REMARK VINA RESULT:     -11.1      0.000      0.000
REMARK SMILES CC(C)OCCS(=O)(=O)N1CCC[C@H](C(=O)NCCCNC(=O)c2ccc(-c3c4nc(c(-c5cccc(S(=O)(=O)[O-])c5F)c5ccc([nH]5)c(-c5cccc(S(=O)(=O)[O-])c5F)c5nc(c(-c6cccc(S(=O)(=O)[O-])c6F)c6ccc3[nH]6)C=C5)C=C4)cc2)C1
REMARK SMILES IDX 18 1 17 2 15 3 16 4 14 6 10 7 11 8 87 9 12 10 13 11 7 12
REMARK SMILES IDX 8 13 9 14 6 15 5 16 4 17 2 18 1 19 3 20 19 21 20 22 21 23
REMARK SMILES IDX 22 24 23 26 24 27 25 28 86 29 26 30 85 31 27 32 28 33 29 34
REMARK SMILES IDX 79 35 30 36 84 37 78 38 80 39 31 40 83 41 77 42 76 43 32 45
REMARK SMILES IDX 64 46 44 47 63 48 45 49 48 50 62 51 81 52 46 53 47 54 61 56
REMARK SMILES IDX 82 57 49 58 33 59 34 60 42 61 35 62 37 63 43 64 36 65 38 66
REMARK SMILES IDX 39 67 40 68 41 69 65 70 66 71 74 72 67 73 69 74 75 75 68 76
REMARK SMILES IDX 70 77 71 78 72 79 73 80 50 81 51 82 59 83 52 84 54 85 60 86
REMARK SMILES IDX 53 87 55 88 56 89 57 90 58 91
REMARK H PARENT 17 5 21 25 80 44 48 55
REMARK Flexibility Score: inf
ROOT
ATOM      1  C   UNL A   1      32.084  30.238  26.444  1.00  0.00     0.117 C 
ENDROOT
BRANCH   1   2
ATOM      2  N   UNL A   1      32.887  29.925  25.277  1.00  0.00    -0.356 N 
ATOM      3  C   UNL A   1      32.622  29.142  24.204  1.00  0.00     0.224 C 
ATOM      4  O   UNL A   1      33.506  29.043  23.346  1.00  0.00    -0.275 OA
ATOM      5  H   UNL A   1      33.774  30.353  25.263  1.00  0.00     0.163 HD
BRANCH   3   6
ATOM      6  C   UNL A   1      31.304  28.395  24.028  1.00  0.00     0.093 C 
ATOM      7  N   UNL A   1      31.097  25.910  24.563  1.00  0.00    -0.201 NA
ATOM      8  C   UNL A   1      30.726  25.625  23.164  1.00  0.00     0.102 C 
ATOM      9  C   UNL A   1      31.082  27.303  25.069  1.00  0.00     0.115 C 
ATOM     10  C   UNL A   1      31.338  26.620  22.196  1.00  0.00     0.018 C 
ATOM     11  C   UNL A   1      30.996  28.047  22.575  1.00  0.00     0.016 C 
BRANCH   7  12
ATOM     12  S   UNL A   1      31.060  24.647  25.686  1.00  0.00     0.216 S 
ATOM     13  O   UNL A   1      30.728  23.428  24.975  1.00  0.00    -0.212 OA
ATOM     14  O   UNL A   1      30.228  25.093  26.782  1.00  0.00    -0.212 OA
BRANCH  12  15
ATOM     15  C   UNL A   1      32.744  24.549  26.308  1.00  0.00     0.182 C 
BRANCH  15  16
ATOM     16  C   UNL A   1      33.475  23.273  25.937  1.00  0.00     0.178 C 
BRANCH  16  17
ATOM     17  O   UNL A   1      34.242  23.381  24.732  1.00  0.00    -0.378 OA
BRANCH  17  18
ATOM     18  C   UNL A   1      34.000  22.456  23.668  1.00  0.00     0.112 C 
ATOM     19  C   UNL A   1      33.158  21.241  24.053  1.00  0.00     0.038 C 
ATOM     20  C   UNL A   1      33.503  23.179  22.423  1.00  0.00     0.038 C 
ENDBRANCH  17  18
ENDBRANCH  16  17
ENDBRANCH  15  16
ENDBRANCH  12  15
ENDBRANCH   7  12
ENDBRANCH   3   6
ENDBRANCH   1   2
BRANCH   1  21
ATOM     21  C   UNL A   1      31.850  31.730  26.566  1.00  0.00     0.042 C 
BRANCH  21  22
ATOM     22  C   UNL A   1      32.893  32.360  27.467  1.00  0.00     0.118 C 
BRANCH  22  23
ATOM     23  N   UNL A   1      32.668  33.796  27.625  1.00  0.00    -0.352 N 
ATOM     24  C   UNL A   1      33.179  34.667  28.560  1.00  0.00     0.251 C 
ATOM     25  H   UNL A   1      32.061  34.200  26.964  1.00  0.00     0.163 HD
ATOM     26  O   UNL A   1      32.686  35.781  28.703  1.00  0.00    -0.269 OA
BRANCH  24  27
ATOM     27  C   UNL A   1      34.315  34.241  29.401  1.00  0.00     0.039 A 
ATOM     28  C   UNL A   1      34.088  33.557  30.597  1.00  0.00     0.014 A 
ATOM     29  C   UNL A   1      35.617  34.497  28.976  1.00  0.00     0.014 A 
ATOM     30  C   UNL A   1      35.176  33.058  31.320  1.00  0.00     0.010 A 
ATOM     31  C   UNL A   1      36.678  33.875  29.610  1.00  0.00     0.010 A 
ATOM     32  C   UNL A   1      36.478  33.172  30.805  1.00  0.00    -0.014 A 
BRANCH  32  33
ATOM     33  C   UNL A   1      37.666  32.601  31.490  1.00  0.00     0.031 A 
ATOM     34  C   UNL A   1      38.425  31.473  30.836  1.00  0.00     0.074 A 
ATOM     35  C   UNL A   1      37.975  32.991  32.743  1.00  0.00     0.049 A 
ATOM     36  N   UNL A   1      39.367  30.715  31.330  1.00  0.00    -0.248 NA
ATOM     37  C   UNL A   1      38.028  31.109  29.463  1.00  0.00     0.031 C 
ATOM     38  C   UNL A   1      37.254  34.002  33.522  1.00  0.00     0.029 A 
ATOM     39  N   UNL A   1      38.957  32.556  33.597  1.00  0.00    -0.354 N 
ATOM     40  C   UNL A   1      39.622  29.749  30.363  1.00  0.00     0.074 A 
ATOM     41  C   UNL A   1      38.702  29.985  29.274  1.00  0.00     0.031 C 
ATOM     42  C   UNL A   1      37.827  34.118  34.731  1.00  0.00     0.029 A 
ATOM     43  C   UNL A   1      38.929  33.168  34.829  1.00  0.00     0.049 A 
ATOM     44  H   UNL A   1      39.620  31.872  33.351  1.00  0.00     0.167 HD
ATOM     45  C   UNL A   1      40.566  28.780  30.357  1.00  0.00     0.034 A 
ATOM     46  C   UNL A   1      39.701  32.977  35.916  1.00  0.00     0.034 A 
ATOM     47  C   UNL A   1      41.546  28.622  31.395  1.00  0.00     0.049 A 
ATOM     48  C   UNL A   1      40.807  31.958  35.849  1.00  0.00     0.074 A 
ATOM     49  C   UNL A   1      42.631  27.767  31.430  1.00  0.00     0.029 A 
ATOM     50  N   UNL A   1      41.563  29.346  32.577  1.00  0.00    -0.354 N 
ATOM     51  N   UNL A   1      41.138  31.166  34.859  1.00  0.00    -0.248 NA
ATOM     52  C   UNL A   1      41.664  31.828  37.035  1.00  0.00     0.031 C 
ATOM     53  C   UNL A   1      43.302  27.969  32.641  1.00  0.00     0.029 A 
ATOM     54  C   UNL A   1      42.638  28.957  33.353  1.00  0.00     0.049 A 
ATOM     55  H   UNL A   1      40.907  30.036  32.826  1.00  0.00     0.167 HD
ATOM     56  C   UNL A   1      42.255  30.461  35.291  1.00  0.00     0.074 A 
ATOM     57  C   UNL A   1      42.561  30.942  36.623  1.00  0.00     0.031 C 
ATOM     58  C   UNL A   1      42.953  29.487  34.654  1.00  0.00     0.034 A 
BRANCH  45  59
ATOM     59  C   UNL A   1      40.635  27.876  29.155  1.00  0.00     0.023 A 
ATOM     60  C   UNL A   1      39.755  26.777  29.061  1.00  0.00     0.012 A 
ATOM     61  C   UNL A   1      41.536  28.128  28.103  1.00  0.00     0.148 A 
ATOM     62  C   UNL A   1      39.800  25.920  27.963  1.00  0.00     0.002 A 
ATOM     63  C   UNL A   1      41.543  27.296  26.989  1.00  0.00     0.091 A 
ATOM     64  F   UNL A   1      42.381  29.163  28.219  1.00  0.00    -0.205 F 
ATOM     65  C   UNL A   1      40.687  26.185  26.923  1.00  0.00     0.022 A 
BRANCH  63  66
ATOM     66  S   UNL A   1      42.593  27.596  25.561  1.00  0.00     0.127 S 
ATOM     67  O   UNL A   1      42.305  26.427  24.733  1.00  0.00    -0.237 OA
ATOM     68  O   UNL A   1      42.057  28.856  25.045  1.00  0.00    -0.237 OA
ATOM     69  O   UNL A   1      43.953  27.680  26.076  1.00  0.00    -0.744 OA
ENDBRANCH  63  66
ENDBRANCH  45  59
BRANCH  46  70
ATOM     70  C   UNL A   1      39.505  33.825  37.128  1.00  0.00     0.023 A 
ATOM     71  C   UNL A   1      39.953  35.160  37.107  1.00  0.00     0.012 A 
ATOM     72  C   UNL A   1      38.848  33.341  38.274  1.00  0.00     0.148 A 
ATOM     73  C   UNL A   1      39.776  35.989  38.215  1.00  0.00     0.002 A 
ATOM     74  C   UNL A   1      38.625  34.188  39.355  1.00  0.00     0.091 A 
ATOM     75  F   UNL A   1      38.439  32.064  38.282  1.00  0.00    -0.205 F 
ATOM     76  C   UNL A   1      39.103  35.507  39.335  1.00  0.00     0.022 A 
BRANCH  74  77
ATOM     77  S   UNL A   1      37.650  33.692  40.780  1.00  0.00     0.127 S 
ATOM     78  O   UNL A   1      36.450  33.148  40.150  1.00  0.00    -0.237 OA
ATOM     79  O   UNL A   1      38.517  32.697  41.415  1.00  0.00    -0.237 OA
ATOM     80  O   UNL A   1      37.463  34.905  41.565  1.00  0.00    -0.744 OA
ENDBRANCH  74  77
ENDBRANCH  46  70
BRANCH  58  81
ATOM     81  C   UNL A   1      44.124  28.883  35.379  1.00  0.00     0.023 A 
ATOM     82  C   UNL A   1      45.401  29.456  35.228  1.00  0.00     0.012 A 
ATOM     83  C   UNL A   1      43.944  27.814  36.278  1.00  0.00     0.148 A 
ATOM     84  C   UNL A   1      46.489  28.957  35.941  1.00  0.00     0.002 A 
ATOM     85  C   UNL A   1      45.023  27.353  37.020  1.00  0.00     0.091 A 
ATOM     86  F   UNL A   1      42.722  27.275  36.394  1.00  0.00    -0.205 F 
ATOM     87  C   UNL A   1      46.297  27.916  36.846  1.00  0.00     0.022 A 
BRANCH  85  88
ATOM     88  S   UNL A   1      44.851  26.080  38.278  1.00  0.00     0.127 S 
ATOM     89  O   UNL A   1      46.227  25.946  38.755  1.00  0.00    -0.237 OA
ATOM     90  O   UNL A   1      43.933  26.706  39.230  1.00  0.00    -0.237 OA
ATOM     91  O   UNL A   1      44.309  24.914  37.595  1.00  0.00    -0.744 OA
ENDBRANCH  85  88
ENDBRANCH  58  81
ENDBRANCH  32  33
ENDBRANCH  24  27
ENDBRANCH  22  23
ENDBRANCH  21  22
ENDBRANCH   1  21
TORSDOF 18
ENDMDL
MODEL 2
REMARK VINA RESULT:     -11.0      2.302      3.277
REMARK SMILES CC(C)OCCS(=O)(=O)N1CCC[C@H](C(=O)NCCCNC(=O)c2ccc(-c3c4nc(c(-c5cccc(S(=O)(=O)[O-])c5F)c5ccc([nH]5)c(-c5cccc(S(=O)(=O)[O-])c5F)c5nc(c(-c6cccc(S(=O)(=O)[O-])c6F)c6ccc3[nH]6)C=C5)C=C4)cc2)C1
REMARK SMILES IDX 18 1 17 2 15 3 16 4 14 6 10 7 11 8 87 9 12 10 13 11 7 12
REMARK SMILES IDX 8 13 9 14 6 15 5 16 4 17 2 18 1 19 3 20 19 21 20 22 21 23
REMARK SMILES IDX 22 24 23 26 24 27 25 28 86 29 26 30 85 31 27 32 28 33 29 34
REMARK SMILES IDX 79 35 30 36 84 37 78 38 80 39 31 40 83 41 77 42 76 43 32 45
REMARK SMILES IDX 64 46 44 47 63 48 45 49 48 50 62 51 81 52 46 53 47 54 61 56
REMARK SMILES IDX 82 57 49 58 33 59 34 60 42 61 35 62 37 63 43 64 36 65 38 66
REMARK SMILES IDX 39 67 40 68 41 69 65 70 66 71 74 72 67 73 69 74 75 75 68 76
REMARK SMILES IDX 70 77 71 78 72 79 73 80 50 81 51 82 59 83 52 84 54 85 60 86
REMARK SMILES IDX 53 87 55 88 56 89 57 90 58 91
REMARK H PARENT 17 5 21 25 80 44 48 55
REMARK Flexibility Score: inf
ROOT
ATOM      1  C   UNL A   1      31.459  26.968  26.477  1.00  0.00     0.117 C 
ENDROOT
BRANCH   1   2
ATOM      2  N   UNL A   1      30.744  27.146  25.227  1.00  0.00    -0.356 N 
ATOM      3  C   UNL A   1      30.944  26.592  24.007  1.00  0.00     0.224 C 
ATOM      4  O   UNL A   1      30.179  26.936  23.099  1.00  0.00    -0.275 OA
ATOM      5  H   UNL A   1      29.989  27.775  25.272  1.00  0.00     0.163 HD
BRANCH   3   6
ATOM      6  C   UNL A   1      32.056  25.588  23.723  1.00  0.00     0.093 C 
ATOM      7  N   UNL A   1      32.901  23.989  25.522  1.00  0.00    -0.201 NA
ATOM      8  C   UNL A   1      34.253  24.571  25.425  1.00  0.00     0.102 C 
ATOM      9  C   UNL A   1      31.891  24.271  24.475  1.00  0.00     0.115 C 
ATOM     10  C   UNL A   1      34.220  26.028  25.002  1.00  0.00     0.018 C 
ATOM     11  C   UNL A   1      33.447  26.214  23.711  1.00  0.00     0.016 C 
BRANCH   7  12
ATOM     12  S   UNL A   1      32.665  22.651  26.527  1.00  0.00     0.216 S 
ATOM     13  O   UNL A   1      31.683  23.014  27.529  1.00  0.00    -0.212 OA
ATOM     14  O   UNL A   1      33.979  22.202  26.933  1.00  0.00    -0.212 OA
BRANCH  12  15
ATOM     15  C   UNL A   1      31.989  21.386  25.442  1.00  0.00     0.182 C 
BRANCH  15  16
ATOM     16  C   UNL A   1      32.864  20.157  25.293  1.00  0.00     0.178 C 
BRANCH  16  17
ATOM     17  O   UNL A   1      32.127  18.929  25.268  1.00  0.00    -0.378 OA
BRANCH  17  18
ATOM     18  C   UNL A   1      32.476  17.928  24.307  1.00  0.00     0.112 C 
ATOM     19  C   UNL A   1      32.459  18.398  22.854  1.00  0.00     0.038 C 
ATOM     20  C   UNL A   1      33.763  17.217  24.708  1.00  0.00     0.038 C 
ENDBRANCH  17  18
ENDBRANCH  16  17
ENDBRANCH  15  16
ENDBRANCH  12  15
ENDBRANCH   7  12
ENDBRANCH   3   6
ENDBRANCH   1   2
BRANCH   1  21
ATOM     21  C   UNL A   1      31.721  28.298  27.154  1.00  0.00     0.042 C 
BRANCH  21  22
ATOM     22  C   UNL A   1      32.714  29.115  26.352  1.00  0.00     0.118 C 
BRANCH  22  23
ATOM     23  N   UNL A   1      32.417  30.545  26.430  1.00  0.00    -0.352 N 
ATOM     24  C   UNL A   1      33.077  31.543  27.110  1.00  0.00     0.251 C 
ATOM     25  H   UNL A   1      31.627  30.837  25.921  1.00  0.00     0.163 HD
ATOM     26  O   UNL A   1      32.545  32.636  27.276  1.00  0.00    -0.269 OA
BRANCH  24  27
ATOM     27  C   UNL A   1      34.424  31.279  27.652  1.00  0.00     0.039 A 
ATOM     28  C   UNL A   1      35.344  32.320  27.792  1.00  0.00     0.014 A 
ATOM     29  C   UNL A   1      34.761  29.988  28.054  1.00  0.00     0.014 A 
ATOM     30  C   UNL A   1      36.571  32.075  28.415  1.00  0.00     0.010 A 
ATOM     31  C   UNL A   1      35.907  29.782  28.803  1.00  0.00     0.010 A 
ATOM     32  C   UNL A   1      36.841  30.813  28.970  1.00  0.00    -0.014 A 
BRANCH  32  33
ATOM     33  C   UNL A   1      38.095  30.510  29.706  1.00  0.00     0.031 A 
ATOM     34  C   UNL A   1      39.101  29.568  29.093  1.00  0.00     0.074 A 
ATOM     35  C   UNL A   1      38.264  30.958  30.965  1.00  0.00     0.049 A 
ATOM     36  N   UNL A   1      40.164  29.030  29.630  1.00  0.00    -0.248 NA
ATOM     37  C   UNL A   1      38.845  29.125  27.709  1.00  0.00     0.031 C 
ATOM     38  C   UNL A   1      37.314  31.794  31.706  1.00  0.00     0.029 A 
ATOM     39  N   UNL A   1      39.282  30.745  31.860  1.00  0.00    -0.354 N 
ATOM     40  C   UNL A   1      40.656  28.138  28.682  1.00  0.00     0.074 A 
ATOM     41  C   UNL A   1      39.751  28.171  27.557  1.00  0.00     0.031 C 
ATOM     42  C   UNL A   1      37.802  32.032  32.935  1.00  0.00     0.029 A 
ATOM     43  C   UNL A   1      39.076  31.338  33.085  1.00  0.00     0.049 A 
ATOM     44  H   UNL A   1      40.084  30.216  31.646  1.00  0.00     0.167 HD
ATOM     45  C   UNL A   1      41.784  27.393  28.722  1.00  0.00     0.034 A 
ATOM     46  C   UNL A   1      39.827  31.318  34.202  1.00  0.00     0.034 A 
ATOM     47  C   UNL A   1      42.734  27.449  29.798  1.00  0.00     0.049 A 
ATOM     48  C   UNL A   1      41.127  30.558  34.187  1.00  0.00     0.074 A 
ATOM     49  C   UNL A   1      43.974  26.845  29.883  1.00  0.00     0.029 A 
ATOM     50  N   UNL A   1      42.550  28.162  30.973  1.00  0.00    -0.354 N 
ATOM     51  N   UNL A   1      41.658  29.853  33.218  1.00  0.00    -0.248 NA
ATOM     52  C   UNL A   1      41.945  30.616  35.407  1.00  0.00     0.031 C 
ATOM     53  C   UNL A   1      44.538  27.187  31.116  1.00  0.00     0.029 A 
ATOM     54  C   UNL A   1      43.652  28.012  31.792  1.00  0.00     0.049 A 
ATOM     55  H   UNL A   1      41.752  28.697  31.190  1.00  0.00     0.167 HD
ATOM     56  C   UNL A   1      42.882  29.403  33.699  1.00  0.00     0.074 A 
ATOM     57  C   UNL A   1      43.026  29.941  35.037  1.00  0.00     0.031 C 
ATOM     58  C   UNL A   1      43.795  28.600  33.100  1.00  0.00     0.034 A 
BRANCH  45  59
ATOM     59  C   UNL A   1      42.091  26.522  27.532  1.00  0.00     0.023 A 
ATOM     60  C   UNL A   1      42.704  27.091  26.395  1.00  0.00     0.012 A 
ATOM     61  C   UNL A   1      41.812  25.142  27.547  1.00  0.00     0.148 A 
ATOM     62  C   UNL A   1      42.994  26.311  25.277  1.00  0.00     0.002 A 
ATOM     63  C   UNL A   1      42.147  24.361  26.446  1.00  0.00     0.091 A 
ATOM     64  F   UNL A   1      41.208  24.623  28.625  1.00  0.00    -0.205 F 
ATOM     65  C   UNL A   1      42.725  24.945  25.307  1.00  0.00     0.022 A 
BRANCH  63  66
ATOM     66  S   UNL A   1      41.913  22.580  26.414  1.00  0.00     0.127 S 
ATOM     67  O   UNL A   1      42.602  22.214  25.178  1.00  0.00    -0.237 OA
ATOM     68  O   UNL A   1      42.594  22.159  27.639  1.00  0.00    -0.237 OA
ATOM     69  O   UNL A   1      40.472  22.365  26.416  1.00  0.00    -0.744 OA
ENDBRANCH  63  66
ENDBRANCH  45  59
BRANCH  46  70
ATOM     70  C   UNL A   1      39.409  32.107  35.397  1.00  0.00     0.023 A 
ATOM     71  C   UNL A   1      39.717  33.481  35.451  1.00  0.00     0.012 A 
ATOM     72  C   UNL A   1      38.677  31.527  36.450  1.00  0.00     0.148 A 
ATOM     73  C   UNL A   1      39.330  34.255  36.545  1.00  0.00     0.002 A 
ATOM     74  C   UNL A   1      38.246  32.316  37.512  1.00  0.00     0.091 A 
ATOM     75  F   UNL A   1      38.403  30.216  36.388  1.00  0.00    -0.205 F 
ATOM     76  C   UNL A   1      38.586  33.676  37.570  1.00  0.00     0.022 A 
BRANCH  74  77
ATOM     77  S   UNL A   1      37.170  31.684  38.804  1.00  0.00     0.127 S 
ATOM     78  O   UNL A   1      38.019  31.799  39.986  1.00  0.00    -0.237 OA
ATOM     79  O   UNL A   1      36.049  32.624  38.756  1.00  0.00    -0.237 OA
ATOM     80  O   UNL A   1      36.827  30.327  38.396  1.00  0.00    -0.744 OA
ENDBRANCH  74  77
ENDBRANCH  46  70
BRANCH  58  81
ATOM     81  C   UNL A   1      45.038  28.260  33.875  1.00  0.00     0.023 A 
ATOM     82  C   UNL A   1      46.144  29.131  33.824  1.00  0.00     0.012 A 
ATOM     83  C   UNL A   1      45.078  27.136  34.721  1.00  0.00     0.148 A 
ATOM     84  C   UNL A   1      47.282  28.875  34.586  1.00  0.00     0.002 A 
ATOM     85  C   UNL A   1      46.196  26.912  35.513  1.00  0.00     0.091 A 
ATOM     86  F   UNL A   1      44.020  26.313  34.741  1.00  0.00    -0.205 F 
ATOM     87  C   UNL A   1      47.303  27.774  35.439  1.00  0.00     0.022 A 
BRANCH  85  88
ATOM     88  S   UNL A   1      46.275  25.575  36.711  1.00  0.00     0.127 S 
ATOM     89  O   UNL A   1      47.585  25.797  37.319  1.00  0.00    -0.237 OA
ATOM     90  O   UNL A   1      45.138  25.872  37.584  1.00  0.00    -0.237 OA
ATOM     91  O   UNL A   1      46.141  24.343  35.945  1.00  0.00    -0.744 OA
ENDBRANCH  85  88
ENDBRANCH  58  81
ENDBRANCH  32  33
ENDBRANCH  24  27
ENDBRANCH  22  23
ENDBRANCH  21  22
ENDBRANCH   1  21
TORSDOF 18
ENDMDL
MODEL 3
REMARK VINA RESULT:     -10.9      5.950     11.945
REMARK SMILES CC(C)OCCS(=O)(=O)N1CCC[C@H](C(=O)NCCCNC(=O)c2ccc(-c3c4nc(c(-c5cccc(S(=O)(=O)[O-])c5F)c5ccc([nH]5)c(-c5cccc(S(=O)(=O)[O-])c5F)c5nc(c(-c6cccc(S(=O)(=O)[O-])c6F)c6ccc3[nH]6)C=C5)C=C4)cc2)C1
REMARK SMILES IDX 18 1 17 2 15 3 16 4 14 6 10 7 11 8 87 9 12 10 13 11 7 12
REMARK SMILES IDX 8 13 9 14 6 15 5 16 4 17 2 18 1 19 3 20 19 21 20 22 21 23
REMARK SMILES IDX 22 24 23 26 24 27 25 28 86 29 26 30 85 31 27 32 28 33 29 34
REMARK SMILES IDX 79 35 30 36 84 37 78 38 80 39 31 40 83 41 77 42 76 43 32 45
REMARK SMILES IDX 64 46 44 47 63 48 45 49 48 50 62 51 81 52 46 53 47 54 61 56
REMARK SMILES IDX 82 57 49 58 33 59 34 60 42 61 35 62 37 63 43 64 36 65 38 66
REMARK SMILES IDX 39 67 40 68 41 69 65 70 66 71 74 72 67 73 69 74 75 75 68 76
REMARK SMILES IDX 70 77 71 78 72 79 73 80 50 81 51 82 59 83 52 84 54 85 60 86
REMARK SMILES IDX 53 87 55 88 56 89 57 90 58 91
REMARK H PARENT 17 5 21 25 80 44 48 55
REMARK Flexibility Score: inf
ROOT
ATOM      1  C   UNL A   1      37.430  21.469  24.549  1.00  0.00     0.117 C 
ENDROOT
BRANCH   1   2
ATOM      2  N   UNL A   1      36.677  22.219  25.537  1.00  0.00    -0.356 N 
ATOM      3  C   UNL A   1      35.407  22.690  25.511  1.00  0.00     0.224 C 
ATOM      4  O   UNL A   1      35.017  23.316  26.503  1.00  0.00    -0.275 OA
ATOM      5  H   UNL A   1      37.171  22.419  26.364  1.00  0.00     0.163 HD
BRANCH   3   6
ATOM      6  C   UNL A   1      34.470  22.484  24.326  1.00  0.00     0.093 C 
ATOM      7  N   UNL A   1      32.985  24.366  23.454  1.00  0.00    -0.201 NA
ATOM      8  C   UNL A   1      31.778  23.569  23.748  1.00  0.00     0.102 C 
ATOM      9  C   UNL A   1      34.320  23.722  23.448  1.00  0.00     0.115 C 
ATOM     10  C   UNL A   1      31.990  22.618  24.910  1.00  0.00     0.018 C 
ATOM     11  C   UNL A   1      33.196  21.727  24.687  1.00  0.00     0.016 C 
BRANCH   7  12
ATOM     12  S   UNL A   1      32.805  25.851  22.667  1.00  0.00     0.216 S 
ATOM     13  O   UNL A   1      31.420  25.974  22.259  1.00  0.00    -0.212 OA
ATOM     14  O   UNL A   1      33.859  25.924  21.679  1.00  0.00    -0.212 OA
BRANCH  12  15
ATOM     15  C   UNL A   1      33.179  27.077  23.928  1.00  0.00     0.182 C 
BRANCH  15  16
ATOM     16  C   UNL A   1      33.510  26.494  25.289  1.00  0.00     0.178 C 
BRANCH  16  17
ATOM     17  O   UNL A   1      32.578  26.861  26.312  1.00  0.00    -0.378 OA
BRANCH  17  18
ATOM     18  C   UNL A   1      32.887  27.962  27.171  1.00  0.00     0.112 C 
ATOM     19  C   UNL A   1      34.273  28.569  26.965  1.00  0.00     0.038 C 
ATOM     20  C   UNL A   1      31.760  28.987  27.166  1.00  0.00     0.038 C 
ENDBRANCH  17  18
ENDBRANCH  16  17
ENDBRANCH  15  16
ENDBRANCH  12  15
ENDBRANCH   7  12
ENDBRANCH   3   6
ENDBRANCH   1   2
BRANCH   1  21
ATOM     21  C   UNL A   1      38.029  20.214  25.150  1.00  0.00     0.042 C 
BRANCH  21  22
ATOM     22  C   UNL A   1      39.220  20.557  26.021  1.00  0.00     0.118 C 
BRANCH  22  23
ATOM     23  N   UNL A   1      40.175  19.452  26.081  1.00  0.00    -0.352 N 
ATOM     24  C   UNL A   1      41.551  19.481  26.091  1.00  0.00     0.251 C 
ATOM     25  H   UNL A   1      39.775  18.554  26.120  1.00  0.00     0.163 HD
ATOM     26  O   UNL A   1      42.194  18.457  25.883  1.00  0.00    -0.269 OA
BRANCH  24  27
ATOM     27  C   UNL A   1      42.246  20.761  26.336  1.00  0.00     0.039 A 
ATOM     28  C   UNL A   1      42.540  21.617  25.272  1.00  0.00     0.014 A 
ATOM     29  C   UNL A   1      42.577  21.123  27.640  1.00  0.00     0.014 A 
ATOM     30  C   UNL A   1      43.091  22.875  25.536  1.00  0.00     0.010 A 
ATOM     31  C   UNL A   1      42.979  22.420  27.908  1.00  0.00     0.010 A 
ATOM     32  C   UNL A   1      43.269  23.305  26.861  1.00  0.00    -0.014 A 
BRANCH  32  33
ATOM     33  C   UNL A   1      43.783  24.655  27.206  1.00  0.00     0.031 A 
ATOM     34  C   UNL A   1      42.830  25.691  27.748  1.00  0.00     0.074 A 
ATOM     35  C   UNL A   1      45.053  24.991  26.906  1.00  0.00     0.049 A 
ATOM     36  N   UNL A   1      43.022  26.969  27.942  1.00  0.00    -0.248 NA
ATOM     37  C   UNL A   1      41.459  25.243  28.055  1.00  0.00     0.031 C 
ATOM     38  C   UNL A   1      46.043  24.107  26.285  1.00  0.00     0.029 A 
ATOM     39  N   UNL A   1      45.719  26.182  27.049  1.00  0.00    -0.354 N 
ATOM     40  C   UNL A   1      41.786  27.483  28.322  1.00  0.00     0.074 A 
ATOM     41  C   UNL A   1      40.841  26.391  28.284  1.00  0.00     0.031 C 
ATOM     42  C   UNL A   1      47.192  24.782  26.115  1.00  0.00     0.029 A 
ATOM     43  C   UNL A   1      47.011  26.153  26.577  1.00  0.00     0.049 A 
ATOM     44  H   UNL A   1      45.311  26.981  27.452  1.00  0.00     0.167 HD
ATOM     45  C   UNL A   1      41.473  28.740  28.713  1.00  0.00     0.034 A 
ATOM     46  C   UNL A   1      47.942  27.125  26.519  1.00  0.00     0.034 A 
ATOM     47  C   UNL A   1      42.440  29.791  28.852  1.00  0.00     0.049 A 
ATOM     48  C   UNL A   1      47.596  28.491  27.050  1.00  0.00     0.074 A 
ATOM     49  C   UNL A   1      42.264  31.061  29.369  1.00  0.00     0.029 A 
ATOM     50  N   UNL A   1      43.773  29.688  28.481  1.00  0.00    -0.354 N 
ATOM     51  N   UNL A   1      46.465  28.914  27.561  1.00  0.00    -0.248 NA
ATOM     52  C   UNL A   1      48.660  29.503  27.025  1.00  0.00     0.031 C 
ATOM     53  C   UNL A   1      43.490  31.730  29.303  1.00  0.00     0.029 A 
ATOM     54  C   UNL A   1      44.431  30.872  28.754  1.00  0.00     0.049 A 
ATOM     55  H   UNL A   1      44.188  28.889  28.083  1.00  0.00     0.167 HD
ATOM     56  C   UNL A   1      46.688  30.232  27.941  1.00  0.00     0.074 A 
ATOM     57  C   UNL A   1      48.071  30.528  27.627  1.00  0.00     0.031 C 
ATOM     58  C   UNL A   1      45.822  31.126  28.480  1.00  0.00     0.034 A 
BRANCH  45  59
ATOM     59  C   UNL A   1      40.044  29.018  29.098  1.00  0.00     0.023 A 
ATOM     60  C   UNL A   1      39.082  29.237  28.088  1.00  0.00     0.012 A 
ATOM     61  C   UNL A   1      39.640  29.026  30.446  1.00  0.00     0.148 A 
ATOM     62  C   UNL A   1      37.754  29.503  28.414  1.00  0.00     0.002 A 
ATOM     63  C   UNL A   1      38.303  29.246  30.762  1.00  0.00     0.091 A 
ATOM     64  F   UNL A   1      40.570  28.840  31.394  1.00  0.00    -0.205 F 
ATOM     65  C   UNL A   1      37.363  29.497  29.750  1.00  0.00     0.022 A 
BRANCH  63  66
ATOM     66  S   UNL A   1      37.683  29.181  32.448  1.00  0.00     0.127 S 
ATOM     67  O   UNL A   1      38.586  30.107  33.130  1.00  0.00    -0.237 OA
ATOM     68  O   UNL A   1      36.313  29.672  32.290  1.00  0.00    -0.237 OA
ATOM     69  O   UNL A   1      37.785  27.788  32.859  1.00  0.00    -0.744 OA
ENDBRANCH  63  66
ENDBRANCH  45  59
BRANCH  46  70
ATOM     70  C   UNL A   1      49.310  26.818  26.012  1.00  0.00     0.023 A 
ATOM     71  C   UNL A   1      50.196  26.091  26.833  1.00  0.00     0.012 A 
ATOM     72  C   UNL A   1      49.726  27.196  24.722  1.00  0.00     0.148 A 
ATOM     73  C   UNL A   1      51.480  25.773  26.389  1.00  0.00     0.002 A 
ATOM     74  C   UNL A   1      50.988  26.828  24.265  1.00  0.00     0.091 A 
ATOM     75  F   UNL A   1      48.876  27.898  23.959  1.00  0.00    -0.205 F 
ATOM     76  C   UNL A   1      51.872  26.131  25.103  1.00  0.00     0.022 A 
BRANCH  74  77
ATOM     77  S   UNL A   1      51.524  27.129  22.576  1.00  0.00     0.127 S 
ATOM     78  O   UNL A   1      50.359  26.697  21.809  1.00  0.00    -0.237 OA
ATOM     79  O   UNL A   1      51.757  28.574  22.581  1.00  0.00    -0.237 OA
ATOM     80  O   UNL A   1      52.731  26.332  22.403  1.00  0.00    -0.744 OA
ENDBRANCH  74  77
ENDBRANCH  46  70
BRANCH  58  81
ATOM     81  C   UNL A   1      46.342  32.505  28.779  1.00  0.00     0.023 A 
ATOM     82  C   UNL A   1      47.039  32.735  29.981  1.00  0.00     0.012 A 
ATOM     83  C   UNL A   1      46.224  33.542  27.835  1.00  0.00     0.148 A 
ATOM     84  C   UNL A   1      47.590  33.987  30.250  1.00  0.00     0.002 A 
ATOM     85  C   UNL A   1      46.815  34.773  28.089  1.00  0.00     0.091 A 
ATOM     86  F   UNL A   1      45.542  33.304  26.705  1.00  0.00    -0.205 F 
ATOM     87  C   UNL A   1      47.489  35.000  29.300  1.00  0.00     0.022 A 
BRANCH  85  88
ATOM     88  S   UNL A   1      46.819  36.106  26.884  1.00  0.00     0.127 S 
ATOM     89  O   UNL A   1      45.392  36.399  26.760  1.00  0.00    -0.237 OA
ATOM     90  O   UNL A   1      47.598  37.139  27.566  1.00  0.00    -0.237 OA
ATOM     91  O   UNL A   1      47.452  35.563  25.690  1.00  0.00    -0.744 OA
ENDBRANCH  85  88
ENDBRANCH  58  81
ENDBRANCH  32  33
ENDBRANCH  24  27
ENDBRANCH  22  23
ENDBRANCH  21  22
ENDBRANCH   1  21
TORSDOF 18
ENDMDL
