MODEL 1
REMARK VINA RESULT:     -14.8      0.000      0.000
REMARK SMILES COc1ccc(/C=C2/C(=O)N(c3ccccc3)C(=O)[NH+]=C2NCCCNC(=O)c2ccc(-c3c4nc(c(-c5cccc(S(=O)(=O)[O-])c5F)c5ccc([nH]5)c(-c5cccc(S(=O)(=O)[O-])c5F)c5nc(c(-c6cccc(S(=O)(=O)[O-])c6F)c6ccc3[nH]6)C=C5)C=C4)cc2)cc1C(=O)[O-]
REMARK SMILES IDX 25 1 24 2 23 3 22 4 7 5 8 6 9 7 21 8 10 9 11 10 20 11 18 12
REMARK SMILES IDX 19 15 6 16 3 17 4 18 93 19 5 20 92 21 2 22 1 23 94 24 95 25
REMARK SMILES IDX 96 26 12 27 13 28 17 29 14 30 16 31 15 32 26 33 27 34 28 36
REMARK SMILES IDX 29 37 30 38 91 39 31 40 90 41 32 42 33 43 34 44 84 45 35 46
REMARK SMILES IDX 89 47 83 48 85 49 36 50 88 51 82 52 81 53 37 55 69 56 49 57
REMARK SMILES IDX 68 58 50 59 53 60 67 61 86 62 51 63 52 64 66 66 87 67 54 68
REMARK SMILES IDX 38 69 39 70 47 71 40 72 42 73 48 74 41 75 43 76 44 77 45 78
REMARK SMILES IDX 46 79 70 80 71 81 79 82 72 83 74 84 80 85 73 86 75 87 76 88
REMARK SMILES IDX 77 89 78 90 55 91 56 92 64 93 57 94 59 95 65 96 58 97 60 98
REMARK SMILES IDX 61 99 62 100 63 101
REMARK H PARENT 20 13 22 14 26 35 85 54 53 65
REMARK Flexibility Score: inf
ROOT
ATOM      1  C   UNL A   1      33.060  30.273  26.909  1.00  0.00     0.119 C 
ENDROOT
BRANCH   1   2
ATOM      2  C   UNL A   1      32.161  29.341  25.715  1.00  0.00     0.059 C 
BRANCH   2   3
ATOM      3  C   UNL A   1      32.302  27.323  24.877  1.00  0.00     0.195 C 
BRANCH   3   4
ATOM      4  N   UNL A   1      32.244  25.885  25.619  1.00  0.00    -0.305 N 
ATOM      5  C   UNL A   1      31.972  25.189  22.670  1.00  0.00     0.030 C 
ATOM      6  C   UNL A   1      32.364  24.323  23.619  1.00  0.00     0.129 C 
ATOM      7  C   UNL A   1      32.898  22.982  23.307  1.00  0.00     0.328 C 
ATOM      8  C   UNL A   1      32.193  24.621  25.067  1.00  0.00     0.236 C 
ATOM      9  O   UNL A   1      33.535  22.772  22.279  1.00  0.00    -0.249 OA
ATOM     10  N   UNL A   1      32.568  22.052  24.279  1.00  0.00    -0.155 N 
ATOM     11  N   UNL A   1      31.900  23.647  25.880  1.00  0.00    -0.209 N 
ATOM     12  C   UNL A   1      31.747  22.383  25.355  1.00  0.00     0.448 C 
ATOM     13  H   UNL A   1      31.792  23.810  26.845  1.00  0.00     0.270 HD
ATOM     14  H   UNL A   1      32.248  25.916  26.603  1.00  0.00     0.256 HD
ATOM     15  O   UNL A   1      30.927  21.603  25.834  1.00  0.00    -0.212 OA
BRANCH   5  16
ATOM     16  C   UNL A   1      31.498  26.491  23.134  1.00  0.00    -0.024 A 
ATOM     17  C   UNL A   1      29.607  29.532  22.655  1.00  0.00     0.127 A 
ATOM     18  C   UNL A   1      31.349  29.473  22.184  1.00  0.00     0.048 A 
ATOM     19  C   UNL A   1      28.804  28.055  23.286  1.00  0.00     0.040 A 
ATOM     20  C   UNL A   1      32.337  27.986  22.534  1.00  0.00     0.012 A 
ATOM     21  C   UNL A   1      29.749  26.560  23.573  1.00  0.00     0.022 A 
BRANCH  17  22
ATOM     22  O   UNL A   1      28.953  30.713  22.469  1.00  0.00    -0.496 OA
ATOM     23  C   UNL A   1      28.903  31.459  23.688  1.00  0.00     0.278 C 
ENDBRANCH  17  22
BRANCH  19  24
ATOM     24  C   UNL A   1      27.370  27.994  23.535  1.00  0.00     0.075 C 
ATOM     25  O   UNL A   1      26.554  28.817  23.178  1.00  0.00    -0.545 OA
ATOM     26  O   UNL A   1      27.060  26.825  24.109  1.00  0.00    -0.545 OA
ENDBRANCH  19  24
ENDBRANCH   5  16
BRANCH  10  27
ATOM     27  C   UNL A   1      32.920  20.700  24.084  1.00  0.00     0.111 A 
ATOM     28  C   UNL A   1      32.170  19.866  23.253  1.00  0.00     0.044 A 
ATOM     29  C   UNL A   1      34.023  20.195  24.782  1.00  0.00     0.044 A 
ATOM     30  C   UNL A   1      32.534  18.526  23.112  1.00  0.00     0.004 A 
ATOM     31  C   UNL A   1      34.371  18.852  24.653  1.00  0.00     0.004 A 
ATOM     32  C   UNL A   1      33.630  18.020  23.815  1.00  0.00     0.000 A 
ENDBRANCH  10  27
ENDBRANCH   3   4
ENDBRANCH   2   3
ENDBRANCH   1   2
BRANCH   1  33
ATOM     33  N   UNL A   1      32.870  31.731  27.012  1.00  0.00    -0.352 N 
ATOM     34  C   UNL A   1      33.508  32.686  27.746  1.00  0.00     0.251 C 
ATOM     35  H   UNL A   1      32.147  32.080  26.444  1.00  0.00     0.163 HD
ATOM     36  O   UNL A   1      33.039  33.814  27.852  1.00  0.00    -0.269 OA
BRANCH  34  37
ATOM     37  C   UNL A   1      34.790  32.356  28.358  1.00  0.00     0.039 A 
ATOM     38  C   UNL A   1      35.926  33.099  28.031  1.00  0.00     0.014 A 
ATOM     39  C   UNL A   1      34.839  31.272  29.235  1.00  0.00     0.014 A 
ATOM     40  C   UNL A   1      37.133  32.777  28.638  1.00  0.00     0.010 A 
ATOM     41  C   UNL A   1      36.022  30.990  29.879  1.00  0.00     0.010 A 
ATOM     42  C   UNL A   1      37.173  31.731  29.570  1.00  0.00    -0.014 A 
BRANCH  42  43
ATOM     43  C   UNL A   1      38.416  31.312  30.231  1.00  0.00     0.031 A 
ATOM     44  C   UNL A   1      39.240  30.256  29.561  1.00  0.00     0.074 A 
ATOM     45  C   UNL A   1      38.645  31.727  31.488  1.00  0.00     0.049 A 
ATOM     46  N   UNL A   1      40.209  29.536  30.049  1.00  0.00    -0.248 NA
ATOM     47  C   UNL A   1      38.878  29.926  28.169  1.00  0.00     0.031 C 
ATOM     48  C   UNL A   1      37.822  32.692  32.223  1.00  0.00     0.029 A 
ATOM     49  N   UNL A   1      39.596  31.339  32.390  1.00  0.00    -0.354 N 
ATOM     50  C   UNL A   1      40.536  28.629  29.049  1.00  0.00     0.074 A 
ATOM     51  C   UNL A   1      39.648  28.874  27.936  1.00  0.00     0.031 C 
ATOM     52  C   UNL A   1      38.287  32.796  33.478  1.00  0.00     0.029 A 
ATOM     53  C   UNL A   1      39.417  31.888  33.638  1.00  0.00     0.049 A 
ATOM     54  H   UNL A   1      40.336  30.730  32.168  1.00  0.00     0.167 HD
ATOM     55  C   UNL A   1      41.508  27.690  29.064  1.00  0.00     0.034 A 
ATOM     56  C   UNL A   1      40.087  31.657  34.782  1.00  0.00     0.034 A 
ATOM     57  C   UNL A   1      42.400  27.515  30.175  1.00  0.00     0.049 A 
ATOM     58  C   UNL A   1      41.229  30.678  34.740  1.00  0.00     0.074 A 
ATOM     59  C   UNL A   1      43.486  26.669  30.287  1.00  0.00     0.029 A 
ATOM     60  N   UNL A   1      42.303  28.214  31.370  1.00  0.00    -0.354 N 
ATOM     61  N   UNL A   1      41.627  29.924  33.741  1.00  0.00    -0.248 NA
ATOM     62  C   UNL A   1      42.038  30.541  35.957  1.00  0.00     0.031 C 
ATOM     63  C   UNL A   1      44.047  26.858  31.555  1.00  0.00     0.029 A 
ATOM     64  C   UNL A   1      43.318  27.831  32.225  1.00  0.00     0.049 A 
ATOM     65  H   UNL A   1      41.612  28.884  31.579  1.00  0.00     0.167 HD
ATOM     66  C   UNL A   1      42.761  29.262  34.191  1.00  0.00     0.074 A 
ATOM     67  C   UNL A   1      42.986  29.706  35.554  1.00  0.00     0.031 C 
ATOM     68  C   UNL A   1      43.541  28.360  33.547  1.00  0.00     0.034 A 
BRANCH  55  69
ATOM     69  C   UNL A   1      41.684  26.844  27.832  1.00  0.00     0.023 A 
ATOM     70  C   UNL A   1      42.250  27.415  26.673  1.00  0.00     0.012 A 
ATOM     71  C   UNL A   1      41.314  25.485  27.818  1.00  0.00     0.148 A 
ATOM     72  C   UNL A   1      42.408  26.663  25.510  1.00  0.00     0.002 A 
ATOM     73  C   UNL A   1      41.515  24.728  26.668  1.00  0.00     0.091 A 
ATOM     74  F   UNL A   1      40.753  24.963  28.918  1.00  0.00    -0.205 F 
ATOM     75  C   UNL A   1      42.049  25.318  25.511  1.00  0.00     0.022 A 
BRANCH  73  76
ATOM     76  S   UNL A   1      41.153  22.971  26.589  1.00  0.00     0.127 S 
ATOM     77  O   UNL A   1      39.700  22.976  26.429  1.00  0.00    -0.237 OA
ATOM     78  O   UNL A   1      41.895  22.557  25.397  1.00  0.00    -0.237 OA
ATOM     79  O   UNL A   1      41.644  22.404  27.836  1.00  0.00    -0.744 OA
ENDBRANCH  73  76
ENDBRANCH  55  69
BRANCH  56  80
ATOM     80  C   UNL A   1      39.754  32.436  36.006  1.00  0.00     0.023 A 
ATOM     81  C   UNL A   1      40.373  33.686  36.205  1.00  0.00     0.012 A 
ATOM     82  C   UNL A   1      38.785  31.998  36.929  1.00  0.00     0.148 A 
ATOM     83  C   UNL A   1      40.056  34.471  37.313  1.00  0.00     0.002 A 
ATOM     84  C   UNL A   1      38.436  32.808  38.005  1.00  0.00     0.091 A 
ATOM     85  F   UNL A   1      38.206  30.806  36.726  1.00  0.00    -0.205 F 
ATOM     86  C   UNL A   1      39.082  34.038  38.207  1.00  0.00     0.022 A 
BRANCH  84  87
ATOM     87  S   UNL A   1      37.093  32.393  39.125  1.00  0.00     0.127 S 
ATOM     88  O   UNL A   1      37.328  30.971  39.361  1.00  0.00    -0.237 OA
ATOM     89  O   UNL A   1      37.368  33.263  40.270  1.00  0.00    -0.237 OA
ATOM     90  O   UNL A   1      35.870  32.728  38.406  1.00  0.00    -0.744 OA
ENDBRANCH  84  87
ENDBRANCH  56  80
BRANCH  68  91
ATOM     91  C   UNL A   1      44.744  27.834  34.277  1.00  0.00     0.023 A 
ATOM     92  C   UNL A   1      45.952  28.554  34.238  1.00  0.00     0.012 A 
ATOM     93  C   UNL A   1      44.627  26.703  35.107  1.00  0.00     0.148 A 
ATOM     94  C   UNL A   1      47.037  28.146  35.012  1.00  0.00     0.002 A 
ATOM     95  C   UNL A   1      45.696  26.330  35.908  1.00  0.00     0.091 A 
ATOM     96  F   UNL A   1      43.469  26.028  35.108  1.00  0.00    -0.205 F 
ATOM     97  C   UNL A   1      46.904  27.046  35.856  1.00  0.00     0.022 A 
BRANCH  95  98
ATOM     98  S   UNL A   1      45.581  24.993  37.101  1.00  0.00     0.127 S 
ATOM     99  O   UNL A   1      45.359  23.838  36.232  1.00  0.00    -0.237 OA
ATOM    100  O   UNL A   1      46.898  25.033  37.739  1.00  0.00    -0.237 OA
ATOM    101  O   UNL A   1      44.472  25.332  37.982  1.00  0.00    -0.744 OA
ENDBRANCH  95  98
ENDBRANCH  68  91
ENDBRANCH  42  43
ENDBRANCH  34  37
ENDBRANCH   1  33
TORSDOF 16
ENDMDL
MODEL 2
REMARK VINA RESULT:     -14.5      2.053      7.565
REMARK SMILES COc1ccc(/C=C2/C(=O)N(c3ccccc3)C(=O)[NH+]=C2NCCCNC(=O)c2ccc(-c3c4nc(c(-c5cccc(S(=O)(=O)[O-])c5F)c5ccc([nH]5)c(-c5cccc(S(=O)(=O)[O-])c5F)c5nc(c(-c6cccc(S(=O)(=O)[O-])c6F)c6ccc3[nH]6)C=C5)C=C4)cc2)cc1C(=O)[O-]
REMARK SMILES IDX 25 1 24 2 23 3 22 4 7 5 8 6 9 7 21 8 10 9 11 10 20 11 18 12
REMARK SMILES IDX 19 15 6 16 3 17 4 18 93 19 5 20 92 21 2 22 1 23 94 24 95 25
REMARK SMILES IDX 96 26 12 27 13 28 17 29 14 30 16 31 15 32 26 33 27 34 28 36
REMARK SMILES IDX 29 37 30 38 91 39 31 40 90 41 32 42 33 43 34 44 84 45 35 46
REMARK SMILES IDX 89 47 83 48 85 49 36 50 88 51 82 52 81 53 37 55 69 56 49 57
REMARK SMILES IDX 68 58 50 59 53 60 67 61 86 62 51 63 52 64 66 66 87 67 54 68
REMARK SMILES IDX 38 69 39 70 47 71 40 72 42 73 48 74 41 75 43 76 44 77 45 78
REMARK SMILES IDX 46 79 70 80 71 81 79 82 72 83 74 84 80 85 73 86 75 87 76 88
REMARK SMILES IDX 77 89 78 90 55 91 56 92 64 93 57 94 59 95 65 96 58 97 60 98
REMARK SMILES IDX 61 99 62 100 63 101
REMARK H PARENT 20 13 22 14 26 35 85 54 53 65
REMARK Flexibility Score: inf
ROOT
ATOM      1  C   UNL A   1      34.252  29.643  26.861  1.00  0.00     0.119 C 
ENDROOT
BRANCH   1   2
ATOM      2  C   UNL A   1      32.995  29.084  25.761  1.00  0.00     0.059 C 
BRANCH   2   3
ATOM      3  C   UNL A   1      32.390  27.149  24.934  1.00  0.00     0.195 C 
BRANCH   3   4
ATOM      4  N   UNL A   1      32.297  25.699  25.647  1.00  0.00    -0.305 N 
ATOM      5  C   UNL A   1      32.046  25.064  22.683  1.00  0.00     0.030 C 
ATOM      6  C   UNL A   1      32.411  24.173  23.619  1.00  0.00     0.129 C 
ATOM      7  C   UNL A   1      32.923  22.828  23.287  1.00  0.00     0.328 C 
ATOM      8  C   UNL A   1      32.229  24.446  25.070  1.00  0.00     0.236 C 
ATOM      9  O   UNL A   1      33.567  22.625  22.262  1.00  0.00    -0.249 OA
ATOM     10  N   UNL A   1      32.565  21.886  24.238  1.00  0.00    -0.155 N 
ATOM     11  N   UNL A   1      31.909  23.463  25.861  1.00  0.00    -0.209 N 
ATOM     12  C   UNL A   1      31.739  22.212  25.311  1.00  0.00     0.448 C 
ATOM     13  H   UNL A   1      31.793  23.609  26.829  1.00  0.00     0.270 HD
ATOM     14  H   UNL A   1      32.290  25.711  26.632  1.00  0.00     0.256 HD
ATOM     15  O   UNL A   1      30.899  21.439  25.766  1.00  0.00    -0.212 OA
BRANCH   5  16
ATOM     16  C   UNL A   1      31.591  26.365  23.167  1.00  0.00    -0.024 A 
ATOM     17  C   UNL A   1      29.769  29.454  22.722  1.00  0.00     0.127 A 
ATOM     18  C   UNL A   1      31.518  29.369  22.277  1.00  0.00     0.048 A 
ATOM     19  C   UNL A   1      28.926  27.982  23.309  1.00  0.00     0.040 A 
ATOM     20  C   UNL A   1      32.469  27.855  22.611  1.00  0.00     0.012 A 
ATOM     21  C   UNL A   1      29.836  26.462  23.579  1.00  0.00     0.022 A 
BRANCH  17  22
ATOM     22  O   UNL A   1      29.143  30.651  22.551  1.00  0.00    -0.496 OA
ATOM     23  C   UNL A   1      29.071  31.365  23.788  1.00  0.00     0.278 C 
ENDBRANCH  17  22
BRANCH  19  24
ATOM     24  C   UNL A   1      27.488  27.945  23.534  1.00  0.00     0.075 C 
ATOM     25  O   UNL A   1      26.685  28.753  23.116  1.00  0.00    -0.545 OA
ATOM     26  O   UNL A   1      27.158  26.812  24.167  1.00  0.00    -0.545 OA
ENDBRANCH  19  24
ENDBRANCH   5  16
BRANCH  10  27
ATOM     27  C   UNL A   1      32.894  20.532  24.021  1.00  0.00     0.111 A 
ATOM     28  C   UNL A   1      32.154  19.735  23.145  1.00  0.00     0.044 A 
ATOM     29  C   UNL A   1      33.962  19.985  24.741  1.00  0.00     0.044 A 
ATOM     30  C   UNL A   1      32.493  18.391  22.983  1.00  0.00     0.004 A 
ATOM     31  C   UNL A   1      34.286  18.638  24.590  1.00  0.00     0.004 A 
ATOM     32  C   UNL A   1      33.554  17.844  23.708  1.00  0.00     0.000 A 
ENDBRANCH  10  27
ENDBRANCH   3   4
ENDBRANCH   2   3
ENDBRANCH   1   2
BRANCH   1  33
ATOM     33  N   UNL A   1      34.136  30.958  27.517  1.00  0.00    -0.352 N 
ATOM     34  C   UNL A   1      34.814  31.525  28.554  1.00  0.00     0.251 C 
ATOM     35  H   UNL A   1      33.438  31.535  27.133  1.00  0.00     0.163 HD
ATOM     36  O   UNL A   1      34.403  32.549  29.089  1.00  0.00    -0.269 OA
BRANCH  34  37
ATOM     37  C   UNL A   1      36.071  30.921  28.981  1.00  0.00     0.039 A 
ATOM     38  C   UNL A   1      37.272  31.337  28.402  1.00  0.00     0.014 A 
ATOM     39  C   UNL A   1      36.021  29.910  29.940  1.00  0.00     0.014 A 
ATOM     40  C   UNL A   1      38.458  30.759  28.834  1.00  0.00     0.010 A 
ATOM     41  C   UNL A   1      37.201  29.379  30.410  1.00  0.00     0.010 A 
ATOM     42  C   UNL A   1      38.418  29.791  29.846  1.00  0.00    -0.014 A 
BRANCH  42  43
ATOM     43  C   UNL A   1      39.625  29.112  30.336  1.00  0.00     0.031 A 
ATOM     44  C   UNL A   1      40.392  29.765  31.443  1.00  0.00     0.074 A 
ATOM     45  C   UNL A   1      40.101  28.067  29.637  1.00  0.00     0.049 A 
ATOM     46  N   UNL A   1      41.601  29.523  31.861  1.00  0.00    -0.248 NA
ATOM     47  C   UNL A   1      39.724  30.887  32.132  1.00  0.00     0.031 C 
ATOM     48  C   UNL A   1      39.435  27.444  28.491  1.00  0.00     0.029 A 
ATOM     49  N   UNL A   1      41.285  27.393  29.747  1.00  0.00    -0.354 N 
ATOM     50  C   UNL A   1      41.864  30.494  32.820  1.00  0.00     0.074 A 
ATOM     51  C   UNL A   1      40.698  31.343  32.905  1.00  0.00     0.031 C 
ATOM     52  C   UNL A   1      40.238  26.496  27.981  1.00  0.00     0.029 A 
ATOM     53  C   UNL A   1      41.479  26.468  28.748  1.00  0.00     0.049 A 
ATOM     54  H   UNL A   1      41.933  27.551  30.470  1.00  0.00     0.167 HD
ATOM     55  C   UNL A   1      42.979  30.642  33.569  1.00  0.00     0.034 A 
ATOM     56  C   UNL A   1      42.554  25.706  28.480  1.00  0.00     0.034 A 
ATOM     57  C   UNL A   1      44.095  29.745  33.484  1.00  0.00     0.049 A 
ATOM     58  C   UNL A   1      43.743  25.824  29.396  1.00  0.00     0.074 A 
ATOM     59  C   UNL A   1      45.246  29.721  34.248  1.00  0.00     0.029 A 
ATOM     60  N   UNL A   1      44.189  28.701  32.574  1.00  0.00    -0.354 N 
ATOM     61  N   UNL A   1      43.927  26.652  30.398  1.00  0.00    -0.248 NA
ATOM     62  C   UNL A   1      44.851  24.887  29.176  1.00  0.00     0.031 C 
ATOM     63  C   UNL A   1      46.037  28.659  33.798  1.00  0.00     0.029 A 
ATOM     64  C   UNL A   1      45.372  28.015  32.763  1.00  0.00     0.049 A 
ATOM     65  H   UNL A   1      43.512  28.482  31.894  1.00  0.00     0.167 HD
ATOM     66  C   UNL A   1      45.148  26.306  30.960  1.00  0.00     0.074 A 
ATOM     67  C   UNL A   1      45.658  25.189  30.186  1.00  0.00     0.031 C 
ATOM     68  C   UNL A   1      45.798  26.861  32.011  1.00  0.00     0.034 A 
BRANCH  55  69
ATOM     69  C   UNL A   1      43.006  31.767  34.569  1.00  0.00     0.023 A 
ATOM     70  C   UNL A   1      43.598  32.997  34.213  1.00  0.00     0.012 A 
ATOM     71  C   UNL A   1      42.431  31.625  35.847  1.00  0.00     0.148 A 
ATOM     72  C   UNL A   1      43.656  34.051  35.123  1.00  0.00     0.002 A 
ATOM     73  C   UNL A   1      42.453  32.696  36.735  1.00  0.00     0.091 A 
ATOM     74  F   UNL A   1      41.895  30.442  36.180  1.00  0.00    -0.205 F 
ATOM     75  C   UNL A   1      43.076  33.904  36.380  1.00  0.00     0.022 A 
BRANCH  73  76
ATOM     76  S   UNL A   1      41.670  32.632  38.350  1.00  0.00     0.127 S 
ATOM     77  O   UNL A   1      40.293  32.292  37.997  1.00  0.00    -0.237 OA
ATOM     78  O   UNL A   1      42.413  31.557  39.011  1.00  0.00    -0.237 OA
ATOM     79  O   UNL A   1      41.859  33.949  38.939  1.00  0.00    -0.744 OA
ENDBRANCH  73  76
ENDBRANCH  55  69
BRANCH  56  80
ATOM     80  C   UNL A   1      42.501  24.712  27.373  1.00  0.00     0.023 A 
ATOM     81  C   UNL A   1      43.076  25.046  26.132  1.00  0.00     0.012 A 
ATOM     82  C   UNL A   1      41.965  23.422  27.554  1.00  0.00     0.148 A 
ATOM     83  C   UNL A   1      43.092  24.128  25.082  1.00  0.00     0.002 A 
ATOM     84  C   UNL A   1      42.029  22.493  26.519  1.00  0.00     0.091 A 
ATOM     85  F   UNL A   1      41.420  23.120  28.741  1.00  0.00    -0.205 F 
ATOM     86  C   UNL A   1      42.578  22.850  25.278  1.00  0.00     0.022 A 
BRANCH  84  87
ATOM     87  S   UNL A   1      41.519  20.783  26.730  1.00  0.00     0.127 S 
ATOM     88  O   UNL A   1      42.026  20.166  25.507  1.00  0.00    -0.237 OA
ATOM     89  O   UNL A   1      42.228  20.400  27.953  1.00  0.00    -0.237 OA
ATOM     90  O   UNL A   1      40.070  20.824  26.872  1.00  0.00    -0.744 OA
ENDBRANCH  84  87
ENDBRANCH  56  80
BRANCH  68  91
ATOM     91  C   UNL A   1      47.101  26.242  32.429  1.00  0.00     0.023 A 
ATOM     92  C   UNL A   1      48.311  26.766  31.937  1.00  0.00     0.012 A 
ATOM     93  C   UNL A   1      47.121  25.233  33.410  1.00  0.00     0.148 A 
ATOM     94  C   UNL A   1      49.529  26.283  32.413  1.00  0.00     0.002 A 
ATOM     95  C   UNL A   1      48.336  24.790  33.912  1.00  0.00     0.091 A 
ATOM     96  F   UNL A   1      45.951  24.741  33.845  1.00  0.00    -0.205 F 
ATOM     97  C   UNL A   1      49.541  25.309  33.409  1.00  0.00     0.022 A 
BRANCH  95  98
ATOM     98  S   UNL A   1      48.445  23.616  35.265  1.00  0.00     0.127 S 
ATOM     99  O   UNL A   1      47.910  22.402  34.650  1.00  0.00    -0.237 OA
ATOM    100  O   UNL A   1      49.884  23.582  35.531  1.00  0.00    -0.237 OA
ATOM    101  O   UNL A   1      47.644  24.171  36.347  1.00  0.00    -0.744 OA
ENDBRANCH  95  98
ENDBRANCH  68  91
ENDBRANCH  42  43
ENDBRANCH  34  37
ENDBRANCH   1  33
TORSDOF 16
ENDMDL
MODEL 3
REMARK VINA RESULT:     -13.6      5.318     12.641
REMARK SMILES COc1ccc(/C=C2/C(=O)N(c3ccccc3)C(=O)[NH+]=C2NCCCNC(=O)c2ccc(-c3c4nc(c(-c5cccc(S(=O)(=O)[O-])c5F)c5ccc([nH]5)c(-c5cccc(S(=O)(=O)[O-])c5F)c5nc(c(-c6cccc(S(=O)(=O)[O-])c6F)c6ccc3[nH]6)C=C5)C=C4)cc2)cc1C(=O)[O-]
REMARK SMILES IDX 25 1 24 2 23 3 22 4 7 5 8 6 9 7 21 8 10 9 11 10 20 11 18 12
REMARK SMILES IDX 19 15 6 16 3 17 4 18 93 19 5 20 92 21 2 22 1 23 94 24 95 25
REMARK SMILES IDX 96 26 12 27 13 28 17 29 14 30 16 31 15 32 26 33 27 34 28 36
REMARK SMILES IDX 29 37 30 38 91 39 31 40 90 41 32 42 33 43 34 44 84 45 35 46
REMARK SMILES IDX 89 47 83 48 85 49 36 50 88 51 82 52 81 53 37 55 69 56 49 57
REMARK SMILES IDX 68 58 50 59 53 60 67 61 86 62 51 63 52 64 66 66 87 67 54 68
REMARK SMILES IDX 38 69 39 70 47 71 40 72 42 73 48 74 41 75 43 76 44 77 45 78
REMARK SMILES IDX 46 79 70 80 71 81 79 82 72 83 74 84 80 85 73 86 75 87 76 88
REMARK SMILES IDX 77 89 78 90 55 91 56 92 64 93 57 94 59 95 65 96 58 97 60 98
REMARK SMILES IDX 61 99 62 100 63 101
REMARK H PARENT 20 13 22 14 26 35 85 54 53 65
REMARK Flexibility Score: inf
ROOT
ATOM      1  C   UNL A   1      45.807  23.229  26.674  1.00  0.00     0.119 C 
ENDROOT
BRANCH   1   2
ATOM      2  C   UNL A   1      46.995  24.528  26.636  1.00  0.00     0.059 C 
BRANCH   2   3
ATOM      3  C   UNL A   1      46.958  26.691  26.977  1.00  0.00     0.195 C 
BRANCH   3   4
ATOM      4  N   UNL A   1      46.473  27.528  28.274  1.00  0.00    -0.305 N 
ATOM      5  C   UNL A   1      46.095  29.480  25.972  1.00  0.00     0.030 C 
ATOM      6  C   UNL A   1      45.476  29.582  27.159  1.00  0.00     0.129 C 
ATOM      7  C   UNL A   1      44.387  30.547  27.413  1.00  0.00     0.328 C 
ATOM      8  C   UNL A   1      45.916  28.790  28.339  1.00  0.00     0.236 C 
ATOM      9  O   UNL A   1      43.613  30.886  26.523  1.00  0.00    -0.249 OA
ATOM     10  N   UNL A   1      44.390  31.000  28.722  1.00  0.00    -0.155 N 
ATOM     11  N   UNL A   1      45.849  29.331  29.522  1.00  0.00    -0.209 N 
ATOM     12  C   UNL A   1      45.386  30.624  29.621  1.00  0.00     0.448 C 
ATOM     13  H   UNL A   1      46.121  28.829  30.324  1.00  0.00     0.270 HD
ATOM     14  H   UNL A   1      46.591  27.074  29.140  1.00  0.00     0.256 HD
ATOM     15  O   UNL A   1      45.838  31.386  30.473  1.00  0.00    -0.212 OA
BRANCH   5  16
ATOM     16  C   UNL A   1      47.130  28.454  25.864  1.00  0.00    -0.024 A 
ATOM     17  C   UNL A   1      50.147  27.137  24.375  1.00  0.00     0.127 A 
ATOM     18  C   UNL A   1      48.536  26.676  23.701  1.00  0.00     0.048 A 
ATOM     19  C   UNL A   1      50.243  28.309  25.732  1.00  0.00     0.040 A 
ATOM     20  C   UNL A   1      47.012  27.238  24.521  1.00  0.00     0.012 A 
ATOM     21  C   UNL A   1      48.749  28.926  26.506  1.00  0.00     0.022 A 
BRANCH  17  22
ATOM     22  O   UNL A   1      51.246  26.592  23.784  1.00  0.00    -0.496 OA
ATOM     23  C   UNL A   1      51.700  27.413  22.705  1.00  0.00     0.278 C 
ENDBRANCH  17  22
BRANCH  19  24
ATOM     24  C   UNL A   1      51.511  28.840  26.215  1.00  0.00     0.075 C 
ATOM     25  O   UNL A   1      52.253  28.292  27.003  1.00  0.00    -0.545 OA
ATOM     26  O   UNL A   1      51.807  29.970  25.561  1.00  0.00    -0.545 OA
ENDBRANCH  19  24
ENDBRANCH   5  16
BRANCH  10  27
ATOM     27  C   UNL A   1      43.472  32.001  29.104  1.00  0.00     0.111 A 
ATOM     28  C   UNL A   1      43.669  33.339  28.756  1.00  0.00     0.044 A 
ATOM     29  C   UNL A   1      42.371  31.629  29.884  1.00  0.00     0.044 A 
ATOM     30  C   UNL A   1      42.754  34.303  29.181  1.00  0.00     0.004 A 
ATOM     31  C   UNL A   1      41.471  32.597  30.322  1.00  0.00     0.004 A 
ATOM     32  C   UNL A   1      41.660  33.933  29.967  1.00  0.00     0.000 A 
ENDBRANCH  10  27
ENDBRANCH   3   4
ENDBRANCH   2   3
ENDBRANCH   1   2
BRANCH   1  33
ATOM     33  N   UNL A   1      44.768  23.140  25.632  1.00  0.00    -0.352 N 
ATOM     34  C   UNL A   1      43.507  23.653  25.553  1.00  0.00     0.251 C 
ATOM     35  H   UNL A   1      45.035  22.612  24.846  1.00  0.00     0.163 HD
ATOM     36  O   UNL A   1      42.725  23.267  24.691  1.00  0.00    -0.269 OA
BRANCH  34  37
ATOM     37  C   UNL A   1      43.124  24.711  26.480  1.00  0.00     0.039 A 
ATOM     38  C   UNL A   1      43.433  26.039  26.183  1.00  0.00     0.014 A 
ATOM     39  C   UNL A   1      42.483  24.345  27.664  1.00  0.00     0.014 A 
ATOM     40  C   UNL A   1      43.045  27.031  27.073  1.00  0.00     0.010 A 
ATOM     41  C   UNL A   1      42.047  25.333  28.518  1.00  0.00     0.010 A 
ATOM     42  C   UNL A   1      42.342  26.675  28.231  1.00  0.00    -0.014 A 
BRANCH  42  43
ATOM     43  C   UNL A   1      41.923  27.663  29.235  1.00  0.00     0.031 A 
ATOM     44  C   UNL A   1      42.653  27.681  30.542  1.00  0.00     0.074 A 
ATOM     45  C   UNL A   1      40.786  28.347  29.025  1.00  0.00     0.049 A 
ATOM     46  N   UNL A   1      42.318  28.251  31.663  1.00  0.00    -0.248 NA
ATOM     47  C   UNL A   1      43.902  26.897  30.608  1.00  0.00     0.031 C 
ATOM     48  C   UNL A   1      39.985  28.300  27.800  1.00  0.00     0.029 A 
ATOM     49  N   UNL A   1      40.074  29.160  29.862  1.00  0.00    -0.354 N 
ATOM     50  C   UNL A   1      43.278  27.851  32.584  1.00  0.00     0.074 A 
ATOM     51  C   UNL A   1      44.196  26.971  31.897  1.00  0.00     0.031 C 
ATOM     52  C   UNL A   1      38.871  29.028  27.977  1.00  0.00     0.029 A 
ATOM     53  C   UNL A   1      38.871  29.566  29.333  1.00  0.00     0.049 A 
ATOM     54  H   UNL A   1      40.391  29.431  30.753  1.00  0.00     0.167 HD
ATOM     55  C   UNL A   1      43.384  28.208  33.883  1.00  0.00     0.034 A 
ATOM     56  C   UNL A   1      37.879  30.276  29.900  1.00  0.00     0.034 A 
ATOM     57  C   UNL A   1      42.476  29.123  34.512  1.00  0.00     0.049 A 
ATOM     58  C   UNL A   1      38.073  30.742  31.318  1.00  0.00     0.074 A 
ATOM     59  C   UNL A   1      42.519  29.644  35.791  1.00  0.00     0.029 A 
ATOM     60  N   UNL A   1      41.356  29.660  33.892  1.00  0.00    -0.354 N 
ATOM     61  N   UNL A   1      39.061  30.477  32.141  1.00  0.00    -0.248 NA
ATOM     62  C   UNL A   1      37.047  31.632  31.874  1.00  0.00     0.031 C 
ATOM     63  C   UNL A   1      41.422  30.498  35.944  1.00  0.00     0.029 A 
ATOM     64  C   UNL A   1      40.704  30.518  34.756  1.00  0.00     0.049 A 
ATOM     65  H   UNL A   1      41.067  29.458  32.973  1.00  0.00     0.167 HD
ATOM     66  C   UNL A   1      38.803  31.205  33.294  1.00  0.00     0.074 A 
ATOM     67  C   UNL A   1      37.565  31.924  33.061  1.00  0.00     0.031 C 
ATOM     68  C   UNL A   1      39.513  31.268  34.447  1.00  0.00     0.034 A 
BRANCH  55  69
ATOM     69  C   UNL A   1      44.544  27.656  34.669  1.00  0.00     0.023 A 
ATOM     70  C   UNL A   1      45.757  28.374  34.711  1.00  0.00     0.012 A 
ATOM     71  C   UNL A   1      44.436  26.447  35.382  1.00  0.00     0.148 A 
ATOM     72  C   UNL A   1      46.855  27.881  35.413  1.00  0.00     0.002 A 
ATOM     73  C   UNL A   1      45.521  25.981  36.118  1.00  0.00     0.091 A 
ATOM     74  F   UNL A   1      43.285  25.762  35.311  1.00  0.00    -0.205 F 
ATOM     75  C   UNL A   1      46.734  26.690  36.124  1.00  0.00     0.022 A 
BRANCH  73  76
ATOM     76  S   UNL A   1      45.445  24.496  37.125  1.00  0.00     0.127 S 
ATOM     77  O   UNL A   1      44.921  23.520  36.171  1.00  0.00    -0.237 OA
ATOM     78  O   UNL A   1      46.849  24.299  37.489  1.00  0.00    -0.237 OA
ATOM     79  O   UNL A   1      44.568  24.814  38.242  1.00  0.00    -0.744 OA
ENDBRANCH  73  76
ENDBRANCH  55  69
BRANCH  56  80
ATOM     80  C   UNL A   1      36.688  30.660  29.094  1.00  0.00     0.023 A 
ATOM     81  C   UNL A   1      35.893  29.644  28.530  1.00  0.00     0.012 A 
ATOM     82  C   UNL A   1      36.291  32.003  28.944  1.00  0.00     0.148 A 
ATOM     83  C   UNL A   1      34.741  29.957  27.808  1.00  0.00     0.002 A 
ATOM     84  C   UNL A   1      35.114  32.307  28.266  1.00  0.00     0.091 A 
ATOM     85  F   UNL A   1      37.060  32.958  29.486  1.00  0.00    -0.205 F 
ATOM     86  C   UNL A   1      34.346  31.286  27.684  1.00  0.00     0.022 A 
BRANCH  84  87
ATOM     87  S   UNL A   1      34.457  33.977  28.180  1.00  0.00     0.127 S 
ATOM     88  O   UNL A   1      35.244  34.553  27.092  1.00  0.00    -0.237 OA
ATOM     89  O   UNL A   1      33.048  33.737  27.863  1.00  0.00    -0.237 OA
ATOM     90  O   UNL A   1      34.680  34.550  29.501  1.00  0.00    -0.744 OA
ENDBRANCH  84  87
ENDBRANCH  56  80
BRANCH  68  91
ATOM     91  C   UNL A   1      39.009  32.186  35.524  1.00  0.00     0.023 A 
ATOM     92  C   UNL A   1      38.137  31.689  36.510  1.00  0.00     0.012 A 
ATOM     93  C   UNL A   1      39.512  33.497  35.627  1.00  0.00     0.148 A 
ATOM     94  C   UNL A   1      37.762  32.494  37.584  1.00  0.00     0.002 A 
ATOM     95  C   UNL A   1      39.170  34.276  36.723  1.00  0.00     0.091 A 
ATOM     96  F   UNL A   1      40.326  33.947  34.662  1.00  0.00    -0.205 F 
ATOM     97  C   UNL A   1      38.290  33.779  37.699  1.00  0.00     0.022 A 
BRANCH  95  98
ATOM     98  S   UNL A   1      39.882  35.899  37.006  1.00  0.00     0.127 S 
ATOM     99  O   UNL A   1      41.281  35.568  37.272  1.00  0.00    -0.237 OA
ATOM    100  O   UNL A   1      39.646  36.568  35.726  1.00  0.00    -0.237 OA
ATOM    101  O   UNL A   1      39.153  36.470  38.130  1.00  0.00    -0.744 OA
ENDBRANCH  95  98
ENDBRANCH  68  91
ENDBRANCH  42  43
ENDBRANCH  34  37
ENDBRANCH   1  33
TORSDOF 16
ENDMDL
