MODEL 1
REMARK VINA RESULT:     -10.6      0.000      0.000
REMARK SMILES O=C(NCCCNC(=O)c1cccc(-c2c(F)cc(F)cc2F)c1)c1ccc(-c2c3nc(c(-c4cccc(S(=O)(=O)[O-])c4F)c4ccc([nH]4)c(-c4cccc(S(=O)(=O)[O-])c4F)c4nc(c(-c5cccc(S(=O)(=O)[O-])c5F)c5ccc2[nH]5)C=C4)C=C3)cc1
REMARK SMILES IDX 4 1 3 2 1 3 2 4 25 6 26 7 87 8 27 9 86 10 28 11 29 12 30 13
REMARK SMILES IDX 80 14 31 15 85 16 79 17 81 18 32 19 84 20 78 21 77 22 33 24
REMARK SMILES IDX 65 25 45 26 64 27 46 28 49 29 63 30 82 31 47 32 48 33 62 35
REMARK SMILES IDX 83 36 50 37 34 38 35 39 43 40 36 41 38 42 44 43 37 44 39 45
REMARK SMILES IDX 40 46 41 47 42 48 66 49 67 50 75 51 68 52 70 53 76 54 69 55
REMARK SMILES IDX 71 56 72 57 73 58 74 59 51 60 52 61 60 62 53 63 55 64 61 65
REMARK SMILES IDX 54 66 56 67 57 68 58 69 59 70 5 71 6 72 7 73 8 74 9 76 10 77
REMARK SMILES IDX 11 78 24 79 12 80 14 81 13 82 15 83 16 84 22 85 17 86 18 87
REMARK SMILES IDX 21 88 23 89 19 90 20 91
REMARK H PARENT 3 5 81 23 49 34 7 75
REMARK Flexibility Score: inf
ROOT
ATOM      1  C   UNL A   1      35.389  33.265  28.184  1.00  0.00     0.118 C 
ENDROOT
BRANCH   1   2
ATOM      2  N   UNL A   1      34.538  32.125  27.877  1.00  0.00    -0.352 N 
ATOM      3  O   UNL A   1      34.010  30.011  27.336  1.00  0.00    -0.269 OA
ATOM      4  C   UNL A   1      34.836  30.786  27.816  1.00  0.00     0.251 C 
ATOM      5  H   UNL A   1      33.599  32.349  27.681  1.00  0.00     0.163 HD
BRANCH   4   6
ATOM      6  C   UNL A   1      36.141  30.281  28.296  1.00  0.00     0.039 A 
ATOM      7  C   UNL A   1      37.321  30.541  27.594  1.00  0.00     0.014 A 
ATOM      8  C   UNL A   1      36.188  29.561  29.493  1.00  0.00     0.014 A 
ATOM      9  C   UNL A   1      38.518  29.961  28.001  1.00  0.00     0.010 A 
ATOM     10  C   UNL A   1      37.406  29.052  29.948  1.00  0.00     0.010 A 
ATOM     11  C   UNL A   1      38.575  29.218  29.190  1.00  0.00    -0.014 A 
BRANCH  11  12
ATOM     12  C   UNL A   1      39.867  28.666  29.669  1.00  0.00     0.031 A 
ATOM     13  C   UNL A   1      40.629  29.342  30.773  1.00  0.00     0.074 A 
ATOM     14  C   UNL A   1      40.381  27.582  29.057  1.00  0.00     0.049 A 
ATOM     15  N   UNL A   1      41.813  29.058  31.250  1.00  0.00    -0.248 NA
ATOM     16  C   UNL A   1      39.982  30.495  31.419  1.00  0.00     0.031 C 
ATOM     17  C   UNL A   1      39.748  26.861  27.951  1.00  0.00     0.029 A 
ATOM     18  N   UNL A   1      41.566  26.918  29.253  1.00  0.00    -0.354 N 
ATOM     19  C   UNL A   1      42.078  30.024  32.213  1.00  0.00     0.074 A 
ATOM     20  C   UNL A   1      40.929  30.904  32.252  1.00  0.00     0.031 C 
ATOM     21  C   UNL A   1      40.556  25.869  27.554  1.00  0.00     0.029 A 
ATOM     22  C   UNL A   1      41.785  25.916  28.337  1.00  0.00     0.049 A 
ATOM     23  H   UNL A   1      42.196  27.138  29.976  1.00  0.00     0.167 HD
ATOM     24  C   UNL A   1      43.174  30.159  32.998  1.00  0.00     0.034 A 
ATOM     25  C   UNL A   1      42.868  25.146  28.119  1.00  0.00     0.034 A 
ATOM     26  C   UNL A   1      44.298  29.262  32.971  1.00  0.00     0.049 A 
ATOM     27  C   UNL A   1      44.068  25.307  29.006  1.00  0.00     0.074 A 
ATOM     28  C   UNL A   1      45.422  29.267  33.778  1.00  0.00     0.029 A 
ATOM     29  N   UNL A   1      44.450  28.210  32.080  1.00  0.00    -0.354 N 
ATOM     30  N   UNL A   1      44.250  26.144  29.998  1.00  0.00    -0.248 NA
ATOM     31  C   UNL A   1      45.199  24.399  28.771  1.00  0.00     0.031 C 
ATOM     32  C   UNL A   1      46.268  28.236  33.354  1.00  0.00     0.029 A 
ATOM     33  C   UNL A   1      45.655  27.567  32.306  1.00  0.00     0.049 A 
ATOM     34  H   UNL A   1      43.797  27.956  31.388  1.00  0.00     0.167 HD
ATOM     35  C   UNL A   1      45.498  25.844  30.528  1.00  0.00     0.074 A 
ATOM     36  C   UNL A   1      46.026  24.741  29.751  1.00  0.00     0.031 C 
ATOM     37  C   UNL A   1      46.146  26.435  31.561  1.00  0.00     0.034 A 
BRANCH  24  38
ATOM     38  C   UNL A   1      43.202  31.313  33.968  1.00  0.00     0.023 A 
ATOM     39  C   UNL A   1      43.931  32.478  33.653  1.00  0.00     0.012 A 
ATOM     40  C   UNL A   1      42.474  31.260  35.173  1.00  0.00     0.148 A 
ATOM     41  C   UNL A   1      43.971  33.553  34.541  1.00  0.00     0.002 A 
ATOM     42  C   UNL A   1      42.482  32.354  36.033  1.00  0.00     0.091 A 
ATOM     43  F   UNL A   1      41.803  30.139  35.470  1.00  0.00    -0.205 F 
ATOM     44  C   UNL A   1      43.241  33.495  35.725  1.00  0.00     0.022 A 
BRANCH  42  45
ATOM     45  S   UNL A   1      41.507  32.396  37.541  1.00  0.00     0.127 S 
ATOM     46  O   UNL A   1      42.272  31.505  38.412  1.00  0.00    -0.237 OA
ATOM     47  O   UNL A   1      41.569  33.810  37.913  1.00  0.00    -0.237 OA
ATOM     48  O   UNL A   1      40.180  31.931  37.167  1.00  0.00    -0.744 OA
ENDBRANCH  42  45
ENDBRANCH  24  38
BRANCH  25  49
ATOM     49  C   UNL A   1      42.830  24.139  27.024  1.00  0.00     0.023 A 
ATOM     50  C   UNL A   1      43.520  24.393  25.824  1.00  0.00     0.012 A 
ATOM     51  C   UNL A   1      42.198  22.894  27.207  1.00  0.00     0.148 A 
ATOM     52  C   UNL A   1      43.570  23.426  24.819  1.00  0.00     0.002 A 
ATOM     53  C   UNL A   1      42.299  21.916  26.226  1.00  0.00     0.091 A 
ATOM     54  F   UNL A   1      41.544  22.678  28.358  1.00  0.00    -0.205 F 
ATOM     55  C   UNL A   1      42.974  22.185  25.025  1.00  0.00     0.022 A 
BRANCH  53  56
ATOM     56  S   UNL A   1      41.689  20.242  26.460  1.00  0.00     0.127 S 
ATOM     57  O   UNL A   1      42.253  19.900  27.764  1.00  0.00    -0.237 OA
ATOM     58  O   UNL A   1      40.241  20.448  26.448  1.00  0.00    -0.237 OA
ATOM     59  O   UNL A   1      42.199  19.473  25.334  1.00  0.00    -0.744 OA
ENDBRANCH  53  56
ENDBRANCH  25  49
BRANCH  37  60
ATOM     60  C   UNL A   1      47.488  25.878  31.962  1.00  0.00     0.023 A 
ATOM     61  C   UNL A   1      48.653  26.300  31.295  1.00  0.00     0.012 A 
ATOM     62  C   UNL A   1      47.595  25.025  33.078  1.00  0.00     0.148 A 
ATOM     63  C   UNL A   1      49.907  25.868  31.724  1.00  0.00     0.002 A 
ATOM     64  C   UNL A   1      48.851  24.638  33.530  1.00  0.00     0.091 A 
ATOM     65  F   UNL A   1      46.470  24.623  33.685  1.00  0.00    -0.205 F 
ATOM     66  C   UNL A   1      50.008  25.051  32.849  1.00  0.00     0.022 A 
BRANCH  64  67
ATOM     67  S   UNL A   1      49.082  23.671  35.026  1.00  0.00     0.127 S 
ATOM     68  O   UNL A   1      50.534  23.504  35.051  1.00  0.00    -0.237 OA
ATOM     69  O   UNL A   1      48.554  24.566  36.056  1.00  0.00    -0.237 OA
ATOM     70  O   UNL A   1      48.319  22.445  34.837  1.00  0.00    -0.744 OA
ENDBRANCH  64  67
ENDBRANCH  37  60
ENDBRANCH  11  12
ENDBRANCH   4   6
ENDBRANCH   1   2
BRANCH   1  71
ATOM     71  C   UNL A   1      34.610  34.567  28.293  1.00  0.00     0.042 C 
BRANCH  71  72
ATOM     72  C   UNL A   1      33.300  34.455  29.064  1.00  0.00     0.118 C 
BRANCH  72  73
ATOM     73  N   UNL A   1      33.260  35.329  30.229  1.00  0.00    -0.352 N 
ATOM     74  C   UNL A   1      33.876  35.205  31.448  1.00  0.00     0.251 C 
ATOM     75  H   UNL A   1      32.705  36.135  30.124  1.00  0.00     0.163 HD
ATOM     76  O   UNL A   1      33.565  35.959  32.370  1.00  0.00    -0.269 OA
BRANCH  74  77
ATOM     77  C   UNL A   1      34.906  34.170  31.669  1.00  0.00     0.040 A 
ATOM     78  C   UNL A   1      34.500  32.864  31.947  1.00  0.00     0.014 A 
ATOM     79  C   UNL A   1      36.268  34.495  31.646  1.00  0.00     0.022 A 
ATOM     80  C   UNL A   1      35.460  31.875  32.142  1.00  0.00     0.001 A 
ATOM     81  C   UNL A   1      37.251  33.506  31.801  1.00  0.00    -0.012 A 
ATOM     82  C   UNL A   1      36.820  32.192  32.055  1.00  0.00     0.009 A 
BRANCH  81  83
ATOM     83  C   UNL A   1      38.681  33.843  31.668  1.00  0.00     0.053 A 
ATOM     84  C   UNL A   1      39.309  33.904  30.413  1.00  0.00     0.136 A 
ATOM     85  C   UNL A   1      39.475  34.159  32.784  1.00  0.00     0.136 A 
ATOM     86  F   UNL A   1      38.614  33.638  29.296  1.00  0.00    -0.206 F 
ATOM     87  C   UNL A   1      40.650  34.255  30.271  1.00  0.00     0.079 A 
ATOM     88  C   UNL A   1      40.816  34.513  32.664  1.00  0.00     0.079 A 
ATOM     89  F   UNL A   1      38.948  34.124  34.018  1.00  0.00    -0.206 F 
ATOM     90  C   UNL A   1      41.392  34.556  31.403  1.00  0.00     0.129 A 
ATOM     91  F   UNL A   1      42.682  34.891  31.278  1.00  0.00    -0.207 F 
ENDBRANCH  81  83
ENDBRANCH  74  77
ENDBRANCH  72  73
ENDBRANCH  71  72
ENDBRANCH   1  71
TORSDOF 14
ENDMDL
MODEL 2
REMARK VINA RESULT:     -10.6      3.413      6.323
REMARK SMILES O=C(NCCCNC(=O)c1cccc(-c2c(F)cc(F)cc2F)c1)c1ccc(-c2c3nc(c(-c4cccc(S(=O)(=O)[O-])c4F)c4ccc([nH]4)c(-c4cccc(S(=O)(=O)[O-])c4F)c4nc(c(-c5cccc(S(=O)(=O)[O-])c5F)c5ccc2[nH]5)C=C4)C=C3)cc1
REMARK SMILES IDX 4 1 3 2 1 3 2 4 25 6 26 7 87 8 27 9 86 10 28 11 29 12 30 13
REMARK SMILES IDX 80 14 31 15 85 16 79 17 81 18 32 19 84 20 78 21 77 22 33 24
REMARK SMILES IDX 65 25 45 26 64 27 46 28 49 29 63 30 82 31 47 32 48 33 62 35
REMARK SMILES IDX 83 36 50 37 34 38 35 39 43 40 36 41 38 42 44 43 37 44 39 45
REMARK SMILES IDX 40 46 41 47 42 48 66 49 67 50 75 51 68 52 70 53 76 54 69 55
REMARK SMILES IDX 71 56 72 57 73 58 74 59 51 60 52 61 60 62 53 63 55 64 61 65
REMARK SMILES IDX 54 66 56 67 57 68 58 69 59 70 5 71 6 72 7 73 8 74 9 76 10 77
REMARK SMILES IDX 11 78 24 79 12 80 14 81 13 82 15 83 16 84 22 85 17 86 18 87
REMARK SMILES IDX 21 88 23 89 19 90 20 91
REMARK H PARENT 3 5 81 23 49 34 7 75
REMARK Flexibility Score: inf
ROOT
ATOM      1  C   UNL A   1      33.793  28.664  26.246  1.00  0.00     0.118 C 
ENDROOT
BRANCH   1   2
ATOM      2  N   UNL A   1      33.744  30.071  26.614  1.00  0.00    -0.352 N 
ATOM      3  O   UNL A   1      34.192  31.929  27.791  1.00  0.00    -0.269 OA
ATOM      4  C   UNL A   1      34.538  30.793  27.470  1.00  0.00     0.251 C 
ATOM      5  H   UNL A   1      33.028  30.588  26.178  1.00  0.00     0.163 HD
BRANCH   4   6
ATOM      6  C   UNL A   1      35.778  30.207  28.024  1.00  0.00     0.039 A 
ATOM      7  C   UNL A   1      35.795  29.605  29.285  1.00  0.00     0.014 A 
ATOM      8  C   UNL A   1      36.941  30.231  27.248  1.00  0.00     0.014 A 
ATOM      9  C   UNL A   1      36.997  29.164  29.831  1.00  0.00     0.010 A 
ATOM     10  C   UNL A   1      38.129  29.708  27.763  1.00  0.00     0.010 A 
ATOM     11  C   UNL A   1      38.175  29.201  29.071  1.00  0.00    -0.014 A 
BRANCH  11  12
ATOM     12  C   UNL A   1      39.441  28.656  29.622  1.00  0.00     0.031 A 
ATOM     13  C   UNL A   1      40.166  29.366  30.729  1.00  0.00     0.074 A 
ATOM     14  C   UNL A   1      39.968  27.546  29.071  1.00  0.00     0.049 A 
ATOM     15  N   UNL A   1      41.328  29.090  31.263  1.00  0.00    -0.248 NA
ATOM     16  C   UNL A   1      39.506  30.549  31.306  1.00  0.00     0.031 C 
ATOM     17  C   UNL A   1      39.372  26.790  27.967  1.00  0.00     0.029 A 
ATOM     18  N   UNL A   1      41.138  26.880  29.338  1.00  0.00    -0.354 N 
ATOM     19  C   UNL A   1      41.564  30.090  32.200  1.00  0.00     0.074 A 
ATOM     20  C   UNL A   1      40.423  30.980  32.160  1.00  0.00     0.031 C 
ATOM     21  C   UNL A   1      40.185  25.777  27.639  1.00  0.00     0.029 A 
ATOM     22  C   UNL A   1      41.383  25.843  28.469  1.00  0.00     0.049 A 
ATOM     23  H   UNL A   1      41.742  27.121  30.077  1.00  0.00     0.167 HD
ATOM     24  C   UNL A   1      42.630  30.245  33.022  1.00  0.00     0.034 A 
ATOM     25  C   UNL A   1      42.466  25.056  28.323  1.00  0.00     0.034 A 
ATOM     26  C   UNL A   1      43.745  29.337  33.072  1.00  0.00     0.049 A 
ATOM     27  C   UNL A   1      43.632  25.239  29.250  1.00  0.00     0.074 A 
ATOM     28  C   UNL A   1      44.836  29.363  33.923  1.00  0.00     0.029 A 
ATOM     29  N   UNL A   1      43.922  28.252  32.227  1.00  0.00    -0.354 N 
ATOM     30  N   UNL A   1      43.782  26.112  30.217  1.00  0.00    -0.248 NA
ATOM     31  C   UNL A   1      44.763  24.314  29.094  1.00  0.00     0.031 C 
ATOM     32  C   UNL A   1      45.687  28.310  33.572  1.00  0.00     0.029 A 
ATOM     33  C   UNL A   1      45.110  27.608  32.525  1.00  0.00     0.049 A 
ATOM     34  H   UNL A   1      43.294  27.978  31.520  1.00  0.00     0.167 HD
ATOM     35  C   UNL A   1      45.006  25.821  30.807  1.00  0.00     0.074 A 
ATOM     36  C   UNL A   1      45.554  24.685  30.092  1.00  0.00     0.031 C 
ATOM     37  C   UNL A   1      45.619  26.444  31.842  1.00  0.00     0.034 A 
BRANCH  24  38
ATOM     38  C   UNL A   1      42.631  31.433  33.949  1.00  0.00     0.023 A 
ATOM     39  C   UNL A   1      43.176  32.660  33.518  1.00  0.00     0.012 A 
ATOM     40  C   UNL A   1      42.056  31.348  35.233  1.00  0.00     0.148 A 
ATOM     41  C   UNL A   1      43.188  33.769  34.364  1.00  0.00     0.002 A 
ATOM     42  C   UNL A   1      42.032  32.471  36.054  1.00  0.00     0.091 A 
ATOM     43  F   UNL A   1      41.561  30.170  35.638  1.00  0.00    -0.205 F 
ATOM     44  C   UNL A   1      42.610  33.677  35.627  1.00  0.00     0.022 A 
BRANCH  42  45
ATOM     45  S   UNL A   1      41.237  32.463  37.665  1.00  0.00     0.127 S 
ATOM     46  O   UNL A   1      41.278  33.881  38.021  1.00  0.00    -0.237 OA
ATOM     47  O   UNL A   1      39.901  31.954  37.351  1.00  0.00    -0.237 OA
ATOM     48  O   UNL A   1      42.038  31.578  38.497  1.00  0.00    -0.744 OA
ENDBRANCH  42  45
ENDBRANCH  24  38
BRANCH  25  49
ATOM     49  C   UNL A   1      42.462  24.010  27.264  1.00  0.00     0.023 A 
ATOM     50  C   UNL A   1      43.045  24.285  26.014  1.00  0.00     0.012 A 
ATOM     51  C   UNL A   1      41.972  22.715  27.529  1.00  0.00     0.148 A 
ATOM     52  C   UNL A   1      43.129  23.290  25.038  1.00  0.00     0.002 A 
ATOM     53  C   UNL A   1      42.110  21.715  26.574  1.00  0.00     0.091 A 
ATOM     54  F   UNL A   1      41.418  22.480  28.727  1.00  0.00    -0.205 F 
ATOM     55  C   UNL A   1      42.677  22.005  25.323  1.00  0.00     0.022 A 
BRANCH  53  56
ATOM     56  S   UNL A   1      41.689  19.999  26.902  1.00  0.00     0.127 S 
ATOM     57  O   UNL A   1      41.935  19.380  25.602  1.00  0.00    -0.237 OA
ATOM     58  O   UNL A   1      42.653  19.650  27.945  1.00  0.00    -0.237 OA
ATOM     59  O   UNL A   1      40.301  20.009  27.341  1.00  0.00    -0.744 OA
ENDBRANCH  53  56
ENDBRANCH  25  49
BRANCH  37  60
ATOM     60  C   UNL A   1      46.938  25.892  32.317  1.00  0.00     0.023 A 
ATOM     61  C   UNL A   1      48.142  26.410  31.806  1.00  0.00     0.012 A 
ATOM     62  C   UNL A   1      46.975  24.939  33.353  1.00  0.00     0.148 A 
ATOM     63  C   UNL A   1      49.367  25.976  32.311  1.00  0.00     0.002 A 
ATOM     64  C   UNL A   1      48.197  24.548  33.886  1.00  0.00     0.091 A 
ATOM     65  F   UNL A   1      45.814  24.447  33.810  1.00  0.00    -0.205 F 
ATOM     66  C   UNL A   1      49.395  25.058  33.360  1.00  0.00     0.022 A 
BRANCH  64  67
ATOM     67  S   UNL A   1      48.326  23.449  35.301  1.00  0.00     0.127 S 
ATOM     68  O   UNL A   1      47.756  22.212  34.770  1.00  0.00    -0.237 OA
ATOM     69  O   UNL A   1      49.771  23.406  35.528  1.00  0.00    -0.237 OA
ATOM     70  O   UNL A   1      47.561  24.075  36.371  1.00  0.00    -0.744 OA
ENDBRANCH  64  67
ENDBRANCH  37  60
ENDBRANCH  11  12
ENDBRANCH   4   6
ENDBRANCH   1   2
BRANCH   1  71
ATOM     71  C   UNL A   1      32.694  27.845  26.908  1.00  0.00     0.042 C 
BRANCH  71  72
ATOM     72  C   UNL A   1      31.816  27.068  25.936  1.00  0.00     0.118 C 
BRANCH  72  73
ATOM     73  N   UNL A   1      30.959  26.100  26.608  1.00  0.00    -0.352 N 
ATOM     74  C   UNL A   1      30.706  24.786  26.308  1.00  0.00     0.251 C 
ATOM     75  H   UNL A   1      30.488  26.442  27.401  1.00  0.00     0.163 HD
ATOM     76  O   UNL A   1      29.802  24.188  26.891  1.00  0.00    -0.269 OA
BRANCH  74  77
ATOM     77  C   UNL A   1      31.504  24.081  25.285  1.00  0.00     0.040 A 
ATOM     78  C   UNL A   1      30.910  23.775  24.059  1.00  0.00     0.014 A 
ATOM     79  C   UNL A   1      32.821  23.684  25.548  1.00  0.00     0.022 A 
ATOM     80  C   UNL A   1      31.656  23.125  23.080  1.00  0.00     0.001 A 
ATOM     81  C   UNL A   1      33.601  23.062  24.562  1.00  0.00    -0.012 A 
ATOM     82  C   UNL A   1      32.991  22.786  23.325  1.00  0.00     0.009 A 
BRANCH  81  83
ATOM     83  C   UNL A   1      35.019  22.745  24.817  1.00  0.00     0.053 A 
ATOM     84  C   UNL A   1      35.955  23.749  25.117  1.00  0.00     0.136 A 
ATOM     85  C   UNL A   1      35.495  21.423  24.812  1.00  0.00     0.136 A 
ATOM     86  F   UNL A   1      35.575  25.035  25.163  1.00  0.00    -0.206 F 
ATOM     87  C   UNL A   1      37.290  23.459  25.394  1.00  0.00     0.079 A 
ATOM     88  C   UNL A   1      36.824  21.112  25.086  1.00  0.00     0.079 A 
ATOM     89  F   UNL A   1      34.663  20.407  24.534  1.00  0.00    -0.206 F 
ATOM     90  C   UNL A   1      37.711  22.138  25.374  1.00  0.00     0.129 A 
ATOM     91  F   UNL A   1      38.992  21.849  25.636  1.00  0.00    -0.207 F 
ENDBRANCH  81  83
ENDBRANCH  74  77
ENDBRANCH  72  73
ENDBRANCH  71  72
ENDBRANCH   1  71
TORSDOF 14
ENDMDL
MODEL 3
REMARK VINA RESULT:     -10.5      4.028     10.424
REMARK SMILES O=C(NCCCNC(=O)c1cccc(-c2c(F)cc(F)cc2F)c1)c1ccc(-c2c3nc(c(-c4cccc(S(=O)(=O)[O-])c4F)c4ccc([nH]4)c(-c4cccc(S(=O)(=O)[O-])c4F)c4nc(c(-c5cccc(S(=O)(=O)[O-])c5F)c5ccc2[nH]5)C=C4)C=C3)cc1
REMARK SMILES IDX 4 1 3 2 1 3 2 4 25 6 26 7 87 8 27 9 86 10 28 11 29 12 30 13
REMARK SMILES IDX 80 14 31 15 85 16 79 17 81 18 32 19 84 20 78 21 77 22 33 24
REMARK SMILES IDX 65 25 45 26 64 27 46 28 49 29 63 30 82 31 47 32 48 33 62 35
REMARK SMILES IDX 83 36 50 37 34 38 35 39 43 40 36 41 38 42 44 43 37 44 39 45
REMARK SMILES IDX 40 46 41 47 42 48 66 49 67 50 75 51 68 52 70 53 76 54 69 55
REMARK SMILES IDX 71 56 72 57 73 58 74 59 51 60 52 61 60 62 53 63 55 64 61 65
REMARK SMILES IDX 54 66 56 67 57 68 58 69 59 70 5 71 6 72 7 73 8 74 9 76 10 77
REMARK SMILES IDX 11 78 24 79 12 80 14 81 13 82 15 83 16 84 22 85 17 86 18 87
REMARK SMILES IDX 21 88 23 89 19 90 20 91
REMARK H PARENT 3 5 81 23 49 34 7 75
REMARK Flexibility Score: inf
ROOT
ATOM      1  C   UNL A   1      32.989  29.123  25.301  1.00  0.00     0.118 C 
ENDROOT
BRANCH   1   2
ATOM      2  N   UNL A   1      32.490  30.400  25.789  1.00  0.00    -0.352 N 
ATOM      3  O   UNL A   1      32.241  32.137  27.188  1.00  0.00    -0.269 OA
ATOM      4  C   UNL A   1      32.938  31.195  26.813  1.00  0.00     0.251 C 
ATOM      5  H   UNL A   1      31.705  30.749  25.307  1.00  0.00     0.163 HD
BRANCH   4   6
ATOM      6  C   UNL A   1      34.228  30.912  27.479  1.00  0.00     0.039 A 
ATOM      7  C   UNL A   1      34.572  29.615  27.871  1.00  0.00     0.014 A 
ATOM      8  C   UNL A   1      35.128  31.962  27.684  1.00  0.00     0.014 A 
ATOM      9  C   UNL A   1      35.738  29.392  28.597  1.00  0.00     0.010 A 
ATOM     10  C   UNL A   1      36.339  31.721  28.336  1.00  0.00     0.010 A 
ATOM     11  C   UNL A   1      36.640  30.441  28.828  1.00  0.00    -0.014 A 
BRANCH  11  12
ATOM     12  C   UNL A   1      37.922  30.189  29.531  1.00  0.00     0.031 A 
ATOM     13  C   UNL A   1      38.950  29.263  28.946  1.00  0.00     0.074 A 
ATOM     14  C   UNL A   1      38.128  30.753  30.737  1.00  0.00     0.049 A 
ATOM     15  N   UNL A   1      40.078  28.852  29.464  1.00  0.00    -0.248 NA
ATOM     16  C   UNL A   1      38.671  28.719  27.607  1.00  0.00     0.031 C 
ATOM     17  C   UNL A   1      37.187  31.642  31.421  1.00  0.00     0.029 A 
ATOM     18  N   UNL A   1      39.176  30.637  31.615  1.00  0.00    -0.354 N 
ATOM     19  C   UNL A   1      40.619  27.962  28.543  1.00  0.00     0.074 A 
ATOM     20  C   UNL A   1      39.693  27.893  27.433  1.00  0.00     0.031 C 
ATOM     21  C   UNL A   1      37.689  31.976  32.617  1.00  0.00     0.029 A 
ATOM     22  C   UNL A   1      38.958  31.284  32.808  1.00  0.00     0.049 A 
ATOM     23  H   UNL A   1      40.000  30.139  31.411  1.00  0.00     0.167 HD
ATOM     24  C   UNL A   1      41.783  27.273  28.615  1.00  0.00     0.034 A 
ATOM     25  C   UNL A   1      39.675  31.290  33.949  1.00  0.00     0.034 A 
ATOM     26  C   UNL A   1      42.710  27.371  29.710  1.00  0.00     0.049 A 
ATOM     27  C   UNL A   1      40.967  30.527  34.002  1.00  0.00     0.074 A 
ATOM     28  C   UNL A   1      43.951  26.775  29.843  1.00  0.00     0.029 A 
ATOM     29  N   UNL A   1      42.490  28.098  30.871  1.00  0.00    -0.354 N 
ATOM     30  N   UNL A   1      41.526  29.792  33.071  1.00  0.00    -0.248 NA
ATOM     31  C   UNL A   1      41.745  30.617  35.245  1.00  0.00     0.031 C 
ATOM     32  C   UNL A   1      44.468  27.117  31.096  1.00  0.00     0.029 A 
ATOM     33  C   UNL A   1      43.565  27.955  31.731  1.00  0.00     0.049 A 
ATOM     34  H   UNL A   1      41.687  28.638  31.056  1.00  0.00     0.167 HD
ATOM     35  C   UNL A   1      42.735  29.359  33.601  1.00  0.00     0.074 A 
ATOM     36  C   UNL A   1      42.832  29.922  34.933  1.00  0.00     0.031 C 
ATOM     37  C   UNL A   1      43.674  28.565  33.033  1.00  0.00     0.034 A 
BRANCH  24  38
ATOM     38  C   UNL A   1      42.130  26.364  27.463  1.00  0.00     0.023 A 
ATOM     39  C   UNL A   1      42.838  26.873  26.355  1.00  0.00     0.012 A 
ATOM     40  C   UNL A   1      41.790  24.997  27.494  1.00  0.00     0.148 A 
ATOM     41  C   UNL A   1      43.164  26.048  25.279  1.00  0.00     0.002 A 
ATOM     42  C   UNL A   1      42.157  24.171  26.437  1.00  0.00     0.091 A 
ATOM     43  F   UNL A   1      41.097  24.531  28.543  1.00  0.00    -0.205 F 
ATOM     44  C   UNL A   1      42.831  24.696  25.323  1.00  0.00     0.022 A 
BRANCH  42  45
ATOM     45  S   UNL A   1      41.838  22.403  26.447  1.00  0.00     0.127 S 
ATOM     46  O   UNL A   1      40.378  22.365  26.391  1.00  0.00    -0.237 OA
ATOM     47  O   UNL A   1      42.504  21.958  25.222  1.00  0.00    -0.237 OA
ATOM     48  O   UNL A   1      42.438  21.900  27.674  1.00  0.00    -0.744 OA
ENDBRANCH  42  45
ENDBRANCH  24  38
BRANCH  25  49
ATOM     49  C   UNL A   1      39.179  32.076  35.110  1.00  0.00     0.023 A 
ATOM     50  C   UNL A   1      38.328  31.465  36.049  1.00  0.00     0.012 A 
ATOM     51  C   UNL A   1      39.628  33.392  35.338  1.00  0.00     0.148 A 
ATOM     52  C   UNL A   1      37.921  32.157  37.192  1.00  0.00     0.002 A 
ATOM     53  C   UNL A   1      39.265  34.054  36.504  1.00  0.00     0.091 A 
ATOM     54  F   UNL A   1      40.436  33.953  34.427  1.00  0.00    -0.205 F 
ATOM     55  C   UNL A   1      38.400  33.443  37.426  1.00  0.00     0.022 A 
BRANCH  53  56
ATOM     56  S   UNL A   1      39.946  35.653  36.962  1.00  0.00     0.127 S 
ATOM     57  O   UNL A   1      39.264  35.915  38.227  1.00  0.00    -0.237 OA
ATOM     58  O   UNL A   1      41.371  35.347  37.081  1.00  0.00    -0.237 OA
ATOM     59  O   UNL A   1      39.611  36.554  35.869  1.00  0.00    -0.744 OA
ENDBRANCH  53  56
ENDBRANCH  25  49
BRANCH  37  60
ATOM     60  C   UNL A   1      44.928  28.283  33.820  1.00  0.00     0.023 A 
ATOM     61  C   UNL A   1      46.016  29.173  33.751  1.00  0.00     0.012 A 
ATOM     62  C   UNL A   1      44.975  27.195  34.713  1.00  0.00     0.148 A 
ATOM     63  C   UNL A   1      47.141  28.975  34.552  1.00  0.00     0.002 A 
ATOM     64  C   UNL A   1      46.077  27.032  35.543  1.00  0.00     0.091 A 
ATOM     65  F   UNL A   1      43.933  26.351  34.746  1.00  0.00    -0.205 F 
ATOM     66  C   UNL A   1      47.165  27.916  35.457  1.00  0.00     0.022 A 
BRANCH  64  67
ATOM     67  S   UNL A   1      46.154  25.758  36.806  1.00  0.00     0.127 S 
ATOM     68  O   UNL A   1      45.984  24.541  36.013  1.00  0.00    -0.237 OA
ATOM     69  O   UNL A   1      47.498  25.946  37.352  1.00  0.00    -0.237 OA
ATOM     70  O   UNL A   1      45.074  26.047  37.739  1.00  0.00    -0.744 OA
ENDBRANCH  64  67
ENDBRANCH  37  60
ENDBRANCH  11  12
ENDBRANCH   4   6
ENDBRANCH   1   2
BRANCH   1  71
ATOM     71  C   UNL A   1      32.001  27.985  25.511  1.00  0.00     0.042 C 
BRANCH  71  72
ATOM     72  C   UNL A   1      32.545  26.822  26.329  1.00  0.00     0.118 C 
BRANCH  72  73
ATOM     73  N   UNL A   1      31.489  25.964  26.852  1.00  0.00    -0.352 N 
ATOM     74  C   UNL A   1      30.966  24.801  26.348  1.00  0.00     0.251 C 
ATOM     75  H   UNL A   1      31.090  26.266  27.699  1.00  0.00     0.163 HD
ATOM     76  O   UNL A   1      29.946  24.323  26.843  1.00  0.00    -0.269 OA
BRANCH  74  77
ATOM     77  C   UNL A   1      31.611  24.116  25.210  1.00  0.00     0.040 A 
ATOM     78  C   UNL A   1      31.000  24.169  23.956  1.00  0.00     0.014 A 
ATOM     79  C   UNL A   1      32.794  23.387  25.386  1.00  0.00     0.022 A 
ATOM     80  C   UNL A   1      31.605  23.542  22.871  1.00  0.00     0.001 A 
ATOM     81  C   UNL A   1      33.441  22.780  24.299  1.00  0.00    -0.012 A 
ATOM     82  C   UNL A   1      32.821  22.868  23.040  1.00  0.00     0.009 A 
BRANCH  81  83
ATOM     83  C   UNL A   1      34.740  22.107  24.480  1.00  0.00     0.053 A 
ATOM     84  C   UNL A   1      35.954  22.800  24.342  1.00  0.00     0.136 A 
ATOM     85  C   UNL A   1      34.828  20.750  24.837  1.00  0.00     0.136 A 
ATOM     86  F   UNL A   1      35.955  24.103  24.024  1.00  0.00    -0.206 F 
ATOM     87  C   UNL A   1      37.187  22.183  24.545  1.00  0.00     0.079 A 
ATOM     88  C   UNL A   1      36.050  20.116  25.045  1.00  0.00     0.079 A 
ATOM     89  F   UNL A   1      33.713  20.019  24.989  1.00  0.00    -0.206 F 
ATOM     90  C   UNL A   1      37.221  20.842  24.894  1.00  0.00     0.129 A 
ATOM     91  F   UNL A   1      38.401  20.239  25.089  1.00  0.00    -0.207 F 
ENDBRANCH  81  83
ENDBRANCH  74  77
ENDBRANCH  72  73
ENDBRANCH  71  72
ENDBRANCH   1  71
TORSDOF 14
ENDMDL
