MODEL 1
REMARK VINA RESULT:     -12.4      0.000      0.000
REMARK SMILES CN1C(=O)/C(=C\c2ccc(OCC(=O)NCCCNC(=O)c3ccc(-c4c5nc(c(-c6cccc(S(=O)(=O)[O-])c6F)c6ccc([nH]6)c(-c6cccc(S(=O)(=O)[O-])c6F)c6nc(c(-c7cccc(S(=O)(=O)[O-])c7F)c7ccc4[nH]7)C=C6)C=C5)cc3)cc2)C(O)=NC1=S
REMARK SMILES IDX 16 1 15 2 13 3 14 4 12 6 11 7 10 8 7 9 8 10 86 11 9 12 85 13
REMARK SMILES IDX 6 14 1 15 2 16 3 17 90 18 4 19 5 20 89 21 91 22 87 23 88 24
REMARK SMILES IDX 17 26 18 27 19 28 20 29 21 31 22 32 23 33 84 34 24 35 83 36
REMARK SMILES IDX 25 37 26 38 27 39 77 40 28 41 82 42 76 43 78 44 29 45 81 46
REMARK SMILES IDX 75 47 74 48 30 50 62 51 42 52 61 53 43 54 46 55 60 56 79 57
REMARK SMILES IDX 44 58 45 59 59 61 80 62 47 63 31 64 32 65 40 66 33 67 35 68
REMARK SMILES IDX 41 69 34 70 36 71 37 72 38 73 39 74 63 75 64 76 72 77 65 78
REMARK SMILES IDX 67 79 73 80 66 81 68 82 69 83 70 84 71 85 48 86 49 87 57 88
REMARK SMILES IDX 50 89 52 90 58 91 51 92 53 93 54 94 55 95 56 96
REMARK H PARENT 15 5 88 25 19 30 78 49 46 60
REMARK Flexibility Score: inf
ROOT
ATOM      1  C   UNL A   1      32.593  28.748  22.980  1.00  0.00     0.117 C 
ENDROOT
BRANCH   1   2
ATOM      2  N   UNL A   1      31.544  29.640  22.519  1.00  0.00    -0.353 N 
ATOM      3  C   UNL A   1      30.209  29.384  22.396  1.00  0.00     0.257 C 
ATOM      4  O   UNL A   1      29.456  30.299  22.054  1.00  0.00    -0.271 OA
ATOM      5  H   UNL A   1      31.833  30.546  22.263  1.00  0.00     0.163 HD
BRANCH   3   6
ATOM      6  C   UNL A   1      29.667  27.991  22.745  1.00  0.00     0.329 C 
BRANCH   6   7
ATOM      7  O   UNL A   1      29.640  27.643  24.120  1.00  0.00    -0.484 OA
BRANCH   7   8
ATOM      8  C   UNL A   1      30.113  26.409  24.471  1.00  0.00     0.120 A 
ATOM      9  C   UNL A   1      31.030  23.790  24.912  1.00  0.00    -0.024 A 
ATOM     10  C   UNL A   1      30.987  24.308  23.615  1.00  0.00     0.012 A 
ATOM     11  C   UNL A   1      30.659  24.606  25.986  1.00  0.00     0.012 A 
ATOM     12  C   UNL A   1      30.533  25.613  23.401  1.00  0.00     0.047 A 
ATOM     13  C   UNL A   1      30.199  25.906  25.767  1.00  0.00     0.047 A 
BRANCH   9  14
ATOM     14  C   UNL A   1      31.494  22.420  25.161  1.00  0.00     0.027 C 
ATOM     15  C   UNL A   1      36.303  23.331  25.235  1.00  0.00     0.156 C 
ATOM     16  N   UNL A   1      35.176  22.397  25.296  1.00  0.00    -0.286 N 
ATOM     17  C   UNL A   1      33.917  22.976  25.455  1.00  0.00     0.265 C 
ATOM     18  C   UNL A   1      35.398  21.011  25.228  1.00  0.00     0.205 C 
ATOM     19  O   UNL A   1      33.753  24.179  25.644  1.00  0.00    -0.268 OA
ATOM     20  C   UNL A   1      32.769  22.028  25.374  1.00  0.00     0.103 C 
ATOM     21  N   UNL A   1      34.334  20.157  25.351  1.00  0.00    -0.184 NA
ATOM     22  S   UNL A   1      36.934  20.325  24.998  1.00  0.00    -0.038 S 
ATOM     23  C   UNL A   1      33.141  20.611  25.435  1.00  0.00     0.226 C 
BRANCH  23  24
ATOM     24  O   UNL A   1      32.162  19.700  25.576  1.00  0.00    -0.493 OA
ATOM     25  H   UNL A   1      32.351  18.788  25.470  1.00  0.00     0.295 HD
ENDBRANCH  23  24
ENDBRANCH   9  14
ENDBRANCH   7   8
ENDBRANCH   6   7
ENDBRANCH   3   6
ENDBRANCH   1   2
BRANCH   1  26
ATOM     26  C   UNL A   1      33.297  29.253  24.234  1.00  0.00     0.042 C 
BRANCH  26  27
ATOM     27  C   UNL A   1      32.437  29.245  25.496  1.00  0.00     0.118 C 
BRANCH  27  28
ATOM     28  N   UNL A   1      32.072  30.585  25.948  1.00  0.00    -0.352 N 
ATOM     29  C   UNL A   1      32.670  31.411  26.866  1.00  0.00     0.251 C 
ATOM     30  H   UNL A   1      31.264  30.955  25.526  1.00  0.00     0.163 HD
ATOM     31  O   UNL A   1      32.093  32.445  27.206  1.00  0.00    -0.269 OA
BRANCH  29  32
ATOM     32  C   UNL A   1      33.980  31.070  27.465  1.00  0.00     0.039 A 
ATOM     33  C   UNL A   1      34.925  32.086  27.637  1.00  0.00     0.014 A 
ATOM     34  C   UNL A   1      34.294  29.760  27.836  1.00  0.00     0.014 A 
ATOM     35  C   UNL A   1      36.151  31.803  28.249  1.00  0.00     0.010 A 
ATOM     36  C   UNL A   1      35.483  29.495  28.514  1.00  0.00     0.010 A 
ATOM     37  C   UNL A   1      36.424  30.513  28.732  1.00  0.00    -0.014 A 
BRANCH  37  38
ATOM     38  C   UNL A   1      37.664  30.224  29.502  1.00  0.00     0.031 A 
ATOM     39  C   UNL A   1      38.701  29.276  28.959  1.00  0.00     0.074 A 
ATOM     40  C   UNL A   1      37.813  30.744  30.737  1.00  0.00     0.049 A 
ATOM     41  N   UNL A   1      39.811  28.863  29.517  1.00  0.00    -0.248 NA
ATOM     42  C   UNL A   1      38.452  28.697  27.627  1.00  0.00     0.031 C 
ATOM     43  C   UNL A   1      36.846  31.616  31.410  1.00  0.00     0.029 A 
ATOM     44  N   UNL A   1      38.816  30.591  31.663  1.00  0.00    -0.354 N 
ATOM     45  C   UNL A   1      40.367  27.947  28.631  1.00  0.00     0.074 A 
ATOM     46  C   UNL A   1      39.466  27.852  27.503  1.00  0.00     0.031 C 
ATOM     47  C   UNL A   1      37.303  31.920  32.636  1.00  0.00     0.029 A 
ATOM     48  C   UNL A   1      38.573  31.236  32.855  1.00  0.00     0.049 A 
ATOM     49  H   UNL A   1      39.634  30.070  31.491  1.00  0.00     0.167 HD
ATOM     50  C   UNL A   1      41.528  27.260  28.742  1.00  0.00     0.034 A 
ATOM     51  C   UNL A   1      39.281  31.260  34.002  1.00  0.00     0.034 A 
ATOM     52  C   UNL A   1      42.446  27.392  29.841  1.00  0.00     0.049 A 
ATOM     53  C   UNL A   1      40.584  30.510  34.076  1.00  0.00     0.074 A 
ATOM     54  C   UNL A   1      43.701  26.827  29.982  1.00  0.00     0.029 A 
ATOM     55  N   UNL A   1      42.203  28.118  30.996  1.00  0.00    -0.354 N 
ATOM     56  N   UNL A   1      41.181  29.799  33.150  1.00  0.00    -0.248 NA
ATOM     57  C   UNL A   1      41.329  30.591  35.342  1.00  0.00     0.031 C 
ATOM     58  C   UNL A   1      44.199  27.174  31.241  1.00  0.00     0.029 A 
ATOM     59  C   UNL A   1      43.272  27.992  31.866  1.00  0.00     0.049 A 
ATOM     60  H   UNL A   1      41.390  28.644  31.171  1.00  0.00     0.167 HD
ATOM     61  C   UNL A   1      42.386  29.384  33.708  1.00  0.00     0.074 A 
ATOM     62  C   UNL A   1      42.446  29.943  35.041  1.00  0.00     0.031 C 
ATOM     63  C   UNL A   1      43.349  28.599  33.169  1.00  0.00     0.034 A 
BRANCH  50  64
ATOM     64  C   UNL A   1      41.908  26.317  27.630  1.00  0.00     0.023 A 
ATOM     65  C   UNL A   1      42.776  26.749  26.608  1.00  0.00     0.012 A 
ATOM     66  C   UNL A   1      41.494  24.970  27.663  1.00  0.00     0.148 A 
ATOM     67  C   UNL A   1      43.209  25.861  25.623  1.00  0.00     0.002 A 
ATOM     68  C   UNL A   1      41.967  24.081  26.706  1.00  0.00     0.091 A 
ATOM     69  F   UNL A   1      40.654  24.586  28.634  1.00  0.00    -0.205 F 
ATOM     70  C   UNL A   1      42.815  24.526  25.681  1.00  0.00     0.022 A 
BRANCH  68  71
ATOM     71  S   UNL A   1      41.590  22.325  26.742  1.00  0.00     0.127 S 
ATOM     72  O   UNL A   1      42.433  21.822  25.658  1.00  0.00    -0.237 OA
ATOM     73  O   UNL A   1      42.032  21.947  28.084  1.00  0.00    -0.237 OA
ATOM     74  O   UNL A   1      40.156  22.214  26.516  1.00  0.00    -0.744 OA
ENDBRANCH  68  71
ENDBRANCH  50  64
BRANCH  51  75
ATOM     75  C   UNL A   1      38.798  32.049  35.173  1.00  0.00     0.023 A 
ATOM     76  C   UNL A   1      38.887  33.455  35.148  1.00  0.00     0.012 A 
ATOM     77  C   UNL A   1      38.271  31.417  36.315  1.00  0.00     0.148 A 
ATOM     78  C   UNL A   1      38.509  34.213  36.257  1.00  0.00     0.002 A 
ATOM     79  C   UNL A   1      37.840  32.181  37.393  1.00  0.00     0.091 A 
ATOM     80  F   UNL A   1      38.205  30.078  36.330  1.00  0.00    -0.205 F 
ATOM     81  C   UNL A   1      37.979  33.577  37.376  1.00  0.00     0.022 A 
BRANCH  79  82
ATOM     82  S   UNL A   1      37.024  31.453  38.819  1.00  0.00     0.127 S 
ATOM     83  O   UNL A   1      37.974  31.742  39.888  1.00  0.00    -0.237 OA
ATOM     84  O   UNL A   1      35.777  32.217  38.878  1.00  0.00    -0.237 OA
ATOM     85  O   UNL A   1      36.845  30.044  38.492  1.00  0.00    -0.744 OA
ENDBRANCH  79  82
ENDBRANCH  51  75
BRANCH  63  86
ATOM     86  C   UNL A   1      44.581  28.330  33.994  1.00  0.00     0.023 A 
ATOM     87  C   UNL A   1      45.690  29.195  33.911  1.00  0.00     0.012 A 
ATOM     88  C   UNL A   1      44.610  27.255  34.905  1.00  0.00     0.148 A 
ATOM     89  C   UNL A   1      46.822  28.974  34.696  1.00  0.00     0.002 A 
ATOM     90  C   UNL A   1      45.718  27.074  35.724  1.00  0.00     0.091 A 
ATOM     91  F   UNL A   1      43.551  26.433  34.958  1.00  0.00    -0.205 F 
ATOM     92  C   UNL A   1      46.830  27.923  35.610  1.00  0.00     0.022 A 
BRANCH  90  93
ATOM     93  S   UNL A   1      45.778  25.810  36.999  1.00  0.00     0.127 S 
ATOM     94  O   UNL A   1      44.631  26.173  37.831  1.00  0.00    -0.237 OA
ATOM     95  O   UNL A   1      45.605  24.581  36.225  1.00  0.00    -0.237 OA
ATOM     96  O   UNL A   1      47.079  25.945  37.640  1.00  0.00    -0.744 OA
ENDBRANCH  90  93
ENDBRANCH  63  86
ENDBRANCH  37  38
ENDBRANCH  29  32
ENDBRANCH  27  28
ENDBRANCH  26  27
ENDBRANCH   1  26
TORSDOF 17
ENDMDL
MODEL 2
REMARK VINA RESULT:     -12.4      0.604      7.431
REMARK SMILES CN1C(=O)/C(=C\c2ccc(OCC(=O)NCCCNC(=O)c3ccc(-c4c5nc(c(-c6cccc(S(=O)(=O)[O-])c6F)c6ccc([nH]6)c(-c6cccc(S(=O)(=O)[O-])c6F)c6nc(c(-c7cccc(S(=O)(=O)[O-])c7F)c7ccc4[nH]7)C=C6)C=C5)cc3)cc2)C(O)=NC1=S
REMARK SMILES IDX 16 1 15 2 13 3 14 4 12 6 11 7 10 8 7 9 8 10 86 11 9 12 85 13
REMARK SMILES IDX 6 14 1 15 2 16 3 17 90 18 4 19 5 20 89 21 91 22 87 23 88 24
REMARK SMILES IDX 17 26 18 27 19 28 20 29 21 31 22 32 23 33 84 34 24 35 83 36
REMARK SMILES IDX 25 37 26 38 27 39 77 40 28 41 82 42 76 43 78 44 29 45 81 46
REMARK SMILES IDX 75 47 74 48 30 50 62 51 42 52 61 53 43 54 46 55 60 56 79 57
REMARK SMILES IDX 44 58 45 59 59 61 80 62 47 63 31 64 32 65 40 66 33 67 35 68
REMARK SMILES IDX 41 69 34 70 36 71 37 72 38 73 39 74 63 75 64 76 72 77 65 78
REMARK SMILES IDX 67 79 73 80 66 81 68 82 69 83 70 84 71 85 48 86 49 87 57 88
REMARK SMILES IDX 50 89 52 90 58 91 51 92 53 93 54 94 55 95 56 96
REMARK H PARENT 15 5 88 25 19 30 78 49 46 60
REMARK Flexibility Score: inf
ROOT
ATOM      1  C   UNL A   1      32.552  28.721  23.478  1.00  0.00     0.117 C 
ENDROOT
BRANCH   1   2
ATOM      2  N   UNL A   1      31.534  29.617  22.962  1.00  0.00    -0.353 N 
ATOM      3  C   UNL A   1      30.243  29.328  22.624  1.00  0.00     0.257 C 
ATOM      4  O   UNL A   1      29.500  30.246  22.269  1.00  0.00    -0.271 OA
ATOM      5  H   UNL A   1      31.810  30.555  22.840  1.00  0.00     0.163 HD
BRANCH   3   6
ATOM      6  C   UNL A   1      29.730  27.887  22.751  1.00  0.00     0.329 C 
BRANCH   6   7
ATOM      7  O   UNL A   1      29.442  27.427  24.062  1.00  0.00    -0.484 OA
BRANCH   7   8
ATOM      8  C   UNL A   1      29.978  26.229  24.445  1.00  0.00     0.120 A 
ATOM      9  C   UNL A   1      31.027  23.672  24.953  1.00  0.00    -0.024 A 
ATOM     10  C   UNL A   1      30.956  24.152  23.644  1.00  0.00     0.012 A 
ATOM     11  C   UNL A   1      30.617  24.497  26.007  1.00  0.00     0.012 A 
ATOM     12  C   UNL A   1      30.436  25.426  23.395  1.00  0.00     0.047 A 
ATOM     13  C   UNL A   1      30.091  25.766  25.754  1.00  0.00     0.047 A 
BRANCH   9  14
ATOM     14  C   UNL A   1      31.560  22.335  25.238  1.00  0.00     0.027 C 
ATOM     15  C   UNL A   1      36.322  23.466  25.148  1.00  0.00     0.156 C 
ATOM     16  N   UNL A   1      35.242  22.485  25.273  1.00  0.00    -0.286 N 
ATOM     17  C   UNL A   1      33.962  23.011  25.446  1.00  0.00     0.265 C 
ATOM     18  C   UNL A   1      35.526  21.108  25.248  1.00  0.00     0.205 C 
ATOM     19  O   UNL A   1      33.747  24.211  25.596  1.00  0.00    -0.268 OA
ATOM     20  C   UNL A   1      32.857  22.009  25.430  1.00  0.00     0.103 C 
ATOM     21  N   UNL A   1      34.506  20.212  25.431  1.00  0.00    -0.184 NA
ATOM     22  S   UNL A   1      37.086  20.485  25.000  1.00  0.00    -0.038 S 
ATOM     23  C   UNL A   1      33.296  20.614  25.531  1.00  0.00     0.226 C 
BRANCH  23  24
ATOM     24  O   UNL A   1      32.364  19.665  25.731  1.00  0.00    -0.493 OA
ATOM     25  H   UNL A   1      31.597  19.860  26.233  1.00  0.00     0.295 HD
ENDBRANCH  23  24
ENDBRANCH   9  14
ENDBRANCH   7   8
ENDBRANCH   6   7
ENDBRANCH   3   6
ENDBRANCH   1   2
BRANCH   1  26
ATOM     26  C   UNL A   1      33.280  29.282  24.694  1.00  0.00     0.042 C 
BRANCH  26  27
ATOM     27  C   UNL A   1      32.397  29.510  25.919  1.00  0.00     0.118 C 
BRANCH  27  28
ATOM     28  N   UNL A   1      32.269  30.920  26.278  1.00  0.00    -0.352 N 
ATOM     29  C   UNL A   1      33.021  31.697  27.122  1.00  0.00     0.251 C 
ATOM     30  H   UNL A   1      31.520  31.388  25.844  1.00  0.00     0.163 HD
ATOM     31  O   UNL A   1      32.631  32.833  27.396  1.00  0.00    -0.269 OA
BRANCH  29  32
ATOM     32  C   UNL A   1      34.275  31.187  27.721  1.00  0.00     0.039 A 
ATOM     33  C   UNL A   1      35.315  32.086  27.972  1.00  0.00     0.014 A 
ATOM     34  C   UNL A   1      34.443  29.832  28.015  1.00  0.00     0.014 A 
ATOM     35  C   UNL A   1      36.491  31.642  28.586  1.00  0.00     0.010 A 
ATOM     36  C   UNL A   1      35.583  29.404  28.696  1.00  0.00     0.010 A 
ATOM     37  C   UNL A   1      36.618  30.304  28.993  1.00  0.00    -0.014 A 
BRANCH  37  38
ATOM     38  C   UNL A   1      37.804  29.842  29.764  1.00  0.00     0.031 A 
ATOM     39  C   UNL A   1      38.068  30.362  31.153  1.00  0.00     0.074 A 
ATOM     40  C   UNL A   1      38.698  29.022  29.174  1.00  0.00     0.049 A 
ATOM     41  N   UNL A   1      39.080  30.115  31.945  1.00  0.00    -0.248 NA
ATOM     42  C   UNL A   1      37.082  31.299  31.719  1.00  0.00     0.031 C 
ATOM     43  C   UNL A   1      38.599  28.506  27.806  1.00  0.00     0.029 A 
ATOM     44  N   UNL A   1      39.884  28.503  29.635  1.00  0.00    -0.354 N 
ATOM     45  C   UNL A   1      38.879  30.895  33.077  1.00  0.00     0.074 A 
ATOM     46  C   UNL A   1      37.655  31.637  32.866  1.00  0.00     0.031 C 
ATOM     47  C   UNL A   1      39.674  27.747  27.540  1.00  0.00     0.029 A 
ATOM     48  C   UNL A   1      40.560  27.752  28.700  1.00  0.00     0.049 A 
ATOM     49  H   UNL A   1      40.219  28.653  30.548  1.00  0.00     0.167 HD
ATOM     50  C   UNL A   1      39.637  30.976  34.197  1.00  0.00     0.034 A 
ATOM     51  C   UNL A   1      41.765  27.150  28.760  1.00  0.00     0.034 A 
ATOM     52  C   UNL A   1      40.828  30.202  34.426  1.00  0.00     0.049 A 
ATOM     53  C   UNL A   1      42.564  27.234  30.033  1.00  0.00     0.074 A 
ATOM     54  C   UNL A   1      41.593  30.129  35.576  1.00  0.00     0.029 A 
ATOM     55  N   UNL A   1      41.439  29.389  33.485  1.00  0.00    -0.354 N 
ATOM     56  N   UNL A   1      42.260  27.827  31.161  1.00  0.00    -0.248 NA
ATOM     57  C   UNL A   1      43.860  26.537  30.053  1.00  0.00     0.031 C 
ATOM     58  C   UNL A   1      42.693  29.306  35.317  1.00  0.00     0.029 A 
ATOM     59  C   UNL A   1      42.588  28.832  34.020  1.00  0.00     0.049 A 
ATOM     60  H   UNL A   1      41.106  29.231  32.573  1.00  0.00     0.167 HD
ATOM     61  C   UNL A   1      43.304  27.543  32.035  1.00  0.00     0.074 A 
ATOM     62  C   UNL A   1      44.236  26.702  31.314  1.00  0.00     0.031 C 
ATOM     63  C   UNL A   1      43.481  27.951  33.314  1.00  0.00     0.034 A 
BRANCH  50  64
ATOM     64  C   UNL A   1      39.194  31.909  35.293  1.00  0.00     0.023 A 
ATOM     65  C   UNL A   1      39.347  33.301  35.136  1.00  0.00     0.012 A 
ATOM     66  C   UNL A   1      38.523  31.410  36.428  1.00  0.00     0.148 A 
ATOM     67  C   UNL A   1      38.859  34.181  36.102  1.00  0.00     0.002 A 
ATOM     68  C   UNL A   1      37.998  32.295  37.361  1.00  0.00     0.091 A 
ATOM     69  F   UNL A   1      38.403  30.082  36.564  1.00  0.00    -0.205 F 
ATOM     70  C   UNL A   1      38.174  33.679  37.206  1.00  0.00     0.022 A 
BRANCH  68  71
ATOM     71  S   UNL A   1      37.024  31.754  38.770  1.00  0.00     0.127 S 
ATOM     72  O   UNL A   1      37.968  31.947  39.871  1.00  0.00    -0.237 OA
ATOM     73  O   UNL A   1      35.909  32.701  38.750  1.00  0.00    -0.237 OA
ATOM     74  O   UNL A   1      36.657  30.371  38.502  1.00  0.00    -0.744 OA
ENDBRANCH  68  71
ENDBRANCH  50  64
BRANCH  51  75
ATOM     75  C   UNL A   1      42.285  26.379  27.593  1.00  0.00     0.023 A 
ATOM     76  C   UNL A   1      43.044  27.040  26.606  1.00  0.00     0.012 A 
ATOM     77  C   UNL A   1      42.018  25.005  27.445  1.00  0.00     0.148 A 
ATOM     78  C   UNL A   1      43.483  26.359  25.470  1.00  0.00     0.002 A 
ATOM     79  C   UNL A   1      42.510  24.319  26.341  1.00  0.00     0.091 A 
ATOM     80  F   UNL A   1      41.284  24.393  28.385  1.00  0.00    -0.205 F 
ATOM     81  C   UNL A   1      43.223  24.998  25.341  1.00  0.00     0.022 A 
BRANCH  79  82
ATOM     82  S   UNL A   1      42.334  22.540  26.162  1.00  0.00     0.127 S 
ATOM     83  O   UNL A   1      40.883  22.384  26.118  1.00  0.00    -0.237 OA
ATOM     84  O   UNL A   1      43.020  22.292  24.893  1.00  0.00    -0.237 OA
ATOM     85  O   UNL A   1      43.000  21.961  27.322  1.00  0.00    -0.744 OA
ENDBRANCH  79  82
ENDBRANCH  51  75
BRANCH  63  86
ATOM     86  C   UNL A   1      44.704  27.461  34.046  1.00  0.00     0.023 A 
ATOM     87  C   UNL A   1      45.887  28.226  34.036  1.00  0.00     0.012 A 
ATOM     88  C   UNL A   1      44.655  26.273  34.803  1.00  0.00     0.148 A 
ATOM     89  C   UNL A   1      47.013  27.799  34.739  1.00  0.00     0.002 A 
ATOM     90  C   UNL A   1      45.763  25.883  35.545  1.00  0.00     0.091 A 
ATOM     91  F   UNL A   1      43.526  25.551  34.787  1.00  0.00    -0.205 F 
ATOM     92  C   UNL A   1      46.947  26.636  35.502  1.00  0.00     0.022 A 
BRANCH  90  93
ATOM     93  S   UNL A   1      45.738  24.456  36.636  1.00  0.00     0.127 S 
ATOM     94  O   UNL A   1      47.128  24.406  37.092  1.00  0.00    -0.237 OA
ATOM     95  O   UNL A   1      44.775  24.865  37.658  1.00  0.00    -0.237 OA
ATOM     96  O   UNL A   1      45.312  23.329  35.817  1.00  0.00    -0.744 OA
ENDBRANCH  90  93
ENDBRANCH  63  86
ENDBRANCH  37  38
ENDBRANCH  29  32
ENDBRANCH  27  28
ENDBRANCH  26  27
ENDBRANCH   1  26
TORSDOF 17
ENDMDL
MODEL 3
REMARK VINA RESULT:     -12.4      2.121      7.693
REMARK SMILES CN1C(=O)/C(=C\c2ccc(OCC(=O)NCCCNC(=O)c3ccc(-c4c5nc(c(-c6cccc(S(=O)(=O)[O-])c6F)c6ccc([nH]6)c(-c6cccc(S(=O)(=O)[O-])c6F)c6nc(c(-c7cccc(S(=O)(=O)[O-])c7F)c7ccc4[nH]7)C=C6)C=C5)cc3)cc2)C(O)=NC1=S
REMARK SMILES IDX 16 1 15 2 13 3 14 4 12 6 11 7 10 8 7 9 8 10 86 11 9 12 85 13
REMARK SMILES IDX 6 14 1 15 2 16 3 17 90 18 4 19 5 20 89 21 91 22 87 23 88 24
REMARK SMILES IDX 17 26 18 27 19 28 20 29 21 31 22 32 23 33 84 34 24 35 83 36
REMARK SMILES IDX 25 37 26 38 27 39 77 40 28 41 82 42 76 43 78 44 29 45 81 46
REMARK SMILES IDX 75 47 74 48 30 50 62 51 42 52 61 53 43 54 46 55 60 56 79 57
REMARK SMILES IDX 44 58 45 59 59 61 80 62 47 63 31 64 32 65 40 66 33 67 35 68
REMARK SMILES IDX 41 69 34 70 36 71 37 72 38 73 39 74 63 75 64 76 72 77 65 78
REMARK SMILES IDX 67 79 73 80 66 81 68 82 69 83 70 84 71 85 48 86 49 87 57 88
REMARK SMILES IDX 50 89 52 90 58 91 51 92 53 93 54 94 55 95 56 96
REMARK H PARENT 15 5 88 25 19 30 78 49 46 60
REMARK Flexibility Score: inf
ROOT
ATOM      1  C   UNL A   1      32.638  28.115  24.355  1.00  0.00     0.117 C 
ENDROOT
BRANCH   1   2
ATOM      2  N   UNL A   1      31.741  29.248  24.220  1.00  0.00    -0.353 N 
ATOM      3  C   UNL A   1      30.490  29.277  23.674  1.00  0.00     0.257 C 
ATOM      4  O   UNL A   1      29.845  30.328  23.717  1.00  0.00    -0.271 OA
ATOM      5  H   UNL A   1      32.078  30.106  24.568  1.00  0.00     0.163 HD
BRANCH   3   6
ATOM      6  C   UNL A   1      29.891  27.995  23.080  1.00  0.00     0.329 C 
BRANCH   6   7
ATOM      7  O   UNL A   1      29.163  27.161  23.967  1.00  0.00    -0.484 OA
BRANCH   7   8
ATOM      8  C   UNL A   1      29.765  26.008  24.390  1.00  0.00     0.120 A 
ATOM      9  C   UNL A   1      30.943  23.529  24.989  1.00  0.00    -0.024 A 
ATOM     10  C   UNL A   1      30.801  23.933  23.660  1.00  0.00     0.012 A 
ATOM     11  C   UNL A   1      30.538  24.391  26.013  1.00  0.00     0.012 A 
ATOM     12  C   UNL A   1      30.216  25.170  23.366  1.00  0.00     0.047 A 
ATOM     13  C   UNL A   1      29.949  25.622  25.716  1.00  0.00     0.047 A 
BRANCH   9  14
ATOM     14  C   UNL A   1      31.545  22.232  25.321  1.00  0.00     0.027 C 
ATOM     15  C   UNL A   1      36.244  23.522  24.859  1.00  0.00     0.156 C 
ATOM     16  N   UNL A   1      35.213  22.513  25.113  1.00  0.00    -0.286 N 
ATOM     17  C   UNL A   1      33.926  23.004  25.334  1.00  0.00     0.265 C 
ATOM     18  C   UNL A   1      35.548  21.149  25.155  1.00  0.00     0.205 C 
ATOM     19  O   UNL A   1      33.674  24.203  25.423  1.00  0.00    -0.268 OA
ATOM     20  C   UNL A   1      32.863  21.965  25.450  1.00  0.00     0.103 C 
ATOM     21  N   UNL A   1      34.578  20.231  25.457  1.00  0.00    -0.184 NA
ATOM     22  S   UNL A   1      37.114  20.566  24.848  1.00  0.00    -0.038 S 
ATOM     23  C   UNL A   1      33.361  20.596  25.609  1.00  0.00     0.226 C 
BRANCH  23  24
ATOM     24  O   UNL A   1      32.481  19.629  25.926  1.00  0.00    -0.493 OA
ATOM     25  H   UNL A   1      31.758  19.821  26.490  1.00  0.00     0.295 HD
ENDBRANCH  23  24
ENDBRANCH   9  14
ENDBRANCH   7   8
ENDBRANCH   6   7
ENDBRANCH   3   6
ENDBRANCH   1   2
BRANCH   1  26
ATOM     26  C   UNL A   1      34.041  28.515  24.797  1.00  0.00     0.042 C 
BRANCH  26  27
ATOM     27  C   UNL A   1      34.207  28.699  26.304  1.00  0.00     0.118 C 
BRANCH  27  28
ATOM     28  N   UNL A   1      33.918  30.059  26.750  1.00  0.00    -0.352 N 
ATOM     29  C   UNL A   1      34.563  30.856  27.661  1.00  0.00     0.251 C 
ATOM     30  H   UNL A   1      33.130  30.471  26.327  1.00  0.00     0.163 HD
ATOM     31  O   UNL A   1      34.044  31.922  27.997  1.00  0.00    -0.269 OA
BRANCH  29  32
ATOM     32  C   UNL A   1      35.853  30.446  28.260  1.00  0.00     0.039 A 
ATOM     33  C   UNL A   1      35.839  29.715  29.451  1.00  0.00     0.014 A 
ATOM     34  C   UNL A   1      37.072  30.795  27.674  1.00  0.00     0.014 A 
ATOM     35  C   UNL A   1      37.041  29.268  30.011  1.00  0.00     0.010 A 
ATOM     36  C   UNL A   1      38.264  30.286  28.190  1.00  0.00     0.010 A 
ATOM     37  C   UNL A   1      38.262  29.514  29.362  1.00  0.00    -0.014 A 
BRANCH  37  38
ATOM     38  C   UNL A   1      39.536  28.936  29.871  1.00  0.00     0.031 A 
ATOM     39  C   UNL A   1      40.277  29.593  31.006  1.00  0.00     0.074 A 
ATOM     40  C   UNL A   1      40.076  27.871  29.245  1.00  0.00     0.049 A 
ATOM     41  N   UNL A   1      41.427  29.263  31.537  1.00  0.00    -0.248 NA
ATOM     42  C   UNL A   1      39.662  30.788  31.609  1.00  0.00     0.031 C 
ATOM     43  C   UNL A   1      39.497  27.187  28.085  1.00  0.00     0.029 A 
ATOM     44  N   UNL A   1      41.248  27.192  29.473  1.00  0.00    -0.354 N 
ATOM     45  C   UNL A   1      41.694  30.229  32.500  1.00  0.00     0.074 A 
ATOM     46  C   UNL A   1      40.594  31.168  32.473  1.00  0.00     0.031 C 
ATOM     47  C   UNL A   1      40.313  26.191  27.706  1.00  0.00     0.029 A 
ATOM     48  C   UNL A   1      41.491  26.185  28.566  1.00  0.00     0.049 A 
ATOM     49  H   UNL A   1      41.858  27.405  30.217  1.00  0.00     0.167 HD
ATOM     50  C   UNL A   1      42.752  30.317  33.341  1.00  0.00     0.034 A 
ATOM     51  C   UNL A   1      42.550  25.363  28.428  1.00  0.00     0.034 A 
ATOM     52  C   UNL A   1      43.822  29.356  33.401  1.00  0.00     0.049 A 
ATOM     53  C   UNL A   1      43.693  25.469  29.402  1.00  0.00     0.074 A 
ATOM     54  C   UNL A   1      44.872  29.299  34.299  1.00  0.00     0.029 A 
ATOM     55  N   UNL A   1      43.992  28.303  32.517  1.00  0.00    -0.354 N 
ATOM     56  N   UNL A   1      43.833  26.275  30.426  1.00  0.00    -0.248 NA
ATOM     57  C   UNL A   1      44.811  24.530  29.221  1.00  0.00     0.031 C 
ATOM     58  C   UNL A   1      45.703  28.237  33.932  1.00  0.00     0.029 A 
ATOM     59  C   UNL A   1      45.146  27.606  32.833  1.00  0.00     0.049 A 
ATOM     60  H   UNL A   1      43.383  28.082  31.776  1.00  0.00     0.167 HD
ATOM     61  C   UNL A   1      45.031  25.914  31.033  1.00  0.00     0.074 A 
ATOM     62  C   UNL A   1      45.565  24.800  30.278  1.00  0.00     0.031 C 
ATOM     63  C   UNL A   1      45.641  26.463  32.110  1.00  0.00     0.034 A 
BRANCH  50  64
ATOM     64  C   UNL A   1      42.806  31.475  34.302  1.00  0.00     0.023 A 
ATOM     65  C   UNL A   1      43.463  32.665  33.934  1.00  0.00     0.012 A 
ATOM     66  C   UNL A   1      42.105  31.421  35.524  1.00  0.00     0.148 A 
ATOM     67  C   UNL A   1      43.442  33.777  34.776  1.00  0.00     0.002 A 
ATOM     68  C   UNL A   1      42.049  32.548  36.336  1.00  0.00     0.091 A 
ATOM     69  F   UNL A   1      41.501  30.274  35.862  1.00  0.00    -0.205 F 
ATOM     70  C   UNL A   1      42.725  33.722  35.968  1.00  0.00     0.022 A 
BRANCH  68  71
ATOM     71  S   UNL A   1      41.081  32.608  37.847  1.00  0.00     0.127 S 
ATOM     72  O   UNL A   1      41.881  31.774  38.742  1.00  0.00    -0.237 OA
ATOM     73  O   UNL A   1      41.100  34.036  38.164  1.00  0.00    -0.237 OA
ATOM     74  O   UNL A   1      39.769  32.074  37.509  1.00  0.00    -0.744 OA
ENDBRANCH  68  71
ENDBRANCH  50  64
BRANCH  51  75
ATOM     75  C   UNL A   1      42.575  24.335  27.347  1.00  0.00     0.023 A 
ATOM     76  C   UNL A   1      43.166  24.646  26.105  1.00  0.00     0.012 A 
ATOM     77  C   UNL A   1      42.002  23.063  27.532  1.00  0.00     0.148 A 
ATOM     78  C   UNL A   1      43.139  23.729  25.054  1.00  0.00     0.002 A 
ATOM     79  C   UNL A   1      42.033  22.131  26.500  1.00  0.00     0.091 A 
ATOM     80  F   UNL A   1      41.432  22.786  28.713  1.00  0.00    -0.205 F 
ATOM     81  C   UNL A   1      42.581  22.469  25.254  1.00  0.00     0.022 A 
BRANCH  79  82
ATOM     82  S   UNL A   1      41.454  20.444  26.714  1.00  0.00     0.127 S 
ATOM     83  O   UNL A   1      42.242  20.000  27.861  1.00  0.00    -0.237 OA
ATOM     84  O   UNL A   1      40.030  20.642  26.984  1.00  0.00    -0.237 OA
ATOM     85  O   UNL A   1      41.735  19.770  25.453  1.00  0.00    -0.744 OA
ENDBRANCH  79  82
ENDBRANCH  51  75
BRANCH  63  86
ATOM     86  C   UNL A   1      46.934  25.846  32.579  1.00  0.00     0.023 A 
ATOM     87  C   UNL A   1      48.161  26.293  32.052  1.00  0.00     0.012 A 
ATOM     88  C   UNL A   1      46.932  24.870  33.595  1.00  0.00     0.148 A 
ATOM     89  C   UNL A   1      49.365  25.753  32.504  1.00  0.00     0.002 A 
ATOM     90  C   UNL A   1      48.137  24.376  34.079  1.00  0.00     0.091 A 
ATOM     91  F   UNL A   1      45.752  24.446  34.072  1.00  0.00    -0.205 F 
ATOM     92  C   UNL A   1      49.353  24.805  33.524  1.00  0.00     0.022 A 
BRANCH  90  93
ATOM     93  S   UNL A   1      48.224  23.230  35.459  1.00  0.00     0.127 S 
ATOM     94  O   UNL A   1      49.668  23.027  35.587  1.00  0.00    -0.237 OA
ATOM     95  O   UNL A   1      47.619  24.004  36.543  1.00  0.00    -0.237 OA
ATOM     96  O   UNL A   1      47.465  22.054  35.057  1.00  0.00    -0.744 OA
ENDBRANCH  90  93
ENDBRANCH  63  86
ENDBRANCH  37  38
ENDBRANCH  29  32
ENDBRANCH  27  28
ENDBRANCH  26  27
ENDBRANCH   1  26
TORSDOF 17
ENDMDL
