MODEL 1
REMARK VINA RESULT:     -12.6      0.000      0.000
REMARK SMILES NC(=O)C1CC[NH+](Cc2ccc(C(=O)NCCCNC(=O)c3ccc(-c4c5nc(c(-c6cccc(S(=O)(=O)[O-])c6F)c6ccc([nH]6)c(-c6cccc(S(=O)(=O)[O-])c6F)c6nc(c(-c7cccc(S(=O)(=O)[O-])c7F)c7ccc4[nH]7)C=C6)C=C5)cc3)cc2)CC1
REMARK SMILES IDX 17 1 16 2 15 3 13 4 14 5 12 7 9 8 10 9 86 10 11 11 85 12
REMARK SMILES IDX 8 13 7 14 4 15 5 16 88 17 6 18 87 19 2 21 1 22 3 25 18 26
REMARK SMILES IDX 19 27 20 28 21 30 22 31 23 32 84 33 24 34 83 35 25 36 26 37
REMARK SMILES IDX 27 38 77 39 28 40 82 41 76 42 78 43 29 44 81 45 75 46 74 47
REMARK SMILES IDX 30 49 62 50 42 51 61 52 43 53 46 54 60 55 79 56 44 57 45 58
REMARK SMILES IDX 59 60 80 61 47 62 31 63 32 64 40 65 33 66 35 67 41 68 34 69
REMARK SMILES IDX 36 70 37 71 38 72 39 73 63 74 64 75 72 76 65 77 67 78 73 79
REMARK SMILES IDX 66 80 68 81 69 82 70 83 71 84 48 85 49 86 57 87 50 88 52 89
REMARK SMILES IDX 58 90 51 91 53 92 54 93 55 94 56 95
REMARK H PARENT 15 6 7 20 1 23 1 24 19 29 78 48 46 59
REMARK Flexibility Score: inf
ROOT
ATOM      1  C   UNL A   1      31.648  31.821  26.873  1.00  0.00     0.042 C 
ENDROOT
BRANCH   1   2
ATOM      2  C   UNL A   1      31.908  30.340  26.617  1.00  0.00     0.118 C 
BRANCH   2   3
ATOM      3  N   UNL A   1      32.082  30.066  25.199  1.00  0.00    -0.352 N 
ATOM      4  C   UNL A   1      32.076  28.888  24.494  1.00  0.00     0.251 C 
ATOM      5  O   UNL A   1      32.125  28.939  23.267  1.00  0.00    -0.269 OA
ATOM      6  H   UNL A   1      32.231  30.867  24.648  1.00  0.00     0.163 HD
BRANCH   4   7
ATOM      7  C   UNL A   1      31.922  27.570  25.160  1.00  0.00     0.039 A 
ATOM      8  C   UNL A   1      31.801  24.964  26.223  1.00  0.00     0.006 A 
ATOM      9  C   UNL A   1      33.028  25.635  26.128  1.00  0.00     0.010 A 
ATOM     10  C   UNL A   1      30.630  25.662  25.899  1.00  0.00     0.010 A 
ATOM     11  C   UNL A   1      33.086  26.928  25.600  1.00  0.00     0.014 A 
ATOM     12  C   UNL A   1      30.689  26.956  25.377  1.00  0.00     0.014 A 
BRANCH   8  13
ATOM     13  C   UNL A   1      31.741  23.494  26.600  1.00  0.00     0.299 C 
BRANCH  13  14
ATOM     14  N   UNL A   1      32.589  22.598  25.779  1.00  0.00    -0.331 N 
ATOM     15  C   UNL A   1      33.529  20.026  24.683  1.00  0.00     0.089 C 
ATOM     16  C   UNL A   1      34.296  20.775  25.767  1.00  0.00     0.075 C 
ATOM     17  C   UNL A   1      32.691  20.993  23.852  1.00  0.00     0.075 C 
ATOM     18  C   UNL A   1      33.400  21.689  26.593  1.00  0.00     0.263 C 
ATOM     19  C   UNL A   1      31.854  21.967  24.683  1.00  0.00     0.263 C 
ATOM     20  H   UNL A   1      33.276  23.185  25.306  1.00  0.00     0.348 HD
BRANCH  15  21
ATOM     21  C   UNL A   1      32.761  18.817  25.215  1.00  0.00     0.220 C 
ATOM     22  N   UNL A   1      32.950  18.424  26.500  1.00  0.00    -0.369 N 
ATOM     23  H   UNL A   1      32.462  17.647  26.854  1.00  0.00     0.159 HD
ATOM     24  H   UNL A   1      33.577  18.918  27.078  1.00  0.00     0.159 HD
ATOM     25  O   UNL A   1      31.988  18.177  24.502  1.00  0.00    -0.275 OA
ENDBRANCH  15  21
ENDBRANCH  13  14
ENDBRANCH   8  13
ENDBRANCH   4   7
ENDBRANCH   2   3
ENDBRANCH   1   2
BRANCH   1  26
ATOM     26  C   UNL A   1      32.902  32.602  27.249  1.00  0.00     0.118 C 
BRANCH  26  27
ATOM     27  N   UNL A   1      32.602  33.974  27.636  1.00  0.00    -0.352 N 
ATOM     28  C   UNL A   1      33.128  34.724  28.662  1.00  0.00     0.251 C 
ATOM     29  H   UNL A   1      31.927  34.430  27.084  1.00  0.00     0.163 HD
ATOM     30  O   UNL A   1      32.608  35.793  28.963  1.00  0.00    -0.269 OA
BRANCH  28  31
ATOM     31  C   UNL A   1      34.310  34.234  29.403  1.00  0.00     0.039 A 
ATOM     32  C   UNL A   1      34.124  33.443  30.540  1.00  0.00     0.014 A 
ATOM     33  C   UNL A   1      35.600  34.567  28.982  1.00  0.00     0.014 A 
ATOM     34  C   UNL A   1      35.234  32.936  31.222  1.00  0.00     0.010 A 
ATOM     35  C   UNL A   1      36.700  33.998  29.614  1.00  0.00     0.010 A 
ATOM     36  C   UNL A   1      36.530  33.186  30.747  1.00  0.00    -0.014 A 
BRANCH  36  37
ATOM     37  C   UNL A   1      37.739  32.638  31.415  1.00  0.00     0.031 A 
ATOM     38  C   UNL A   1      38.478  31.491  30.780  1.00  0.00     0.074 A 
ATOM     39  C   UNL A   1      38.093  33.082  32.638  1.00  0.00     0.049 A 
ATOM     40  N   UNL A   1      39.438  30.753  31.272  1.00  0.00    -0.248 NA
ATOM     41  C   UNL A   1      38.058  31.098  29.423  1.00  0.00     0.031 C 
ATOM     42  C   UNL A   1      37.422  34.152  33.379  1.00  0.00     0.029 A 
ATOM     43  N   UNL A   1      39.079  32.655  33.494  1.00  0.00    -0.354 N 
ATOM     44  C   UNL A   1      39.698  29.780  30.314  1.00  0.00     0.074 A 
ATOM     45  C   UNL A   1      38.783  30.008  29.217  1.00  0.00     0.031 C 
ATOM     46  C   UNL A   1      38.002  34.285  34.584  1.00  0.00     0.029 A 
ATOM     47  C   UNL A   1      39.055  33.284  34.720  1.00  0.00     0.049 A 
ATOM     48  H   UNL A   1      39.739  31.966  33.255  1.00  0.00     0.167 HD
ATOM     49  C   UNL A   1      40.625  28.796  30.339  1.00  0.00     0.034 A 
ATOM     50  C   UNL A   1      39.777  33.056  35.835  1.00  0.00     0.034 A 
ATOM     51  C   UNL A   1      41.565  28.608  31.409  1.00  0.00     0.049 A 
ATOM     52  C   UNL A   1      40.824  31.974  35.820  1.00  0.00     0.074 A 
ATOM     53  C   UNL A   1      42.604  27.697  31.488  1.00  0.00     0.029 A 
ATOM     54  N   UNL A   1      41.577  29.336  32.588  1.00  0.00    -0.354 N 
ATOM     55  N   UNL A   1      41.145  31.152  34.852  1.00  0.00    -0.248 NA
ATOM     56  C   UNL A   1      41.634  31.808  37.037  1.00  0.00     0.031 C 
ATOM     57  C   UNL A   1      43.223  27.852  32.731  1.00  0.00     0.029 A 
ATOM     58  C   UNL A   1      42.601  28.891  33.403  1.00  0.00     0.049 A 
ATOM     59  H   UNL A   1      40.951  30.062  32.811  1.00  0.00     0.167 HD
ATOM     60  C   UNL A   1      42.225  30.413  35.321  1.00  0.00     0.074 A 
ATOM     61  C   UNL A   1      42.508  30.886  36.658  1.00  0.00     0.031 C 
ATOM     62  C   UNL A   1      42.918  29.428  34.699  1.00  0.00     0.034 A 
BRANCH  49  63
ATOM     63  C   UNL A   1      40.706  27.861  29.161  1.00  0.00     0.023 A 
ATOM     64  C   UNL A   1      39.801  26.786  29.057  1.00  0.00     0.012 A 
ATOM     65  C   UNL A   1      41.613  28.107  28.112  1.00  0.00     0.148 A 
ATOM     66  C   UNL A   1      39.816  25.953  27.939  1.00  0.00     0.002 A 
ATOM     67  C   UNL A   1      41.588  27.303  26.980  1.00  0.00     0.091 A 
ATOM     68  F   UNL A   1      42.476  29.124  28.241  1.00  0.00    -0.205 F 
ATOM     69  C   UNL A   1      40.699  26.220  26.897  1.00  0.00     0.022 A 
BRANCH  67  70
ATOM     70  S   UNL A   1      42.624  27.616  25.546  1.00  0.00     0.127 S 
ATOM     71  O   UNL A   1      42.034  28.847  25.020  1.00  0.00    -0.237 OA
ATOM     72  O   UNL A   1      43.945  27.784  26.154  1.00  0.00    -0.237 OA
ATOM     73  O   UNL A   1      42.490  26.449  24.687  1.00  0.00    -0.744 OA
ENDBRANCH  67  70
ENDBRANCH  49  63
BRANCH  50  74
ATOM     74  C   UNL A   1      39.562  33.887  37.056  1.00  0.00     0.023 A 
ATOM     75  C   UNL A   1      40.074  35.199  37.102  1.00  0.00     0.012 A 
ATOM     76  C   UNL A   1      38.863  33.386  38.171  1.00  0.00     0.148 A 
ATOM     77  C   UNL A   1      39.937  35.977  38.252  1.00  0.00     0.002 A 
ATOM     78  C   UNL A   1      38.680  34.187  39.291  1.00  0.00     0.091 A 
ATOM     79  F   UNL A   1      38.391  32.132  38.114  1.00  0.00    -0.205 F 
ATOM     80  C   UNL A   1      39.235  35.474  39.343  1.00  0.00     0.022 A 
BRANCH  78  81
ATOM     81  S   UNL A   1      37.675  33.670  40.688  1.00  0.00     0.127 S 
ATOM     82  O   UNL A   1      38.589  32.782  41.402  1.00  0.00    -0.237 OA
ATOM     83  O   UNL A   1      37.406  34.943  41.356  1.00  0.00    -0.237 OA
ATOM     84  O   UNL A   1      36.497  33.038  40.111  1.00  0.00    -0.744 OA
ENDBRANCH  78  81
ENDBRANCH  50  74
BRANCH  62  85
ATOM     85  C   UNL A   1      44.113  28.845  35.404  1.00  0.00     0.023 A 
ATOM     86  C   UNL A   1      45.387  29.420  35.242  1.00  0.00     0.012 A 
ATOM     87  C   UNL A   1      43.936  27.795  36.328  1.00  0.00     0.148 A 
ATOM     88  C   UNL A   1      46.473  28.946  35.978  1.00  0.00     0.002 A 
ATOM     89  C   UNL A   1      45.009  27.367  37.097  1.00  0.00     0.091 A 
ATOM     90  F   UNL A   1      42.716  27.254  36.452  1.00  0.00    -0.205 F 
ATOM     91  C   UNL A   1      46.280  27.932  36.916  1.00  0.00     0.022 A 
BRANCH  89  92
ATOM     92  S   UNL A   1      44.832  26.146  38.403  1.00  0.00     0.127 S 
ATOM     93  O   UNL A   1      44.393  24.970  37.652  1.00  0.00    -0.237 OA
ATOM     94  O   UNL A   1      46.192  26.060  38.931  1.00  0.00    -0.237 OA
ATOM     95  O   UNL A   1      43.851  26.688  39.334  1.00  0.00    -0.744 OA
ENDBRANCH  89  92
ENDBRANCH  62  85
ENDBRANCH  36  37
ENDBRANCH  28  31
ENDBRANCH  26  27
ENDBRANCH   1  26
TORSDOF 16
ENDMDL
MODEL 2
REMARK VINA RESULT:     -12.4      1.544      1.959
REMARK SMILES NC(=O)C1CC[NH+](Cc2ccc(C(=O)NCCCNC(=O)c3ccc(-c4c5nc(c(-c6cccc(S(=O)(=O)[O-])c6F)c6ccc([nH]6)c(-c6cccc(S(=O)(=O)[O-])c6F)c6nc(c(-c7cccc(S(=O)(=O)[O-])c7F)c7ccc4[nH]7)C=C6)C=C5)cc3)cc2)CC1
REMARK SMILES IDX 17 1 16 2 15 3 13 4 14 5 12 7 9 8 10 9 86 10 11 11 85 12
REMARK SMILES IDX 8 13 7 14 4 15 5 16 88 17 6 18 87 19 2 21 1 22 3 25 18 26
REMARK SMILES IDX 19 27 20 28 21 30 22 31 23 32 84 33 24 34 83 35 25 36 26 37
REMARK SMILES IDX 27 38 77 39 28 40 82 41 76 42 78 43 29 44 81 45 75 46 74 47
REMARK SMILES IDX 30 49 62 50 42 51 61 52 43 53 46 54 60 55 79 56 44 57 45 58
REMARK SMILES IDX 59 60 80 61 47 62 31 63 32 64 40 65 33 66 35 67 41 68 34 69
REMARK SMILES IDX 36 70 37 71 38 72 39 73 63 74 64 75 72 76 65 77 67 78 73 79
REMARK SMILES IDX 66 80 68 81 69 82 70 83 71 84 48 85 49 86 57 87 50 88 52 89
REMARK SMILES IDX 58 90 51 91 53 92 54 93 55 94 56 95
REMARK H PARENT 15 6 7 20 1 23 1 24 19 29 78 48 46 59
REMARK Flexibility Score: inf
ROOT
ATOM      1  C   UNL A   1      31.312  31.857  26.327  1.00  0.00     0.042 C 
ENDROOT
BRANCH   1   2
ATOM      2  C   UNL A   1      31.402  30.393  25.908  1.00  0.00     0.118 C 
BRANCH   2   3
ATOM      3  N   UNL A   1      30.983  30.205  24.528  1.00  0.00    -0.352 N 
ATOM      4  C   UNL A   1      30.831  29.070  23.772  1.00  0.00     0.251 C 
ATOM      5  O   UNL A   1      30.338  29.174  22.650  1.00  0.00    -0.269 OA
ATOM      6  H   UNL A   1      30.770  31.040  24.053  1.00  0.00     0.163 HD
BRANCH   4   7
ATOM      7  C   UNL A   1      31.156  27.720  24.299  1.00  0.00     0.039 A 
ATOM      8  C   UNL A   1      31.601  25.219  25.516  1.00  0.00     0.006 A 
ATOM      9  C   UNL A   1      30.311  25.595  25.120  1.00  0.00     0.010 A 
ATOM     10  C   UNL A   1      32.675  26.053  25.178  1.00  0.00     0.010 A 
ATOM     11  C   UNL A   1      30.091  26.837  24.517  1.00  0.00     0.014 A 
ATOM     12  C   UNL A   1      32.455  27.291  24.570  1.00  0.00     0.014 A 
BRANCH   8  13
ATOM     13  C   UNL A   1      31.830  23.971  26.351  1.00  0.00     0.299 C 
BRANCH  13  14
ATOM     14  N   UNL A   1      32.791  22.998  25.779  1.00  0.00    -0.331 N 
ATOM     15  C   UNL A   1      33.803  20.336  25.012  1.00  0.00     0.089 C 
ATOM     16  C   UNL A   1      34.341  21.090  26.222  1.00  0.00     0.075 C 
ATOM     17  C   UNL A   1      33.240  21.309  23.979  1.00  0.00     0.075 C 
ATOM     18  C   UNL A   1      33.333  22.084  26.787  1.00  0.00     0.263 C 
ATOM     19  C   UNL A   1      32.294  22.360  24.561  1.00  0.00     0.263 C 
ATOM     20  H   UNL A   1      33.603  23.528  25.464  1.00  0.00     0.348 HD
BRANCH  15  21
ATOM     21  C   UNL A   1      32.860  19.193  25.383  1.00  0.00     0.220 C 
ATOM     22  N   UNL A   1      32.891  18.691  26.644  1.00  0.00    -0.369 N 
ATOM     23  H   UNL A   1      32.290  17.954  26.896  1.00  0.00     0.159 HD
ATOM     24  H   UNL A   1      33.517  19.065  27.307  1.00  0.00     0.159 HD
ATOM     25  O   UNL A   1      32.085  18.701  24.564  1.00  0.00    -0.275 OA
ENDBRANCH  15  21
ENDBRANCH  13  14
ENDBRANCH   8  13
ENDBRANCH   4   7
ENDBRANCH   2   3
ENDBRANCH   1   2
BRANCH   1  26
ATOM     26  C   UNL A   1      32.610  32.404  26.909  1.00  0.00     0.118 C 
BRANCH  26  27
ATOM     27  N   UNL A   1      32.443  33.737  27.471  1.00  0.00    -0.352 N 
ATOM     28  C   UNL A   1      33.132  34.340  28.498  1.00  0.00     0.251 C 
ATOM     29  H   UNL A   1      31.738  34.285  27.058  1.00  0.00     0.163 HD
ATOM     30  O   UNL A   1      32.717  35.393  28.972  1.00  0.00    -0.269 OA
BRANCH  28  31
ATOM     31  C   UNL A   1      34.359  33.713  29.033  1.00  0.00     0.039 A 
ATOM     32  C   UNL A   1      35.606  34.213  28.648  1.00  0.00     0.014 A 
ATOM     33  C   UNL A   1      34.278  32.624  29.904  1.00  0.00     0.014 A 
ATOM     34  C   UNL A   1      36.772  33.658  29.183  1.00  0.00     0.010 A 
ATOM     35  C   UNL A   1      35.434  32.126  30.495  1.00  0.00     0.010 A 
ATOM     36  C   UNL A   1      36.693  32.629  30.133  1.00  0.00    -0.014 A 
BRANCH  36  37
ATOM     37  C   UNL A   1      37.902  32.032  30.758  1.00  0.00     0.031 A 
ATOM     38  C   UNL A   1      38.663  30.962  30.022  1.00  0.00     0.074 A 
ATOM     39  C   UNL A   1      38.238  32.358  32.023  1.00  0.00     0.049 A 
ATOM     40  N   UNL A   1      39.628  30.192  30.450  1.00  0.00    -0.248 NA
ATOM     41  C   UNL A   1      38.263  30.701  28.628  1.00  0.00     0.031 C 
ATOM     42  C   UNL A   1      37.545  33.341  32.858  1.00  0.00     0.029 A 
ATOM     43  N   UNL A   1      39.220  31.861  32.844  1.00  0.00    -0.354 N 
ATOM     44  C   UNL A   1      39.910  29.321  29.403  1.00  0.00     0.074 A 
ATOM     45  C   UNL A   1      39.004  29.646  28.324  1.00  0.00     0.031 C 
ATOM     46  C   UNL A   1      38.111  33.362  34.076  1.00  0.00     0.029 A 
ATOM     47  C   UNL A   1      39.175  32.365  34.125  1.00  0.00     0.049 A 
ATOM     48  H   UNL A   1      39.892  31.207  32.546  1.00  0.00     0.167 HD
ATOM     49  C   UNL A   1      40.851  28.351  29.342  1.00  0.00     0.034 A 
ATOM     50  C   UNL A   1      39.889  32.038  35.221  1.00  0.00     0.034 A 
ATOM     51  C   UNL A   1      41.781  28.070  30.399  1.00  0.00     0.049 A 
ATOM     52  C   UNL A   1      40.951  30.975  35.112  1.00  0.00     0.074 A 
ATOM     53  C   UNL A   1      42.832  27.169  30.400  1.00  0.00     0.029 A 
ATOM     54  N   UNL A   1      41.772  28.679  31.644  1.00  0.00    -0.354 N 
ATOM     55  N   UNL A   1      41.292  30.256  34.070  1.00  0.00    -0.248 NA
ATOM     56  C   UNL A   1      41.750  30.700  36.315  1.00  0.00     0.031 C 
ATOM     57  C   UNL A   1      43.436  27.208  31.659  1.00  0.00     0.029 A 
ATOM     58  C   UNL A   1      42.793  28.168  32.423  1.00  0.00     0.049 A 
ATOM     59  H   UNL A   1      41.134  29.371  31.930  1.00  0.00     0.167 HD
ATOM     60  C   UNL A   1      42.378  29.489  34.477  1.00  0.00     0.074 A 
ATOM     61  C   UNL A   1      42.641  29.830  35.857  1.00  0.00     0.031 C 
ATOM     62  C   UNL A   1      43.090  28.578  33.770  1.00  0.00     0.034 A 
BRANCH  49  63
ATOM     63  C   UNL A   1      40.956  27.538  28.079  1.00  0.00     0.023 A 
ATOM     64  C   UNL A   1      41.602  28.077  26.949  1.00  0.00     0.012 A 
ATOM     65  C   UNL A   1      40.501  26.205  28.046  1.00  0.00     0.148 A 
ATOM     66  C   UNL A   1      41.770  27.312  25.796  1.00  0.00     0.002 A 
ATOM     67  C   UNL A   1      40.716  25.434  26.911  1.00  0.00     0.091 A 
ATOM     68  F   UNL A   1      39.874  25.718  29.126  1.00  0.00    -0.205 F 
ATOM     69  C   UNL A   1      41.340  25.989  25.782  1.00  0.00     0.022 A 
BRANCH  67  70
ATOM     70  S   UNL A   1      40.279  23.693  26.824  1.00  0.00     0.127 S 
ATOM     71  O   UNL A   1      38.875  23.762  26.422  1.00  0.00    -0.237 OA
ATOM     72  O   UNL A   1      41.187  23.203  25.786  1.00  0.00    -0.237 OA
ATOM     73  O   UNL A   1      40.518  23.148  28.153  1.00  0.00    -0.744 OA
ENDBRANCH  67  70
ENDBRANCH  49  63
BRANCH  50  74
ATOM     74  C   UNL A   1      39.650  32.741  36.515  1.00  0.00     0.023 A 
ATOM     75  C   UNL A   1      40.415  33.879  36.838  1.00  0.00     0.012 A 
ATOM     76  C   UNL A   1      38.680  32.287  37.429  1.00  0.00     0.148 A 
ATOM     77  C   UNL A   1      40.253  34.522  38.066  1.00  0.00     0.002 A 
ATOM     78  C   UNL A   1      38.483  32.966  38.625  1.00  0.00     0.091 A 
ATOM     79  F   UNL A   1      37.968  31.197  37.111  1.00  0.00    -0.205 F 
ATOM     80  C   UNL A   1      39.283  34.071  38.956  1.00  0.00     0.022 A 
BRANCH  78  81
ATOM     81  S   UNL A   1      37.167  32.535  39.770  1.00  0.00     0.127 S 
ATOM     82  O   UNL A   1      37.557  31.189  40.181  1.00  0.00    -0.237 OA
ATOM     83  O   UNL A   1      37.313  33.562  40.802  1.00  0.00    -0.237 OA
ATOM     84  O   UNL A   1      35.933  32.633  39.002  1.00  0.00    -0.744 OA
ENDBRANCH  78  81
ENDBRANCH  50  74
BRANCH  62  85
ATOM     85  C   UNL A   1      44.286  27.943  34.427  1.00  0.00     0.023 A 
ATOM     86  C   UNL A   1      45.540  28.580  34.393  1.00  0.00     0.012 A 
ATOM     87  C   UNL A   1      44.123  26.767  35.187  1.00  0.00     0.148 A 
ATOM     88  C   UNL A   1      46.621  28.045  35.094  1.00  0.00     0.002 A 
ATOM     89  C   UNL A   1      45.188  26.272  35.925  1.00  0.00     0.091 A 
ATOM     90  F   UNL A   1      42.922  26.171  35.189  1.00  0.00    -0.205 F 
ATOM     91  C   UNL A   1      46.441  26.902  35.871  1.00  0.00     0.022 A 
BRANCH  89  92
ATOM     92  S   UNL A   1      45.020  24.872  37.038  1.00  0.00     0.127 S 
ATOM     93  O   UNL A   1      46.376  24.756  37.576  1.00  0.00    -0.237 OA
ATOM     94  O   UNL A   1      44.024  25.355  37.993  1.00  0.00    -0.237 OA
ATOM     95  O   UNL A   1      44.582  23.751  36.217  1.00  0.00    -0.744 OA
ENDBRANCH  89  92
ENDBRANCH  62  85
ENDBRANCH  36  37
ENDBRANCH  28  31
ENDBRANCH  26  27
ENDBRANCH   1  26
TORSDOF 16
ENDMDL
MODEL 3
REMARK VINA RESULT:     -12.3      6.509     11.931
REMARK SMILES NC(=O)C1CC[NH+](Cc2ccc(C(=O)NCCCNC(=O)c3ccc(-c4c5nc(c(-c6cccc(S(=O)(=O)[O-])c6F)c6ccc([nH]6)c(-c6cccc(S(=O)(=O)[O-])c6F)c6nc(c(-c7cccc(S(=O)(=O)[O-])c7F)c7ccc4[nH]7)C=C6)C=C5)cc3)cc2)CC1
REMARK SMILES IDX 17 1 16 2 15 3 13 4 14 5 12 7 9 8 10 9 86 10 11 11 85 12
REMARK SMILES IDX 8 13 7 14 4 15 5 16 88 17 6 18 87 19 2 21 1 22 3 25 18 26
REMARK SMILES IDX 19 27 20 28 21 30 22 31 23 32 84 33 24 34 83 35 25 36 26 37
REMARK SMILES IDX 27 38 77 39 28 40 82 41 76 42 78 43 29 44 81 45 75 46 74 47
REMARK SMILES IDX 30 49 62 50 42 51 61 52 43 53 46 54 60 55 79 56 44 57 45 58
REMARK SMILES IDX 59 60 80 61 47 62 31 63 32 64 40 65 33 66 35 67 41 68 34 69
REMARK SMILES IDX 36 70 37 71 38 72 39 73 63 74 64 75 72 76 65 77 67 78 73 79
REMARK SMILES IDX 66 80 68 81 69 82 70 83 71 84 48 85 49 86 57 87 50 88 52 89
REMARK SMILES IDX 58 90 51 91 53 92 54 93 55 94 56 95
REMARK H PARENT 15 6 7 20 1 23 1 24 19 29 78 48 46 59
REMARK Flexibility Score: inf
ROOT
ATOM      1  C   UNL A   1      37.764  19.719  25.002  1.00  0.00     0.042 C 
ENDROOT
BRANCH   1   2
ATOM      2  C   UNL A   1      36.582  20.683  25.014  1.00  0.00     0.118 C 
BRANCH   2   3
ATOM      3  N   UNL A   1      35.316  19.976  25.125  1.00  0.00    -0.352 N 
ATOM      4  C   UNL A   1      34.024  20.390  24.923  1.00  0.00     0.251 C 
ATOM      5  O   UNL A   1      33.125  19.551  24.965  1.00  0.00    -0.269 OA
ATOM      6  H   UNL A   1      35.403  19.033  25.393  1.00  0.00     0.163 HD
BRANCH   4   7
ATOM      7  C   UNL A   1      33.690  21.794  24.568  1.00  0.00     0.039 A 
ATOM      8  C   UNL A   1      33.276  24.445  23.714  1.00  0.00     0.006 A 
ATOM      9  C   UNL A   1      33.204  23.386  22.800  1.00  0.00     0.010 A 
ATOM     10  C   UNL A   1      33.430  24.145  25.075  1.00  0.00     0.010 A 
ATOM     11  C   UNL A   1      33.411  22.071  23.225  1.00  0.00     0.014 A 
ATOM     12  C   UNL A   1      33.630  22.830  25.499  1.00  0.00     0.014 A 
BRANCH   8  13
ATOM     13  C   UNL A   1      33.259  25.889  23.243  1.00  0.00     0.299 C 
BRANCH  13  14
ATOM     14  N   UNL A   1      32.111  26.695  23.724  1.00  0.00    -0.331 N 
ATOM     15  C   UNL A   1      29.961  28.705  23.548  1.00  0.00     0.089 C 
ATOM     16  C   UNL A   1      31.257  28.968  24.306  1.00  0.00     0.075 C 
ATOM     17  C   UNL A   1      29.667  27.209  23.490  1.00  0.00     0.075 C 
ATOM     18  C   UNL A   1      32.417  28.126  23.790  1.00  0.00     0.263 C 
ATOM     19  C   UNL A   1      30.858  26.355  23.053  1.00  0.00     0.263 C 
ATOM     20  H   UNL A   1      31.947  26.433  24.697  1.00  0.00     0.348 HD
BRANCH  15  21
ATOM     21  C   UNL A   1      29.898  29.416  22.197  1.00  0.00     0.220 C 
ATOM     22  N   UNL A   1      31.047  29.859  21.626  1.00  0.00    -0.369 N 
ATOM     23  H   UNL A   1      31.019  30.319  20.757  1.00  0.00     0.159 HD
ATOM     24  H   UNL A   1      31.908  29.720  22.083  1.00  0.00     0.159 HD
ATOM     25  O   UNL A   1      28.829  29.615  21.620  1.00  0.00    -0.275 OA
ENDBRANCH  15  21
ENDBRANCH  13  14
ENDBRANCH   8  13
ENDBRANCH   4   7
ENDBRANCH   2   3
ENDBRANCH   1   2
BRANCH   1  26
ATOM     26  C   UNL A   1      38.984  20.243  25.750  1.00  0.00     0.118 C 
BRANCH  26  27
ATOM     27  N   UNL A   1      40.023  19.231  25.886  1.00  0.00    -0.352 N 
ATOM     28  C   UNL A   1      41.376  19.394  26.077  1.00  0.00     0.251 C 
ATOM     29  H   UNL A   1      39.714  18.299  25.834  1.00  0.00     0.163 HD
ATOM     30  O   UNL A   1      42.126  18.431  25.964  1.00  0.00    -0.269 OA
BRANCH  28  31
ATOM     31  C   UNL A   1      41.919  20.729  26.406  1.00  0.00     0.039 A 
ATOM     32  C   UNL A   1      42.094  21.667  25.384  1.00  0.00     0.014 A 
ATOM     33  C   UNL A   1      42.268  21.049  27.720  1.00  0.00     0.014 A 
ATOM     34  C   UNL A   1      42.564  22.948  25.690  1.00  0.00     0.010 A 
ATOM     35  C   UNL A   1      42.659  22.346  28.034  1.00  0.00     0.010 A 
ATOM     36  C   UNL A   1      42.822  23.306  27.022  1.00  0.00    -0.014 A 
BRANCH  36  37
ATOM     37  C   UNL A   1      43.286  24.665  27.401  1.00  0.00     0.031 A 
ATOM     38  C   UNL A   1      42.310  25.636  28.008  1.00  0.00     0.074 A 
ATOM     39  C   UNL A   1      44.536  25.063  27.087  1.00  0.00     0.049 A 
ATOM     40  N   UNL A   1      42.454  26.913  28.246  1.00  0.00    -0.248 NA
ATOM     41  C   UNL A   1      40.981  25.109  28.365  1.00  0.00     0.031 C 
ATOM     42  C   UNL A   1      45.556  24.230  26.449  1.00  0.00     0.029 A 
ATOM     43  N   UNL A   1      45.146  26.287  27.222  1.00  0.00    -0.354 N 
ATOM     44  C   UNL A   1      41.225  27.352  28.725  1.00  0.00     0.074 A 
ATOM     45  C   UNL A   1      40.339  26.209  28.729  1.00  0.00     0.031 C 
ATOM     46  C   UNL A   1      46.656  24.970  26.230  1.00  0.00     0.029 A 
ATOM     47  C   UNL A   1      46.407  26.338  26.670  1.00  0.00     0.049 A 
ATOM     48  H   UNL A   1      44.722  27.054  27.669  1.00  0.00     0.167 HD
ATOM     49  C   UNL A   1      40.872  28.590  29.140  1.00  0.00     0.034 A 
ATOM     50  C   UNL A   1      47.251  27.377  26.509  1.00  0.00     0.034 A 
ATOM     51  C   UNL A   1      41.775  29.707  29.182  1.00  0.00     0.049 A 
ATOM     52  C   UNL A   1      46.842  28.736  27.010  1.00  0.00     0.074 A 
ATOM     53  C   UNL A   1      41.540  30.980  29.671  1.00  0.00     0.029 A 
ATOM     54  N   UNL A   1      43.078  29.689  28.714  1.00  0.00    -0.354 N 
ATOM     55  N   UNL A   1      45.720  29.099  27.584  1.00  0.00    -0.248 NA
ATOM     56  C   UNL A   1      47.822  29.824  26.875  1.00  0.00     0.031 C 
ATOM     57  C   UNL A   1      42.692  31.743  29.466  1.00  0.00     0.029 A 
ATOM     58  C   UNL A   1      43.658  30.931  28.895  1.00  0.00     0.049 A 
ATOM     59  H   UNL A   1      43.524  28.910  28.312  1.00  0.00     0.167 HD
ATOM     60  C   UNL A   1      45.884  30.437  27.927  1.00  0.00     0.074 A 
ATOM     61  C   UNL A   1      47.211  30.821  27.500  1.00  0.00     0.031 C 
ATOM     62  C   UNL A   1      45.009  31.273  28.537  1.00  0.00     0.034 A 
BRANCH  49  63
ATOM     63  C   UNL A   1      39.462  28.807  29.619  1.00  0.00     0.023 A 
ATOM     64  C   UNL A   1      39.113  28.476  30.944  1.00  0.00     0.012 A 
ATOM     65  C   UNL A   1      38.511  29.430  28.788  1.00  0.00     0.148 A 
ATOM     66  C   UNL A   1      37.830  28.736  31.425  1.00  0.00     0.002 A 
ATOM     67  C   UNL A   1      37.251  29.731  29.290  1.00  0.00     0.091 A 
ATOM     68  F   UNL A   1      38.859  29.721  27.527  1.00  0.00    -0.205 F 
ATOM     69  C   UNL A   1      36.906  29.375  30.603  1.00  0.00     0.022 A 
BRANCH  67  70
ATOM     70  S   UNL A   1      36.019  30.632  28.342  1.00  0.00     0.127 S 
ATOM     71  O   UNL A   1      36.771  31.817  27.932  1.00  0.00    -0.237 OA
ATOM     72  O   UNL A   1      35.722  29.693  27.259  1.00  0.00    -0.237 OA
ATOM     73  O   UNL A   1      34.912  30.884  29.253  1.00  0.00    -0.744 OA
ENDBRANCH  67  70
ENDBRANCH  49  63
BRANCH  50  74
ATOM     74  C   UNL A   1      48.585  27.173  25.871  1.00  0.00     0.023 A 
ATOM     75  C   UNL A   1      49.666  26.721  26.654  1.00  0.00     0.012 A 
ATOM     76  C   UNL A   1      48.791  27.432  24.503  1.00  0.00     0.148 A 
ATOM     77  C   UNL A   1      50.937  26.577  26.097  1.00  0.00     0.002 A 
ATOM     78  C   UNL A   1      50.046  27.230  23.941  1.00  0.00     0.091 A 
ATOM     79  F   UNL A   1      47.754  27.871  23.776  1.00  0.00    -0.205 F 
ATOM     80  C   UNL A   1      51.126  26.825  24.740  1.00  0.00     0.022 A 
BRANCH  78  81
ATOM     81  S   UNL A   1      50.347  27.397  22.178  1.00  0.00     0.127 S 
ATOM     82  O   UNL A   1      49.300  26.550  21.613  1.00  0.00    -0.237 OA
ATOM     83  O   UNL A   1      50.157  28.833  21.971  1.00  0.00    -0.237 OA
ATOM     84  O   UNL A   1      51.715  26.941  21.970  1.00  0.00    -0.744 OA
ENDBRANCH  78  81
ENDBRANCH  50  74
BRANCH  62  85
ATOM     85  C   UNL A   1      45.471  32.664  28.875  1.00  0.00     0.023 A 
ATOM     86  C   UNL A   1      46.179  32.911  30.066  1.00  0.00     0.012 A 
ATOM     87  C   UNL A   1      45.305  33.703  27.936  1.00  0.00     0.148 A 
ATOM     88  C   UNL A   1      46.701  34.178  30.326  1.00  0.00     0.002 A 
ATOM     89  C   UNL A   1      45.874  34.945  28.177  1.00  0.00     0.091 A 
ATOM     90  F   UNL A   1      44.613  33.447  26.817  1.00  0.00    -0.205 F 
ATOM     91  C   UNL A   1      46.562  35.189  29.376  1.00  0.00     0.022 A 
BRANCH  89  92
ATOM     92  S   UNL A   1      45.842  36.271  26.965  1.00  0.00     0.127 S 
ATOM     93  O   UNL A   1      46.759  37.242  27.562  1.00  0.00    -0.237 OA
ATOM     94  O   UNL A   1      46.352  35.606  25.767  1.00  0.00    -0.237 OA
ATOM     95  O   UNL A   1      44.454  36.705  26.876  1.00  0.00    -0.744 OA
ENDBRANCH  89  92
ENDBRANCH  62  85
ENDBRANCH  36  37
ENDBRANCH  28  31
ENDBRANCH  26  27
ENDBRANCH   1  26
TORSDOF 16
ENDMDL
