MODEL 1
REMARK VINA RESULT:     -12.5      0.000      0.000
REMARK SMILES O=C(CCn1c(N2CC[NH2+]CC2)nc2ccccc2c1=O)NCCCNC(=O)c1ccc(-c2c3nc(c(-c4cccc(S(=O)(=O)[O-])c4F)c4ccc([nH]4)c(-c4cccc(S(=O)(=O)[O-])c4F)c4nc(c(-c5cccc(S(=O)(=O)[O-])c5F)c5ccc2[nH]5)C=C4)C=C3)cc1
REMARK SMILES IDX 24 1 23 2 22 3 1 4 2 5 3 7 4 8 5 9 6 10 20 11 13 12 19 13
REMARK SMILES IDX 21 14 14 15 18 16 15 17 17 18 16 19 7 20 8 21 12 22 9 23
REMARK SMILES IDX 11 24 10 25 25 28 26 29 27 30 28 32 29 33 30 34 91 35 31 36
REMARK SMILES IDX 90 37 32 38 33 39 34 40 84 41 35 42 89 43 83 44 85 45 36 46
REMARK SMILES IDX 88 47 82 48 81 49 37 51 69 52 49 53 68 54 50 55 53 56 67 57
REMARK SMILES IDX 86 58 51 59 52 60 66 62 87 63 54 64 38 65 39 66 47 67 40 68
REMARK SMILES IDX 42 69 48 70 41 71 43 72 44 73 45 74 46 75 70 76 71 77 79 78
REMARK SMILES IDX 72 79 74 80 80 81 73 82 75 83 76 84 77 85 78 86 55 87 56 88
REMARK SMILES IDX 64 89 57 90 59 91 65 92 58 93 60 94 61 95 62 96 63 97
REMARK H PARENT 22 6 10 26 10 27 26 31 85 50 53 61
REMARK Flexibility Score: inf
ROOT
ATOM      1  C   UNL A   1      31.827  31.560  27.228  1.00  0.00     0.042 C 
ENDROOT
BRANCH   1   2
ATOM      2  C   UNL A   1      31.795  30.743  25.941  1.00  0.00     0.117 C 
BRANCH   2   3
ATOM      3  N   UNL A   1      31.996  29.330  26.191  1.00  0.00    -0.356 N 
ATOM      4  O   UNL A   1      34.291  29.368  26.356  1.00  0.00    -0.275 OA
ATOM      5  C   UNL A   1      33.230  28.752  26.369  1.00  0.00     0.221 C 
ATOM      6  H   UNL A   1      31.202  28.749  26.234  1.00  0.00     0.163 HD
BRANCH   5   7
ATOM      7  C   UNL A   1      33.166  27.260  26.605  1.00  0.00     0.122 C 
BRANCH   7   8
ATOM      8  C   UNL A   1      31.822  26.656  26.184  1.00  0.00     0.139 C 
BRANCH   8   9
ATOM      9  N   UNL A   1      31.916  25.465  25.329  1.00  0.00    -0.278 N 
ATOM     10  C   UNL A   1      32.089  25.547  23.948  1.00  0.00     0.209 A 
ATOM     11  C   UNL A   1      31.667  24.239  25.942  1.00  0.00     0.262 A 
ATOM     12  N   UNL A   1      32.247  24.487  23.208  1.00  0.00    -0.214 NA
ATOM     13  C   UNL A   1      31.887  23.037  25.133  1.00  0.00     0.066 A 
ATOM     14  O   UNL A   1      31.326  24.117  27.117  1.00  0.00    -0.269 OA
ATOM     15  C   UNL A   1      32.232  23.222  23.801  1.00  0.00     0.080 A 
ATOM     16  C   UNL A   1      31.803  21.758  25.697  1.00  0.00     0.016 A 
ATOM     17  C   UNL A   1      32.533  22.098  23.029  1.00  0.00     0.029 A 
ATOM     18  C   UNL A   1      32.093  20.644  24.915  1.00  0.00     0.001 A 
ATOM     19  C   UNL A   1      32.471  20.815  23.584  1.00  0.00     0.002 A 
BRANCH  10  20
ATOM     20  N   UNL A   1      31.996  26.770  23.327  1.00  0.00    -0.331 N 
ATOM     21  C   UNL A   1      30.721  27.142  22.696  1.00  0.00     0.181 C 
ATOM     22  C   UNL A   1      33.152  27.432  22.708  1.00  0.00     0.181 C 
ATOM     23  C   UNL A   1      30.547  28.672  22.755  1.00  0.00     0.282 C 
ATOM     24  C   UNL A   1      32.943  28.967  22.737  1.00  0.00     0.282 C 
ATOM     25  N   UNL A   1      31.665  29.416  22.134  1.00  0.00    -0.343 N 
ATOM     26  H   UNL A   1      31.543  30.416  22.299  1.00  0.00     0.346 HD
ATOM     27  H   UNL A   1      31.678  29.239  21.130  1.00  0.00     0.346 HD
ENDBRANCH  10  20
ENDBRANCH   8   9
ENDBRANCH   7   8
ENDBRANCH   5   7
ENDBRANCH   2   3
ENDBRANCH   1   2
BRANCH   1  28
ATOM     28  C   UNL A   1      32.999  32.531  27.351  1.00  0.00     0.118 C 
BRANCH  28  29
ATOM     29  N   UNL A   1      32.605  33.902  27.637  1.00  0.00    -0.352 N 
ATOM     30  C   UNL A   1      33.107  34.764  28.587  1.00  0.00     0.251 C 
ATOM     31  H   UNL A   1      31.882  34.263  27.075  1.00  0.00     0.163 HD
ATOM     32  O   UNL A   1      32.588  35.863  28.760  1.00  0.00    -0.269 OA
BRANCH  30  33
ATOM     33  C   UNL A   1      34.249  34.340  29.431  1.00  0.00     0.039 A 
ATOM     34  C   UNL A   1      35.558  34.410  28.948  1.00  0.00     0.014 A 
ATOM     35  C   UNL A   1      33.998  33.828  30.707  1.00  0.00     0.014 A 
ATOM     36  C   UNL A   1      36.593  33.825  29.670  1.00  0.00     0.010 A 
ATOM     37  C   UNL A   1      35.050  33.292  31.457  1.00  0.00     0.010 A 
ATOM     38  C   UNL A   1      36.346  33.236  30.920  1.00  0.00    -0.014 A 
BRANCH  38  39
ATOM     39  C   UNL A   1      37.444  32.530  31.626  1.00  0.00     0.031 A 
ATOM     40  C   UNL A   1      38.175  31.394  30.959  1.00  0.00     0.074 A 
ATOM     41  C   UNL A   1      37.825  32.947  32.849  1.00  0.00     0.049 A 
ATOM     42  N   UNL A   1      39.184  30.692  31.406  1.00  0.00    -0.248 NA
ATOM     43  C   UNL A   1      37.721  30.996  29.616  1.00  0.00     0.031 C 
ATOM     44  C   UNL A   1      37.194  34.032  33.601  1.00  0.00     0.029 A 
ATOM     45  N   UNL A   1      38.839  32.517  33.668  1.00  0.00    -0.354 N 
ATOM     46  C   UNL A   1      39.463  29.752  30.421  1.00  0.00     0.074 A 
ATOM     47  C   UNL A   1      38.515  29.968  29.350  1.00  0.00     0.031 C 
ATOM     48  C   UNL A   1      37.854  34.204  34.756  1.00  0.00     0.029 A 
ATOM     49  C   UNL A   1      38.930  33.221  34.845  1.00  0.00     0.049 A 
ATOM     50  H   UNL A   1      39.443  31.775  33.435  1.00  0.00     0.167 HD
ATOM     51  C   UNL A   1      40.434  28.810  30.400  1.00  0.00     0.034 A 
ATOM     52  C   UNL A   1      39.782  33.091  35.881  1.00  0.00     0.034 A 
ATOM     53  C   UNL A   1      41.411  28.626  31.438  1.00  0.00     0.049 A 
ATOM     54  C   UNL A   1      40.856  32.043  35.827  1.00  0.00     0.074 A 
ATOM     55  C   UNL A   1      42.453  27.715  31.482  1.00  0.00     0.029 A 
ATOM     56  N   UNL A   1      41.474  29.367  32.607  1.00  0.00    -0.354 N 
ATOM     57  N   UNL A   1      41.145  31.214  34.854  1.00  0.00    -0.248 NA
ATOM     58  C   UNL A   1      41.732  31.923  37.003  1.00  0.00     0.031 C 
ATOM     59  C   UNL A   1      43.148  27.908  32.679  1.00  0.00     0.029 A 
ATOM     60  C   UNL A   1      42.539  28.938  33.378  1.00  0.00     0.049 A 
ATOM     61  H   UNL A   1      40.853  30.090  32.852  1.00  0.00     0.167 HD
ATOM     62  C   UNL A   1      42.241  30.481  35.293  1.00  0.00     0.074 A 
ATOM     63  C   UNL A   1      42.579  30.978  36.611  1.00  0.00     0.031 C 
ATOM     64  C   UNL A   1      42.894  29.475  34.665  1.00  0.00     0.034 A 
BRANCH  51  65
ATOM     65  C   UNL A   1      40.537  27.929  29.186  1.00  0.00     0.023 A 
ATOM     66  C   UNL A   1      39.636  26.856  29.041  1.00  0.00     0.012 A 
ATOM     67  C   UNL A   1      41.448  28.220  28.153  1.00  0.00     0.148 A 
ATOM     68  C   UNL A   1      39.642  26.080  27.884  1.00  0.00     0.002 A 
ATOM     69  C   UNL A   1      41.432  27.456  26.991  1.00  0.00     0.091 A 
ATOM     70  F   UNL A   1      42.305  29.236  28.324  1.00  0.00    -0.205 F 
ATOM     71  C   UNL A   1      40.532  26.385  26.857  1.00  0.00     0.022 A 
BRANCH  69  72
ATOM     72  S   UNL A   1      42.501  27.795  25.588  1.00  0.00     0.127 S 
ATOM     73  O   UNL A   1      42.287  26.606  24.762  1.00  0.00    -0.237 OA
ATOM     74  O   UNL A   1      41.919  29.025  25.049  1.00  0.00    -0.237 OA
ATOM     75  O   UNL A   1      43.844  27.940  26.130  1.00  0.00    -0.744 OA
ENDBRANCH  69  72
ENDBRANCH  51  65
BRANCH  52  76
ATOM     76  C   UNL A   1      39.677  34.033  37.026  1.00  0.00     0.023 A 
ATOM     77  C   UNL A   1      40.052  35.378  36.848  1.00  0.00     0.012 A 
ATOM     78  C   UNL A   1      39.131  33.624  38.258  1.00  0.00     0.148 A 
ATOM     79  C   UNL A   1      39.887  36.301  37.880  1.00  0.00     0.002 A 
ATOM     80  C   UNL A   1      38.926  34.558  39.266  1.00  0.00     0.091 A 
ATOM     81  F   UNL A   1      38.791  32.336  38.403  1.00  0.00    -0.205 F 
ATOM     82  C   UNL A   1      39.313  35.896  39.083  1.00  0.00     0.022 A 
BRANCH  80  83
ATOM     83  S   UNL A   1      38.086  34.156  40.801  1.00  0.00     0.127 S 
ATOM     84  O   UNL A   1      37.838  35.483  41.361  1.00  0.00    -0.237 OA
ATOM     85  O   UNL A   1      36.895  33.458  40.317  1.00  0.00    -0.237 OA
ATOM     86  O   UNL A   1      39.012  33.321  41.553  1.00  0.00    -0.744 OA
ENDBRANCH  80  83
ENDBRANCH  52  76
BRANCH  64  87
ATOM     87  C   UNL A   1      44.048  28.828  35.377  1.00  0.00     0.023 A 
ATOM     88  C   UNL A   1      45.341  29.359  35.207  1.00  0.00     0.012 A 
ATOM     89  C   UNL A   1      43.837  27.790  36.303  1.00  0.00     0.148 A 
ATOM     90  C   UNL A   1      46.411  28.861  35.949  1.00  0.00     0.002 A 
ATOM     91  C   UNL A   1      44.902  27.319  37.061  1.00  0.00     0.091 A 
ATOM     92  F   UNL A   1      42.597  27.296  36.437  1.00  0.00    -0.205 F 
ATOM     93  C   UNL A   1      46.190  27.851  36.883  1.00  0.00     0.022 A 
BRANCH  91  94
ATOM     94  S   UNL A   1      44.705  26.072  38.340  1.00  0.00     0.127 S 
ATOM     95  O   UNL A   1      44.191  24.939  37.573  1.00  0.00    -0.237 OA
ATOM     96  O   UNL A   1      46.074  25.909  38.827  1.00  0.00    -0.237 OA
ATOM     97  O   UNL A   1      43.778  26.635  39.313  1.00  0.00    -0.744 OA
ENDBRANCH  91  94
ENDBRANCH  64  87
ENDBRANCH  38  39
ENDBRANCH  30  33
ENDBRANCH  28  29
ENDBRANCH   1  28
TORSDOF 16
ENDMDL
MODEL 2
REMARK VINA RESULT:     -12.5      1.636      7.678
REMARK SMILES O=C(CCn1c(N2CC[NH2+]CC2)nc2ccccc2c1=O)NCCCNC(=O)c1ccc(-c2c3nc(c(-c4cccc(S(=O)(=O)[O-])c4F)c4ccc([nH]4)c(-c4cccc(S(=O)(=O)[O-])c4F)c4nc(c(-c5cccc(S(=O)(=O)[O-])c5F)c5ccc2[nH]5)C=C4)C=C3)cc1
REMARK SMILES IDX 24 1 23 2 22 3 1 4 2 5 3 7 4 8 5 9 6 10 20 11 13 12 19 13
REMARK SMILES IDX 21 14 14 15 18 16 15 17 17 18 16 19 7 20 8 21 12 22 9 23
REMARK SMILES IDX 11 24 10 25 25 28 26 29 27 30 28 32 29 33 30 34 91 35 31 36
REMARK SMILES IDX 90 37 32 38 33 39 34 40 84 41 35 42 89 43 83 44 85 45 36 46
REMARK SMILES IDX 88 47 82 48 81 49 37 51 69 52 49 53 68 54 50 55 53 56 67 57
REMARK SMILES IDX 86 58 51 59 52 60 66 62 87 63 54 64 38 65 39 66 47 67 40 68
REMARK SMILES IDX 42 69 48 70 41 71 43 72 44 73 45 74 46 75 70 76 71 77 79 78
REMARK SMILES IDX 72 79 74 80 80 81 73 82 75 83 76 84 77 85 78 86 55 87 56 88
REMARK SMILES IDX 64 89 57 90 59 91 65 92 58 93 60 94 61 95 62 96 63 97
REMARK H PARENT 22 6 10 26 10 27 26 31 85 50 53 61
REMARK Flexibility Score: inf
ROOT
ATOM      1  C   UNL A   1      31.340  31.838  26.695  1.00  0.00     0.042 C 
ENDROOT
BRANCH   1   2
ATOM      2  C   UNL A   1      31.292  30.832  25.551  1.00  0.00     0.117 C 
BRANCH   2   3
ATOM      3  N   UNL A   1      31.419  29.467  26.023  1.00  0.00    -0.356 N 
ATOM      4  O   UNL A   1      33.717  29.366  26.064  1.00  0.00    -0.275 OA
ATOM      5  C   UNL A   1      32.622  28.838  26.233  1.00  0.00     0.221 C 
ATOM      6  H   UNL A   1      30.593  28.960  26.202  1.00  0.00     0.163 HD
BRANCH   5   7
ATOM      7  C   UNL A   1      32.479  27.413  26.718  1.00  0.00     0.122 C 
BRANCH   7   8
ATOM      8  C   UNL A   1      31.263  26.706  26.109  1.00  0.00     0.139 C 
BRANCH   8   9
ATOM      9  N   UNL A   1      31.575  25.516  25.306  1.00  0.00    -0.278 N 
ATOM     10  C   UNL A   1      31.946  25.595  23.964  1.00  0.00     0.209 A 
ATOM     11  C   UNL A   1      31.332  24.282  25.903  1.00  0.00     0.262 A 
ATOM     12  N   UNL A   1      32.293  24.543  23.280  1.00  0.00    -0.214 NA
ATOM     13  C   UNL A   1      31.761  23.091  25.163  1.00  0.00     0.066 A 
ATOM     14  O   UNL A   1      30.829  24.146  27.017  1.00  0.00    -0.269 OA
ATOM     15  C   UNL A   1      32.286  23.287  23.893  1.00  0.00     0.080 A 
ATOM     16  C   UNL A   1      31.691  21.816  25.739  1.00  0.00     0.016 A 
ATOM     17  C   UNL A   1      32.784  22.181  23.201  1.00  0.00     0.029 A 
ATOM     18  C   UNL A   1      32.179  20.720  25.033  1.00  0.00     0.001 A 
ATOM     19  C   UNL A   1      32.738  20.905  23.770  1.00  0.00     0.002 A 
BRANCH  10  20
ATOM     20  N   UNL A   1      31.854  26.800  23.307  1.00  0.00    -0.331 N 
ATOM     21  C   UNL A   1      30.588  27.143  22.643  1.00  0.00     0.181 C 
ATOM     22  C   UNL A   1      33.015  27.455  22.692  1.00  0.00     0.181 C 
ATOM     23  C   UNL A   1      30.399  28.672  22.657  1.00  0.00     0.282 C 
ATOM     24  C   UNL A   1      32.793  28.989  22.675  1.00  0.00     0.282 C 
ATOM     25  N   UNL A   1      31.522  29.409  22.036  1.00  0.00    -0.343 N 
ATOM     26  H   UNL A   1      31.389  30.412  22.171  1.00  0.00     0.346 HD
ATOM     27  H   UNL A   1      31.556  29.205  21.038  1.00  0.00     0.346 HD
ENDBRANCH  10  20
ENDBRANCH   8   9
ENDBRANCH   7   8
ENDBRANCH   5   7
ENDBRANCH   2   3
ENDBRANCH   1   2
BRANCH   1  28
ATOM     28  C   UNL A   1      32.624  32.659  26.784  1.00  0.00     0.118 C 
BRANCH  28  29
ATOM     29  N   UNL A   1      32.508  33.851  27.611  1.00  0.00    -0.352 N 
ATOM     30  C   UNL A   1      33.314  34.261  28.650  1.00  0.00     0.251 C 
ATOM     31  H   UNL A   1      31.752  34.445  27.399  1.00  0.00     0.163 HD
ATOM     32  O   UNL A   1      33.014  35.251  29.310  1.00  0.00    -0.269 OA
BRANCH  30  33
ATOM     33  C   UNL A   1      34.521  33.476  28.995  1.00  0.00     0.039 A 
ATOM     34  C   UNL A   1      34.409  32.236  29.630  1.00  0.00     0.014 A 
ATOM     35  C   UNL A   1      35.783  34.009  28.716  1.00  0.00     0.014 A 
ATOM     36  C   UNL A   1      35.548  31.608  30.126  1.00  0.00     0.010 A 
ATOM     37  C   UNL A   1      36.930  33.346  29.164  1.00  0.00     0.010 A 
ATOM     38  C   UNL A   1      36.818  32.170  29.922  1.00  0.00    -0.014 A 
BRANCH  38  39
ATOM     39  C   UNL A   1      38.007  31.536  30.545  1.00  0.00     0.031 A 
ATOM     40  C   UNL A   1      38.380  31.848  31.969  1.00  0.00     0.074 A 
ATOM     41  C   UNL A   1      38.722  30.632  29.846  1.00  0.00     0.049 A 
ATOM     42  N   UNL A   1      39.358  31.359  32.689  1.00  0.00    -0.248 NA
ATOM     43  C   UNL A   1      37.550  32.833  32.684  1.00  0.00     0.031 C 
ATOM     44  C   UNL A   1      38.463  30.248  28.458  1.00  0.00     0.029 A 
ATOM     45  N   UNL A   1      39.801  29.867  30.210  1.00  0.00    -0.354 N 
ATOM     46  C   UNL A   1      39.282  31.996  33.921  1.00  0.00     0.074 A 
ATOM     47  C   UNL A   1      38.165  32.912  33.856  1.00  0.00     0.031 C 
ATOM     48  C   UNL A   1      39.338  29.296  28.098  1.00  0.00     0.029 A 
ATOM     49  C   UNL A   1      40.241  29.030  29.213  1.00  0.00     0.049 A 
ATOM     50  H   UNL A   1      40.220  29.915  31.100  1.00  0.00     0.167 HD
ATOM     51  C   UNL A   1      40.058  31.818  35.016  1.00  0.00     0.034 A 
ATOM     52  C   UNL A   1      41.258  28.146  29.196  1.00  0.00     0.034 A 
ATOM     53  C   UNL A   1      41.135  30.871  35.103  1.00  0.00     0.049 A 
ATOM     54  C   UNL A   1      42.098  27.961  30.427  1.00  0.00     0.074 A 
ATOM     55  C   UNL A   1      41.953  30.601  36.187  1.00  0.00     0.029 A 
ATOM     56  N   UNL A   1      41.540  30.036  34.075  1.00  0.00    -0.354 N 
ATOM     57  N   UNL A   1      41.963  28.523  31.604  1.00  0.00    -0.248 NA
ATOM     58  C   UNL A   1      43.217  27.011  30.338  1.00  0.00     0.031 C 
ATOM     59  C   UNL A   1      42.852  29.599  35.814  1.00  0.00     0.029 A 
ATOM     60  C   UNL A   1      42.594  29.246  34.499  1.00  0.00     0.049 A 
ATOM     61  H   UNL A   1      41.139  30.008  33.177  1.00  0.00     0.167 HD
ATOM     62  C   UNL A   1      42.970  27.988  32.398  1.00  0.00     0.074 A 
ATOM     63  C   UNL A   1      43.695  27.042  31.576  1.00  0.00     0.031 C 
ATOM     64  C   UNL A   1      43.274  28.273  33.686  1.00  0.00     0.034 A 
BRANCH  51  65
ATOM     65  C   UNL A   1      39.740  32.623  36.245  1.00  0.00     0.023 A 
ATOM     66  C   UNL A   1      40.365  33.872  36.424  1.00  0.00     0.012 A 
ATOM     67  C   UNL A   1      38.760  32.195  37.161  1.00  0.00     0.148 A 
ATOM     68  C   UNL A   1      40.023  34.685  37.503  1.00  0.00     0.002 A 
ATOM     69  C   UNL A   1      38.405  33.023  38.220  1.00  0.00     0.091 A 
ATOM     70  F   UNL A   1      38.192  30.996  36.974  1.00  0.00    -0.205 F 
ATOM     71  C   UNL A   1      39.038  34.266  38.393  1.00  0.00     0.022 A 
BRANCH  69  72
ATOM     72  S   UNL A   1      37.114  32.601  39.395  1.00  0.00     0.127 S 
ATOM     73  O   UNL A   1      37.481  31.231  39.754  1.00  0.00    -0.237 OA
ATOM     74  O   UNL A   1      37.329  33.587  40.455  1.00  0.00    -0.237 OA
ATOM     75  O   UNL A   1      35.855  32.738  38.678  1.00  0.00    -0.744 OA
ENDBRANCH  69  72
ENDBRANCH  51  65
BRANCH  52  76
ATOM     76  C   UNL A   1      41.486  27.328  27.976  1.00  0.00     0.023 A 
ATOM     77  C   UNL A   1      42.184  27.892  26.891  1.00  0.00     0.012 A 
ATOM     78  C   UNL A   1      41.092  25.978  27.919  1.00  0.00     0.148 A 
ATOM     79  C   UNL A   1      42.484  27.122  25.767  1.00  0.00     0.002 A 
ATOM     80  C   UNL A   1      41.433  25.205  26.815  1.00  0.00     0.091 A 
ATOM     81  F   UNL A   1      40.420  25.470  28.962  1.00  0.00    -0.205 F 
ATOM     82  C   UNL A   1      42.121  25.778  25.734  1.00  0.00     0.022 A 
BRANCH  80  83
ATOM     83  S   UNL A   1      41.116  23.440  26.736  1.00  0.00     0.127 S 
ATOM     84  O   UNL A   1      39.675  23.407  26.494  1.00  0.00    -0.237 OA
ATOM     85  O   UNL A   1      41.941  23.038  25.596  1.00  0.00    -0.237 OA
ATOM     86  O   UNL A   1      41.550  22.900  28.016  1.00  0.00    -0.744 OA
ENDBRANCH  80  83
ENDBRANCH  52  76
BRANCH  64  87
ATOM     87  C   UNL A   1      44.440  27.560  34.311  1.00  0.00     0.023 A 
ATOM     88  C   UNL A   1      45.724  28.131  34.212  1.00  0.00     0.012 A 
ATOM     89  C   UNL A   1      44.248  26.409  35.097  1.00  0.00     0.148 A 
ATOM     90  C   UNL A   1      46.803  27.560  34.886  1.00  0.00     0.002 A 
ATOM     91  C   UNL A   1      45.322  25.863  35.789  1.00  0.00     0.091 A 
ATOM     92  F   UNL A   1      43.017  25.881  35.165  1.00  0.00    -0.205 F 
ATOM     93  C   UNL A   1      46.600  26.436  35.682  1.00  0.00     0.022 A 
BRANCH  91  94
ATOM     94  S   UNL A   1      45.147  24.460  36.899  1.00  0.00     0.127 S 
ATOM     95  O   UNL A   1      44.655  23.424  35.991  1.00  0.00    -0.237 OA
ATOM     96  O   UNL A   1      46.519  24.262  37.365  1.00  0.00    -0.237 OA
ATOM     97  O   UNL A   1      44.209  24.877  37.932  1.00  0.00    -0.744 OA
ENDBRANCH  91  94
ENDBRANCH  64  87
ENDBRANCH  38  39
ENDBRANCH  30  33
ENDBRANCH  28  29
ENDBRANCH   1  28
TORSDOF 16
ENDMDL
MODEL 3
REMARK VINA RESULT:     -12.4      2.797      8.429
REMARK SMILES O=C(CCn1c(N2CC[NH2+]CC2)nc2ccccc2c1=O)NCCCNC(=O)c1ccc(-c2c3nc(c(-c4cccc(S(=O)(=O)[O-])c4F)c4ccc([nH]4)c(-c4cccc(S(=O)(=O)[O-])c4F)c4nc(c(-c5cccc(S(=O)(=O)[O-])c5F)c5ccc2[nH]5)C=C4)C=C3)cc1
REMARK SMILES IDX 24 1 23 2 22 3 1 4 2 5 3 7 4 8 5 9 6 10 20 11 13 12 19 13
REMARK SMILES IDX 21 14 14 15 18 16 15 17 17 18 16 19 7 20 8 21 12 22 9 23
REMARK SMILES IDX 11 24 10 25 25 28 26 29 27 30 28 32 29 33 30 34 91 35 31 36
REMARK SMILES IDX 90 37 32 38 33 39 34 40 84 41 35 42 89 43 83 44 85 45 36 46
REMARK SMILES IDX 88 47 82 48 81 49 37 51 69 52 49 53 68 54 50 55 53 56 67 57
REMARK SMILES IDX 86 58 51 59 52 60 66 62 87 63 54 64 38 65 39 66 47 67 40 68
REMARK SMILES IDX 42 69 48 70 41 71 43 72 44 73 45 74 46 75 70 76 71 77 79 78
REMARK SMILES IDX 72 79 74 80 80 81 73 82 75 83 76 84 77 85 78 86 55 87 56 88
REMARK SMILES IDX 64 89 57 90 59 91 65 92 58 93 60 94 61 95 62 96 63 97
REMARK H PARENT 22 6 10 26 10 27 26 31 85 50 53 61
REMARK Flexibility Score: inf
ROOT
ATOM      1  C   UNL A   1      33.196  27.643  25.566  1.00  0.00     0.042 C 
ENDROOT
BRANCH   1   2
ATOM      2  C   UNL A   1      33.216  26.818  24.284  1.00  0.00     0.117 C 
BRANCH   2   3
ATOM      3  N   UNL A   1      34.031  25.627  24.420  1.00  0.00    -0.356 N 
ATOM      4  O   UNL A   1      33.973  24.962  22.218  1.00  0.00    -0.275 OA
ATOM      5  C   UNL A   1      34.337  24.787  23.376  1.00  0.00     0.221 C 
ATOM      6  H   UNL A   1      34.384  25.406  25.312  1.00  0.00     0.163 HD
BRANCH   5   7
ATOM      7  C   UNL A   1      35.195  23.610  23.784  1.00  0.00     0.122 C 
BRANCH   7   8
ATOM      8  C   UNL A   1      34.642  22.880  25.013  1.00  0.00     0.139 C 
BRANCH   8   9
ATOM      9  N   UNL A   1      34.048  21.565  24.739  1.00  0.00    -0.278 N 
ATOM     10  C   UNL A   1      32.689  21.398  24.476  1.00  0.00     0.209 A 
ATOM     11  C   UNL A   1      34.879  20.460  24.907  1.00  0.00     0.262 A 
ATOM     12  N   UNL A   1      32.183  20.240  24.160  1.00  0.00    -0.214 NA
ATOM     13  C   UNL A   1      34.338  19.156  24.511  1.00  0.00     0.066 A 
ATOM     14  O   UNL A   1      36.036  20.528  25.317  1.00  0.00    -0.269 OA
ATOM     15  C   UNL A   1      33.015  19.119  24.091  1.00  0.00     0.080 A 
ATOM     16  C   UNL A   1      35.141  18.009  24.506  1.00  0.00     0.016 A 
ATOM     17  C   UNL A   1      32.499  17.908  23.624  1.00  0.00     0.029 A 
ATOM     18  C   UNL A   1      34.611  16.805  24.051  1.00  0.00     0.001 A 
ATOM     19  C   UNL A   1      33.295  16.758  23.597  1.00  0.00     0.002 A 
BRANCH  10  20
ATOM     20  N   UNL A   1      31.832  22.460  24.646  1.00  0.00    -0.331 N 
ATOM     21  C   UNL A   1      31.229  22.670  25.971  1.00  0.00     0.181 C 
ATOM     22  C   UNL A   1      31.008  22.993  23.554  1.00  0.00     0.181 C 
ATOM     23  C   UNL A   1      30.977  24.175  26.187  1.00  0.00     0.282 C 
ATOM     24  C   UNL A   1      30.728  24.496  23.807  1.00  0.00     0.282 C 
ATOM     25  N   UNL A   1      30.136  24.787  25.135  1.00  0.00    -0.343 N 
ATOM     26  H   UNL A   1      30.095  25.798  25.275  1.00  0.00     0.346 HD
ATOM     27  H   UNL A   1      29.193  24.402  25.182  1.00  0.00     0.346 HD
ENDBRANCH  10  20
ENDBRANCH   8   9
ENDBRANCH   7   8
ENDBRANCH   5   7
ENDBRANCH   2   3
ENDBRANCH   1   2
BRANCH   1  28
ATOM     28  C   UNL A   1      34.027  28.924  25.527  1.00  0.00     0.118 C 
BRANCH  28  29
ATOM     29  N   UNL A   1      33.294  30.117  25.920  1.00  0.00    -0.352 N 
ATOM     30  C   UNL A   1      33.551  30.984  26.960  1.00  0.00     0.251 C 
ATOM     31  H   UNL A   1      32.509  30.337  25.369  1.00  0.00     0.163 HD
ATOM     32  O   UNL A   1      32.768  31.895  27.213  1.00  0.00    -0.269 OA
BRANCH  30  33
ATOM     33  C   UNL A   1      34.754  30.784  27.801  1.00  0.00     0.039 A 
ATOM     34  C   UNL A   1      35.818  31.689  27.753  1.00  0.00     0.014 A 
ATOM     35  C   UNL A   1      34.834  29.651  28.616  1.00  0.00     0.014 A 
ATOM     36  C   UNL A   1      37.016  31.382  28.391  1.00  0.00     0.010 A 
ATOM     37  C   UNL A   1      36.020  29.374  29.304  1.00  0.00     0.010 A 
ATOM     38  C   UNL A   1      37.138  30.209  29.151  1.00  0.00    -0.014 A 
BRANCH  38  39
ATOM     39  C   UNL A   1      38.454  29.852  29.740  1.00  0.00     0.031 A 
ATOM     40  C   UNL A   1      38.858  30.390  31.087  1.00  0.00     0.074 A 
ATOM     41  C   UNL A   1      39.265  28.997  29.087  1.00  0.00     0.049 A 
ATOM     42  N   UNL A   1      39.948  30.153  31.772  1.00  0.00    -0.248 NA
ATOM     43  C   UNL A   1      37.921  31.308  31.756  1.00  0.00     0.031 C 
ATOM     44  C   UNL A   1      38.987  28.412  27.775  1.00  0.00     0.029 A 
ATOM     45  N   UNL A   1      40.478  28.464  29.442  1.00  0.00    -0.354 N 
ATOM     46  C   UNL A   1      39.844  30.913  32.930  1.00  0.00     0.074 A 
ATOM     47  C   UNL A   1      38.587  31.625  32.858  1.00  0.00     0.031 C 
ATOM     48  C   UNL A   1      39.985  27.576  27.449  1.00  0.00     0.029 A 
ATOM     49  C   UNL A   1      40.989  27.594  28.509  1.00  0.00     0.049 A 
ATOM     50  H   UNL A   1      40.938  28.684  30.284  1.00  0.00     0.167 HD
ATOM     51  C   UNL A   1      40.706  30.994  33.970  1.00  0.00     0.034 A 
ATOM     52  C   UNL A   1      42.137  26.888  28.504  1.00  0.00     0.034 A 
ATOM     53  C   UNL A   1      41.930  30.249  34.071  1.00  0.00     0.049 A 
ATOM     54  C   UNL A   1      43.072  26.989  29.675  1.00  0.00     0.074 A 
ATOM     55  C   UNL A   1      42.849  30.246  35.107  1.00  0.00     0.029 A 
ATOM     56  N   UNL A   1      42.405  29.372  33.110  1.00  0.00    -0.354 N 
ATOM     57  N   UNL A   1      42.918  27.660  30.791  1.00  0.00    -0.248 NA
ATOM     58  C   UNL A   1      44.327  26.226  29.598  1.00  0.00     0.031 C 
ATOM     59  C   UNL A   1      43.879  29.362  34.772  1.00  0.00     0.029 A 
ATOM     60  C   UNL A   1      43.600  28.817  33.530  1.00  0.00     0.049 A 
ATOM     61  H   UNL A   1      41.958  29.173  32.256  1.00  0.00     0.167 HD
ATOM     62  C   UNL A   1      44.049  27.392  31.553  1.00  0.00     0.074 A 
ATOM     63  C   UNL A   1      44.870  26.482  30.782  1.00  0.00     0.031 C 
ATOM     64  C   UNL A   1      44.382  27.874  32.774  1.00  0.00     0.034 A 
BRANCH  51  65
ATOM     65  C   UNL A   1      40.336  31.881  35.127  1.00  0.00     0.023 A 
ATOM     66  C   UNL A   1      40.918  33.160  35.222  1.00  0.00     0.012 A 
ATOM     67  C   UNL A   1      39.349  31.492  36.053  1.00  0.00     0.148 A 
ATOM     68  C   UNL A   1      40.525  34.041  36.227  1.00  0.00     0.002 A 
ATOM     69  C   UNL A   1      38.944  32.387  37.038  1.00  0.00     0.091 A 
ATOM     70  F   UNL A   1      38.823  30.264  35.949  1.00  0.00    -0.205 F 
ATOM     71  C   UNL A   1      39.534  33.660  37.127  1.00  0.00     0.022 A 
BRANCH  69  72
ATOM     72  S   UNL A   1      37.641  32.014  38.216  1.00  0.00     0.127 S 
ATOM     73  O   UNL A   1      37.352  30.615  37.901  1.00  0.00    -0.237 OA
ATOM     74  O   UNL A   1      38.316  32.225  39.497  1.00  0.00    -0.237 OA
ATOM     75  O   UNL A   1      36.562  32.948  37.932  1.00  0.00    -0.744 OA
ENDBRANCH  69  72
ENDBRANCH  51  65
BRANCH  52  76
ATOM     76  C   UNL A   1      42.422  25.976  27.365  1.00  0.00     0.023 A 
ATOM     77  C   UNL A   1      43.225  26.433  26.303  1.00  0.00     0.012 A 
ATOM     78  C   UNL A   1      41.974  24.641  27.371  1.00  0.00     0.148 A 
ATOM     79  C   UNL A   1      43.576  25.573  25.262  1.00  0.00     0.002 A 
ATOM     80  C   UNL A   1      42.365  23.778  26.354  1.00  0.00     0.091 A 
ATOM     81  F   UNL A   1      41.203  24.237  28.389  1.00  0.00    -0.205 F 
ATOM     82  C   UNL A   1      43.158  24.245  25.293  1.00  0.00     0.022 A 
BRANCH  80  83
ATOM     83  S   UNL A   1      41.977  22.025  26.371  1.00  0.00     0.127 S 
ATOM     84  O   UNL A   1      42.798  21.528  25.269  1.00  0.00    -0.237 OA
ATOM     85  O   UNL A   1      42.431  21.631  27.705  1.00  0.00    -0.237 OA
ATOM     86  O   UNL A   1      40.538  21.935  26.171  1.00  0.00    -0.744 OA
ENDBRANCH  80  83
ENDBRANCH  52  76
BRANCH  64  87
ATOM     87  C   UNL A   1      45.689  27.438  33.374  1.00  0.00     0.023 A 
ATOM     88  C   UNL A   1      46.827  28.247  33.198  1.00  0.00     0.012 A 
ATOM     89  C   UNL A   1      45.759  26.308  34.210  1.00  0.00     0.148 A 
ATOM     90  C   UNL A   1      48.022  27.935  33.846  1.00  0.00     0.002 A 
ATOM     91  C   UNL A   1      46.943  26.019  34.876  1.00  0.00     0.091 A 
ATOM     92  F   UNL A   1      44.662  25.550  34.351  1.00  0.00    -0.205 F 
ATOM     93  C   UNL A   1      48.076  26.830  34.693  1.00  0.00     0.022 A 
BRANCH  91  94
ATOM     94  S   UNL A   1      47.092  24.662  36.044  1.00  0.00     0.127 S 
ATOM     95  O   UNL A   1      48.483  24.794  36.476  1.00  0.00    -0.237 OA
ATOM     96  O   UNL A   1      46.101  25.017  37.059  1.00  0.00    -0.237 OA
ATOM     97  O   UNL A   1      46.787  23.450  35.296  1.00  0.00    -0.744 OA
ENDBRANCH  91  94
ENDBRANCH  64  87
ENDBRANCH  38  39
ENDBRANCH  30  33
ENDBRANCH  28  29
ENDBRANCH   1  28
TORSDOF 16
ENDMDL
