MODEL 1
REMARK VINA RESULT:     -11.6      0.000      0.000
REMARK SMILES CCc1ncc(S(=O)(=O)NCc2ccc(C(=O)NCCCNC(=O)c3ccc(-c4c5nc(c(-c6cccc(S(=O)(=O)[O-])c6F)c6ccc([nH]6)c(-c6cccc(S(=O)(=O)[O-])c6F)c6nc(c(-c7cccc(S(=O)(=O)[O-])c7F)c7ccc4[nH]7)C=C6)C=C5)cc3)o2)[nH]1
REMARK SMILES IDX 19 1 18 2 16 3 17 4 15 6 12 7 13 8 88 9 14 10 11 11 10 12
REMARK SMILES IDX 7 14 8 15 9 16 6 17 3 18 4 19 89 20 5 21 2 23 1 24 20 25
REMARK SMILES IDX 21 26 22 27 23 28 24 30 25 31 26 32 87 33 27 34 86 35 28 36
REMARK SMILES IDX 29 37 30 38 80 39 31 40 85 41 79 42 81 43 32 44 84 45 78 46
REMARK SMILES IDX 77 47 33 49 65 50 45 51 64 52 46 53 49 54 63 55 82 56 47 57
REMARK SMILES IDX 48 58 62 60 83 61 50 62 34 63 35 64 43 65 36 66 38 67 44 68
REMARK SMILES IDX 37 69 39 70 40 71 41 72 42 73 66 74 67 75 75 76 68 77 70 78
REMARK SMILES IDX 76 79 69 80 71 81 72 82 73 83 74 84 51 85 52 86 60 87 53 88
REMARK SMILES IDX 55 89 61 90 54 91 56 92 57 93 58 94 59 95
REMARK H PARENT 18 5 10 13 89 22 22 29 81 48 49 59
REMARK Flexibility Score: inf
ROOT
ATOM      1  C   UNL A   1      35.001  21.661  25.676  1.00  0.00     0.118 C 
ENDROOT
BRANCH   1   2
ATOM      2  N   UNL A   1      34.056  20.564  25.601  1.00  0.00    -0.349 N 
ATOM      3  C   UNL A   1      32.700  20.608  25.361  1.00  0.00     0.286 C 
ATOM      4  O   UNL A   1      32.157  19.540  25.070  1.00  0.00    -0.266 OA
ATOM      5  H   UNL A   1      34.435  19.667  25.741  1.00  0.00     0.163 HD
BRANCH   3   6
ATOM      6  C   UNL A   1      31.981  21.865  25.442  1.00  0.00     0.191 A 
ATOM      7  C   UNL A   1      31.031  23.663  24.558  1.00  0.00     0.119 A 
ATOM      8  C   UNL A   1      30.808  23.731  25.914  1.00  0.00     0.048 A 
ATOM      9  O   UNL A   1      31.717  22.520  24.265  1.00  0.00    -0.455 OA
ATOM     10  C   UNL A   1      31.434  22.599  26.479  1.00  0.00     0.056 A 
BRANCH   7  11
ATOM     11  C   UNL A   1      30.708  24.517  23.392  1.00  0.00     0.174 C 
BRANCH  11  12
ATOM     12  N   UNL A   1      31.700  24.438  22.316  1.00  0.00    -0.202 NA
ATOM     13  H   UNL A   1      32.090  23.496  22.344  1.00  0.00     0.141 HD
BRANCH  12  14
ATOM     14  S   UNL A   1      32.995  25.493  22.290  1.00  0.00     0.258 S 
ATOM     15  O   UNL A   1      33.302  25.866  20.936  1.00  0.00    -0.205 OA
ATOM     16  O   UNL A   1      34.013  24.933  23.155  1.00  0.00    -0.205 OA
BRANCH  14  17
ATOM     17  C   UNL A   1      32.571  27.005  23.045  1.00  0.00     0.167 A 
ATOM     18  C   UNL A   1      32.639  28.578  24.623  1.00  0.00     0.106 A 
ATOM     19  N   UNL A   1      31.759  29.005  23.739  1.00  0.00    -0.240 NA
ATOM     20  N   UNL A   1      33.175  27.383  24.220  1.00  0.00    -0.332 N 
ATOM     21  C   UNL A   1      31.703  28.035  22.769  1.00  0.00     0.153 A 
ATOM     22  H   UNL A   1      33.876  26.879  24.693  1.00  0.00     0.169 HD
BRANCH  18  23
ATOM     23  C   UNL A   1      32.977  29.256  25.912  1.00  0.00     0.072 C 
ATOM     24  C   UNL A   1      34.263  28.780  26.568  1.00  0.00     0.012 C 
ENDBRANCH  18  23
ENDBRANCH  14  17
ENDBRANCH  12  14
ENDBRANCH  11  12
ENDBRANCH   7  11
ENDBRANCH   3   6
ENDBRANCH   1   2
BRANCH   1  25
ATOM     25  C   UNL A   1      36.124  21.546  24.652  1.00  0.00     0.042 C 
BRANCH  25  26
ATOM     26  C   UNL A   1      37.451  22.136  25.105  1.00  0.00     0.118 C 
BRANCH  26  27
ATOM     27  N   UNL A   1      38.271  21.169  25.818  1.00  0.00    -0.352 N 
ATOM     28  C   UNL A   1      39.458  21.329  26.486  1.00  0.00     0.251 C 
ATOM     29  H   UNL A   1      37.915  20.251  25.822  1.00  0.00     0.163 HD
ATOM     30  O   UNL A   1      40.081  20.326  26.827  1.00  0.00    -0.269 OA
BRANCH  28  31
ATOM     31  C   UNL A   1      39.993  22.674  26.799  1.00  0.00     0.039 A 
ATOM     32  C   UNL A   1      40.929  22.795  27.831  1.00  0.00     0.014 A 
ATOM     33  C   UNL A   1      39.534  23.822  26.144  1.00  0.00     0.014 A 
ATOM     34  C   UNL A   1      41.417  24.055  28.187  1.00  0.00     0.010 A 
ATOM     35  C   UNL A   1      40.087  25.065  26.440  1.00  0.00     0.010 A 
ATOM     36  C   UNL A   1      41.012  25.200  27.484  1.00  0.00    -0.014 A 
BRANCH  36  37
ATOM     37  C   UNL A   1      41.521  26.545  27.852  1.00  0.00     0.031 A 
ATOM     38  C   UNL A   1      42.950  26.924  27.558  1.00  0.00     0.074 A 
ATOM     39  C   UNL A   1      40.715  27.405  28.505  1.00  0.00     0.049 A 
ATOM     40  N   UNL A   1      43.579  28.040  27.822  1.00  0.00    -0.248 NA
ATOM     41  C   UNL A   1      43.792  25.906  26.907  1.00  0.00     0.031 C 
ATOM     42  C   UNL A   1      39.337  27.125  28.917  1.00  0.00     0.029 A 
ATOM     43  N   UNL A   1      40.942  28.682  28.952  1.00  0.00    -0.354 N 
ATOM     44  C   UNL A   1      44.892  27.846  27.406  1.00  0.00     0.074 A 
ATOM     45  C   UNL A   1      44.979  26.492  26.908  1.00  0.00     0.031 C 
ATOM     46  C   UNL A   1      38.840  28.201  29.548  1.00  0.00     0.029 A 
ATOM     47  C   UNL A   1      39.867  29.235  29.607  1.00  0.00     0.049 A 
ATOM     48  H   UNL A   1      41.794  29.156  28.818  1.00  0.00     0.167 HD
ATOM     49  C   UNL A   1      45.923  28.724  27.408  1.00  0.00     0.034 A 
ATOM     50  C   UNL A   1      39.725  30.443  30.189  1.00  0.00     0.034 A 
ATOM     51  C   UNL A   1      45.816  30.085  27.862  1.00  0.00     0.049 A 
ATOM     52  C   UNL A   1      40.867  31.421  30.122  1.00  0.00     0.074 A 
ATOM     53  C   UNL A   1      46.775  31.081  27.829  1.00  0.00     0.029 A 
ATOM     54  N   UNL A   1      44.680  30.641  28.430  1.00  0.00    -0.354 N 
ATOM     55  N   UNL A   1      42.053  31.270  29.585  1.00  0.00    -0.248 NA
ATOM     56  C   UNL A   1      40.635  32.751  30.700  1.00  0.00     0.031 C 
ATOM     57  C   UNL A   1      46.225  32.235  28.398  1.00  0.00     0.029 A 
ATOM     58  C   UNL A   1      44.914  31.966  28.757  1.00  0.00     0.049 A 
ATOM     59  H   UNL A   1      43.832  30.164  28.581  1.00  0.00     0.167 HD
ATOM     60  C   UNL A   1      42.693  32.496  29.724  1.00  0.00     0.074 A 
ATOM     61  C   UNL A   1      41.753  33.384  30.376  1.00  0.00     0.031 C 
ATOM     62  C   UNL A   1      43.949  32.852  29.355  1.00  0.00     0.034 A 
BRANCH  49  63
ATOM     63  C   UNL A   1      47.243  28.256  26.852  1.00  0.00     0.023 A 
ATOM     64  C   UNL A   1      48.316  27.993  27.730  1.00  0.00     0.012 A 
ATOM     65  C   UNL A   1      47.410  28.023  25.472  1.00  0.00     0.148 A 
ATOM     66  C   UNL A   1      49.542  27.547  27.241  1.00  0.00     0.002 A 
ATOM     67  C   UNL A   1      48.622  27.533  24.998  1.00  0.00     0.091 A 
ATOM     68  F   UNL A   1      46.388  28.298  24.649  1.00  0.00    -0.205 F 
ATOM     69  C   UNL A   1      49.693  27.307  25.878  1.00  0.00     0.022 A 
BRANCH  67  70
ATOM     70  S   UNL A   1      48.890  27.114  23.272  1.00  0.00     0.127 S 
ATOM     71  O   UNL A   1      48.201  25.828  23.170  1.00  0.00    -0.237 OA
ATOM     72  O   UNL A   1      48.225  28.218  22.580  1.00  0.00    -0.237 OA
ATOM     73  O   UNL A   1      50.334  27.065  23.090  1.00  0.00    -0.744 OA
ENDBRANCH  67  70
ENDBRANCH  49  63
BRANCH  50  74
ATOM     74  C   UNL A   1      38.426  30.821  30.812  1.00  0.00     0.023 A 
ATOM     75  C   UNL A   1      38.195  30.523  32.169  1.00  0.00     0.012 A 
ATOM     76  C   UNL A   1      37.432  31.498  30.080  1.00  0.00     0.148 A 
ATOM     77  C   UNL A   1      36.986  30.859  32.777  1.00  0.00     0.002 A 
ATOM     78  C   UNL A   1      36.250  31.880  30.705  1.00  0.00     0.091 A 
ATOM     79  F   UNL A   1      37.666  31.765  28.787  1.00  0.00    -0.205 F 
ATOM     80  C   UNL A   1      36.018  31.546  32.048  1.00  0.00     0.022 A 
BRANCH  78  81
ATOM     81  S   UNL A   1      35.009  32.885  29.884  1.00  0.00     0.127 S 
ATOM     82  O   UNL A   1      35.809  33.998  29.382  1.00  0.00    -0.237 OA
ATOM     83  O   UNL A   1      34.511  31.970  28.857  1.00  0.00    -0.237 OA
ATOM     84  O   UNL A   1      34.032  33.219  30.912  1.00  0.00    -0.744 OA
ENDBRANCH  78  81
ENDBRANCH  50  74
BRANCH  62  85
ATOM     85  C   UNL A   1      44.369  34.277  29.605  1.00  0.00     0.023 A 
ATOM     86  C   UNL A   1      44.869  34.653  30.867  1.00  0.00     0.012 A 
ATOM     87  C   UNL A   1      44.323  35.229  28.568  1.00  0.00     0.148 A 
ATOM     88  C   UNL A   1      45.276  35.966  31.105  1.00  0.00     0.002 A 
ATOM     89  C   UNL A   1      44.778  36.521  28.797  1.00  0.00     0.091 A 
ATOM     90  F   UNL A   1      43.825  34.857  27.379  1.00  0.00    -0.205 F 
ATOM     91  C   UNL A   1      45.241  36.895  30.068  1.00  0.00     0.022 A 
BRANCH  89  92
ATOM     92  S   UNL A   1      44.863  37.751  27.491  1.00  0.00     0.127 S 
ATOM     93  O   UNL A   1      45.536  38.858  28.169  1.00  0.00    -0.237 OA
ATOM     94  O   UNL A   1      45.674  37.074  26.477  1.00  0.00    -0.237 OA
ATOM     95  O   UNL A   1      43.486  38.002  27.090  1.00  0.00    -0.744 OA
ENDBRANCH  89  92
ENDBRANCH  62  85
ENDBRANCH  36  37
ENDBRANCH  28  31
ENDBRANCH  26  27
ENDBRANCH  25  26
ENDBRANCH   1  25
TORSDOF 18
ENDMDL
MODEL 2
REMARK VINA RESULT:     -11.5      1.321      1.972
REMARK SMILES CCc1ncc(S(=O)(=O)NCc2ccc(C(=O)NCCCNC(=O)c3ccc(-c4c5nc(c(-c6cccc(S(=O)(=O)[O-])c6F)c6ccc([nH]6)c(-c6cccc(S(=O)(=O)[O-])c6F)c6nc(c(-c7cccc(S(=O)(=O)[O-])c7F)c7ccc4[nH]7)C=C6)C=C5)cc3)o2)[nH]1
REMARK SMILES IDX 19 1 18 2 16 3 17 4 15 6 12 7 13 8 88 9 14 10 11 11 10 12
REMARK SMILES IDX 7 14 8 15 9 16 6 17 3 18 4 19 89 20 5 21 2 23 1 24 20 25
REMARK SMILES IDX 21 26 22 27 23 28 24 30 25 31 26 32 87 33 27 34 86 35 28 36
REMARK SMILES IDX 29 37 30 38 80 39 31 40 85 41 79 42 81 43 32 44 84 45 78 46
REMARK SMILES IDX 77 47 33 49 65 50 45 51 64 52 46 53 49 54 63 55 82 56 47 57
REMARK SMILES IDX 48 58 62 60 83 61 50 62 34 63 35 64 43 65 36 66 38 67 44 68
REMARK SMILES IDX 37 69 39 70 40 71 41 72 42 73 66 74 67 75 75 76 68 77 70 78
REMARK SMILES IDX 76 79 69 80 71 81 72 82 73 83 74 84 51 85 52 86 60 87 53 88
REMARK SMILES IDX 55 89 61 90 54 91 56 92 57 93 58 94 59 95
REMARK H PARENT 18 5 10 13 89 22 22 29 81 48 49 59
REMARK Flexibility Score: inf
ROOT
ATOM      1  C   UNL A   1      35.136  21.078  24.680  1.00  0.00     0.118 C 
ENDROOT
BRANCH   1   2
ATOM      2  N   UNL A   1      34.174  20.071  25.082  1.00  0.00    -0.349 N 
ATOM      3  C   UNL A   1      32.814  20.201  25.267  1.00  0.00     0.286 C 
ATOM      4  O   UNL A   1      32.166  19.156  25.340  1.00  0.00    -0.266 OA
ATOM      5  H   UNL A   1      34.541  19.173  25.246  1.00  0.00     0.163 HD
BRANCH   3   6
ATOM      6  C   UNL A   1      32.210  21.517  25.356  1.00  0.00     0.191 A 
ATOM      7  C   UNL A   1      31.165  23.277  24.503  1.00  0.00     0.119 A 
ATOM      8  C   UNL A   1      31.300  23.518  25.850  1.00  0.00     0.048 A 
ATOM      9  O   UNL A   1      31.690  22.053  24.204  1.00  0.00    -0.455 OA
ATOM     10  C   UNL A   1      31.986  22.409  26.388  1.00  0.00     0.056 A 
BRANCH   7  11
ATOM     11  C   UNL A   1      30.602  24.016  23.349  1.00  0.00     0.174 C 
BRANCH  11  12
ATOM     12  N   UNL A   1      30.981  25.431  23.319  1.00  0.00    -0.202 NA
ATOM     13  H   UNL A   1      31.907  25.497  23.743  1.00  0.00     0.141 HD
BRANCH  12  14
ATOM     14  S   UNL A   1      30.024  26.572  24.076  1.00  0.00     0.258 S 
ATOM     15  O   UNL A   1      30.657  27.024  25.285  1.00  0.00    -0.205 OA
ATOM     16  O   UNL A   1      28.675  26.043  24.097  1.00  0.00    -0.205 OA
BRANCH  14  17
ATOM     17  C   UNL A   1      29.907  28.016  23.109  1.00  0.00     0.167 A 
ATOM     18  C   UNL A   1      28.882  29.774  22.196  1.00  0.00     0.106 A 
ATOM     19  N   UNL A   1      30.121  29.815  21.746  1.00  0.00    -0.240 NA
ATOM     20  N   UNL A   1      28.724  28.713  23.050  1.00  0.00    -0.332 N 
ATOM     21  C   UNL A   1      30.755  28.729  22.296  1.00  0.00     0.153 A 
ATOM     22  H   UNL A   1      27.900  28.488  23.540  1.00  0.00     0.169 HD
BRANCH  18  23
ATOM     23  C   UNL A   1      27.780  30.704  21.801  1.00  0.00     0.072 C 
ATOM     24  C   UNL A   1      28.167  31.754  20.773  1.00  0.00     0.012 C 
ENDBRANCH  18  23
ENDBRANCH  14  17
ENDBRANCH  12  14
ENDBRANCH  11  12
ENDBRANCH   7  11
ENDBRANCH   3   6
ENDBRANCH   1   2
BRANCH   1  25
ATOM     25  C   UNL A   1      35.829  21.740  25.866  1.00  0.00     0.042 C 
BRANCH  25  26
ATOM     26  C   UNL A   1      37.253  22.200  25.586  1.00  0.00     0.118 C 
BRANCH  26  27
ATOM     27  N   UNL A   1      38.243  21.221  26.006  1.00  0.00    -0.352 N 
ATOM     28  C   UNL A   1      39.516  21.393  26.486  1.00  0.00     0.251 C 
ATOM     29  H   UNL A   1      37.951  20.283  25.935  1.00  0.00     0.163 HD
ATOM     30  O   UNL A   1      40.250  20.411  26.571  1.00  0.00    -0.269 OA
BRANCH  28  31
ATOM     31  C   UNL A   1      40.012  22.726  26.900  1.00  0.00     0.039 A 
ATOM     32  C   UNL A   1      39.551  23.851  26.210  1.00  0.00     0.014 A 
ATOM     33  C   UNL A   1      40.976  22.876  27.902  1.00  0.00     0.014 A 
ATOM     34  C   UNL A   1      40.035  25.120  26.540  1.00  0.00     0.010 A 
ATOM     35  C   UNL A   1      41.390  24.148  28.289  1.00  0.00     0.010 A 
ATOM     36  C   UNL A   1      40.948  25.281  27.593  1.00  0.00    -0.014 A 
BRANCH  36  37
ATOM     37  C   UNL A   1      41.473  26.622  27.955  1.00  0.00     0.031 A 
ATOM     38  C   UNL A   1      42.886  27.007  27.595  1.00  0.00     0.074 A 
ATOM     39  C   UNL A   1      40.700  27.471  28.659  1.00  0.00     0.049 A 
ATOM     40  N   UNL A   1      43.526  28.120  27.844  1.00  0.00    -0.248 NA
ATOM     41  C   UNL A   1      43.695  26.000  26.888  1.00  0.00     0.031 C 
ATOM     42  C   UNL A   1      39.345  27.182  29.135  1.00  0.00     0.029 A 
ATOM     43  N   UNL A   1      40.948  28.741  29.113  1.00  0.00    -0.354 N 
ATOM     44  C   UNL A   1      44.817  27.935  27.360  1.00  0.00     0.074 A 
ATOM     45  C   UNL A   1      44.881  26.588  26.839  1.00  0.00     0.031 C 
ATOM     46  C   UNL A   1      38.879  28.247  29.806  1.00  0.00     0.029 A 
ATOM     47  C   UNL A   1      39.907  29.283  29.829  1.00  0.00     0.049 A 
ATOM     48  H   UNL A   1      41.792  29.219  28.944  1.00  0.00     0.167 HD
ATOM     49  C   UNL A   1      45.846  28.815  27.323  1.00  0.00     0.034 A 
ATOM     50  C   UNL A   1      39.793  30.482  30.434  1.00  0.00     0.034 A 
ATOM     51  C   UNL A   1      45.760  30.168  27.801  1.00  0.00     0.049 A 
ATOM     52  C   UNL A   1      40.928  31.463  30.324  1.00  0.00     0.074 A 
ATOM     53  C   UNL A   1      46.715  31.167  27.736  1.00  0.00     0.029 A 
ATOM     54  N   UNL A   1      44.653  30.715  28.434  1.00  0.00    -0.354 N 
ATOM     55  N   UNL A   1      42.087  31.322  29.727  1.00  0.00    -0.248 NA
ATOM     56  C   UNL A   1      40.724  32.784  30.933  1.00  0.00     0.031 C 
ATOM     57  C   UNL A   1      46.193  32.311  28.348  1.00  0.00     0.029 A 
ATOM     58  C   UNL A   1      44.902  32.034  28.767  1.00  0.00     0.049 A 
ATOM     59  H   UNL A   1      43.815  30.233  28.619  1.00  0.00     0.167 HD
ATOM     60  C   UNL A   1      42.732  32.547  29.851  1.00  0.00     0.074 A 
ATOM     61  C   UNL A   1      41.824  33.424  30.563  1.00  0.00     0.031 C 
ATOM     62  C   UNL A   1      43.967  32.910  29.426  1.00  0.00     0.034 A 
BRANCH  49  63
ATOM     63  C   UNL A   1      47.137  28.357  26.695  1.00  0.00     0.023 A 
ATOM     64  C   UNL A   1      48.228  28.008  27.519  1.00  0.00     0.012 A 
ATOM     65  C   UNL A   1      47.258  28.219  25.298  1.00  0.00     0.148 A 
ATOM     66  C   UNL A   1      49.428  27.569  26.963  1.00  0.00     0.002 A 
ATOM     67  C   UNL A   1      48.443  27.736  24.754  1.00  0.00     0.091 A 
ATOM     68  F   UNL A   1      46.220  28.574  24.528  1.00  0.00    -0.205 F 
ATOM     69  C   UNL A   1      49.533  27.423  25.583  1.00  0.00     0.022 A 
BRANCH  67  70
ATOM     70  S   UNL A   1      48.651  27.434  22.996  1.00  0.00     0.127 S 
ATOM     71  O   UNL A   1      47.563  28.230  22.429  1.00  0.00    -0.237 OA
ATOM     72  O   UNL A   1      49.991  27.968  22.747  1.00  0.00    -0.237 OA
ATOM     73  O   UNL A   1      48.529  25.994  22.818  1.00  0.00    -0.744 OA
ENDBRANCH  67  70
ENDBRANCH  49  63
BRANCH  50  74
ATOM     74  C   UNL A   1      38.525  30.848  31.126  1.00  0.00     0.023 A 
ATOM     75  C   UNL A   1      38.380  30.569  32.500  1.00  0.00     0.012 A 
ATOM     76  C   UNL A   1      37.478  31.496  30.444  1.00  0.00     0.148 A 
ATOM     77  C   UNL A   1      37.202  30.896  33.172  1.00  0.00     0.002 A 
ATOM     78  C   UNL A   1      36.329  31.869  31.132  1.00  0.00     0.091 A 
ATOM     79  F   UNL A   1      37.631  31.745  29.135  1.00  0.00    -0.205 F 
ATOM     80  C   UNL A   1      36.182  31.554  32.491  1.00  0.00     0.022 A 
BRANCH  78  81
ATOM     81  S   UNL A   1      35.024  32.839  30.369  1.00  0.00     0.127 S 
ATOM     82  O   UNL A   1      34.096  33.019  31.483  1.00  0.00    -0.237 OA
ATOM     83  O   UNL A   1      35.743  34.047  29.964  1.00  0.00    -0.237 OA
ATOM     84  O   UNL A   1      34.534  32.033  29.259  1.00  0.00    -0.744 OA
ENDBRANCH  78  81
ENDBRANCH  50  74
BRANCH  62  85
ATOM     85  C   UNL A   1      44.397  34.332  29.675  1.00  0.00     0.023 A 
ATOM     86  C   UNL A   1      44.935  34.697  30.925  1.00  0.00     0.012 A 
ATOM     87  C   UNL A   1      44.322  35.293  28.648  1.00  0.00     0.148 A 
ATOM     88  C   UNL A   1      45.352  36.006  31.162  1.00  0.00     0.002 A 
ATOM     89  C   UNL A   1      44.787  36.582  28.875  1.00  0.00     0.091 A 
ATOM     90  F   UNL A   1      43.788  34.932  27.471  1.00  0.00    -0.205 F 
ATOM     91  C   UNL A   1      45.289  36.945  30.134  1.00  0.00     0.022 A 
BRANCH  89  92
ATOM     92  S   UNL A   1      44.836  37.823  27.577  1.00  0.00     0.127 S 
ATOM     93  O   UNL A   1      43.424  37.927  27.212  1.00  0.00    -0.237 OA
ATOM     94  O   UNL A   1      45.372  38.990  28.280  1.00  0.00    -0.237 OA
ATOM     95  O   UNL A   1      45.714  37.287  26.546  1.00  0.00    -0.744 OA
ENDBRANCH  89  92
ENDBRANCH  62  85
ENDBRANCH  36  37
ENDBRANCH  28  31
ENDBRANCH  26  27
ENDBRANCH  25  26
ENDBRANCH   1  25
TORSDOF 18
ENDMDL
MODEL 3
REMARK VINA RESULT:     -11.5      4.950     10.065
REMARK SMILES CCc1ncc(S(=O)(=O)NCc2ccc(C(=O)NCCCNC(=O)c3ccc(-c4c5nc(c(-c6cccc(S(=O)(=O)[O-])c6F)c6ccc([nH]6)c(-c6cccc(S(=O)(=O)[O-])c6F)c6nc(c(-c7cccc(S(=O)(=O)[O-])c7F)c7ccc4[nH]7)C=C6)C=C5)cc3)o2)[nH]1
REMARK SMILES IDX 19 1 18 2 16 3 17 4 15 6 12 7 13 8 88 9 14 10 11 11 10 12
REMARK SMILES IDX 7 14 8 15 9 16 6 17 3 18 4 19 89 20 5 21 2 23 1 24 20 25
REMARK SMILES IDX 21 26 22 27 23 28 24 30 25 31 26 32 87 33 27 34 86 35 28 36
REMARK SMILES IDX 29 37 30 38 80 39 31 40 85 41 79 42 81 43 32 44 84 45 78 46
REMARK SMILES IDX 77 47 33 49 65 50 45 51 64 52 46 53 49 54 63 55 82 56 47 57
REMARK SMILES IDX 48 58 62 60 83 61 50 62 34 63 35 64 43 65 36 66 38 67 44 68
REMARK SMILES IDX 37 69 39 70 40 71 41 72 42 73 66 74 67 75 75 76 68 77 70 78
REMARK SMILES IDX 76 79 69 80 71 81 72 82 73 83 74 84 51 85 52 86 60 87 53 88
REMARK SMILES IDX 55 89 61 90 54 91 56 92 57 93 58 94 59 95
REMARK H PARENT 18 5 10 13 89 22 22 29 81 48 49 59
REMARK Flexibility Score: inf
ROOT
ATOM      1  C   UNL A   1      33.429  29.108  23.144  1.00  0.00     0.118 C 
ENDROOT
BRANCH   1   2
ATOM      2  N   UNL A   1      33.526  27.908  22.337  1.00  0.00    -0.349 N 
ATOM      3  C   UNL A   1      32.530  27.024  21.981  1.00  0.00     0.286 C 
ATOM      4  O   UNL A   1      32.793  26.237  21.069  1.00  0.00    -0.266 OA
ATOM      5  H   UNL A   1      34.425  27.695  21.997  1.00  0.00     0.163 HD
BRANCH   3   6
ATOM      6  C   UNL A   1      31.247  27.055  22.657  1.00  0.00     0.191 A 
ATOM      7  C   UNL A   1      29.831  26.429  24.244  1.00  0.00     0.119 A 
ATOM      8  C   UNL A   1      29.184  27.389  23.500  1.00  0.00     0.048 A 
ATOM      9  O   UNL A   1      31.091  26.244  23.753  1.00  0.00    -0.455 OA
ATOM     10  C   UNL A   1      30.078  27.769  22.476  1.00  0.00     0.056 A 
BRANCH   7  11
ATOM     11  C   UNL A   1      29.481  25.584  25.409  1.00  0.00     0.174 C 
BRANCH  11  12
ATOM     12  N   UNL A   1      30.277  24.356  25.502  1.00  0.00    -0.202 NA
ATOM     13  H   UNL A   1      29.642  23.617  25.805  1.00  0.00     0.141 HD
BRANCH  12  14
ATOM     14  S   UNL A   1      31.604  24.293  26.513  1.00  0.00     0.258 S 
ATOM     15  O   UNL A   1      31.411  23.283  27.520  1.00  0.00    -0.205 OA
ATOM     16  O   UNL A   1      31.920  25.658  26.882  1.00  0.00    -0.205 OA
BRANCH  14  17
ATOM     17  C   UNL A   1      33.012  23.742  25.647  1.00  0.00     0.167 A 
ATOM     18  C   UNL A   1      35.195  23.508  25.254  1.00  0.00     0.106 A 
ATOM     19  N   UNL A   1      34.589  22.901  24.252  1.00  0.00    -0.240 NA
ATOM     20  N   UNL A   1      34.270  24.003  26.136  1.00  0.00    -0.332 N 
ATOM     21  C   UNL A   1      33.244  23.052  24.481  1.00  0.00     0.153 A 
ATOM     22  H   UNL A   1      34.472  24.469  26.979  1.00  0.00     0.169 HD
BRANCH  18  23
ATOM     23  C   UNL A   1      36.671  23.689  25.398  1.00  0.00     0.072 C 
ATOM     24  C   UNL A   1      37.502  22.457  25.076  1.00  0.00     0.012 C 
ENDBRANCH  18  23
ENDBRANCH  14  17
ENDBRANCH  12  14
ENDBRANCH  11  12
ENDBRANCH   7  11
ENDBRANCH   3   6
ENDBRANCH   1   2
BRANCH   1  25
ATOM     25  C   UNL A   1      33.898  28.895  24.579  1.00  0.00     0.042 C 
BRANCH  25  26
ATOM     26  C   UNL A   1      32.810  29.072  25.629  1.00  0.00     0.118 C 
BRANCH  26  27
ATOM     27  N   UNL A   1      32.548  30.473  25.922  1.00  0.00    -0.352 N 
ATOM     28  C   UNL A   1      33.086  31.298  26.876  1.00  0.00     0.251 C 
ATOM     29  H   UNL A   1      31.875  30.896  25.341  1.00  0.00     0.163 HD
ATOM     30  O   UNL A   1      32.554  32.387  27.080  1.00  0.00    -0.269 OA
BRANCH  28  31
ATOM     31  C   UNL A   1      34.285  30.904  27.651  1.00  0.00     0.039 A 
ATOM     32  C   UNL A   1      35.362  31.793  27.711  1.00  0.00     0.014 A 
ATOM     33  C   UNL A   1      34.392  29.647  28.256  1.00  0.00     0.014 A 
ATOM     34  C   UNL A   1      36.529  31.434  28.391  1.00  0.00     0.010 A 
ATOM     35  C   UNL A   1      35.520  29.326  29.008  1.00  0.00     0.010 A 
ATOM     36  C   UNL A   1      36.612  30.203  29.059  1.00  0.00    -0.014 A 
BRANCH  36  37
ATOM     37  C   UNL A   1      37.845  29.806  29.784  1.00  0.00     0.031 A 
ATOM     38  C   UNL A   1      38.117  30.340  31.168  1.00  0.00     0.074 A 
ATOM     39  C   UNL A   1      38.749  29.013  29.176  1.00  0.00     0.049 A 
ATOM     40  N   UNL A   1      39.145  30.124  31.947  1.00  0.00    -0.248 NA
ATOM     41  C   UNL A   1      37.118  31.258  31.740  1.00  0.00     0.031 C 
ATOM     42  C   UNL A   1      38.636  28.499  27.809  1.00  0.00     0.029 A 
ATOM     43  N   UNL A   1      39.948  28.517  29.620  1.00  0.00    -0.354 N 
ATOM     44  C   UNL A   1      38.936  30.905  33.079  1.00  0.00     0.074 A 
ATOM     45  C   UNL A   1      37.703  31.629  32.869  1.00  0.00     0.031 C 
ATOM     46  C   UNL A   1      39.717  27.752  27.530  1.00  0.00     0.029 A 
ATOM     47  C   UNL A   1      40.608  27.755  28.686  1.00  0.00     0.049 A 
ATOM     48  H   UNL A   1      40.302  28.691  30.522  1.00  0.00     0.167 HD
ATOM     49  C   UNL A   1      39.684  30.987  34.206  1.00  0.00     0.034 A 
ATOM     50  C   UNL A   1      41.799  27.127  28.754  1.00  0.00     0.034 A 
ATOM     51  C   UNL A   1      40.885  30.227  34.427  1.00  0.00     0.049 A 
ATOM     52  C   UNL A   1      42.579  27.185  30.039  1.00  0.00     0.074 A 
ATOM     53  C   UNL A   1      41.672  30.174  35.564  1.00  0.00     0.029 A 
ATOM     54  N   UNL A   1      41.473  29.388  33.493  1.00  0.00    -0.354 N 
ATOM     55  N   UNL A   1      42.287  27.807  31.155  1.00  0.00    -0.248 NA
ATOM     56  C   UNL A   1      43.832  26.419  30.089  1.00  0.00     0.031 C 
ATOM     57  C   UNL A   1      42.749  29.317  35.309  1.00  0.00     0.029 A 
ATOM     58  C   UNL A   1      42.615  28.814  34.024  1.00  0.00     0.049 A 
ATOM     59  H   UNL A   1      41.129  29.226  32.585  1.00  0.00     0.167 HD
ATOM     60  C   UNL A   1      43.295  27.474  32.052  1.00  0.00     0.074 A 
ATOM     61  C   UNL A   1      44.194  26.578  31.353  1.00  0.00     0.031 C 
ATOM     62  C   UNL A   1      43.468  27.882  33.334  1.00  0.00     0.034 A 
BRANCH  49  63
ATOM     63  C   UNL A   1      39.194  31.891  35.308  1.00  0.00     0.023 A 
ATOM     64  C   UNL A   1      38.216  31.424  36.210  1.00  0.00     0.012 A 
ATOM     65  C   UNL A   1      39.736  33.180  35.486  1.00  0.00     0.148 A 
ATOM     66  C   UNL A   1      37.756  32.236  37.245  1.00  0.00     0.002 A 
ATOM     67  C   UNL A   1      39.305  33.966  36.550  1.00  0.00     0.091 A 
ATOM     68  F   UNL A   1      40.649  33.617  34.608  1.00  0.00    -0.205 F 
ATOM     69  C   UNL A   1      38.307  33.502  37.421  1.00  0.00     0.022 A 
BRANCH  67  70
ATOM     70  S   UNL A   1      40.011  35.578  36.912  1.00  0.00     0.127 S 
ATOM     71  O   UNL A   1      39.647  36.335  35.715  1.00  0.00    -0.237 OA
ATOM     72  O   UNL A   1      39.286  35.966  38.122  1.00  0.00    -0.237 OA
ATOM     73  O   UNL A   1      41.438  35.358  37.103  1.00  0.00    -0.744 OA
ENDBRANCH  67  70
ENDBRANCH  49  63
BRANCH  50  74
ATOM     74  C   UNL A   1      42.283  26.323  27.597  1.00  0.00     0.023 A 
ATOM     75  C   UNL A   1      43.115  26.926  26.634  1.00  0.00     0.012 A 
ATOM     76  C   UNL A   1      41.951  24.962  27.460  1.00  0.00     0.148 A 
ATOM     77  C   UNL A   1      43.578  26.199  25.537  1.00  0.00     0.002 A 
ATOM     78  C   UNL A   1      42.461  24.227  26.395  1.00  0.00     0.091 A 
ATOM     79  F   UNL A   1      41.150  24.407  28.382  1.00  0.00    -0.205 F 
ATOM     80  C   UNL A   1      43.260  24.849  25.423  1.00  0.00     0.022 A 
BRANCH  78  81
ATOM     81  S   UNL A   1      42.214  22.455  26.243  1.00  0.00     0.127 S 
ATOM     82  O   UNL A   1      42.828  21.961  27.472  1.00  0.00    -0.237 OA
ATOM     83  O   UNL A   1      40.755  22.356  26.198  1.00  0.00    -0.237 OA
ATOM     84  O   UNL A   1      42.878  22.071  25.004  1.00  0.00    -0.744 OA
ENDBRANCH  78  81
ENDBRANCH  50  74
BRANCH  62  85
ATOM     85  C   UNL A   1      44.650  27.327  34.086  1.00  0.00     0.023 A 
ATOM     86  C   UNL A   1      45.884  28.007  34.060  1.00  0.00     0.012 A 
ATOM     87  C   UNL A   1      44.519  26.162  34.867  1.00  0.00     0.148 A 
ATOM     88  C   UNL A   1      46.981  27.512  34.765  1.00  0.00     0.002 A 
ATOM     89  C   UNL A   1      45.601  25.704  35.608  1.00  0.00     0.091 A 
ATOM     90  F   UNL A   1      43.343  25.517  34.863  1.00  0.00    -0.205 F 
ATOM     91  C   UNL A   1      46.836  26.368  35.547  1.00  0.00     0.022 A 
BRANCH  89  92
ATOM     92  S   UNL A   1      45.472  24.299  36.720  1.00  0.00     0.127 S 
ATOM     93  O   UNL A   1      46.851  24.162  37.187  1.00  0.00    -0.237 OA
ATOM     94  O   UNL A   1      44.531  24.785  37.730  1.00  0.00    -0.237 OA
ATOM     95  O   UNL A   1      44.970  23.196  35.911  1.00  0.00    -0.744 OA
ENDBRANCH  89  92
ENDBRANCH  62  85
ENDBRANCH  36  37
ENDBRANCH  28  31
ENDBRANCH  26  27
ENDBRANCH  25  26
ENDBRANCH   1  25
TORSDOF 18
ENDMDL
