MODEL 1
REMARK VINA RESULT:     -13.6      0.000      0.000
REMARK SMILES CC(C)(NC(=O)[C@]1(C)CCCO1)C(C)(C)C(=O)NCCCNC(=O)c1ccc(-c2c3nc(c(-c4cccc(S(=O)(=O)[O-])c4F)c4ccc([nH]4)c(-c4cccc(S(=O)(=O)[O-])c4F)c4nc(c(-c5cccc(S(=O)(=O)[O-])c5F)c5ccc2[nH]5)C=C4)C=C3)cc1
REMARK SMILES IDX 20 1 19 2 18 3 16 4 17 5 13 7 14 8 15 9 2 10 1 11 3 12 4 13
REMARK SMILES IDX 5 14 6 16 7 17 9 18 12 19 8 20 10 21 11 22 21 23 22 24 23 25
REMARK SMILES IDX 24 27 25 28 26 29 87 30 27 31 86 32 28 33 29 34 30 35 80 36
REMARK SMILES IDX 31 37 85 38 79 39 81 40 32 41 84 42 78 43 77 44 33 46 65 47
REMARK SMILES IDX 45 48 64 49 46 50 49 51 63 52 82 53 47 54 48 55 62 57 83 58
REMARK SMILES IDX 50 59 34 60 35 61 43 62 36 63 38 64 44 65 37 66 39 67 40 68
REMARK SMILES IDX 41 69 42 70 66 71 67 72 75 73 68 74 70 75 76 76 69 77 71 78
REMARK SMILES IDX 72 79 73 80 74 81 51 82 52 83 60 84 53 85 55 86 61 87 54 88
REMARK SMILES IDX 56 89 57 90 58 91 59 92
REMARK H PARENT 18 6 4 15 22 26 81 45 49 56
REMARK Flexibility Score: inf
ROOT
ATOM      1  C   UNL A   1      35.670  21.835  24.230  1.00  0.00     0.042 C 
ENDROOT
BRANCH   1   2
ATOM      2  C   UNL A   1      35.097  20.668  25.067  1.00  0.00     0.117 C 
BRANCH   2   3
ATOM      3  N   UNL A   1      34.531  21.052  26.624  1.00  0.00    -0.355 N 
ATOM      4  C   UNL A   1      33.098  22.223  27.339  1.00  0.00     0.228 C 
ATOM      5  O   UNL A   1      32.954  22.606  28.519  1.00  0.00    -0.274 OA
ATOM      6  H   UNL A   1      35.030  20.587  27.333  1.00  0.00     0.163 HD
BRANCH   4   7
ATOM      7  C   UNL A   1      31.703  22.881  26.216  1.00  0.00     0.066 C 
ATOM      8  C   UNL A   1      30.217  23.289  26.791  1.00  0.00     0.024 C 
ATOM      9  C   UNL A   1      31.320  21.944  25.034  1.00  0.00     0.024 C 
BRANCH   7  10
ATOM     10  C   UNL A   1      32.338  24.226  25.780  1.00  0.00     0.048 C 
ATOM     11  C   UNL A   1      32.274  24.460  24.245  1.00  0.00     0.035 C 
ATOM     12  C   UNL A   1      33.868  24.352  26.067  1.00  0.00     0.035 C 
BRANCH  10  13
ATOM     13  N   UNL A   1      31.516  25.264  26.465  1.00  0.00    -0.348 N 
ATOM     14  C   UNL A   1      31.698  26.638  26.588  1.00  0.00     0.252 C 
ATOM     15  H   UNL A   1      30.706  24.919  26.906  1.00  0.00     0.164 HD
ATOM     16  O   UNL A   1      30.891  27.202  27.345  1.00  0.00    -0.272 OA
BRANCH  14  17
ATOM     17  C   UNL A   1      32.835  27.606  25.721  1.00  0.00     0.143 C 
ATOM     18  C   UNL A   1      31.641  29.004  24.949  1.00  0.00     0.048 C 
ATOM     19  O   UNL A   1      33.818  26.834  24.225  1.00  0.00    -0.365 OA
ATOM     20  C   UNL A   1      33.803  28.194  26.771  1.00  0.00     0.053 C 
ATOM     21  C   UNL A   1      31.787  28.916  22.957  1.00  0.00     0.032 C 
ATOM     22  C   UNL A   1      33.102  27.482  22.511  1.00  0.00     0.162 C 
ENDBRANCH  14  17
ENDBRANCH  10  13
ENDBRANCH   7  10
ENDBRANCH   4   7
ENDBRANCH   2   3
ENDBRANCH   1   2
BRANCH   1  23
ATOM     23  C   UNL A   1      37.175  21.958  24.318  1.00  0.00     0.118 C 
BRANCH  23  24
ATOM     24  N   UNL A   1      37.700  20.873  25.123  1.00  0.00    -0.352 N 
ATOM     25  C   UNL A   1      38.905  20.856  25.778  1.00  0.00     0.251 C 
ATOM     26  H   UNL A   1      37.136  20.071  25.207  1.00  0.00     0.163 HD
ATOM     27  O   UNL A   1      39.461  19.787  26.005  1.00  0.00    -0.269 OA
BRANCH  25  28
ATOM     28  C   UNL A   1      39.517  22.138  26.190  1.00  0.00     0.039 A 
ATOM     29  C   UNL A   1      40.859  22.164  26.566  1.00  0.00     0.014 A 
ATOM     30  C   UNL A   1      38.755  23.312  26.208  1.00  0.00     0.014 A 
ATOM     31  C   UNL A   1      41.439  23.373  26.947  1.00  0.00     0.010 A 
ATOM     32  C   UNL A   1      39.365  24.530  26.472  1.00  0.00     0.010 A 
ATOM     33  C   UNL A   1      40.704  24.570  26.883  1.00  0.00    -0.014 A 
BRANCH  33  34
ATOM     34  C   UNL A   1      41.313  25.864  27.276  1.00  0.00     0.031 A 
ATOM     35  C   UNL A   1      42.734  26.176  26.893  1.00  0.00     0.074 A 
ATOM     36  C   UNL A   1      40.601  26.737  28.014  1.00  0.00     0.049 A 
ATOM     37  N   UNL A   1      43.441  27.245  27.156  1.00  0.00    -0.248 NA
ATOM     38  C   UNL A   1      43.471  25.146  26.138  1.00  0.00     0.031 C 
ATOM     39  C   UNL A   1      39.237  26.518  28.502  1.00  0.00     0.029 A 
ATOM     40  N   UNL A   1      40.931  27.979  28.496  1.00  0.00    -0.354 N 
ATOM     41  C   UNL A   1      44.705  27.003  26.631  1.00  0.00     0.074 A 
ATOM     42  C   UNL A   1      44.685  25.670  26.073  1.00  0.00     0.031 C 
ATOM     43  C   UNL A   1      38.839  27.597  29.191  1.00  0.00     0.029 A 
ATOM     44  C   UNL A   1      39.933  28.561  29.242  1.00  0.00     0.049 A 
ATOM     45  H   UNL A   1      41.798  28.410  28.324  1.00  0.00     0.167 HD
ATOM     46  C   UNL A   1      45.779  27.826  26.592  1.00  0.00     0.034 A 
ATOM     47  C   UNL A   1      39.909  29.731  29.907  1.00  0.00     0.034 A 
ATOM     48  C   UNL A   1      45.788  29.155  27.137  1.00  0.00     0.049 A 
ATOM     49  C   UNL A   1      41.117  30.623  29.855  1.00  0.00     0.074 A 
ATOM     50  C   UNL A   1      46.801  30.096  27.086  1.00  0.00     0.029 A 
ATOM     51  N   UNL A   1      44.747  29.724  27.854  1.00  0.00    -0.354 N 
ATOM     52  N   UNL A   1      42.258  30.434  29.237  1.00  0.00    -0.248 NA
ATOM     53  C   UNL A   1      41.026  31.906  30.567  1.00  0.00     0.031 C 
ATOM     54  C   UNL A   1      46.397  31.210  27.828  1.00  0.00     0.029 A 
ATOM     55  C   UNL A   1      45.103  30.993  28.276  1.00  0.00     0.049 A 
ATOM     56  H   UNL A   1      43.883  29.290  28.036  1.00  0.00     0.167 HD
ATOM     57  C   UNL A   1      43.003  31.587  29.450  1.00  0.00     0.074 A 
ATOM     58  C   UNL A   1      42.177  32.477  30.239  1.00  0.00     0.031 C 
ATOM     59  C   UNL A   1      44.259  31.882  29.033  1.00  0.00     0.034 A 
BRANCH  46  60
ATOM     60  C   UNL A   1      47.033  27.312  25.932  1.00  0.00     0.023 A 
ATOM     61  C   UNL A   1      47.249  27.524  24.555  1.00  0.00     0.012 A 
ATOM     62  C   UNL A   1      48.024  26.659  26.692  1.00  0.00     0.148 A 
ATOM     63  C   UNL A   1      48.407  27.056  23.936  1.00  0.00     0.002 A 
ATOM     64  C   UNL A   1      49.199  26.244  26.080  1.00  0.00     0.091 A 
ATOM     65  F   UNL A   1      47.794  26.450  27.996  1.00  0.00    -0.205 F 
ATOM     66  C   UNL A   1      49.386  26.427  24.700  1.00  0.00     0.022 A 
BRANCH  64  67
ATOM     67  S   UNL A   1      50.555  25.499  26.991  1.00  0.00     0.127 S 
ATOM     68  O   UNL A   1      51.500  25.196  25.917  1.00  0.00    -0.237 OA
ATOM     69  O   UNL A   1      50.964  26.591  27.874  1.00  0.00    -0.237 OA
ATOM     70  O   UNL A   1      49.996  24.340  27.672  1.00  0.00    -0.744 OA
ENDBRANCH  64  67
ENDBRANCH  46  60
BRANCH  47  71
ATOM     71  C   UNL A   1      38.690  30.135  30.662  1.00  0.00     0.023 A 
ATOM     72  C   UNL A   1      38.538  29.750  32.008  1.00  0.00     0.012 A 
ATOM     73  C   UNL A   1      37.685  30.908  30.050  1.00  0.00     0.148 A 
ATOM     74  C   UNL A   1      37.388  30.094  32.720  1.00  0.00     0.002 A 
ATOM     75  C   UNL A   1      36.571  31.298  30.780  1.00  0.00     0.091 A 
ATOM     76  F   UNL A   1      37.850  31.260  28.768  1.00  0.00    -0.205 F 
ATOM     77  C   UNL A   1      36.409  30.874  32.109  1.00  0.00     0.022 A 
BRANCH  75  78
ATOM     78  S   UNL A   1      35.323  32.403  30.115  1.00  0.00     0.127 S 
ATOM     79  O   UNL A   1      34.385  32.501  31.231  1.00  0.00    -0.237 OA
ATOM     80  O   UNL A   1      36.105  33.613  29.856  1.00  0.00    -0.237 OA
ATOM     81  O   UNL A   1      34.811  31.749  28.918  1.00  0.00    -0.744 OA
ENDBRANCH  75  78
ENDBRANCH  47  71
BRANCH  59  82
ATOM     82  C   UNL A   1      44.805  33.246  29.367  1.00  0.00     0.023 A 
ATOM     83  C   UNL A   1      45.545  33.451  30.549  1.00  0.00     0.012 A 
ATOM     84  C   UNL A   1      44.631  34.315  28.466  1.00  0.00     0.148 A 
ATOM     85  C   UNL A   1      46.067  34.710  30.847  1.00  0.00     0.002 A 
ATOM     86  C   UNL A   1      45.205  35.549  28.739  1.00  0.00     0.091 A 
ATOM     87  F   UNL A   1      43.912  34.102  27.354  1.00  0.00    -0.205 F 
ATOM     88  C   UNL A   1      45.908  35.754  29.937  1.00  0.00     0.022 A 
BRANCH  86  89
ATOM     89  S   UNL A   1      45.137  36.921  27.583  1.00  0.00     0.127 S 
ATOM     90  O   UNL A   1      45.828  36.364  26.420  1.00  0.00    -0.237 OA
ATOM     91  O   UNL A   1      43.696  37.103  27.408  1.00  0.00    -0.237 OA
ATOM     92  O   UNL A   1      45.817  38.033  28.233  1.00  0.00    -0.744 OA
ENDBRANCH  86  89
ENDBRANCH  59  82
ENDBRANCH  33  34
ENDBRANCH  25  28
ENDBRANCH  23  24
ENDBRANCH   1  23
TORSDOF 16
ENDMDL
MODEL 2
REMARK VINA RESULT:     -13.4      5.708      8.963
REMARK SMILES CC(C)(NC(=O)[C@]1(C)CCCO1)C(C)(C)C(=O)NCCCNC(=O)c1ccc(-c2c3nc(c(-c4cccc(S(=O)(=O)[O-])c4F)c4ccc([nH]4)c(-c4cccc(S(=O)(=O)[O-])c4F)c4nc(c(-c5cccc(S(=O)(=O)[O-])c5F)c5ccc2[nH]5)C=C4)C=C3)cc1
REMARK SMILES IDX 20 1 19 2 18 3 16 4 17 5 13 7 14 8 15 9 2 10 1 11 3 12 4 13
REMARK SMILES IDX 5 14 6 16 7 17 9 18 12 19 8 20 10 21 11 22 21 23 22 24 23 25
REMARK SMILES IDX 24 27 25 28 26 29 87 30 27 31 86 32 28 33 29 34 30 35 80 36
REMARK SMILES IDX 31 37 85 38 79 39 81 40 32 41 84 42 78 43 77 44 33 46 65 47
REMARK SMILES IDX 45 48 64 49 46 50 49 51 63 52 82 53 47 54 48 55 62 57 83 58
REMARK SMILES IDX 50 59 34 60 35 61 43 62 36 63 38 64 44 65 37 66 39 67 40 68
REMARK SMILES IDX 41 69 42 70 66 71 67 72 75 73 68 74 70 75 76 76 69 77 71 78
REMARK SMILES IDX 72 79 73 80 74 81 51 82 52 83 60 84 53 85 55 86 61 87 54 88
REMARK SMILES IDX 56 89 57 90 58 91 59 92
REMARK H PARENT 18 6 4 15 22 26 81 45 49 56
REMARK Flexibility Score: inf
ROOT
ATOM      1  C   UNL A   1      31.496  31.986  26.840  1.00  0.00     0.042 C 
ENDROOT
BRANCH   1   2
ATOM      2  C   UNL A   1      31.563  30.741  25.925  1.00  0.00     0.117 C 
BRANCH   2   3
ATOM      3  N   UNL A   1      31.787  29.241  26.696  1.00  0.00    -0.355 N 
ATOM      4  C   UNL A   1      31.368  27.357  26.234  1.00  0.00     0.228 C 
ATOM      5  O   UNL A   1      31.362  26.375  27.004  1.00  0.00    -0.274 OA
ATOM      6  H   UNL A   1      32.225  29.328  27.572  1.00  0.00     0.163 HD
BRANCH   4   7
ATOM      7  C   UNL A   1      30.945  26.846  24.445  1.00  0.00     0.066 C 
ATOM      8  C   UNL A   1      30.901  27.919  23.201  1.00  0.00     0.024 C 
ATOM      9  C   UNL A   1      29.569  26.138  24.278  1.00  0.00     0.024 C 
BRANCH   7  10
ATOM     10  C   UNL A   1      32.165  25.941  24.142  1.00  0.00     0.048 C 
ATOM     11  C   UNL A   1      33.523  26.612  24.495  1.00  0.00     0.035 C 
ATOM     12  C   UNL A   1      32.360  25.584  22.634  1.00  0.00     0.035 C 
BRANCH  10  13
ATOM     13  N   UNL A   1      31.971  24.749  25.016  1.00  0.00    -0.348 N 
ATOM     14  C   UNL A   1      32.331  23.418  24.839  1.00  0.00     0.252 C 
ATOM     15  H   UNL A   1      31.508  24.937  25.865  1.00  0.00     0.164 HD
ATOM     16  O   UNL A   1      31.899  22.643  25.707  1.00  0.00    -0.272 OA
BRANCH  14  17
ATOM     17  C   UNL A   1      33.384  22.792  23.622  1.00  0.00     0.143 C 
ATOM     18  C   UNL A   1      34.210  21.253  24.581  1.00  0.00     0.048 C 
ATOM     19  O   UNL A   1      34.857  23.886  22.963  1.00  0.00    -0.365 OA
ATOM     20  C   UNL A   1      32.482  22.325  22.457  1.00  0.00     0.053 C 
ATOM     21  C   UNL A   1      36.186  21.551  24.652  1.00  0.00     0.032 C 
ATOM     22  C   UNL A   1      36.571  23.262  23.699  1.00  0.00     0.162 C 
ENDBRANCH  14  17
ENDBRANCH  10  13
ENDBRANCH   7  10
ENDBRANCH   4   7
ENDBRANCH   2   3
ENDBRANCH   1   2
BRANCH   1  23
ATOM     23  C   UNL A   1      32.855  32.536  27.210  1.00  0.00     0.118 C 
BRANCH  23  24
ATOM     24  N   UNL A   1      32.737  33.950  27.504  1.00  0.00    -0.352 N 
ATOM     25  C   UNL A   1      33.194  34.588  28.631  1.00  0.00     0.251 C 
ATOM     26  H   UNL A   1      32.285  34.507  26.831  1.00  0.00     0.163 HD
ATOM     27  O   UNL A   1      32.652  35.618  29.011  1.00  0.00    -0.269 OA
BRANCH  25  28
ATOM     28  C   UNL A   1      34.336  34.006  29.371  1.00  0.00     0.039 A 
ATOM     29  C   UNL A   1      34.091  33.073  30.377  1.00  0.00     0.014 A 
ATOM     30  C   UNL A   1      35.646  34.394  29.069  1.00  0.00     0.014 A 
ATOM     31  C   UNL A   1      35.166  32.519  31.070  1.00  0.00     0.010 A 
ATOM     32  C   UNL A   1      36.716  33.752  29.677  1.00  0.00     0.010 A 
ATOM     33  C   UNL A   1      36.488  32.837  30.713  1.00  0.00    -0.014 A 
BRANCH  33  34
ATOM     34  C   UNL A   1      37.640  32.245  31.436  1.00  0.00     0.031 A 
ATOM     35  C   UNL A   1      38.428  31.124  30.812  1.00  0.00     0.074 A 
ATOM     36  C   UNL A   1      37.949  32.687  32.670  1.00  0.00     0.049 A 
ATOM     37  N   UNL A   1      39.455  30.474  31.294  1.00  0.00    -0.248 NA
ATOM     38  C   UNL A   1      37.994  30.653  29.485  1.00  0.00     0.031 C 
ATOM     39  C   UNL A   1      37.219  33.723  33.405  1.00  0.00     0.029 A 
ATOM     40  N   UNL A   1      38.949  32.311  33.531  1.00  0.00    -0.354 N 
ATOM     41  C   UNL A   1      39.766  29.502  30.351  1.00  0.00     0.074 A 
ATOM     42  C   UNL A   1      38.794  29.616  29.288  1.00  0.00     0.031 C 
ATOM     43  C   UNL A   1      37.808  33.916  34.594  1.00  0.00     0.029 A 
ATOM     44  C   UNL A   1      38.923  32.985  34.729  1.00  0.00     0.049 A 
ATOM     45  H   UNL A   1      39.619  31.625  33.311  1.00  0.00     0.167 HD
ATOM     46  C   UNL A   1      40.785  28.611  30.354  1.00  0.00     0.034 A 
ATOM     47  C   UNL A   1      39.698  32.853  35.822  1.00  0.00     0.034 A 
ATOM     48  C   UNL A   1      41.756  28.513  31.408  1.00  0.00     0.049 A 
ATOM     49  C   UNL A   1      40.818  31.851  35.805  1.00  0.00     0.074 A 
ATOM     50  C   UNL A   1      42.870  27.693  31.474  1.00  0.00     0.029 A 
ATOM     51  N   UNL A   1      41.719  29.235  32.590  1.00  0.00    -0.354 N 
ATOM     52  N   UNL A   1      41.180  31.034  34.845  1.00  0.00    -0.248 NA
ATOM     53  C   UNL A   1      41.658  31.774  37.007  1.00  0.00     0.031 C 
ATOM     54  C   UNL A   1      43.468  27.874  32.725  1.00  0.00     0.029 A 
ATOM     55  C   UNL A   1      42.773  28.861  33.406  1.00  0.00     0.049 A 
ATOM     56  H   UNL A   1      41.043  29.913  32.816  1.00  0.00     0.167 HD
ATOM     57  C   UNL A   1      42.311  30.376  35.312  1.00  0.00     0.074 A 
ATOM     58  C   UNL A   1      42.585  30.903  36.632  1.00  0.00     0.031 C 
ATOM     59  C   UNL A   1      43.054  29.418  34.704  1.00  0.00     0.034 A 
BRANCH  46  60
ATOM     60  C   UNL A   1      40.904  27.676  29.178  1.00  0.00     0.023 A 
ATOM     61  C   UNL A   1      40.137  26.493  29.131  1.00  0.00     0.012 A 
ATOM     62  C   UNL A   1      41.743  27.997  28.093  1.00  0.00     0.148 A 
ATOM     63  C   UNL A   1      40.237  25.623  28.046  1.00  0.00     0.002 A 
ATOM     64  C   UNL A   1      41.796  27.153  26.991  1.00  0.00     0.091 A 
ATOM     65  F   UNL A   1      42.478  29.115  28.162  1.00  0.00    -0.205 F 
ATOM     66  C   UNL A   1      41.057  25.960  26.972  1.00  0.00     0.022 A 
BRANCH  64  67
ATOM     67  S   UNL A   1      42.757  27.536  25.524  1.00  0.00     0.127 S 
ATOM     68  O   UNL A   1      42.078  28.735  25.031  1.00  0.00    -0.237 OA
ATOM     69  O   UNL A   1      44.086  27.775  26.085  1.00  0.00    -0.237 OA
ATOM     70  O   UNL A   1      42.660  26.369  24.659  1.00  0.00    -0.744 OA
ENDBRANCH  64  67
ENDBRANCH  46  60
BRANCH  47  71
ATOM     71  C   UNL A   1      39.454  33.708  37.017  1.00  0.00     0.023 A 
ATOM     72  C   UNL A   1      39.899  35.045  37.027  1.00  0.00     0.012 A 
ATOM     73  C   UNL A   1      38.774  33.202  38.141  1.00  0.00     0.148 A 
ATOM     74  C   UNL A   1      39.706  35.849  38.151  1.00  0.00     0.002 A 
ATOM     75  C   UNL A   1      38.531  34.024  39.232  1.00  0.00     0.091 A 
ATOM     76  F   UNL A   1      38.362  31.927  38.110  1.00  0.00    -0.205 F 
ATOM     77  C   UNL A   1      39.015  35.342  39.249  1.00  0.00     0.022 A 
BRANCH  75  78
ATOM     78  S   UNL A   1      37.544  33.496  40.636  1.00  0.00     0.127 S 
ATOM     79  O   UNL A   1      38.395  32.468  41.229  1.00  0.00    -0.237 OA
ATOM     80  O   UNL A   1      37.440  34.734  41.408  1.00  0.00    -0.237 OA
ATOM     81  O   UNL A   1      36.283  33.025  40.079  1.00  0.00    -0.744 OA
ENDBRANCH  75  78
ENDBRANCH  47  71
BRANCH  59  82
ATOM     82  C   UNL A   1      44.274  28.914  35.430  1.00  0.00     0.023 A 
ATOM     83  C   UNL A   1      45.527  29.530  35.239  1.00  0.00     0.012 A 
ATOM     84  C   UNL A   1      44.157  27.858  36.356  1.00  0.00     0.148 A 
ATOM     85  C   UNL A   1      46.651  29.076  35.928  1.00  0.00     0.002 A 
ATOM     86  C   UNL A   1      45.267  27.451  37.083  1.00  0.00     0.091 A 
ATOM     87  F   UNL A   1      42.959  27.277  36.513  1.00  0.00    -0.205 F 
ATOM     88  C   UNL A   1      46.519  28.046  36.857  1.00  0.00     0.022 A 
BRANCH  86  89
ATOM     89  S   UNL A   1      45.173  26.203  38.370  1.00  0.00     0.127 S 
ATOM     90  O   UNL A   1      46.560  26.147  38.832  1.00  0.00    -0.237 OA
ATOM     91  O   UNL A   1      44.237  26.809  39.316  1.00  0.00    -0.237 OA
ATOM     92  O   UNL A   1      44.686  24.990  37.725  1.00  0.00    -0.744 OA
ENDBRANCH  86  89
ENDBRANCH  59  82
ENDBRANCH  33  34
ENDBRANCH  25  28
ENDBRANCH  23  24
ENDBRANCH   1  23
TORSDOF 16
ENDMDL
MODEL 3
REMARK VINA RESULT:     -13.3      4.725      9.540
REMARK SMILES CC(C)(NC(=O)[C@]1(C)CCCO1)C(C)(C)C(=O)NCCCNC(=O)c1ccc(-c2c3nc(c(-c4cccc(S(=O)(=O)[O-])c4F)c4ccc([nH]4)c(-c4cccc(S(=O)(=O)[O-])c4F)c4nc(c(-c5cccc(S(=O)(=O)[O-])c5F)c5ccc2[nH]5)C=C4)C=C3)cc1
REMARK SMILES IDX 20 1 19 2 18 3 16 4 17 5 13 7 14 8 15 9 2 10 1 11 3 12 4 13
REMARK SMILES IDX 5 14 6 16 7 17 9 18 12 19 8 20 10 21 11 22 21 23 22 24 23 25
REMARK SMILES IDX 24 27 25 28 26 29 87 30 27 31 86 32 28 33 29 34 30 35 80 36
REMARK SMILES IDX 31 37 85 38 79 39 81 40 32 41 84 42 78 43 77 44 33 46 65 47
REMARK SMILES IDX 45 48 64 49 46 50 49 51 63 52 82 53 47 54 48 55 62 57 83 58
REMARK SMILES IDX 50 59 34 60 35 61 43 62 36 63 38 64 44 65 37 66 39 67 40 68
REMARK SMILES IDX 41 69 42 70 66 71 67 72 75 73 68 74 70 75 76 76 69 77 71 78
REMARK SMILES IDX 72 79 73 80 74 81 51 82 52 83 60 84 53 85 55 86 61 87 54 88
REMARK SMILES IDX 56 89 57 90 58 91 59 92
REMARK H PARENT 18 6 4 15 22 26 81 45 49 56
REMARK Flexibility Score: inf
ROOT
ATOM      1  C   UNL A   1      33.664  28.160  27.297  1.00  0.00     0.042 C 
ENDROOT
BRANCH   1   2
ATOM      2  C   UNL A   1      32.158  28.434  27.519  1.00  0.00     0.117 C 
BRANCH   2   3
ATOM      3  N   UNL A   1      31.076  27.268  26.917  1.00  0.00    -0.355 N 
ATOM      4  C   UNL A   1      30.495  26.706  25.105  1.00  0.00     0.228 C 
ATOM      5  O   UNL A   1      29.504  26.004  24.814  1.00  0.00    -0.274 OA
ATOM      6  H   UNL A   1      30.637  26.754  27.632  1.00  0.00     0.163 HD
BRANCH   4   7
ATOM      7  C   UNL A   1      31.487  27.194  23.550  1.00  0.00     0.066 C 
ATOM      8  C   UNL A   1      32.641  28.365  23.563  1.00  0.00     0.024 C 
ATOM      9  C   UNL A   1      30.621  27.640  22.337  1.00  0.00     0.024 C 
BRANCH   7  10
ATOM     10  C   UNL A   1      32.268  25.875  23.321  1.00  0.00     0.048 C 
ATOM     11  C   UNL A   1      33.565  26.071  22.487  1.00  0.00     0.035 C 
ATOM     12  C   UNL A   1      31.505  24.796  22.489  1.00  0.00     0.035 C 
BRANCH  10  13
ATOM     13  N   UNL A   1      32.636  25.419  24.692  1.00  0.00    -0.348 N 
ATOM     14  C   UNL A   1      33.107  24.193  25.151  1.00  0.00     0.252 C 
ATOM     15  H   UNL A   1      32.527  26.102  25.393  1.00  0.00     0.164 HD
ATOM     16  O   UNL A   1      33.191  24.099  26.387  1.00  0.00    -0.272 OA
BRANCH  14  17
ATOM     17  C   UNL A   1      33.673  22.881  24.181  1.00  0.00     0.143 C 
ATOM     18  C   UNL A   1      34.841  21.919  25.478  1.00  0.00     0.048 C 
ATOM     19  O   UNL A   1      34.772  23.243  22.612  1.00  0.00    -0.365 OA
ATOM     20  C   UNL A   1      32.429  22.047  23.801  1.00  0.00     0.053 C 
ATOM     21  C   UNL A   1      36.699  21.888  24.738  1.00  0.00     0.032 C 
ATOM     22  C   UNL A   1      36.657  22.804  22.966  1.00  0.00     0.162 C 
ENDBRANCH  14  17
ENDBRANCH  10  13
ENDBRANCH   7  10
ENDBRANCH   4   7
ENDBRANCH   2   3
ENDBRANCH   1   2
BRANCH   1  23
ATOM     23  C   UNL A   1      34.337  29.182  26.407  1.00  0.00     0.118 C 
BRANCH  23  24
ATOM     24  N   UNL A   1      34.109  30.510  26.942  1.00  0.00    -0.352 N 
ATOM     25  C   UNL A   1      34.681  31.041  28.071  1.00  0.00     0.251 C 
ATOM     26  H   UNL A   1      33.484  31.086  26.447  1.00  0.00     0.163 HD
ATOM     27  O   UNL A   1      34.098  31.921  28.693  1.00  0.00    -0.269 OA
BRANCH  25  28
ATOM     28  C   UNL A   1      35.995  30.529  28.518  1.00  0.00     0.039 A 
ATOM     29  C   UNL A   1      36.058  29.701  29.638  1.00  0.00     0.014 A 
ATOM     30  C   UNL A   1      37.163  30.878  27.830  1.00  0.00     0.014 A 
ATOM     31  C   UNL A   1      37.295  29.212  30.056  1.00  0.00     0.010 A 
ATOM     32  C   UNL A   1      38.372  30.294  28.177  1.00  0.00     0.010 A 
ATOM     33  C   UNL A   1      38.460  29.486  29.318  1.00  0.00    -0.014 A 
BRANCH  33  34
ATOM     34  C   UNL A   1      39.779  28.963  29.747  1.00  0.00     0.031 A 
ATOM     35  C   UNL A   1      40.526  29.629  30.871  1.00  0.00     0.074 A 
ATOM     36  C   UNL A   1      40.323  27.917  29.098  1.00  0.00     0.049 A 
ATOM     37  N   UNL A   1      41.693  29.325  31.378  1.00  0.00    -0.248 NA
ATOM     38  C   UNL A   1      39.895  30.806  31.495  1.00  0.00     0.031 C 
ATOM     39  C   UNL A   1      39.725  27.229  27.951  1.00  0.00     0.029 A 
ATOM     40  N   UNL A   1      41.509  27.256  29.298  1.00  0.00    -0.354 N 
ATOM     41  C   UNL A   1      41.948  30.285  32.349  1.00  0.00     0.074 A 
ATOM     42  C   UNL A   1      40.838  31.210  32.333  1.00  0.00     0.031 C 
ATOM     43  C   UNL A   1      40.534  26.231  27.565  1.00  0.00     0.029 A 
ATOM     44  C   UNL A   1      41.730  26.239  28.400  1.00  0.00     0.049 A 
ATOM     45  H   UNL A   1      42.141  27.489  30.016  1.00  0.00     0.167 HD
ATOM     46  C   UNL A   1      42.999  30.377  33.197  1.00  0.00     0.034 A 
ATOM     47  C   UNL A   1      42.787  25.418  28.253  1.00  0.00     0.034 A 
ATOM     48  C   UNL A   1      44.093  29.446  33.216  1.00  0.00     0.049 A 
ATOM     49  C   UNL A   1      43.946  25.544  29.202  1.00  0.00     0.074 A 
ATOM     50  C   UNL A   1      45.172  29.407  34.083  1.00  0.00     0.029 A 
ATOM     51  N   UNL A   1      44.266  28.408  32.314  1.00  0.00    -0.354 N 
ATOM     52  N   UNL A   1      44.106  26.375  30.203  1.00  0.00    -0.248 NA
ATOM     53  C   UNL A   1      45.057  24.599  29.023  1.00  0.00     0.031 C 
ATOM     54  C   UNL A   1      46.028  28.385  33.665  1.00  0.00     0.029 A 
ATOM     55  C   UNL A   1      45.447  27.739  32.585  1.00  0.00     0.049 A 
ATOM     56  H   UNL A   1      43.642  28.179  31.589  1.00  0.00     0.167 HD
ATOM     57  C   UNL A   1      45.313  26.029  30.797  1.00  0.00     0.074 A 
ATOM     58  C   UNL A   1      45.833  24.900  30.054  1.00  0.00     0.031 C 
ATOM     59  C   UNL A   1      45.937  26.595  31.859  1.00  0.00     0.034 A 
BRANCH  46  60
ATOM     60  C   UNL A   1      43.012  31.520  34.178  1.00  0.00     0.023 A 
ATOM     61  C   UNL A   1      43.616  32.747  33.832  1.00  0.00     0.012 A 
ATOM     62  C   UNL A   1      42.380  31.393  35.431  1.00  0.00     0.148 A 
ATOM     63  C   UNL A   1      43.630  33.812  34.731  1.00  0.00     0.002 A 
ATOM     64  C   UNL A   1      42.349  32.476  36.299  1.00  0.00     0.091 A 
ATOM     65  F   UNL A   1      41.827  30.215  35.751  1.00  0.00    -0.205 F 
ATOM     66  C   UNL A   1      42.987  33.680  35.958  1.00  0.00     0.022 A 
BRANCH  64  67
ATOM     67  S   UNL A   1      41.478  32.435  37.869  1.00  0.00     0.127 S 
ATOM     68  O   UNL A   1      42.319  31.527  38.649  1.00  0.00    -0.237 OA
ATOM     69  O   UNL A   1      41.541  33.835  38.288  1.00  0.00    -0.237 OA
ATOM     70  O   UNL A   1      40.139  31.945  37.576  1.00  0.00    -0.744 OA
ENDBRANCH  64  67
ENDBRANCH  46  60
BRANCH  47  71
ATOM     71  C   UNL A   1      42.788  24.389  27.176  1.00  0.00     0.023 A 
ATOM     72  C   UNL A   1      43.454  24.643  25.962  1.00  0.00     0.012 A 
ATOM     73  C   UNL A   1      42.135  23.154  27.357  1.00  0.00     0.148 A 
ATOM     74  C   UNL A   1      43.437  23.702  24.931  1.00  0.00     0.002 A 
ATOM     75  C   UNL A   1      42.172  22.198  26.352  1.00  0.00     0.091 A 
ATOM     76  F   UNL A   1      41.505  22.936  28.519  1.00  0.00    -0.205 F 
ATOM     77  C   UNL A   1      42.804  22.477  25.130  1.00  0.00     0.022 A 
BRANCH  75  78
ATOM     78  S   UNL A   1      41.492  20.550  26.565  1.00  0.00     0.127 S 
ATOM     79  O   UNL A   1      42.059  20.158  27.853  1.00  0.00    -0.237 OA
ATOM     80  O   UNL A   1      40.055  20.821  26.579  1.00  0.00    -0.237 OA
ATOM     81  O   UNL A   1      41.949  19.780  25.416  1.00  0.00    -0.744 OA
ENDBRANCH  75  78
ENDBRANCH  47  71
BRANCH  59  82
ATOM     82  C   UNL A   1      47.227  25.972  32.327  1.00  0.00     0.023 A 
ATOM     83  C   UNL A   1      48.457  26.360  31.760  1.00  0.00     0.012 A 
ATOM     84  C   UNL A   1      47.216  25.039  33.383  1.00  0.00     0.148 A 
ATOM     85  C   UNL A   1      49.652  25.797  32.208  1.00  0.00     0.002 A 
ATOM     86  C   UNL A   1      48.413  24.528  33.865  1.00  0.00     0.091 A 
ATOM     87  F   UNL A   1      46.034  24.673  33.900  1.00  0.00    -0.205 F 
ATOM     88  C   UNL A   1      49.630  24.892  33.268  1.00  0.00     0.022 A 
BRANCH  86  89
ATOM     89  S   UNL A   1      48.491  23.436  35.288  1.00  0.00     0.127 S 
ATOM     90  O   UNL A   1      47.720  24.184  36.280  1.00  0.00    -0.237 OA
ATOM     91  O   UNL A   1      47.833  22.230  34.785  1.00  0.00    -0.237 OA
ATOM     92  O   UNL A   1      49.906  23.272  35.597  1.00  0.00    -0.744 OA
ENDBRANCH  86  89
ENDBRANCH  59  82
ENDBRANCH  33  34
ENDBRANCH  25  28
ENDBRANCH  23  24
ENDBRANCH   1  23
TORSDOF 16
ENDMDL
