MODEL 1
REMARK VINA RESULT:     -12.1      0.000      0.000
REMARK SMILES Cc1cccc([C@@H](CC(=O)NCCCNC(=O)c2ccc(-c3c4nc(c(-c5cccc(S(=O)(=O)[O-])c5F)c5ccc([nH]5)c(-c5cccc(S(=O)(=O)[O-])c5F)c5nc(c(-c6cccc(S(=O)(=O)[O-])c6F)c6ccc3[nH]6)C=C5)C=C4)cc2)NC(=O)OC(C)(C)C)c1
REMARK SMILES IDX 12 1 11 2 9 3 10 4 8 6 7 7 6 8 1 9 2 10 3 11 89 12 4 13 5 14
REMARK SMILES IDX 81 15 82 16 83 18 84 19 85 20 86 21 87 22 88 23 13 24 14 25
REMARK SMILES IDX 15 26 16 27 17 29 18 30 19 31 80 32 20 33 79 34 21 35 22 36
REMARK SMILES IDX 23 37 73 38 24 39 78 40 72 41 74 42 25 43 77 44 71 45 70 46
REMARK SMILES IDX 26 48 58 49 38 50 57 51 39 52 42 53 56 54 75 55 40 56 41 57
REMARK SMILES IDX 55 59 76 60 43 61 27 62 28 63 36 64 29 65 31 66 37 67 30 68
REMARK SMILES IDX 32 69 33 70 34 71 35 72 59 73 60 74 68 75 61 76 63 77 69 78
REMARK SMILES IDX 62 79 64 80 65 81 66 82 67 83 44 84 45 85 53 86 46 87 48 88
REMARK SMILES IDX 54 89 47 90 49 91 50 92 51 93 52 94
REMARK H PARENT 11 5 81 17 15 28 74 47 42 58
REMARK Flexibility Score: inf
ROOT
ATOM      1  C   UNL A   1      37.448  21.740  25.649  1.00  0.00     0.117 C 
ENDROOT
BRANCH   1   2
ATOM      2  N   UNL A   1      37.469  22.188  24.268  1.00  0.00    -0.356 N 
ATOM      3  C   UNL A   1      36.538  22.949  23.623  1.00  0.00     0.222 C 
ATOM      4  O   UNL A   1      36.551  22.965  22.390  1.00  0.00    -0.275 OA
ATOM      5  H   UNL A   1      38.247  21.910  23.734  1.00  0.00     0.163 HD
BRANCH   3   6
ATOM      6  C   UNL A   1      35.560  23.811  24.403  1.00  0.00     0.130 C 
BRANCH   6   7
ATOM      7  C   UNL A   1      34.132  23.925  23.833  1.00  0.00     0.125 C 
BRANCH   7   8
ATOM      8  C   UNL A   1      33.402  22.601  23.620  1.00  0.00    -0.025 A 
ATOM      9  C   UNL A   1      32.908  19.282  25.477  1.00  0.00     0.044 C 
ATOM     10  C   UNL A   1      32.848  20.347  24.422  1.00  0.00    -0.051 A 
ATOM     11  C   UNL A   1      32.189  20.085  23.219  1.00  0.00     0.003 A 
ATOM     12  C   UNL A   1      33.474  21.592  24.603  1.00  0.00     0.009 A 
ATOM     13  C   UNL A   1      32.058  21.086  22.264  1.00  0.00     0.001 A 
ATOM     14  C   UNL A   1      32.638  22.340  22.470  1.00  0.00     0.006 A 
ENDBRANCH   7   8
BRANCH   7  15
ATOM     15  N   UNL A   1      34.066  24.784  22.665  1.00  0.00    -0.314 N 
ATOM     16  C   UNL A   1      33.465  26.003  22.575  1.00  0.00     0.408 C 
ATOM     17  H   UNL A   1      34.502  24.448  21.848  1.00  0.00     0.167 HD
ATOM     18  O   UNL A   1      33.346  26.579  21.514  1.00  0.00    -0.225 OA
BRANCH  16  19
ATOM     19  O   UNL A   1      33.071  26.470  23.786  1.00  0.00    -0.444 OA
BRANCH  19  20
ATOM     20  C   UNL A   1      31.851  27.237  23.910  1.00  0.00     0.106 C 
ATOM     21  C   UNL A   1      30.792  26.785  22.896  1.00  0.00     0.056 C 
ATOM     22  C   UNL A   1      31.333  27.200  25.350  1.00  0.00     0.056 C 
ATOM     23  C   UNL A   1      32.263  28.677  23.568  1.00  0.00     0.056 C 
ENDBRANCH  19  20
ENDBRANCH  16  19
ENDBRANCH   7  15
ENDBRANCH   6   7
ENDBRANCH   3   6
ENDBRANCH   1   2
BRANCH   1  24
ATOM     24  C   UNL A   1      38.405  22.580  26.473  1.00  0.00     0.042 C 
BRANCH  24  25
ATOM     25  C   UNL A   1      39.882  22.303  26.236  1.00  0.00     0.118 C 
BRANCH  25  26
ATOM     26  N   UNL A   1      40.628  22.739  27.419  1.00  0.00    -0.352 N 
ATOM     27  C   UNL A   1      40.949  24.000  27.892  1.00  0.00     0.251 C 
ATOM     28  H   UNL A   1      40.961  22.001  27.980  1.00  0.00     0.163 HD
ATOM     29  O   UNL A   1      41.935  24.171  28.601  1.00  0.00    -0.269 OA
BRANCH  27  30
ATOM     30  C   UNL A   1      39.969  25.089  27.694  1.00  0.00     0.039 A 
ATOM     31  C   UNL A   1      40.392  26.021  26.740  1.00  0.00     0.014 A 
ATOM     32  C   UNL A   1      39.194  25.469  28.779  1.00  0.00     0.014 A 
ATOM     33  C   UNL A   1      40.455  27.352  27.105  1.00  0.00     0.010 A 
ATOM     34  C   UNL A   1      39.279  26.788  29.157  1.00  0.00     0.010 A 
ATOM     35  C   UNL A   1      40.041  27.677  28.385  1.00  0.00    -0.014 A 
BRANCH  35  36
ATOM     36  C   UNL A   1      40.255  28.962  29.006  1.00  0.00     0.031 A 
ATOM     37  C   UNL A   1      39.237  29.981  28.716  1.00  0.00     0.074 A 
ATOM     38  C   UNL A   1      41.167  29.079  29.999  1.00  0.00     0.049 A 
ATOM     39  N   UNL A   1      39.307  31.201  29.099  1.00  0.00    -0.248 NA
ATOM     40  C   UNL A   1      38.044  29.687  27.924  1.00  0.00     0.031 C 
ATOM     41  C   UNL A   1      41.170  30.078  31.060  1.00  0.00     0.029 A 
ATOM     42  N   UNL A   1      42.382  28.402  30.188  1.00  0.00    -0.354 N 
ATOM     43  C   UNL A   1      38.060  31.756  28.902  1.00  0.00     0.074 A 
ATOM     44  C   UNL A   1      37.367  30.829  28.049  1.00  0.00     0.031 C 
ATOM     45  C   UNL A   1      42.399  30.150  31.592  1.00  0.00     0.029 A 
ATOM     46  C   UNL A   1      43.267  29.351  30.747  1.00  0.00     0.049 A 
ATOM     47  H   UNL A   1      42.579  27.462  29.974  1.00  0.00     0.167 HD
ATOM     48  C   UNL A   1      37.739  32.857  29.635  1.00  0.00     0.034 A 
ATOM     49  C   UNL A   1      44.373  29.835  30.097  1.00  0.00     0.034 A 
ATOM     50  C   UNL A   1      38.940  33.358  30.334  1.00  0.00     0.049 A 
ATOM     51  C   UNL A   1      44.287  31.332  29.791  1.00  0.00     0.074 A 
ATOM     52  C   UNL A   1      39.447  33.240  31.616  1.00  0.00     0.029 A 
ATOM     53  N   UNL A   1      39.992  33.805  29.556  1.00  0.00    -0.354 N 
ATOM     54  N   UNL A   1      43.291  32.102  30.141  1.00  0.00    -0.248 NA
ATOM     55  C   UNL A   1      45.280  32.061  28.999  1.00  0.00     0.031 C 
ATOM     56  C   UNL A   1      40.843  33.559  31.567  1.00  0.00     0.029 A 
ATOM     57  C   UNL A   1      41.173  33.910  30.268  1.00  0.00     0.049 A 
ATOM     58  H   UNL A   1      39.909  34.027  28.600  1.00  0.00     0.167 HD
ATOM     59  C   UNL A   1      43.392  33.319  29.515  1.00  0.00     0.074 A 
ATOM     60  C   UNL A   1      44.680  33.255  28.839  1.00  0.00     0.031 C 
ATOM     61  C   UNL A   1      42.396  34.264  29.546  1.00  0.00     0.034 A 
BRANCH  48  62
ATOM     62  C   UNL A   1      36.340  33.379  29.912  1.00  0.00     0.023 A 
ATOM     63  C   UNL A   1      35.619  33.848  28.790  1.00  0.00     0.012 A 
ATOM     64  C   UNL A   1      35.690  33.529  31.163  1.00  0.00     0.148 A 
ATOM     65  C   UNL A   1      34.373  34.475  28.898  1.00  0.00     0.002 A 
ATOM     66  C   UNL A   1      34.445  34.159  31.275  1.00  0.00     0.091 A 
ATOM     67  F   UNL A   1      36.247  33.061  32.276  1.00  0.00    -0.205 F 
ATOM     68  C   UNL A   1      33.790  34.642  30.143  1.00  0.00     0.022 A 
BRANCH  66  69
ATOM     69  S   UNL A   1      33.619  34.428  32.859  1.00  0.00     0.127 S 
ATOM     70  O   UNL A   1      32.453  35.219  32.464  1.00  0.00    -0.237 OA
ATOM     71  O   UNL A   1      33.311  33.064  33.285  1.00  0.00    -0.237 OA
ATOM     72  O   UNL A   1      34.567  35.137  33.709  1.00  0.00    -0.744 OA
ENDBRANCH  66  69
ENDBRANCH  48  62
BRANCH  49  73
ATOM     73  C   UNL A   1      45.028  28.802  29.237  1.00  0.00     0.023 A 
ATOM     74  C   UNL A   1      45.477  27.631  29.897  1.00  0.00     0.012 A 
ATOM     75  C   UNL A   1      44.779  28.752  27.857  1.00  0.00     0.148 A 
ATOM     76  C   UNL A   1      45.465  26.399  29.244  1.00  0.00     0.002 A 
ATOM     77  C   UNL A   1      44.771  27.518  27.212  1.00  0.00     0.091 A 
ATOM     78  F   UNL A   1      44.466  29.887  27.219  1.00  0.00    -0.205 F 
ATOM     79  C   UNL A   1      45.058  26.337  27.917  1.00  0.00     0.022 A 
BRANCH  77  80
ATOM     80  S   UNL A   1      44.239  27.351  25.505  1.00  0.00     0.127 S 
ATOM     81  O   UNL A   1      43.913  25.930  25.438  1.00  0.00    -0.237 OA
ATOM     82  O   UNL A   1      43.085  28.246  25.456  1.00  0.00    -0.237 OA
ATOM     83  O   UNL A   1      45.376  27.790  24.711  1.00  0.00    -0.744 OA
ENDBRANCH  77  80
ENDBRANCH  49  73
BRANCH  61  84
ATOM     84  C   UNL A   1      42.508  35.630  28.879  1.00  0.00     0.023 A 
ATOM     85  C   UNL A   1      42.120  35.802  27.537  1.00  0.00     0.012 A 
ATOM     86  C   UNL A   1      43.127  36.746  29.505  1.00  0.00     0.148 A 
ATOM     87  C   UNL A   1      42.265  37.029  26.877  1.00  0.00     0.002 A 
ATOM     88  C   UNL A   1      43.377  37.924  28.809  1.00  0.00     0.091 A 
ATOM     89  F   UNL A   1      43.434  36.705  30.805  1.00  0.00    -0.205 F 
ATOM     90  C   UNL A   1      42.910  38.085  27.506  1.00  0.00     0.022 A 
BRANCH  88  91
ATOM     91  S   UNL A   1      44.400  39.243  29.486  1.00  0.00     0.127 S 
ATOM     92  O   UNL A   1      44.544  40.127  28.328  1.00  0.00    -0.237 OA
ATOM     93  O   UNL A   1      43.549  39.765  30.552  1.00  0.00    -0.237 OA
ATOM     94  O   UNL A   1      45.639  38.613  29.918  1.00  0.00    -0.744 OA
ENDBRANCH  88  91
ENDBRANCH  61  84
ENDBRANCH  35  36
ENDBRANCH  27  30
ENDBRANCH  25  26
ENDBRANCH  24  25
ENDBRANCH   1  24
TORSDOF 18
ENDMDL
MODEL 2
REMARK VINA RESULT:     -11.8      1.075      2.799
REMARK SMILES Cc1cccc([C@@H](CC(=O)NCCCNC(=O)c2ccc(-c3c4nc(c(-c5cccc(S(=O)(=O)[O-])c5F)c5ccc([nH]5)c(-c5cccc(S(=O)(=O)[O-])c5F)c5nc(c(-c6cccc(S(=O)(=O)[O-])c6F)c6ccc3[nH]6)C=C5)C=C4)cc2)NC(=O)OC(C)(C)C)c1
REMARK SMILES IDX 12 1 11 2 9 3 10 4 8 6 7 7 6 8 1 9 2 10 3 11 89 12 4 13 5 14
REMARK SMILES IDX 81 15 82 16 83 18 84 19 85 20 86 21 87 22 88 23 13 24 14 25
REMARK SMILES IDX 15 26 16 27 17 29 18 30 19 31 80 32 20 33 79 34 21 35 22 36
REMARK SMILES IDX 23 37 73 38 24 39 78 40 72 41 74 42 25 43 77 44 71 45 70 46
REMARK SMILES IDX 26 48 58 49 38 50 57 51 39 52 42 53 56 54 75 55 40 56 41 57
REMARK SMILES IDX 55 59 76 60 43 61 27 62 28 63 36 64 29 65 31 66 37 67 30 68
REMARK SMILES IDX 32 69 33 70 34 71 35 72 59 73 60 74 68 75 61 76 63 77 69 78
REMARK SMILES IDX 62 79 64 80 65 81 66 82 67 83 44 84 45 85 53 86 46 87 48 88
REMARK SMILES IDX 54 89 47 90 49 91 50 92 51 93 52 94
REMARK H PARENT 11 5 81 17 15 28 74 47 42 58
REMARK Flexibility Score: inf
ROOT
ATOM      1  C   UNL A   1      37.575  21.871  25.616  1.00  0.00     0.117 C 
ENDROOT
BRANCH   1   2
ATOM      2  N   UNL A   1      37.322  22.496  24.330  1.00  0.00    -0.356 N 
ATOM      3  C   UNL A   1      36.184  23.125  23.916  1.00  0.00     0.222 C 
ATOM      4  O   UNL A   1      36.027  23.310  22.707  1.00  0.00    -0.275 OA
ATOM      5  H   UNL A   1      38.059  22.461  23.680  1.00  0.00     0.163 HD
BRANCH   3   6
ATOM      6  C   UNL A   1      35.175  23.650  24.922  1.00  0.00     0.130 C 
BRANCH   6   7
ATOM      7  C   UNL A   1      33.843  24.178  24.353  1.00  0.00     0.125 C 
BRANCH   7   8
ATOM      8  C   UNL A   1      33.796  25.678  24.075  1.00  0.00    -0.025 A 
ATOM      9  C   UNL A   1      33.979  28.958  26.055  1.00  0.00     0.044 C 
ATOM     10  C   UNL A   1      33.834  27.982  24.924  1.00  0.00    -0.051 A 
ATOM     11  C   UNL A   1      33.578  28.458  23.636  1.00  0.00     0.003 A 
ATOM     12  C   UNL A   1      33.913  26.595  25.140  1.00  0.00     0.009 A 
ATOM     13  C   UNL A   1      33.518  27.572  22.566  1.00  0.00     0.001 A 
ATOM     14  C   UNL A   1      33.648  26.198  22.778  1.00  0.00     0.006 A 
ENDBRANCH   7   8
BRANCH   7  15
ATOM     15  N   UNL A   1      32.694  23.724  25.116  1.00  0.00    -0.314 N 
ATOM     16  C   UNL A   1      32.178  22.464  25.151  1.00  0.00     0.408 C 
ATOM     17  H   UNL A   1      32.237  24.401  25.667  1.00  0.00     0.167 HD
ATOM     18  O   UNL A   1      31.131  22.219  25.711  1.00  0.00    -0.225 OA
BRANCH  16  19
ATOM     19  O   UNL A   1      32.980  21.564  24.528  1.00  0.00    -0.444 OA
BRANCH  19  20
ATOM     20  C   UNL A   1      33.494  20.422  25.252  1.00  0.00     0.106 C 
ATOM     21  C   UNL A   1      34.789  19.890  24.626  1.00  0.00     0.056 C 
ATOM     22  C   UNL A   1      33.656  20.751  26.737  1.00  0.00     0.056 C 
ATOM     23  C   UNL A   1      32.407  19.346  25.098  1.00  0.00     0.056 C 
ENDBRANCH  19  20
ENDBRANCH  16  19
ENDBRANCH   7  15
ENDBRANCH   6   7
ENDBRANCH   3   6
ENDBRANCH   1   2
BRANCH   1  24
ATOM     24  C   UNL A   1      38.551  22.716  26.412  1.00  0.00     0.042 C 
BRANCH  24  25
ATOM     25  C   UNL A   1      40.019  22.353  26.235  1.00  0.00     0.118 C 
BRANCH  25  26
ATOM     26  N   UNL A   1      40.750  22.801  27.422  1.00  0.00    -0.352 N 
ATOM     27  C   UNL A   1      41.045  24.067  27.899  1.00  0.00     0.251 C 
ATOM     28  H   UNL A   1      41.094  22.069  27.984  1.00  0.00     0.163 HD
ATOM     29  O   UNL A   1      42.024  24.256  28.613  1.00  0.00    -0.269 OA
BRANCH  27  30
ATOM     30  C   UNL A   1      40.046  25.138  27.697  1.00  0.00     0.039 A 
ATOM     31  C   UNL A   1      40.450  26.071  26.736  1.00  0.00     0.014 A 
ATOM     32  C   UNL A   1      39.267  25.511  28.782  1.00  0.00     0.014 A 
ATOM     33  C   UNL A   1      40.491  27.406  27.092  1.00  0.00     0.010 A 
ATOM     34  C   UNL A   1      39.331  26.834  29.151  1.00  0.00     0.010 A 
ATOM     35  C   UNL A   1      40.075  27.731  28.371  1.00  0.00    -0.014 A 
BRANCH  35  36
ATOM     36  C   UNL A   1      40.269  29.023  28.984  1.00  0.00     0.031 A 
ATOM     37  C   UNL A   1      39.235  30.025  28.686  1.00  0.00     0.074 A 
ATOM     38  C   UNL A   1      41.179  29.161  29.977  1.00  0.00     0.049 A 
ATOM     39  N   UNL A   1      39.287  31.248  29.061  1.00  0.00    -0.248 NA
ATOM     40  C   UNL A   1      38.048  29.707  27.896  1.00  0.00     0.031 C 
ATOM     41  C   UNL A   1      41.165  30.168  31.030  1.00  0.00     0.029 A 
ATOM     42  N   UNL A   1      42.404  28.505  30.171  1.00  0.00    -0.354 N 
ATOM     43  C   UNL A   1      38.032  31.783  28.859  1.00  0.00     0.074 A 
ATOM     44  C   UNL A   1      37.354  30.839  28.012  1.00  0.00     0.031 C 
ATOM     45  C   UNL A   1      42.393  30.262  31.563  1.00  0.00     0.029 A 
ATOM     46  C   UNL A   1      43.274  29.471  30.724  1.00  0.00     0.049 A 
ATOM     47  H   UNL A   1      42.615  27.566  29.964  1.00  0.00     0.167 HD
ATOM     48  C   UNL A   1      37.693  32.883  29.584  1.00  0.00     0.034 A 
ATOM     49  C   UNL A   1      44.373  29.967  30.072  1.00  0.00     0.034 A 
ATOM     50  C   UNL A   1      38.885  33.408  30.281  1.00  0.00     0.049 A 
ATOM     51  C   UNL A   1      44.263  31.460  29.756  1.00  0.00     0.074 A 
ATOM     52  C   UNL A   1      39.393  33.306  31.564  1.00  0.00     0.029 A 
ATOM     53  N   UNL A   1      39.931  33.866  29.501  1.00  0.00    -0.354 N 
ATOM     54  N   UNL A   1      43.256  32.218  30.099  1.00  0.00    -0.248 NA
ATOM     55  C   UNL A   1      45.246  32.199  28.959  1.00  0.00     0.031 C 
ATOM     56  C   UNL A   1      40.785  33.646  31.514  1.00  0.00     0.029 A 
ATOM     57  C   UNL A   1      41.109  33.993  30.212  1.00  0.00     0.049 A 
ATOM     58  H   UNL A   1      39.846  34.079  28.544  1.00  0.00     0.167 HD
ATOM     59  C   UNL A   1      43.338  33.432  29.465  1.00  0.00     0.074 A 
ATOM     60  C   UNL A   1      44.628  33.383  28.790  1.00  0.00     0.031 C 
ATOM     61  C   UNL A   1      42.328  34.361  29.489  1.00  0.00     0.034 A 
BRANCH  48  62
ATOM     62  C   UNL A   1      36.286  33.386  29.857  1.00  0.00     0.023 A 
ATOM     63  C   UNL A   1      35.542  33.793  28.726  1.00  0.00     0.012 A 
ATOM     64  C   UNL A   1      35.646  33.571  31.109  1.00  0.00     0.148 A 
ATOM     65  C   UNL A   1      34.284  34.397  28.824  1.00  0.00     0.002 A 
ATOM     66  C   UNL A   1      34.388  34.178  31.210  1.00  0.00     0.091 A 
ATOM     67  F   UNL A   1      36.225  33.160  32.232  1.00  0.00    -0.205 F 
ATOM     68  C   UNL A   1      33.711  34.601  30.068  1.00  0.00     0.022 A 
BRANCH  66  69
ATOM     69  S   UNL A   1      33.575  34.492  32.792  1.00  0.00     0.127 S 
ATOM     70  O   UNL A   1      32.415  35.287  32.385  1.00  0.00    -0.237 OA
ATOM     71  O   UNL A   1      33.253  33.142  33.250  1.00  0.00    -0.237 OA
ATOM     72  O   UNL A   1      34.535  35.210  33.622  1.00  0.00    -0.744 OA
ENDBRANCH  66  69
ENDBRANCH  48  62
BRANCH  49  73
ATOM     73  C   UNL A   1      45.044  28.939  29.219  1.00  0.00     0.023 A 
ATOM     74  C   UNL A   1      45.534  27.792  29.891  1.00  0.00     0.012 A 
ATOM     75  C   UNL A   1      44.777  28.860  27.843  1.00  0.00     0.148 A 
ATOM     76  C   UNL A   1      45.548  26.549  29.258  1.00  0.00     0.002 A 
ATOM     77  C   UNL A   1      44.795  27.615  27.218  1.00  0.00     0.091 A 
ATOM     78  F   UNL A   1      44.424  29.975  27.192  1.00  0.00    -0.205 F 
ATOM     79  C   UNL A   1      45.124  26.454  27.938  1.00  0.00     0.022 A 
BRANCH  77  80
ATOM     80  S   UNL A   1      44.244  27.405  25.523  1.00  0.00     0.127 S 
ATOM     81  O   UNL A   1      43.119  28.332  25.463  1.00  0.00    -0.237 OA
ATOM     82  O   UNL A   1      45.421  27.823  24.765  1.00  0.00    -0.237 OA
ATOM     83  O   UNL A   1      43.922  25.991  25.403  1.00  0.00    -0.744 OA
ENDBRANCH  77  80
ENDBRANCH  49  73
BRANCH  61  84
ATOM     84  C   UNL A   1      42.419  35.724  28.813  1.00  0.00     0.023 A 
ATOM     85  C   UNL A   1      41.790  35.950  27.574  1.00  0.00     0.012 A 
ATOM     86  C   UNL A   1      43.240  36.776  29.303  1.00  0.00     0.148 A 
ATOM     87  C   UNL A   1      41.903  37.172  26.899  1.00  0.00     0.002 A 
ATOM     88  C   UNL A   1      43.445  37.941  28.572  1.00  0.00     0.091 A 
ATOM     89  F   UNL A   1      43.793  36.689  30.517  1.00  0.00    -0.205 F 
ATOM     90  C   UNL A   1      42.745  38.161  27.387  1.00  0.00     0.022 A 
BRANCH  88  91
ATOM     91  S   UNL A   1      44.688  39.160  29.032  1.00  0.00     0.127 S 
ATOM     92  O   UNL A   1      44.682  40.042  27.863  1.00  0.00    -0.237 OA
ATOM     93  O   UNL A   1      44.104  39.742  30.238  1.00  0.00    -0.237 OA
ATOM     94  O   UNL A   1      45.928  38.423  29.223  1.00  0.00    -0.744 OA
ENDBRANCH  88  91
ENDBRANCH  61  84
ENDBRANCH  35  36
ENDBRANCH  27  30
ENDBRANCH  25  26
ENDBRANCH  24  25
ENDBRANCH   1  24
TORSDOF 18
ENDMDL
MODEL 3
REMARK VINA RESULT:     -11.7      6.140     11.450
REMARK SMILES Cc1cccc([C@@H](CC(=O)NCCCNC(=O)c2ccc(-c3c4nc(c(-c5cccc(S(=O)(=O)[O-])c5F)c5ccc([nH]5)c(-c5cccc(S(=O)(=O)[O-])c5F)c5nc(c(-c6cccc(S(=O)(=O)[O-])c6F)c6ccc3[nH]6)C=C5)C=C4)cc2)NC(=O)OC(C)(C)C)c1
REMARK SMILES IDX 12 1 11 2 9 3 10 4 8 6 7 7 6 8 1 9 2 10 3 11 89 12 4 13 5 14
REMARK SMILES IDX 81 15 82 16 83 18 84 19 85 20 86 21 87 22 88 23 13 24 14 25
REMARK SMILES IDX 15 26 16 27 17 29 18 30 19 31 80 32 20 33 79 34 21 35 22 36
REMARK SMILES IDX 23 37 73 38 24 39 78 40 72 41 74 42 25 43 77 44 71 45 70 46
REMARK SMILES IDX 26 48 58 49 38 50 57 51 39 52 42 53 56 54 75 55 40 56 41 57
REMARK SMILES IDX 55 59 76 60 43 61 27 62 28 63 36 64 29 65 31 66 37 67 30 68
REMARK SMILES IDX 32 69 33 70 34 71 35 72 59 73 60 74 68 75 61 76 63 77 69 78
REMARK SMILES IDX 62 79 64 80 65 81 66 82 67 83 44 84 45 85 53 86 46 87 48 88
REMARK SMILES IDX 54 89 47 90 49 91 50 92 51 93 52 94
REMARK H PARENT 11 5 81 17 15 28 74 47 42 58
REMARK Flexibility Score: inf
ROOT
ATOM      1  C   UNL A   1      37.367  23.915  26.449  1.00  0.00     0.117 C 
ENDROOT
BRANCH   1   2
ATOM      2  N   UNL A   1      36.648  23.408  25.295  1.00  0.00    -0.356 N 
ATOM      3  C   UNL A   1      35.298  23.290  25.137  1.00  0.00     0.222 C 
ATOM      4  O   UNL A   1      34.878  22.554  24.242  1.00  0.00    -0.275 OA
ATOM      5  H   UNL A   1      37.201  23.112  24.537  1.00  0.00     0.163 HD
BRANCH   3   6
ATOM      6  C   UNL A   1      34.341  24.105  25.990  1.00  0.00     0.130 C 
BRANCH   6   7
ATOM      7  C   UNL A   1      33.353  25.019  25.240  1.00  0.00     0.125 C 
BRANCH   7   8
ATOM      8  C   UNL A   1      32.977  26.312  25.960  1.00  0.00    -0.025 A 
ATOM      9  C   UNL A   1      34.700  29.530  27.135  1.00  0.00     0.044 C 
ATOM     10  C   UNL A   1      33.658  28.477  26.897  1.00  0.00    -0.051 A 
ATOM     11  C   UNL A   1      32.371  28.657  27.408  1.00  0.00     0.003 A 
ATOM     12  C   UNL A   1      33.960  27.293  26.201  1.00  0.00     0.009 A 
ATOM     13  C   UNL A   1      31.375  27.728  27.130  1.00  0.00     0.001 A 
ATOM     14  C   UNL A   1      31.667  26.577  26.394  1.00  0.00     0.006 A 
ENDBRANCH   7   8
BRANCH   7  15
ATOM     15  N   UNL A   1      32.189  24.301  24.755  1.00  0.00    -0.314 N 
ATOM     16  C   UNL A   1      31.735  24.243  23.471  1.00  0.00     0.408 C 
ATOM     17  H   UNL A   1      31.669  23.802  25.426  1.00  0.00     0.167 HD
ATOM     18  O   UNL A   1      30.673  23.729  23.192  1.00  0.00    -0.225 OA
BRANCH  16  19
ATOM     19  O   UNL A   1      32.615  24.786  22.593  1.00  0.00    -0.444 OA
BRANCH  19  20
ATOM     20  C   UNL A   1      32.358  26.087  22.014  1.00  0.00     0.106 C 
ATOM     21  C   UNL A   1      31.047  26.690  22.533  1.00  0.00     0.056 C 
ATOM     22  C   UNL A   1      33.553  27.019  22.226  1.00  0.00     0.056 C 
ATOM     23  C   UNL A   1      32.202  25.817  20.509  1.00  0.00     0.056 C 
ENDBRANCH  19  20
ENDBRANCH  16  19
ENDBRANCH   7  15
ENDBRANCH   6   7
ENDBRANCH   3   6
ENDBRANCH   1   2
BRANCH   1  24
ATOM     24  C   UNL A   1      38.855  23.680  26.269  1.00  0.00     0.042 C 
BRANCH  24  25
ATOM     25  C   UNL A   1      39.312  22.239  26.455  1.00  0.00     0.118 C 
BRANCH  25  26
ATOM     26  N   UNL A   1      40.716  22.147  26.051  1.00  0.00    -0.352 N 
ATOM     27  C   UNL A   1      41.800  22.975  26.290  1.00  0.00     0.251 C 
ATOM     28  H   UNL A   1      40.929  21.351  25.510  1.00  0.00     0.163 HD
ATOM     29  O   UNL A   1      42.753  22.999  25.518  1.00  0.00    -0.269 OA
BRANCH  27  30
ATOM     30  C   UNL A   1      41.872  23.669  27.592  1.00  0.00     0.039 A 
ATOM     31  C   UNL A   1      41.917  25.061  27.454  1.00  0.00     0.014 A 
ATOM     32  C   UNL A   1      42.523  23.027  28.635  1.00  0.00     0.014 A 
ATOM     33  C   UNL A   1      42.964  25.746  28.041  1.00  0.00     0.010 A 
ATOM     34  C   UNL A   1      43.582  23.699  29.199  1.00  0.00     0.010 A 
ATOM     35  C   UNL A   1      43.873  25.004  28.775  1.00  0.00    -0.014 A 
BRANCH  35  36
ATOM     36  C   UNL A   1      45.136  25.510  29.253  1.00  0.00     0.031 A 
ATOM     37  C   UNL A   1      46.315  25.101  28.477  1.00  0.00     0.074 A 
ATOM     38  C   UNL A   1      45.152  26.513  30.163  1.00  0.00     0.049 A 
ATOM     39  N   UNL A   1      47.524  25.373  28.803  1.00  0.00    -0.248 NA
ATOM     40  C   UNL A   1      46.206  24.308  27.254  1.00  0.00     0.031 C 
ATOM     41  C   UNL A   1      46.225  27.477  30.371  1.00  0.00     0.029 A 
ATOM     42  N   UNL A   1      44.255  26.795  31.205  1.00  0.00    -0.354 N 
ATOM     43  C   UNL A   1      48.308  25.093  27.704  1.00  0.00     0.074 A 
ATOM     44  C   UNL A   1      47.471  24.310  26.835  1.00  0.00     0.031 C 
ATOM     45  C   UNL A   1      46.085  28.033  31.584  1.00  0.00     0.029 A 
ATOM     46  C   UNL A   1      45.045  27.288  32.268  1.00  0.00     0.049 A 
ATOM     47  H   UNL A   1      43.279  26.673  31.199  1.00  0.00     0.167 HD
ATOM     48  C   UNL A   1      49.516  25.713  27.620  1.00  0.00     0.034 A 
ATOM     49  C   UNL A   1      45.220  26.626  33.456  1.00  0.00     0.034 A 
ATOM     50  C   UNL A   1      49.817  26.395  28.895  1.00  0.00     0.049 A 
ATOM     51  C   UNL A   1      46.665  26.182  33.692  1.00  0.00     0.074 A 
ATOM     52  C   UNL A   1      49.717  27.696  29.357  1.00  0.00     0.029 A 
ATOM     53  N   UNL A   1      49.956  25.608  30.023  1.00  0.00    -0.354 N 
ATOM     54  N   UNL A   1      47.658  26.433  32.881  1.00  0.00    -0.248 NA
ATOM     55  C   UNL A   1      47.089  25.354  34.823  1.00  0.00     0.031 C 
ATOM     56  C   UNL A   1      49.728  27.655  30.789  1.00  0.00     0.029 A 
ATOM     57  C   UNL A   1      49.876  26.338  31.194  1.00  0.00     0.049 A 
ATOM     58  H   UNL A   1      50.098  24.634  29.996  1.00  0.00     0.167 HD
ATOM     59  C   UNL A   1      48.761  25.701  33.242  1.00  0.00     0.074 A 
ATOM     60  C   UNL A   1      48.362  25.068  34.491  1.00  0.00     0.031 C 
ATOM     61  C   UNL A   1      49.893  25.619  32.470  1.00  0.00     0.034 A 
BRANCH  48  62
ATOM     62  C   UNL A   1      50.347  25.903  26.362  1.00  0.00     0.023 A 
ATOM     63  C   UNL A   1      51.625  25.302  26.364  1.00  0.00     0.012 A 
ATOM     64  C   UNL A   1      50.035  26.672  25.211  1.00  0.00     0.148 A 
ATOM     65  C   UNL A   1      52.556  25.493  25.337  1.00  0.00     0.002 A 
ATOM     66  C   UNL A   1      50.964  26.868  24.183  1.00  0.00     0.091 A 
ATOM     67  F   UNL A   1      48.834  27.226  25.072  1.00  0.00    -0.205 F 
ATOM     68  C   UNL A   1      52.229  26.287  24.250  1.00  0.00     0.022 A 
BRANCH  66  69
ATOM     69  S   UNL A   1      50.626  27.897  22.737  1.00  0.00     0.127 S 
ATOM     70  O   UNL A   1      51.236  29.170  23.121  1.00  0.00    -0.237 OA
ATOM     71  O   UNL A   1      51.332  27.182  21.675  1.00  0.00    -0.237 OA
ATOM     72  O   UNL A   1      49.176  27.945  22.587  1.00  0.00    -0.744 OA
ENDBRANCH  66  69
ENDBRANCH  48  62
BRANCH  49  73
ATOM     73  C   UNL A   1      43.995  25.882  33.882  1.00  0.00     0.023 A 
ATOM     74  C   UNL A   1      43.999  24.485  33.647  1.00  0.00     0.012 A 
ATOM     75  C   UNL A   1      43.141  26.404  34.866  1.00  0.00     0.148 A 
ATOM     76  C   UNL A   1      43.337  23.616  34.514  1.00  0.00     0.002 A 
ATOM     77  C   UNL A   1      42.482  25.530  35.727  1.00  0.00     0.091 A 
ATOM     78  F   UNL A   1      43.058  27.733  35.005  1.00  0.00    -0.205 F 
ATOM     79  C   UNL A   1      42.626  24.139  35.588  1.00  0.00     0.022 A 
BRANCH  77  80
ATOM     80  S   UNL A   1      41.559  26.125  37.147  1.00  0.00     0.127 S 
ATOM     81  O   UNL A   1      40.722  24.971  37.457  1.00  0.00    -0.237 OA
ATOM     82  O   UNL A   1      42.622  26.388  38.114  1.00  0.00    -0.237 OA
ATOM     83  O   UNL A   1      40.867  27.315  36.675  1.00  0.00    -0.744 OA
ENDBRANCH  77  80
ENDBRANCH  49  73
BRANCH  61  84
ATOM     84  C   UNL A   1      51.135  24.834  32.874  1.00  0.00     0.023 A 
ATOM     85  C   UNL A   1      52.384  25.476  32.975  1.00  0.00     0.012 A 
ATOM     86  C   UNL A   1      51.139  23.420  33.028  1.00  0.00     0.148 A 
ATOM     87  C   UNL A   1      53.554  24.773  33.288  1.00  0.00     0.002 A 
ATOM     88  C   UNL A   1      52.321  22.713  33.220  1.00  0.00     0.091 A 
ATOM     89  F   UNL A   1      49.988  22.742  33.050  1.00  0.00    -0.205 F 
ATOM     90  C   UNL A   1      53.527  23.389  33.392  1.00  0.00     0.022 A 
BRANCH  88  91
ATOM     91  S   UNL A   1      52.389  20.915  33.140  1.00  0.00     0.127 S 
ATOM     92  O   UNL A   1      52.727  20.572  34.523  1.00  0.00    -0.237 OA
ATOM     93  O   UNL A   1      51.023  20.580  32.745  1.00  0.00    -0.237 OA
ATOM     94  O   UNL A   1      53.425  20.590  32.171  1.00  0.00    -0.744 OA
ENDBRANCH  88  91
ENDBRANCH  61  84
ENDBRANCH  35  36
ENDBRANCH  27  30
ENDBRANCH  25  26
ENDBRANCH  24  25
ENDBRANCH   1  24
TORSDOF 18
ENDMDL
