MODEL 1
REMARK VINA RESULT:     -13.1      0.000      0.000
REMARK SMILES O=C(NCCCNC(=O)[C@H]1CC=CC[C@H]1c1nc2cc(Br)ccc2o1)c1ccc(-c2c3nc(c(-c4cccc(S(=O)(=O)[O-])c4F)c4ccc([nH]4)c(-c4cccc(S(=O)(=O)[O-])c4F)c4nc(c(-c5cccc(S(=O)(=O)[O-])c5F)c5ccc2[nH]5)C=C4)C=C3)cc1
REMARK SMILES IDX 4 1 3 2 1 3 2 4 26 6 27 7 88 8 28 9 87 10 29 11 30 12 31 13
REMARK SMILES IDX 81 14 32 15 86 16 80 17 82 18 33 19 85 20 79 21 78 22 34 24
REMARK SMILES IDX 66 25 46 26 65 27 47 28 50 29 64 30 83 31 48 32 49 33 63 35
REMARK SMILES IDX 84 36 51 37 35 38 36 39 44 40 37 41 39 42 45 43 38 44 40 45
REMARK SMILES IDX 41 46 42 47 43 48 67 49 68 50 76 51 69 52 71 53 77 54 70 55
REMARK SMILES IDX 72 56 73 57 74 58 75 59 52 60 53 61 61 62 54 63 56 64 62 65
REMARK SMILES IDX 55 66 57 67 58 68 59 69 60 70 5 71 6 72 7 73 8 74 9 76 10 77
REMARK SMILES IDX 11 78 15 79 12 80 14 81 13 82 16 83 17 84 25 85 18 86 24 87
REMARK SMILES IDX 19 88 23 89 20 90 22 91 21 92
REMARK H PARENT 3 5 82 23 50 34 7 75
REMARK Flexibility Score: inf
ROOT
ATOM      1  C   UNL A   1      39.040  20.308  25.771  1.00  0.00     0.118 C 
ENDROOT
BRANCH   1   2
ATOM      2  N   UNL A   1      40.106  19.291  25.773  1.00  0.00    -0.352 N 
ATOM      3  O   UNL A   1      42.294  18.649  25.601  1.00  0.00    -0.269 OA
ATOM      4  C   UNL A   1      41.468  19.509  25.923  1.00  0.00     0.251 C 
ATOM      5  H   UNL A   1      39.822  18.356  25.654  1.00  0.00     0.163 HD
BRANCH   4   6
ATOM      6  C   UNL A   1      41.897  20.792  26.497  1.00  0.00     0.039 A 
ATOM      7  C   UNL A   1      42.355  21.875  25.747  1.00  0.00     0.014 A 
ATOM      8  C   UNL A   1      41.707  20.912  27.865  1.00  0.00     0.014 A 
ATOM      9  C   UNL A   1      42.553  23.084  26.412  1.00  0.00     0.010 A 
ATOM     10  C   UNL A   1      41.527  22.149  28.393  1.00  0.00     0.010 A 
ATOM     11  C   UNL A   1      42.120  23.207  27.743  1.00  0.00    -0.014 A 
BRANCH  11  12
ATOM     12  C   UNL A   1      42.233  24.434  28.512  1.00  0.00     0.031 A 
ATOM     13  C   UNL A   1      41.093  25.349  28.315  1.00  0.00     0.074 A 
ATOM     14  C   UNL A   1      43.206  24.642  29.433  1.00  0.00     0.049 A 
ATOM     15  N   UNL A   1      41.064  26.380  27.540  1.00  0.00    -0.248 NA
ATOM     16  C   UNL A   1      39.781  24.963  28.855  1.00  0.00     0.031 C 
ATOM     17  C   UNL A   1      44.210  23.700  29.959  1.00  0.00     0.029 A 
ATOM     18  N   UNL A   1      43.437  25.748  30.183  1.00  0.00    -0.354 N 
ATOM     19  C   UNL A   1      39.808  26.936  27.728  1.00  0.00     0.074 A 
ATOM     20  C   UNL A   1      38.998  25.912  28.335  1.00  0.00     0.031 C 
ATOM     21  C   UNL A   1      44.763  24.197  31.088  1.00  0.00     0.029 A 
ATOM     22  C   UNL A   1      44.311  25.562  31.254  1.00  0.00     0.049 A 
ATOM     23  H   UNL A   1      43.020  26.618  29.986  1.00  0.00     0.167 HD
ATOM     24  C   UNL A   1      39.629  28.281  27.646  1.00  0.00     0.034 A 
ATOM     25  C   UNL A   1      44.613  26.476  32.208  1.00  0.00     0.034 A 
ATOM     26  C   UNL A   1      40.780  28.931  27.067  1.00  0.00     0.049 A 
ATOM     27  C   UNL A   1      44.300  27.794  31.617  1.00  0.00     0.074 A 
ATOM     28  C   UNL A   1      41.446  28.851  25.861  1.00  0.00     0.029 A 
ATOM     29  N   UNL A   1      41.664  29.487  27.961  1.00  0.00    -0.354 N 
ATOM     30  N   UNL A   1      44.936  28.296  30.596  1.00  0.00    -0.248 NA
ATOM     31  C   UNL A   1      42.998  28.371  31.898  1.00  0.00     0.031 C 
ATOM     32  C   UNL A   1      42.829  28.951  26.194  1.00  0.00     0.029 A 
ATOM     33  C   UNL A   1      42.936  29.160  27.571  1.00  0.00     0.049 A 
ATOM     34  H   UNL A   1      41.424  30.029  28.747  1.00  0.00     0.167 HD
ATOM     35  C   UNL A   1      43.941  28.906  29.846  1.00  0.00     0.074 A 
ATOM     36  C   UNL A   1      42.802  29.028  30.751  1.00  0.00     0.031 C 
ATOM     37  C   UNL A   1      44.042  28.983  28.487  1.00  0.00     0.034 A 
BRANCH  24  38
ATOM     38  C   UNL A   1      38.611  29.047  28.448  1.00  0.00     0.023 A 
ATOM     39  C   UNL A   1      37.808  29.980  27.762  1.00  0.00     0.012 A 
ATOM     40  C   UNL A   1      38.584  29.084  29.861  1.00  0.00     0.148 A 
ATOM     41  C   UNL A   1      37.021  30.909  28.451  1.00  0.00     0.002 A 
ATOM     42  C   UNL A   1      37.740  29.952  30.540  1.00  0.00     0.091 A 
ATOM     43  F   UNL A   1      39.475  28.378  30.564  1.00  0.00    -0.205 F 
ATOM     44  C   UNL A   1      36.974  30.886  29.840  1.00  0.00     0.022 A 
BRANCH  42  45
ATOM     45  S   UNL A   1      37.619  29.933  32.333  1.00  0.00     0.127 S 
ATOM     46  O   UNL A   1      38.961  30.360  32.720  1.00  0.00    -0.237 OA
ATOM     47  O   UNL A   1      36.561  30.917  32.570  1.00  0.00    -0.237 OA
ATOM     48  O   UNL A   1      37.251  28.568  32.684  1.00  0.00    -0.744 OA
ENDBRANCH  42  45
ENDBRANCH  24  38
BRANCH  25  49
ATOM     49  C   UNL A   1      44.864  26.332  33.664  1.00  0.00     0.023 A 
ATOM     50  C   UNL A   1      46.127  26.715  34.171  1.00  0.00     0.012 A 
ATOM     51  C   UNL A   1      43.806  26.170  34.579  1.00  0.00     0.148 A 
ATOM     52  C   UNL A   1      46.304  27.023  35.524  1.00  0.00     0.002 A 
ATOM     53  C   UNL A   1      43.992  26.467  35.927  1.00  0.00     0.091 A 
ATOM     54  F   UNL A   1      42.595  25.831  34.118  1.00  0.00    -0.205 F 
ATOM     55  C   UNL A   1      45.232  26.918  36.399  1.00  0.00     0.022 A 
BRANCH  53  56
ATOM     56  S   UNL A   1      42.658  26.352  37.121  1.00  0.00     0.127 S 
ATOM     57  O   UNL A   1      43.379  26.475  38.388  1.00  0.00    -0.237 OA
ATOM     58  O   UNL A   1      41.834  27.504  36.767  1.00  0.00    -0.237 OA
ATOM     59  O   UNL A   1      42.048  25.046  36.900  1.00  0.00    -0.744 OA
ENDBRANCH  53  56
ENDBRANCH  25  49
BRANCH  37  60
ATOM     60  C   UNL A   1      45.374  28.652  27.863  1.00  0.00     0.023 A 
ATOM     61  C   UNL A   1      46.465  29.548  27.865  1.00  0.00     0.012 A 
ATOM     62  C   UNL A   1      45.576  27.331  27.435  1.00  0.00     0.148 A 
ATOM     63  C   UNL A   1      47.734  29.127  27.453  1.00  0.00     0.002 A 
ATOM     64  C   UNL A   1      46.844  26.906  27.064  1.00  0.00     0.091 A 
ATOM     65  F   UNL A   1      44.523  26.501  27.446  1.00  0.00    -0.205 F 
ATOM     66  C   UNL A   1      47.927  27.800  27.068  1.00  0.00     0.022 A 
BRANCH  64  67
ATOM     67  S   UNL A   1      47.181  25.191  26.664  1.00  0.00     0.127 S 
ATOM     68  O   UNL A   1      48.609  25.223  26.351  1.00  0.00    -0.237 OA
ATOM     69  O   UNL A   1      46.842  24.510  27.914  1.00  0.00    -0.237 OA
ATOM     70  O   UNL A   1      46.309  24.856  25.544  1.00  0.00    -0.744 OA
ENDBRANCH  64  67
ENDBRANCH  37  60
ENDBRANCH  11  12
ENDBRANCH   4   6
ENDBRANCH   1   2
BRANCH   1  71
ATOM     71  C   UNL A   1      37.836  19.959  24.927  1.00  0.00     0.042 C 
BRANCH  71  72
ATOM     72  C   UNL A   1      36.649  20.885  25.158  1.00  0.00     0.117 C 
BRANCH  72  73
ATOM     73  N   UNL A   1      36.309  21.747  24.036  1.00  0.00    -0.356 N 
ATOM     74  C   UNL A   1      35.579  22.902  23.996  1.00  0.00     0.224 C 
ATOM     75  H   UNL A   1      36.662  21.451  23.166  1.00  0.00     0.163 HD
ATOM     76  O   UNL A   1      35.570  23.532  22.940  1.00  0.00    -0.275 OA
BRANCH  74  77
ATOM     77  C   UNL A   1      34.822  23.352  25.243  1.00  0.00     0.095 C 
ATOM     78  C   UNL A   1      34.964  24.878  25.449  1.00  0.00     0.041 C 
ATOM     79  C   UNL A   1      33.326  22.970  25.229  1.00  0.00     0.092 C 
ATOM     80  C   UNL A   1      34.012  25.717  24.655  1.00  0.00    -0.030 C 
ATOM     81  C   UNL A   1      32.513  23.778  24.190  1.00  0.00     0.041 C 
ATOM     82  C   UNL A   1      32.919  25.216  24.070  1.00  0.00    -0.030 C 
BRANCH  79  83
ATOM     83  C   UNL A   1      33.048  21.507  25.072  1.00  0.00     0.199 A 
ATOM     84  N   UNL A   1      33.107  20.579  26.008  1.00  0.00    -0.213 NA
ATOM     85  O   UNL A   1      32.830  21.030  23.803  1.00  0.00    -0.440 OA
ATOM     86  C   UNL A   1      32.862  19.411  25.335  1.00  0.00     0.111 A 
ATOM     87  C   UNL A   1      32.704  19.676  23.982  1.00  0.00     0.154 A 
ATOM     88  C   UNL A   1      32.814  18.091  25.791  1.00  0.00     0.048 A 
ATOM     89  C   UNL A   1      32.486  18.701  23.015  1.00  0.00     0.050 A 
ATOM     90  C   UNL A   1      32.659  17.082  24.835  1.00  0.00     0.020 A 
ATOM     91  C   UNL A   1      32.473  17.378  23.479  1.00  0.00     0.019 A 
ATOM     92  Br  UNL A   1      32.842  15.276  25.378  1.00  0.00    -0.051 Br
ENDBRANCH  79  83
ENDBRANCH  74  77
ENDBRANCH  72  73
ENDBRANCH  71  72
ENDBRANCH   1  71
TORSDOF 14
ENDMDL
MODEL 2
REMARK VINA RESULT:     -12.8      5.026      9.991
REMARK SMILES O=C(NCCCNC(=O)[C@H]1CC=CC[C@H]1c1nc2cc(Br)ccc2o1)c1ccc(-c2c3nc(c(-c4cccc(S(=O)(=O)[O-])c4F)c4ccc([nH]4)c(-c4cccc(S(=O)(=O)[O-])c4F)c4nc(c(-c5cccc(S(=O)(=O)[O-])c5F)c5ccc2[nH]5)C=C4)C=C3)cc1
REMARK SMILES IDX 4 1 3 2 1 3 2 4 26 6 27 7 88 8 28 9 87 10 29 11 30 12 31 13
REMARK SMILES IDX 81 14 32 15 86 16 80 17 82 18 33 19 85 20 79 21 78 22 34 24
REMARK SMILES IDX 66 25 46 26 65 27 47 28 50 29 64 30 83 31 48 32 49 33 63 35
REMARK SMILES IDX 84 36 51 37 35 38 36 39 44 40 37 41 39 42 45 43 38 44 40 45
REMARK SMILES IDX 41 46 42 47 43 48 67 49 68 50 76 51 69 52 71 53 77 54 70 55
REMARK SMILES IDX 72 56 73 57 74 58 75 59 52 60 53 61 61 62 54 63 56 64 62 65
REMARK SMILES IDX 55 66 57 67 58 68 59 69 60 70 5 71 6 72 7 73 8 74 9 76 10 77
REMARK SMILES IDX 11 78 15 79 12 80 14 81 13 82 16 83 17 84 25 85 18 86 24 87
REMARK SMILES IDX 19 88 23 89 20 90 22 91 21 92
REMARK H PARENT 3 5 82 23 50 34 7 75
REMARK Flexibility Score: inf
ROOT
ATOM      1  C   UNL A   1      32.579  31.999  27.337  1.00  0.00     0.118 C 
ENDROOT
BRANCH   1   2
ATOM      2  N   UNL A   1      32.338  33.434  27.560  1.00  0.00    -0.352 N 
ATOM      3  O   UNL A   1      32.548  35.359  28.777  1.00  0.00    -0.269 OA
ATOM      4  C   UNL A   1      33.018  34.270  28.434  1.00  0.00     0.251 C 
ATOM      5  H   UNL A   1      31.615  33.846  27.033  1.00  0.00     0.163 HD
BRANCH   4   6
ATOM      6  C   UNL A   1      34.330  33.824  28.925  1.00  0.00     0.039 A 
ATOM      7  C   UNL A   1      34.530  33.146  30.128  1.00  0.00     0.014 A 
ATOM      8  C   UNL A   1      35.382  34.021  28.043  1.00  0.00     0.014 A 
ATOM      9  C   UNL A   1      35.801  32.629  30.374  1.00  0.00     0.010 A 
ATOM     10  C   UNL A   1      36.456  33.196  28.115  1.00  0.00     0.010 A 
ATOM     11  C   UNL A   1      36.756  32.654  29.343  1.00  0.00    -0.014 A 
BRANCH  11  12
ATOM     12  C   UNL A   1      38.092  32.099  29.477  1.00  0.00     0.031 A 
ATOM     13  C   UNL A   1      38.198  30.715  28.977  1.00  0.00     0.074 A 
ATOM     14  C   UNL A   1      39.161  32.832  29.872  1.00  0.00     0.049 A 
ATOM     15  N   UNL A   1      38.178  29.640  29.690  1.00  0.00    -0.248 NA
ATOM     16  C   UNL A   1      38.089  30.480  27.529  1.00  0.00     0.031 C 
ATOM     17  C   UNL A   1      39.266  34.286  30.091  1.00  0.00     0.029 A 
ATOM     18  N   UNL A   1      40.440  32.426  30.067  1.00  0.00    -0.354 N 
ATOM     19  C   UNL A   1      38.351  28.604  28.785  1.00  0.00     0.074 A 
ATOM     20  C   UNL A   1      38.046  29.146  27.486  1.00  0.00     0.031 C 
ATOM     21  C   UNL A   1      40.566  34.652  30.147  1.00  0.00     0.029 A 
ATOM     22  C   UNL A   1      41.376  33.453  30.174  1.00  0.00     0.049 A 
ATOM     23  H   UNL A   1      40.690  31.475  30.130  1.00  0.00     0.167 HD
ATOM     24  C   UNL A   1      39.021  27.477  29.144  1.00  0.00     0.034 A 
ATOM     25  C   UNL A   1      42.721  33.306  30.259  1.00  0.00     0.034 A 
ATOM     26  C   UNL A   1      39.212  27.412  30.573  1.00  0.00     0.049 A 
ATOM     27  C   UNL A   1      42.945  31.930  30.754  1.00  0.00     0.074 A 
ATOM     28  C   UNL A   1      38.378  27.381  31.672  1.00  0.00     0.029 A 
ATOM     29  N   UNL A   1      40.440  27.829  31.030  1.00  0.00    -0.354 N 
ATOM     30  N   UNL A   1      42.584  31.522  31.938  1.00  0.00    -0.248 NA
ATOM     31  C   UNL A   1      43.191  30.889  29.772  1.00  0.00     0.031 C 
ATOM     32  C   UNL A   1      39.022  28.198  32.648  1.00  0.00     0.029 A 
ATOM     33  C   UNL A   1      40.245  28.626  32.127  1.00  0.00     0.049 A 
ATOM     34  H   UNL A   1      41.311  27.592  30.637  1.00  0.00     0.167 HD
ATOM     35  C   UNL A   1      42.115  30.235  31.722  1.00  0.00     0.074 A 
ATOM     36  C   UNL A   1      42.626  29.858  30.406  1.00  0.00     0.031 C 
ATOM     37  C   UNL A   1      41.119  29.717  32.498  1.00  0.00     0.034 A 
BRANCH  24  38
ATOM     38  C   UNL A   1      39.850  26.651  28.198  1.00  0.00     0.023 A 
ATOM     39  C   UNL A   1      39.734  25.248  28.282  1.00  0.00     0.012 A 
ATOM     40  C   UNL A   1      40.915  27.167  27.424  1.00  0.00     0.148 A 
ATOM     41  C   UNL A   1      40.638  24.403  27.631  1.00  0.00     0.002 A 
ATOM     42  C   UNL A   1      41.760  26.325  26.714  1.00  0.00     0.091 A 
ATOM     43  F   UNL A   1      41.208  28.470  27.478  1.00  0.00    -0.205 F 
ATOM     44  C   UNL A   1      41.642  24.940  26.833  1.00  0.00     0.022 A 
BRANCH  42  45
ATOM     45  S   UNL A   1      43.049  26.974  25.643  1.00  0.00     0.127 S 
ATOM     46  O   UNL A   1      43.950  27.590  26.613  1.00  0.00    -0.237 OA
ATOM     47  O   UNL A   1      43.553  25.754  25.012  1.00  0.00    -0.237 OA
ATOM     48  O   UNL A   1      42.372  27.883  24.726  1.00  0.00    -0.744 OA
ENDBRANCH  42  45
ENDBRANCH  24  38
BRANCH  25  49
ATOM     49  C   UNL A   1      43.836  34.105  29.693  1.00  0.00     0.023 A 
ATOM     50  C   UNL A   1      44.716  34.760  30.584  1.00  0.00     0.012 A 
ATOM     51  C   UNL A   1      44.248  33.946  28.355  1.00  0.00     0.148 A 
ATOM     52  C   UNL A   1      45.998  35.153  30.184  1.00  0.00     0.002 A 
ATOM     53  C   UNL A   1      45.521  34.350  27.959  1.00  0.00     0.091 A 
ATOM     54  F   UNL A   1      43.441  33.306  27.499  1.00  0.00    -0.205 F 
ATOM     55  C   UNL A   1      46.408  34.930  28.876  1.00  0.00     0.022 A 
BRANCH  53  56
ATOM     56  S   UNL A   1      46.124  34.101  26.288  1.00  0.00     0.127 S 
ATOM     57  O   UNL A   1      45.130  34.831  25.500  1.00  0.00    -0.237 OA
ATOM     58  O   UNL A   1      47.443  34.724  26.346  1.00  0.00    -0.237 OA
ATOM     59  O   UNL A   1      46.114  32.658  26.081  1.00  0.00    -0.744 OA
ENDBRANCH  53  56
ENDBRANCH  25  49
BRANCH  37  60
ATOM     60  C   UNL A   1      40.753  30.462  33.757  1.00  0.00     0.023 A 
ATOM     61  C   UNL A   1      41.575  30.478  34.904  1.00  0.00     0.012 A 
ATOM     62  C   UNL A   1      39.641  31.316  33.701  1.00  0.00     0.148 A 
ATOM     63  C   UNL A   1      41.293  31.339  35.971  1.00  0.00     0.002 A 
ATOM     64  C   UNL A   1      39.386  32.196  34.744  1.00  0.00     0.091 A 
ATOM     65  F   UNL A   1      38.880  31.282  32.598  1.00  0.00    -0.205 F 
ATOM     66  C   UNL A   1      40.207  32.209  35.884  1.00  0.00     0.022 A 
BRANCH  64  67
ATOM     67  S   UNL A   1      38.074  33.413  34.647  1.00  0.00     0.127 S 
ATOM     68  O   UNL A   1      38.399  34.305  35.759  1.00  0.00    -0.237 OA
ATOM     69  O   UNL A   1      38.286  33.989  33.318  1.00  0.00    -0.237 OA
ATOM     70  O   UNL A   1      36.824  32.677  34.788  1.00  0.00    -0.744 OA
ENDBRANCH  64  67
ENDBRANCH  37  60
ENDBRANCH  11  12
ENDBRANCH   4   6
ENDBRANCH   1   2
BRANCH   1  71
ATOM     71  C   UNL A   1      31.595  31.330  26.406  1.00  0.00     0.042 C 
BRANCH  71  72
ATOM     72  C   UNL A   1      32.099  30.007  25.843  1.00  0.00     0.117 C 
BRANCH  72  73
ATOM     73  N   UNL A   1      31.570  28.817  26.492  1.00  0.00    -0.356 N 
ATOM     74  C   UNL A   1      31.916  27.502  26.349  1.00  0.00     0.224 C 
ATOM     75  H   UNL A   1      30.846  28.986  27.138  1.00  0.00     0.163 HD
ATOM     76  O   UNL A   1      31.422  26.697  27.135  1.00  0.00    -0.275 OA
BRANCH  74  77
ATOM     77  C   UNL A   1      32.886  27.100  25.241  1.00  0.00     0.095 C 
ATOM     78  C   UNL A   1      33.912  26.067  25.759  1.00  0.00     0.041 C 
ATOM     79  C   UNL A   1      32.187  26.547  23.980  1.00  0.00     0.092 C 
ATOM     80  C   UNL A   1      33.437  24.648  25.761  1.00  0.00    -0.030 C 
ATOM     81  C   UNL A   1      31.550  25.157  24.212  1.00  0.00     0.041 C 
ATOM     82  C   UNL A   1      32.360  24.243  25.081  1.00  0.00    -0.030 C 
BRANCH  79  83
ATOM     83  C   UNL A   1      31.189  27.470  23.352  1.00  0.00     0.199 A 
ATOM     84  N   UNL A   1      31.440  28.513  22.584  1.00  0.00    -0.213 NA
ATOM     85  O   UNL A   1      29.869  27.316  23.699  1.00  0.00    -0.440 OA
ATOM     86  C   UNL A   1      30.207  29.064  22.358  1.00  0.00     0.111 A 
ATOM     87  C   UNL A   1      29.240  28.346  23.047  1.00  0.00     0.154 A 
ATOM     88  C   UNL A   1      29.837  30.199  21.630  1.00  0.00     0.048 A 
ATOM     89  C   UNL A   1      27.888  28.670  23.064  1.00  0.00     0.050 A 
ATOM     90  C   UNL A   1      28.494  30.588  21.679  1.00  0.00     0.020 A 
ATOM     91  C   UNL A   1      27.533  29.829  22.358  1.00  0.00     0.019 A 
ATOM     92  Br  UNL A   1      28.000  32.252  20.919  1.00  0.00    -0.051 Br
ENDBRANCH  79  83
ENDBRANCH  74  77
ENDBRANCH  72  73
ENDBRANCH  71  72
ENDBRANCH   1  71
TORSDOF 14
ENDMDL
MODEL 3
REMARK VINA RESULT:     -12.5      1.744      3.037
REMARK SMILES O=C(NCCCNC(=O)[C@H]1CC=CC[C@H]1c1nc2cc(Br)ccc2o1)c1ccc(-c2c3nc(c(-c4cccc(S(=O)(=O)[O-])c4F)c4ccc([nH]4)c(-c4cccc(S(=O)(=O)[O-])c4F)c4nc(c(-c5cccc(S(=O)(=O)[O-])c5F)c5ccc2[nH]5)C=C4)C=C3)cc1
REMARK SMILES IDX 4 1 3 2 1 3 2 4 26 6 27 7 88 8 28 9 87 10 29 11 30 12 31 13
REMARK SMILES IDX 81 14 32 15 86 16 80 17 82 18 33 19 85 20 79 21 78 22 34 24
REMARK SMILES IDX 66 25 46 26 65 27 47 28 50 29 64 30 83 31 48 32 49 33 63 35
REMARK SMILES IDX 84 36 51 37 35 38 36 39 44 40 37 41 39 42 45 43 38 44 40 45
REMARK SMILES IDX 41 46 42 47 43 48 67 49 68 50 76 51 69 52 71 53 77 54 70 55
REMARK SMILES IDX 72 56 73 57 74 58 75 59 52 60 53 61 61 62 54 63 56 64 62 65
REMARK SMILES IDX 55 66 57 67 58 68 59 69 60 70 5 71 6 72 7 73 8 74 9 76 10 77
REMARK SMILES IDX 11 78 15 79 12 80 14 81 13 82 16 83 17 84 25 85 18 86 24 87
REMARK SMILES IDX 19 88 23 89 20 90 22 91 21 92
REMARK H PARENT 3 5 82 23 50 34 7 75
REMARK Flexibility Score: inf
ROOT
ATOM      1  C   UNL A   1      39.478  20.063  26.157  1.00  0.00     0.118 C 
ENDROOT
BRANCH   1   2
ATOM      2  N   UNL A   1      40.658  19.242  25.841  1.00  0.00    -0.352 N 
ATOM      3  O   UNL A   1      42.831  18.989  25.173  1.00  0.00    -0.269 OA
ATOM      4  C   UNL A   1      41.974  19.673  25.741  1.00  0.00     0.251 C 
ATOM      5  H   UNL A   1      40.498  18.283  25.682  1.00  0.00     0.163 HD
BRANCH   4   6
ATOM      6  C   UNL A   1      42.319  20.964  26.352  1.00  0.00     0.039 A 
ATOM      7  C   UNL A   1      42.685  22.101  25.633  1.00  0.00     0.014 A 
ATOM      8  C   UNL A   1      42.144  21.026  27.726  1.00  0.00     0.014 A 
ATOM      9  C   UNL A   1      42.807  23.299  26.335  1.00  0.00     0.010 A 
ATOM     10  C   UNL A   1      41.884  22.228  28.298  1.00  0.00     0.010 A 
ATOM     11  C   UNL A   1      42.389  23.346  27.676  1.00  0.00    -0.014 A 
BRANCH  11  12
ATOM     12  C   UNL A   1      42.427  24.553  28.484  1.00  0.00     0.031 A 
ATOM     13  C   UNL A   1      41.264  25.433  28.267  1.00  0.00     0.074 A 
ATOM     14  C   UNL A   1      43.353  24.766  29.450  1.00  0.00     0.049 A 
ATOM     15  N   UNL A   1      41.229  26.486  27.521  1.00  0.00    -0.248 NA
ATOM     16  C   UNL A   1      39.945  24.986  28.740  1.00  0.00     0.031 C 
ATOM     17  C   UNL A   1      44.369  23.844  29.990  1.00  0.00     0.029 A 
ATOM     18  N   UNL A   1      43.514  25.856  30.242  1.00  0.00    -0.354 N 
ATOM     19  C   UNL A   1      39.947  26.992  27.672  1.00  0.00     0.074 A 
ATOM     20  C   UNL A   1      39.150  25.923  28.216  1.00  0.00     0.031 C 
ATOM     21  C   UNL A   1      44.857  24.326  31.156  1.00  0.00     0.029 A 
ATOM     22  C   UNL A   1      44.350  25.668  31.341  1.00  0.00     0.049 A 
ATOM     23  H   UNL A   1      43.074  26.717  30.053  1.00  0.00     0.167 HD
ATOM     24  C   UNL A   1      39.724  28.332  27.623  1.00  0.00     0.034 A 
ATOM     25  C   UNL A   1      44.580  26.563  32.333  1.00  0.00     0.034 A 
ATOM     26  C   UNL A   1      40.873  29.039  27.111  1.00  0.00     0.049 A 
ATOM     27  C   UNL A   1      44.244  27.887  31.768  1.00  0.00     0.074 A 
ATOM     28  C   UNL A   1      41.590  29.019  25.931  1.00  0.00     0.029 A 
ATOM     29  N   UNL A   1      41.700  29.598  28.057  1.00  0.00    -0.354 N 
ATOM     30  N   UNL A   1      44.903  28.442  30.789  1.00  0.00    -0.248 NA
ATOM     31  C   UNL A   1      42.911  28.410  32.011  1.00  0.00     0.031 C 
ATOM     32  C   UNL A   1      42.953  29.156  26.325  1.00  0.00     0.029 A 
ATOM     33  C   UNL A   1      42.997  29.327  27.710  1.00  0.00     0.049 A 
ATOM     34  H   UNL A   1      41.408  30.107  28.847  1.00  0.00     0.167 HD
ATOM     35  C   UNL A   1      43.918  29.039  30.017  1.00  0.00     0.074 A 
ATOM     36  C   UNL A   1      42.739  29.093  30.877  1.00  0.00     0.031 C 
ATOM     37  C   UNL A   1      44.070  29.160  28.667  1.00  0.00     0.034 A 
BRANCH  24  38
ATOM     38  C   UNL A   1      38.647  29.037  28.403  1.00  0.00     0.023 A 
ATOM     39  C   UNL A   1      37.809  29.928  27.701  1.00  0.00     0.012 A 
ATOM     40  C   UNL A   1      38.586  29.067  29.815  1.00  0.00     0.148 A 
ATOM     41  C   UNL A   1      36.958  30.809  28.375  1.00  0.00     0.002 A 
ATOM     42  C   UNL A   1      37.680  29.884  30.478  1.00  0.00     0.091 A 
ATOM     43  F   UNL A   1      39.498  28.408  30.537  1.00  0.00    -0.205 F 
ATOM     44  C   UNL A   1      36.880  30.777  29.763  1.00  0.00     0.022 A 
BRANCH  42  45
ATOM     45  S   UNL A   1      37.520  29.851  32.267  1.00  0.00     0.127 S 
ATOM     46  O   UNL A   1      38.803  30.409  32.685  1.00  0.00    -0.237 OA
ATOM     47  O   UNL A   1      36.364  30.725  32.478  1.00  0.00    -0.237 OA
ATOM     48  O   UNL A   1      37.281  28.456  32.611  1.00  0.00    -0.744 OA
ENDBRANCH  42  45
ENDBRANCH  24  38
BRANCH  25  49
ATOM     49  C   UNL A   1      44.777  26.383  33.794  1.00  0.00     0.023 A 
ATOM     50  C   UNL A   1      46.007  26.786  34.363  1.00  0.00     0.012 A 
ATOM     51  C   UNL A   1      43.688  26.167  34.661  1.00  0.00     0.148 A 
ATOM     52  C   UNL A   1      46.122  27.059  35.730  1.00  0.00     0.002 A 
ATOM     53  C   UNL A   1      43.811  26.429  36.023  1.00  0.00     0.091 A 
ATOM     54  F   UNL A   1      42.506  25.808  34.141  1.00  0.00    -0.205 F 
ATOM     55  C   UNL A   1      45.018  26.900  36.557  1.00  0.00     0.022 A 
BRANCH  53  56
ATOM     56  S   UNL A   1      42.435  26.243  37.158  1.00  0.00     0.127 S 
ATOM     57  O   UNL A   1      42.022  24.862  36.905  1.00  0.00    -0.237 OA
ATOM     58  O   UNL A   1      43.075  26.467  38.451  1.00  0.00    -0.237 OA
ATOM     59  O   UNL A   1      41.458  27.247  36.753  1.00  0.00    -0.744 OA
ENDBRANCH  53  56
ENDBRANCH  25  49
BRANCH  37  60
ATOM     60  C   UNL A   1      45.438  28.896  28.089  1.00  0.00     0.023 A 
ATOM     61  C   UNL A   1      46.491  29.833  28.152  1.00  0.00     0.012 A 
ATOM     62  C   UNL A   1      45.709  27.593  27.643  1.00  0.00     0.148 A 
ATOM     63  C   UNL A   1      47.791  29.470  27.782  1.00  0.00     0.002 A 
ATOM     64  C   UNL A   1      47.006  27.225  27.314  1.00  0.00     0.091 A 
ATOM     65  F   UNL A   1      44.690  26.722  27.596  1.00  0.00    -0.205 F 
ATOM     66  C   UNL A   1      48.052  28.161  27.379  1.00  0.00     0.022 A 
BRANCH  64  67
ATOM     67  S   UNL A   1      47.426  25.534  26.893  1.00  0.00     0.127 S 
ATOM     68  O   UNL A   1      48.830  25.654  26.505  1.00  0.00    -0.237 OA
ATOM     69  O   UNL A   1      47.198  24.835  28.159  1.00  0.00    -0.237 OA
ATOM     70  O   UNL A   1      46.518  25.143  25.822  1.00  0.00    -0.744 OA
ENDBRANCH  64  67
ENDBRANCH  37  60
ENDBRANCH  11  12
ENDBRANCH   4   6
ENDBRANCH   1   2
BRANCH   1  71
ATOM     71  C   UNL A   1      38.436  20.120  25.064  1.00  0.00     0.042 C 
BRANCH  71  72
ATOM     72  C   UNL A   1      37.707  21.456  24.994  1.00  0.00     0.117 C 
BRANCH  72  73
ATOM     73  N   UNL A   1      36.660  21.641  25.987  1.00  0.00    -0.356 N 
ATOM     74  C   UNL A   1      35.319  21.379  25.920  1.00  0.00     0.224 C 
ATOM     75  H   UNL A   1      36.965  22.015  26.845  1.00  0.00     0.163 HD
ATOM     76  O   UNL A   1      34.669  21.477  26.959  1.00  0.00    -0.275 OA
BRANCH  74  77
ATOM     77  C   UNL A   1      34.701  20.982  24.583  1.00  0.00     0.095 C 
ATOM     78  C   UNL A   1      34.535  19.448  24.490  1.00  0.00     0.041 C 
ATOM     79  C   UNL A   1      33.345  21.666  24.302  1.00  0.00     0.092 C 
ATOM     80  C   UNL A   1      33.303  18.902  25.141  1.00  0.00    -0.030 C 
ATOM     81  C   UNL A   1      32.212  21.144  25.217  1.00  0.00     0.041 C 
ATOM     82  C   UNL A   1      32.265  19.671  25.488  1.00  0.00    -0.030 C 
BRANCH  79  83
ATOM     83  C   UNL A   1      33.374  23.163  24.325  1.00  0.00     0.199 A 
ATOM     84  N   UNL A   1      33.013  23.953  25.318  1.00  0.00    -0.213 NA
ATOM     85  O   UNL A   1      33.686  23.815  23.157  1.00  0.00    -0.440 OA
ATOM     86  C   UNL A   1      33.140  25.215  24.802  1.00  0.00     0.111 A 
ATOM     87  C   UNL A   1      33.539  25.140  23.476  1.00  0.00     0.154 A 
ATOM     88  C   UNL A   1      32.882  26.463  25.378  1.00  0.00     0.048 A 
ATOM     89  C   UNL A   1      33.718  26.244  22.650  1.00  0.00     0.050 A 
ATOM     90  C   UNL A   1      32.991  27.589  24.554  1.00  0.00     0.020 A 
ATOM     91  C   UNL A   1      33.424  27.488  23.226  1.00  0.00     0.019 A 
ATOM     92  Br  UNL A   1      32.409  29.264  25.220  1.00  0.00    -0.051 Br
ENDBRANCH  79  83
ENDBRANCH  74  77
ENDBRANCH  72  73
ENDBRANCH  71  72
ENDBRANCH   1  71
TORSDOF 14
ENDMDL
