MODEL 1
REMARK VINA RESULT:     -11.8      0.000      0.000
REMARK SMILES O=C(NCCCNC(=O)C1(Cc2cccc(Cl)c2)CCCC1)c1ccc(-c2c3nc(c(-c4cccc(S(=O)(=O)[O-])c4F)c4ccc([nH]4)c(-c4cccc(S(=O)(=O)[O-])c4F)c4nc(c(-c5cccc(S(=O)(=O)[O-])c5F)c5ccc2[nH]5)C=C4)C=C3)cc1
REMARK SMILES IDX 4 1 3 2 1 3 2 4 23 6 24 7 85 8 25 9 84 10 26 11 27 12 28 13
REMARK SMILES IDX 78 14 29 15 83 16 77 17 79 18 30 19 82 20 76 21 75 22 31 24
REMARK SMILES IDX 63 25 43 26 62 27 44 28 47 29 61 30 80 31 45 32 46 33 60 35
REMARK SMILES IDX 81 36 48 37 32 38 33 39 41 40 34 41 36 42 42 43 35 44 37 45
REMARK SMILES IDX 38 46 39 47 40 48 64 49 65 50 73 51 66 52 68 53 74 54 67 55
REMARK SMILES IDX 69 56 70 57 71 58 72 59 49 60 50 61 58 62 51 63 53 64 59 65
REMARK SMILES IDX 52 66 54 67 55 68 56 69 57 70 5 71 6 72 7 73 8 74 9 76 10 77
REMARK SMILES IDX 19 78 22 79 20 80 21 81 11 82 12 83 13 84 18 85 14 86 16 87
REMARK SMILES IDX 15 88 17 89
REMARK H PARENT 3 5 79 23 47 34 7 75
REMARK Flexibility Score: inf
ROOT
ATOM      1  C   UNL A   1      33.265  28.990  25.179  1.00  0.00     0.118 C 
ENDROOT
BRANCH   1   2
ATOM      2  N   UNL A   1      32.741  30.280  25.623  1.00  0.00    -0.352 N 
ATOM      3  O   UNL A   1      32.331  31.970  27.048  1.00  0.00    -0.269 OA
ATOM      4  C   UNL A   1      33.079  31.055  26.706  1.00  0.00     0.251 C 
ATOM      5  H   UNL A   1      32.031  30.654  25.053  1.00  0.00     0.163 HD
BRANCH   4   6
ATOM      6  C   UNL A   1      34.318  30.780  27.462  1.00  0.00     0.039 A 
ATOM      7  C   UNL A   1      34.555  29.507  27.974  1.00  0.00     0.014 A 
ATOM      8  C   UNL A   1      35.272  31.788  27.634  1.00  0.00     0.014 A 
ATOM      9  C   UNL A   1      35.634  29.288  28.817  1.00  0.00     0.010 A 
ATOM     10  C   UNL A   1      36.431  31.527  28.373  1.00  0.00     0.010 A 
ATOM     11  C   UNL A   1      36.606  30.282  28.996  1.00  0.00    -0.014 A 
BRANCH  11  12
ATOM     12  C   UNL A   1      37.838  29.937  29.749  1.00  0.00     0.031 A 
ATOM     13  C   UNL A   1      38.078  30.441  31.143  1.00  0.00     0.074 A 
ATOM     14  C   UNL A   1      38.735  29.126  29.152  1.00  0.00     0.049 A 
ATOM     15  N   UNL A   1      39.084  30.190  31.940  1.00  0.00    -0.248 NA
ATOM     16  C   UNL A   1      37.071  31.348  31.717  1.00  0.00     0.031 C 
ATOM     17  C   UNL A   1      38.623  28.612  27.782  1.00  0.00     0.029 A 
ATOM     18  N   UNL A   1      39.906  28.582  29.611  1.00  0.00    -0.354 N 
ATOM     19  C   UNL A   1      38.859  30.937  33.090  1.00  0.00     0.074 A 
ATOM     20  C   UNL A   1      37.619  31.656  32.887  1.00  0.00     0.031 C 
ATOM     21  C   UNL A   1      39.653  27.797  27.529  1.00  0.00     0.029 A 
ATOM     22  C   UNL A   1      40.539  27.786  28.685  1.00  0.00     0.049 A 
ATOM     23  H   UNL A   1      40.260  28.745  30.515  1.00  0.00     0.167 HD
ATOM     24  C   UNL A   1      39.612  31.005  34.214  1.00  0.00     0.034 A 
ATOM     25  C   UNL A   1      41.717  27.138  28.743  1.00  0.00     0.034 A 
ATOM     26  C   UNL A   1      40.829  30.262  34.413  1.00  0.00     0.049 A 
ATOM     27  C   UNL A   1      42.518  27.222  30.008  1.00  0.00     0.074 A 
ATOM     28  C   UNL A   1      41.634  30.217  35.538  1.00  0.00     0.029 A 
ATOM     29  N   UNL A   1      41.424  29.443  33.465  1.00  0.00    -0.354 N 
ATOM     30  N   UNL A   1      42.226  27.839  31.127  1.00  0.00    -0.248 NA
ATOM     31  C   UNL A   1      43.798  26.505  30.028  1.00  0.00     0.031 C 
ATOM     32  C   UNL A   1      42.731  29.394  35.259  1.00  0.00     0.029 A 
ATOM     33  C   UNL A   1      42.593  28.899  33.973  1.00  0.00     0.049 A 
ATOM     34  H   UNL A   1      41.068  29.273  32.563  1.00  0.00     0.167 HD
ATOM     35  C   UNL A   1      43.275  27.566  31.994  1.00  0.00     0.074 A 
ATOM     36  C   UNL A   1      44.193  26.702  31.278  1.00  0.00     0.031 C 
ATOM     37  C   UNL A   1      43.472  28.007  33.260  1.00  0.00     0.034 A 
BRANCH  24  38
ATOM     38  C   UNL A   1      39.135  31.897  35.332  1.00  0.00     0.023 A 
ATOM     39  C   UNL A   1      38.216  31.401  36.279  1.00  0.00     0.012 A 
ATOM     40  C   UNL A   1      39.653  33.198  35.491  1.00  0.00     0.148 A 
ATOM     41  C   UNL A   1      37.799  32.194  37.348  1.00  0.00     0.002 A 
ATOM     42  C   UNL A   1      39.265  33.967  36.582  1.00  0.00     0.091 A 
ATOM     43  F   UNL A   1      40.513  33.660  34.570  1.00  0.00    -0.205 F 
ATOM     44  C   UNL A   1      38.331  33.471  37.506  1.00  0.00     0.022 A 
BRANCH  42  45
ATOM     45  S   UNL A   1      39.952  35.594  36.918  1.00  0.00     0.127 S 
ATOM     46  O   UNL A   1      39.237  35.968  38.137  1.00  0.00    -0.237 OA
ATOM     47  O   UNL A   1      41.371  35.295  37.112  1.00  0.00    -0.237 OA
ATOM     48  O   UNL A   1      39.656  36.405  35.745  1.00  0.00    -0.744 OA
ENDBRANCH  42  45
ENDBRANCH  24  38
BRANCH  25  49
ATOM     49  C   UNL A   1      42.184  26.342  27.575  1.00  0.00     0.023 A 
ATOM     50  C   UNL A   1      43.027  26.936  26.617  1.00  0.00     0.012 A 
ATOM     51  C   UNL A   1      41.834  24.984  27.435  1.00  0.00     0.148 A 
ATOM     52  C   UNL A   1      43.492  26.199  25.528  1.00  0.00     0.002 A 
ATOM     53  C   UNL A   1      42.353  24.240  26.383  1.00  0.00     0.091 A 
ATOM     54  F   UNL A   1      41.018  24.440  28.350  1.00  0.00    -0.205 F 
ATOM     55  C   UNL A   1      43.167  24.849  25.417  1.00  0.00     0.022 A 
BRANCH  53  56
ATOM     56  S   UNL A   1      42.104  22.465  26.253  1.00  0.00     0.127 S 
ATOM     57  O   UNL A   1      42.799  22.158  25.006  1.00  0.00    -0.237 OA
ATOM     58  O   UNL A   1      42.765  21.977  27.465  1.00  0.00    -0.237 OA
ATOM     59  O   UNL A   1      40.660  22.274  26.242  1.00  0.00    -0.744 OA
ENDBRANCH  53  56
ENDBRANCH  25  49
BRANCH  37  60
ATOM     60  C   UNL A   1      44.716  27.537  33.964  1.00  0.00     0.023 A 
ATOM     61  C   UNL A   1      45.888  28.318  33.916  1.00  0.00     0.012 A 
ATOM     62  C   UNL A   1      44.707  26.347  34.718  1.00  0.00     0.148 A 
ATOM     63  C   UNL A   1      47.044  27.902  34.575  1.00  0.00     0.002 A 
ATOM     64  C   UNL A   1      45.847  25.966  35.414  1.00  0.00     0.091 A 
ATOM     65  F   UNL A   1      43.588  25.608  34.734  1.00  0.00    -0.205 F 
ATOM     66  C   UNL A   1      47.020  26.734  35.332  1.00  0.00     0.022 A 
BRANCH  64  67
ATOM     67  S   UNL A   1      45.878  24.529  36.490  1.00  0.00     0.127 S 
ATOM     68  O   UNL A   1      44.692  24.749  37.317  1.00  0.00    -0.237 OA
ATOM     69  O   UNL A   1      45.761  23.425  35.537  1.00  0.00    -0.237 OA
ATOM     70  O   UNL A   1      47.151  24.583  37.197  1.00  0.00    -0.744 OA
ENDBRANCH  64  67
ENDBRANCH  37  60
ENDBRANCH  11  12
ENDBRANCH   4   6
ENDBRANCH   1   2
BRANCH   1  71
ATOM     71  C   UNL A   1      33.606  28.984  23.697  1.00  0.00     0.042 C 
BRANCH  71  72
ATOM     72  C   UNL A   1      32.525  28.346  22.846  1.00  0.00     0.117 C 
BRANCH  72  73
ATOM     73  N   UNL A   1      33.052  27.395  21.883  1.00  0.00    -0.356 N 
ATOM     74  C   UNL A   1      32.961  26.050  21.744  1.00  0.00     0.226 C 
ATOM     75  H   UNL A   1      33.594  27.820  21.178  1.00  0.00     0.163 HD
ATOM     76  O   UNL A   1      33.278  25.624  20.625  1.00  0.00    -0.274 OA
BRANCH  74  77
ATOM     77  C   UNL A   1      32.617  25.071  22.882  1.00  0.00     0.053 C 
ATOM     78  C   UNL A   1      31.154  25.091  23.350  1.00  0.00     0.017 C 
ATOM     79  C   UNL A   1      32.694  23.634  22.308  1.00  0.00     0.017 C 
ATOM     80  C   UNL A   1      30.865  23.711  23.916  1.00  0.00     0.001 C 
ATOM     81  C   UNL A   1      31.746  22.762  23.126  1.00  0.00     0.001 C 
BRANCH  77  82
ATOM     82  C   UNL A   1      33.571  25.328  24.087  1.00  0.00     0.052 C 
BRANCH  82  83
ATOM     83  C   UNL A   1      34.364  24.137  24.591  1.00  0.00    -0.045 A 
ATOM     84  C   UNL A   1      35.464  23.646  23.874  1.00  0.00     0.004 A 
ATOM     85  C   UNL A   1      33.985  23.478  25.771  1.00  0.00     0.024 A 
ATOM     86  C   UNL A   1      36.144  22.502  24.299  1.00  0.00     0.002 A 
ATOM     87  C   UNL A   1      34.669  22.335  26.193  1.00  0.00     0.041 A 
ATOM     88  C   UNL A   1      35.741  21.841  25.458  1.00  0.00     0.020 A 
ATOM     89  Cl  UNL A   1      34.166  21.520  27.625  1.00  0.00    -0.084 Cl
ENDBRANCH  82  83
ENDBRANCH  77  82
ENDBRANCH  74  77
ENDBRANCH  72  73
ENDBRANCH  71  72
ENDBRANCH   1  71
TORSDOF 15
ENDMDL
MODEL 2
REMARK VINA RESULT:     -11.6      5.617      8.523
REMARK SMILES O=C(NCCCNC(=O)C1(Cc2cccc(Cl)c2)CCCC1)c1ccc(-c2c3nc(c(-c4cccc(S(=O)(=O)[O-])c4F)c4ccc([nH]4)c(-c4cccc(S(=O)(=O)[O-])c4F)c4nc(c(-c5cccc(S(=O)(=O)[O-])c5F)c5ccc2[nH]5)C=C4)C=C3)cc1
REMARK SMILES IDX 4 1 3 2 1 3 2 4 23 6 24 7 85 8 25 9 84 10 26 11 27 12 28 13
REMARK SMILES IDX 78 14 29 15 83 16 77 17 79 18 30 19 82 20 76 21 75 22 31 24
REMARK SMILES IDX 63 25 43 26 62 27 44 28 47 29 61 30 80 31 45 32 46 33 60 35
REMARK SMILES IDX 81 36 48 37 32 38 33 39 41 40 34 41 36 42 42 43 35 44 37 45
REMARK SMILES IDX 38 46 39 47 40 48 64 49 65 50 73 51 66 52 68 53 74 54 67 55
REMARK SMILES IDX 69 56 70 57 71 58 72 59 49 60 50 61 58 62 51 63 53 64 59 65
REMARK SMILES IDX 52 66 54 67 55 68 56 69 57 70 5 71 6 72 7 73 8 74 9 76 10 77
REMARK SMILES IDX 19 78 22 79 20 80 21 81 11 82 12 83 13 84 18 85 14 86 16 87
REMARK SMILES IDX 15 88 17 89
REMARK H PARENT 3 5 79 23 47 34 7 75
REMARK Flexibility Score: inf
ROOT
ATOM      1  C   UNL A   1      38.555  20.270  25.745  1.00  0.00     0.118 C 
ENDROOT
BRANCH   1   2
ATOM      2  N   UNL A   1      39.687  19.378  25.984  1.00  0.00    -0.352 N 
ATOM      3  O   UNL A   1      41.844  18.753  26.099  1.00  0.00    -0.269 OA
ATOM      4  C   UNL A   1      41.017  19.659  26.188  1.00  0.00     0.251 C 
ATOM      5  H   UNL A   1      39.460  18.420  26.001  1.00  0.00     0.163 HD
BRANCH   4   6
ATOM      6  C   UNL A   1      41.448  21.038  26.495  1.00  0.00     0.039 A 
ATOM      7  C   UNL A   1      41.423  22.014  25.502  1.00  0.00     0.014 A 
ATOM      8  C   UNL A   1      41.850  21.375  27.792  1.00  0.00     0.014 A 
ATOM      9  C   UNL A   1      41.976  23.262  25.742  1.00  0.00     0.010 A 
ATOM     10  C   UNL A   1      42.282  22.676  28.068  1.00  0.00     0.010 A 
ATOM     11  C   UNL A   1      42.378  23.623  27.036  1.00  0.00    -0.014 A 
BRANCH  11  12
ATOM     12  C   UNL A   1      42.782  25.029  27.283  1.00  0.00     0.031 A 
ATOM     13  C   UNL A   1      41.880  25.997  27.995  1.00  0.00     0.074 A 
ATOM     14  C   UNL A   1      44.008  25.414  26.872  1.00  0.00     0.049 A 
ATOM     15  N   UNL A   1      42.112  27.242  28.320  1.00  0.00    -0.248 NA
ATOM     16  C   UNL A   1      40.545  25.515  28.384  1.00  0.00     0.031 C 
ATOM     17  C   UNL A   1      44.951  24.568  26.132  1.00  0.00     0.029 A 
ATOM     18  N   UNL A   1      44.679  26.600  27.020  1.00  0.00    -0.354 N 
ATOM     19  C   UNL A   1      40.945  27.708  28.912  1.00  0.00     0.074 A 
ATOM     20  C   UNL A   1      40.001  26.611  28.899  1.00  0.00     0.031 C 
ATOM     21  C   UNL A   1      46.089  25.243  25.931  1.00  0.00     0.029 A 
ATOM     22  C   UNL A   1      45.934  26.592  26.458  1.00  0.00     0.049 A 
ATOM     23  H   UNL A   1      44.299  27.381  27.483  1.00  0.00     0.167 HD
ATOM     24  C   UNL A   1      40.692  28.935  29.428  1.00  0.00     0.034 A 
ATOM     25  C   UNL A   1      46.854  27.567  26.350  1.00  0.00     0.034 A 
ATOM     26  C   UNL A   1      41.651  30.008  29.460  1.00  0.00     0.049 A 
ATOM     27  C   UNL A   1      46.548  28.909  26.946  1.00  0.00     0.074 A 
ATOM     28  C   UNL A   1      41.512  31.269  30.013  1.00  0.00     0.029 A 
ATOM     29  N   UNL A   1      42.922  29.954  28.907  1.00  0.00    -0.354 N 
ATOM     30  N   UNL A   1      45.482  29.291  27.607  1.00  0.00    -0.248 NA
ATOM     31  C   UNL A   1      47.576  29.946  26.803  1.00  0.00     0.031 C 
ATOM     32  C   UNL A   1      42.688  31.986  29.769  1.00  0.00     0.029 A 
ATOM     33  C   UNL A   1      43.573  31.163  29.094  1.00  0.00     0.049 A 
ATOM     34  H   UNL A   1      43.306  29.172  28.451  1.00  0.00     0.167 HD
ATOM     35  C   UNL A   1      45.720  30.607  27.980  1.00  0.00     0.074 A 
ATOM     36  C   UNL A   1      47.045  30.943  27.496  1.00  0.00     0.031 C 
ATOM     37  C   UNL A   1      44.908  31.466  28.643  1.00  0.00     0.034 A 
BRANCH  24  38
ATOM     38  C   UNL A   1      39.329  29.183  30.025  1.00  0.00     0.023 A 
ATOM     39  C   UNL A   1      39.044  28.731  31.329  1.00  0.00     0.012 A 
ATOM     40  C   UNL A   1      38.359  29.930  29.327  1.00  0.00     0.148 A 
ATOM     41  C   UNL A   1      37.807  28.992  31.918  1.00  0.00     0.002 A 
ATOM     42  C   UNL A   1      37.145  30.223  29.936  1.00  0.00     0.091 A 
ATOM     43  F   UNL A   1      38.641  30.337  28.080  1.00  0.00    -0.205 F 
ATOM     44  C   UNL A   1      36.863  29.747  31.227  1.00  0.00     0.022 A 
BRANCH  42  45
ATOM     45  S   UNL A   1      35.893  31.254  29.160  1.00  0.00     0.127 S 
ATOM     46  O   UNL A   1      35.192  30.282  28.321  1.00  0.00    -0.237 OA
ATOM     47  O   UNL A   1      35.126  31.726  30.313  1.00  0.00    -0.237 OA
ATOM     48  O   UNL A   1      36.616  32.294  28.443  1.00  0.00    -0.744 OA
ENDBRANCH  42  45
ENDBRANCH  24  38
BRANCH  25  49
ATOM     49  C   UNL A   1      48.150  27.293  25.671  1.00  0.00     0.023 A 
ATOM     50  C   UNL A   1      49.235  26.789  26.414  1.00  0.00     0.012 A 
ATOM     51  C   UNL A   1      48.297  27.483  24.282  1.00  0.00     0.148 A 
ATOM     52  C   UNL A   1      50.450  26.505  25.790  1.00  0.00     0.002 A 
ATOM     53  C   UNL A   1      49.488  27.137  23.658  1.00  0.00     0.091 A 
ATOM     54  F   UNL A   1      47.257  27.976  23.595  1.00  0.00    -0.205 F 
ATOM     55  C   UNL A   1      50.573  26.666  24.412  1.00  0.00     0.022 A 
BRANCH  53  56
ATOM     56  S   UNL A   1      49.678  27.173  21.872  1.00  0.00     0.127 S 
ATOM     57  O   UNL A   1      48.667  26.208  21.446  1.00  0.00    -0.237 OA
ATOM     58  O   UNL A   1      49.368  28.570  21.563  1.00  0.00    -0.237 OA
ATOM     59  O   UNL A   1      51.063  26.798  21.619  1.00  0.00    -0.744 OA
ENDBRANCH  53  56
ENDBRANCH  25  49
BRANCH  37  60
ATOM     60  C   UNL A   1      45.443  32.846  28.911  1.00  0.00     0.023 A 
ATOM     61  C   UNL A   1      46.203  33.091  30.072  1.00  0.00     0.012 A 
ATOM     62  C   UNL A   1      45.236  33.887  27.986  1.00  0.00     0.148 A 
ATOM     63  C   UNL A   1      46.717  34.363  30.327  1.00  0.00     0.002 A 
ATOM     64  C   UNL A   1      45.795  35.137  28.221  1.00  0.00     0.091 A 
ATOM     65  F   UNL A   1      44.493  33.639  26.897  1.00  0.00    -0.205 F 
ATOM     66  C   UNL A   1      46.523  35.381  29.397  1.00  0.00     0.022 A 
BRANCH  64  67
ATOM     67  S   UNL A   1      45.678  36.479  27.034  1.00  0.00     0.127 S 
ATOM     68  O   UNL A   1      44.231  36.605  26.867  1.00  0.00    -0.237 OA
ATOM     69  O   UNL A   1      46.308  37.587  27.755  1.00  0.00    -0.237 OA
ATOM     70  O   UNL A   1      46.407  36.036  25.853  1.00  0.00    -0.744 OA
ENDBRANCH  64  67
ENDBRANCH  37  60
ENDBRANCH  11  12
ENDBRANCH   4   6
ENDBRANCH   1   2
BRANCH   1  71
ATOM     71  C   UNL A   1      37.416  19.575  25.017  1.00  0.00     0.042 C 
BRANCH  71  72
ATOM     72  C   UNL A   1      36.261  20.507  24.704  1.00  0.00     0.117 C 
BRANCH  72  73
ATOM     73  N   UNL A   1      35.628  21.042  25.896  1.00  0.00    -0.356 N 
ATOM     74  C   UNL A   1      34.344  21.292  26.248  1.00  0.00     0.226 C 
ATOM     75  H   UNL A   1      36.273  21.274  26.604  1.00  0.00     0.163 HD
ATOM     76  O   UNL A   1      34.161  21.452  27.462  1.00  0.00    -0.274 OA
BRANCH  74  77
ATOM     77  C   UNL A   1      33.185  21.494  25.252  1.00  0.00     0.053 C 
ATOM     78  C   UNL A   1      32.309  22.731  25.500  1.00  0.00     0.017 C 
ATOM     79  C   UNL A   1      33.801  21.873  23.882  1.00  0.00     0.017 C 
ATOM     80  C   UNL A   1      31.727  23.122  24.153  1.00  0.00     0.001 C 
ATOM     81  C   UNL A   1      32.768  22.709  23.131  1.00  0.00     0.001 C 
BRANCH  77  82
ATOM     82  C   UNL A   1      32.304  20.208  25.222  1.00  0.00     0.052 C 
BRANCH  82  83
ATOM     83  C   UNL A   1      32.867  19.018  24.469  1.00  0.00    -0.045 A 
ATOM     84  C   UNL A   1      32.530  18.786  23.127  1.00  0.00     0.004 A 
ATOM     85  C   UNL A   1      33.711  18.101  25.116  1.00  0.00     0.024 A 
ATOM     86  C   UNL A   1      32.988  17.647  22.461  1.00  0.00     0.002 A 
ATOM     87  C   UNL A   1      34.167  16.965  24.444  1.00  0.00     0.041 A 
ATOM     88  C   UNL A   1      33.803  16.731  23.122  1.00  0.00     0.020 A 
ATOM     89  Cl  UNL A   1      35.173  15.834  25.266  1.00  0.00    -0.084 Cl
ENDBRANCH  82  83
ENDBRANCH  77  82
ENDBRANCH  74  77
ENDBRANCH  72  73
ENDBRANCH  71  72
ENDBRANCH   1  71
TORSDOF 15
ENDMDL
MODEL 3
REMARK VINA RESULT:     -11.6      5.074     10.066
REMARK SMILES O=C(NCCCNC(=O)C1(Cc2cccc(Cl)c2)CCCC1)c1ccc(-c2c3nc(c(-c4cccc(S(=O)(=O)[O-])c4F)c4ccc([nH]4)c(-c4cccc(S(=O)(=O)[O-])c4F)c4nc(c(-c5cccc(S(=O)(=O)[O-])c5F)c5ccc2[nH]5)C=C4)C=C3)cc1
REMARK SMILES IDX 4 1 3 2 1 3 2 4 23 6 24 7 85 8 25 9 84 10 26 11 27 12 28 13
REMARK SMILES IDX 78 14 29 15 83 16 77 17 79 18 30 19 82 20 76 21 75 22 31 24
REMARK SMILES IDX 63 25 43 26 62 27 44 28 47 29 61 30 80 31 45 32 46 33 60 35
REMARK SMILES IDX 81 36 48 37 32 38 33 39 41 40 34 41 36 42 42 43 35 44 37 45
REMARK SMILES IDX 38 46 39 47 40 48 64 49 65 50 73 51 66 52 68 53 74 54 67 55
REMARK SMILES IDX 69 56 70 57 71 58 72 59 49 60 50 61 58 62 51 63 53 64 59 65
REMARK SMILES IDX 52 66 54 67 55 68 56 69 57 70 5 71 6 72 7 73 8 74 9 76 10 77
REMARK SMILES IDX 19 78 22 79 20 80 21 81 11 82 12 83 13 84 18 85 14 86 16 87
REMARK SMILES IDX 15 88 17 89
REMARK H PARENT 3 5 79 23 47 34 7 75
REMARK Flexibility Score: inf
ROOT
ATOM      1  C   UNL A   1      35.829  22.558  26.137  1.00  0.00     0.118 C 
ENDROOT
BRANCH   1   2
ATOM      2  N   UNL A   1      36.762  21.454  25.928  1.00  0.00    -0.352 N 
ATOM      3  O   UNL A   1      38.706  20.458  25.394  1.00  0.00    -0.269 OA
ATOM      4  C   UNL A   1      38.134  21.450  25.843  1.00  0.00     0.251 C 
ATOM      5  H   UNL A   1      36.340  20.570  25.831  1.00  0.00     0.163 HD
BRANCH   4   6
ATOM      6  C   UNL A   1      38.911  22.631  26.273  1.00  0.00     0.039 A 
ATOM      7  C   UNL A   1      38.574  23.897  25.800  1.00  0.00     0.014 A 
ATOM      8  C   UNL A   1      39.964  22.484  27.182  1.00  0.00     0.014 A 
ATOM      9  C   UNL A   1      39.395  24.980  26.071  1.00  0.00     0.010 A 
ATOM     10  C   UNL A   1      40.711  23.604  27.563  1.00  0.00     0.010 A 
ATOM     11  C   UNL A   1      40.451  24.857  26.986  1.00  0.00    -0.014 A 
BRANCH  11  12
ATOM     12  C   UNL A   1      41.180  26.084  27.391  1.00  0.00     0.031 A 
ATOM     13  C   UNL A   1      42.598  26.337  26.966  1.00  0.00     0.074 A 
ATOM     14  C   UNL A   1      40.519  26.993  28.139  1.00  0.00     0.049 A 
ATOM     15  N   UNL A   1      43.349  27.380  27.206  1.00  0.00    -0.248 NA
ATOM     16  C   UNL A   1      43.266  25.286  26.181  1.00  0.00     0.031 C 
ATOM     17  C   UNL A   1      39.152  26.829  28.645  1.00  0.00     0.029 A 
ATOM     18  N   UNL A   1      40.892  28.229  28.595  1.00  0.00    -0.354 N 
ATOM     19  C   UNL A   1      44.588  27.099  26.643  1.00  0.00     0.074 A 
ATOM     20  C   UNL A   1      44.490  25.782  26.049  1.00  0.00     0.031 C 
ATOM     21  C   UNL A   1      38.787  27.938  29.300  1.00  0.00     0.029 A 
ATOM     22  C   UNL A   1      39.914  28.859  29.329  1.00  0.00     0.049 A 
ATOM     23  H   UNL A   1      41.774  28.628  28.416  1.00  0.00     0.167 HD
ATOM     24  C   UNL A   1      45.698  27.875  26.614  1.00  0.00     0.034 A 
ATOM     25  C   UNL A   1      39.925  30.037  29.978  1.00  0.00     0.034 A 
ATOM     26  C   UNL A   1      45.772  29.196  27.184  1.00  0.00     0.049 A 
ATOM     27  C   UNL A   1      41.165  30.878  29.914  1.00  0.00     0.074 A 
ATOM     28  C   UNL A   1      46.831  30.085  27.157  1.00  0.00     0.029 A 
ATOM     29  N   UNL A   1      44.753  29.813  27.894  1.00  0.00    -0.354 N 
ATOM     30  N   UNL A   1      42.285  30.645  29.273  1.00  0.00    -0.248 NA
ATOM     31  C   UNL A   1      41.138  32.153  30.640  1.00  0.00     0.031 C 
ATOM     32  C   UNL A   1      46.462  31.228  27.874  1.00  0.00     0.029 A 
ATOM     33  C   UNL A   1      45.161  31.066  28.321  1.00  0.00     0.049 A 
ATOM     34  H   UNL A   1      43.867  29.419  28.067  1.00  0.00     0.167 HD
ATOM     35  C   UNL A   1      43.089  31.753  29.500  1.00  0.00     0.074 A 
ATOM     36  C   UNL A   1      42.313  32.671  30.310  1.00  0.00     0.031 C 
ATOM     37  C   UNL A   1      44.360  31.983  29.091  1.00  0.00     0.034 A 
BRANCH  24  38
ATOM     38  C   UNL A   1      46.924  27.331  25.924  1.00  0.00     0.023 A 
ATOM     39  C   UNL A   1      47.086  27.517  24.537  1.00  0.00     0.012 A 
ATOM     40  C   UNL A   1      47.949  26.704  26.660  1.00  0.00     0.148 A 
ATOM     41  C   UNL A   1      48.234  27.064  23.888  1.00  0.00     0.002 A 
ATOM     42  C   UNL A   1      49.109  26.293  26.014  1.00  0.00     0.091 A 
ATOM     43  F   UNL A   1      47.770  26.519  27.976  1.00  0.00    -0.205 F 
ATOM     44  C   UNL A   1      49.250  26.463  24.627  1.00  0.00     0.022 A 
BRANCH  42  45
ATOM     45  S   UNL A   1      50.508  25.580  26.889  1.00  0.00     0.127 S 
ATOM     46  O   UNL A   1      51.410  25.255  25.784  1.00  0.00    -0.237 OA
ATOM     47  O   UNL A   1      50.948  26.695  27.727  1.00  0.00    -0.237 OA
ATOM     48  O   UNL A   1      49.982  24.437  27.623  1.00  0.00    -0.744 OA
ENDBRANCH  42  45
ENDBRANCH  24  38
BRANCH  25  49
ATOM     49  C   UNL A   1      38.715  30.487  30.720  1.00  0.00     0.023 A 
ATOM     50  C   UNL A   1      38.637  30.293  32.112  1.00  0.00     0.012 A 
ATOM     51  C   UNL A   1      37.663  31.151  30.058  1.00  0.00     0.148 A 
ATOM     52  C   UNL A   1      37.520  30.728  32.827  1.00  0.00     0.002 A 
ATOM     53  C   UNL A   1      36.585  31.638  30.786  1.00  0.00     0.091 A 
ATOM     54  F   UNL A   1      37.750  31.314  28.730  1.00  0.00    -0.205 F 
ATOM     55  C   UNL A   1      36.502  31.411  32.167  1.00  0.00     0.022 A 
BRANCH  53  56
ATOM     56  S   UNL A   1      35.308  32.656  30.037  1.00  0.00     0.127 S 
ATOM     57  O   UNL A   1      34.784  31.766  29.005  1.00  0.00    -0.237 OA
ATOM     58  O   UNL A   1      34.407  32.889  31.167  1.00  0.00    -0.237 OA
ATOM     59  O   UNL A   1      35.991  33.852  29.561  1.00  0.00    -0.744 OA
ENDBRANCH  53  56
ENDBRANCH  25  49
BRANCH  37  60
ATOM     60  C   UNL A   1      44.983  33.293  29.491  1.00  0.00     0.023 A 
ATOM     61  C   UNL A   1      45.730  33.380  30.684  1.00  0.00     0.012 A 
ATOM     62  C   UNL A   1      44.873  34.423  28.659  1.00  0.00     0.148 A 
ATOM     63  C   UNL A   1      46.324  34.584  31.060  1.00  0.00     0.002 A 
ATOM     64  C   UNL A   1      45.511  35.604  29.015  1.00  0.00     0.091 A 
ATOM     65  F   UNL A   1      44.141  34.325  27.539  1.00  0.00    -0.205 F 
ATOM     66  C   UNL A   1      46.225  35.691  30.221  1.00  0.00     0.022 A 
BRANCH  64  67
ATOM     67  S   UNL A   1      45.518  37.050  27.951  1.00  0.00     0.127 S 
ATOM     68  O   UNL A   1      46.623  37.827  28.509  1.00  0.00    -0.237 OA
ATOM     69  O   UNL A   1      45.786  36.466  26.636  1.00  0.00    -0.237 OA
ATOM     70  O   UNL A   1      44.199  37.655  28.085  1.00  0.00    -0.744 OA
ENDBRANCH  64  67
ENDBRANCH  37  60
ENDBRANCH  11  12
ENDBRANCH   4   6
ENDBRANCH   1   2
BRANCH   1  71
ATOM     71  C   UNL A   1      35.065  22.918  24.873  1.00  0.00     0.042 C 
BRANCH  71  72
ATOM     72  C   UNL A   1      34.356  24.255  24.972  1.00  0.00     0.117 C 
BRANCH  72  73
ATOM     73  N   UNL A   1      33.276  24.251  25.943  1.00  0.00    -0.356 N 
ATOM     74  C   UNL A   1      32.303  25.135  26.270  1.00  0.00     0.226 C 
ATOM     75  H   UNL A   1      33.244  23.426  26.480  1.00  0.00     0.163 HD
ATOM     76  O   UNL A   1      31.370  24.657  26.929  1.00  0.00    -0.274 OA
BRANCH  74  77
ATOM     77  C   UNL A   1      32.358  26.647  25.981  1.00  0.00     0.053 C 
ATOM     78  C   UNL A   1      31.434  27.519  26.845  1.00  0.00     0.017 C 
ATOM     79  C   UNL A   1      33.738  27.169  26.454  1.00  0.00     0.017 C 
ATOM     80  C   UNL A   1      32.078  28.893  26.910  1.00  0.00     0.001 C 
ATOM     81  C   UNL A   1      33.571  28.641  26.818  1.00  0.00     0.001 C 
BRANCH  77  82
ATOM     82  C   UNL A   1      32.068  26.892  24.469  1.00  0.00     0.052 C 
BRANCH  82  83
ATOM     83  C   UNL A   1      30.646  27.274  24.103  1.00  0.00    -0.045 A 
ATOM     84  C   UNL A   1      29.587  26.375  24.287  1.00  0.00     0.004 A 
ATOM     85  C   UNL A   1      30.371  28.529  23.537  1.00  0.00     0.024 A 
ATOM     86  C   UNL A   1      28.291  26.701  23.877  1.00  0.00     0.002 A 
ATOM     87  C   UNL A   1      29.074  28.851  23.130  1.00  0.00     0.041 A 
ATOM     88  C   UNL A   1      28.035  27.939  23.292  1.00  0.00     0.020 A 
ATOM     89  Cl  UNL A   1      28.762  30.381  22.404  1.00  0.00    -0.084 Cl
ENDBRANCH  82  83
ENDBRANCH  77  82
ENDBRANCH  74  77
ENDBRANCH  72  73
ENDBRANCH  71  72
ENDBRANCH   1  71
TORSDOF 15
ENDMDL
