MODEL 1
REMARK VINA RESULT:     -12.4      0.000      0.000
REMARK SMILES C[C@@H]1[C@H](C(=O)NCCCNC(=O)c2ccc(-c3c4nc(c(-c5cccc(S(=O)(=O)[O-])c5F)c5ccc([nH]5)c(-c5cccc(S(=O)(=O)[O-])c5F)c5nc(c(-c6cccc(S(=O)(=O)[O-])c6F)c6ccc3[nH]6)C=C5)C=C4)cc2)CC[N@@H+]1Cc1cnn(-c2ccccc2)c1
REMARK SMILES IDX 8 1 7 2 6 3 4 4 5 5 3 7 1 8 2 9 78 10 76 11 77 12 79 14
REMARK SMILES IDX 80 15 81 16 90 17 82 18 83 19 84 20 85 21 89 22 86 23 88 24
REMARK SMILES IDX 87 25 9 26 10 27 11 28 12 30 13 31 14 32 75 33 15 34 74 35
REMARK SMILES IDX 16 36 17 37 18 38 68 39 19 40 73 41 67 42 69 43 20 44 72 45
REMARK SMILES IDX 66 46 65 47 21 49 53 50 33 51 52 52 34 53 37 54 51 55 70 56
REMARK SMILES IDX 35 57 36 58 50 60 71 61 38 62 22 63 23 64 31 65 24 66 26 67
REMARK SMILES IDX 32 68 25 69 27 70 28 71 29 72 30 73 54 74 55 75 63 76 56 77
REMARK SMILES IDX 58 78 64 79 57 80 59 81 60 82 61 83 62 84 39 85 40 86 48 87
REMARK SMILES IDX 41 88 43 89 49 90 42 91 44 92 45 93 46 94 47 95
REMARK H PARENT 6 6 78 13 10 29 69 48 37 59
REMARK Flexibility Score: inf
ROOT
ATOM      1  C   UNL A   1      31.635  29.593  24.822  1.00  0.00     0.042 C 
ENDROOT
BRANCH   1   2
ATOM      2  C   UNL A   1      32.523  28.967  23.756  1.00  0.00     0.117 C 
BRANCH   2   3
ATOM      3  N   UNL A   1      31.955  27.739  23.231  1.00  0.00    -0.356 N 
ATOM      4  C   UNL A   1      32.325  26.441  23.353  1.00  0.00     0.229 C 
ATOM      5  O   UNL A   1      31.662  25.624  22.703  1.00  0.00    -0.275 OA
ATOM      6  H   UNL A   1      31.148  27.875  22.684  1.00  0.00     0.163 HD
BRANCH   4   7
ATOM      7  C   UNL A   1      33.458  25.937  24.239  1.00  0.00     0.142 C 
ATOM      8  C   UNL A   1      31.810  25.722  26.275  1.00  0.00     0.076 C 
ATOM      9  C   UNL A   1      33.232  25.686  25.743  1.00  0.00     0.193 C 
ATOM     10  N   UNL A   1      34.050  24.509  26.047  1.00  0.00    -0.328 N 
ATOM     11  C   UNL A   1      34.247  24.738  23.723  1.00  0.00     0.081 C 
ATOM     12  C   UNL A   1      34.968  24.233  24.961  1.00  0.00     0.263 C 
ATOM     13  H   UNL A   1      34.557  24.816  26.877  1.00  0.00     0.348 HD
BRANCH  10  14
ATOM     14  C   UNL A   1      33.620  23.427  26.910  1.00  0.00     0.302 C 
BRANCH  14  15
ATOM     15  C   UNL A   1      33.064  22.247  26.186  1.00  0.00     0.045 A 
ATOM     16  C   UNL A   1      31.897  22.151  25.398  1.00  0.00     0.145 A 
ATOM     17  C   UNL A   1      33.643  21.003  26.033  1.00  0.00     0.124 A 
ATOM     18  N   UNL A   1      31.743  20.961  24.818  1.00  0.00    -0.176 NA
ATOM     19  N   UNL A   1      32.815  20.241  25.238  1.00  0.00    -0.240 N 
BRANCH  19  20
ATOM     20  C   UNL A   1      32.960  18.872  24.900  1.00  0.00     0.065 A 
ATOM     21  C   UNL A   1      32.903  17.889  25.898  1.00  0.00     0.028 A 
ATOM     22  C   UNL A   1      33.202  18.500  23.576  1.00  0.00     0.028 A 
ATOM     23  C   UNL A   1      33.059  16.540  25.566  1.00  0.00     0.002 A 
ATOM     24  C   UNL A   1      33.407  17.161  23.269  1.00  0.00     0.002 A 
ATOM     25  C   UNL A   1      33.313  16.176  24.249  1.00  0.00     0.000 A 
ENDBRANCH  19  20
ENDBRANCH  14  15
ENDBRANCH  10  14
ENDBRANCH   4   7
ENDBRANCH   2   3
ENDBRANCH   1   2
BRANCH   1  26
ATOM     26  C   UNL A   1      32.280  29.880  26.165  1.00  0.00     0.118 C 
BRANCH  26  27
ATOM     27  N   UNL A   1      32.260  31.281  26.553  1.00  0.00    -0.352 N 
ATOM     28  C   UNL A   1      33.141  32.041  27.289  1.00  0.00     0.251 C 
ATOM     29  H   UNL A   1      31.473  31.777  26.229  1.00  0.00     0.163 HD
ATOM     30  O   UNL A   1      32.865  33.225  27.485  1.00  0.00    -0.269 OA
BRANCH  28  31
ATOM     31  C   UNL A   1      34.378  31.474  27.895  1.00  0.00     0.039 A 
ATOM     32  C   UNL A   1      35.418  32.354  28.226  1.00  0.00     0.014 A 
ATOM     33  C   UNL A   1      34.553  30.112  28.141  1.00  0.00     0.014 A 
ATOM     34  C   UNL A   1      36.555  31.896  28.906  1.00  0.00     0.010 A 
ATOM     35  C   UNL A   1      35.642  29.665  28.891  1.00  0.00     0.010 A 
ATOM     36  C   UNL A   1      36.655  30.552  29.281  1.00  0.00    -0.014 A 
BRANCH  36  37
ATOM     37  C   UNL A   1      37.852  30.022  29.981  1.00  0.00     0.031 A 
ATOM     38  C   UNL A   1      38.164  30.524  31.360  1.00  0.00     0.074 A 
ATOM     39  C   UNL A   1      38.697  29.165  29.371  1.00  0.00     0.049 A 
ATOM     40  N   UNL A   1      39.173  30.230  32.133  1.00  0.00    -0.248 NA
ATOM     41  C   UNL A   1      37.226  31.503  31.936  1.00  0.00     0.031 C 
ATOM     42  C   UNL A   1      38.535  28.644  28.020  1.00  0.00     0.029 A 
ATOM     43  N   UNL A   1      39.879  28.607  29.792  1.00  0.00    -0.354 N 
ATOM     44  C   UNL A   1      39.004  30.994  33.278  1.00  0.00     0.074 A 
ATOM     45  C   UNL A   1      37.821  31.802  33.080  1.00  0.00     0.031 C 
ATOM     46  C   UNL A   1      39.578  27.859  27.707  1.00  0.00     0.029 A 
ATOM     47  C   UNL A   1      40.498  27.832  28.835  1.00  0.00     0.049 A 
ATOM     48  H   UNL A   1      40.251  28.748  30.693  1.00  0.00     0.167 HD
ATOM     49  C   UNL A   1      39.748  31.001  34.407  1.00  0.00     0.034 A 
ATOM     50  C   UNL A   1      41.675  27.177  28.859  1.00  0.00     0.034 A 
ATOM     51  C   UNL A   1      40.917  30.192  34.601  1.00  0.00     0.049 A 
ATOM     52  C   UNL A   1      42.489  27.209  30.123  1.00  0.00     0.074 A 
ATOM     53  C   UNL A   1      41.708  30.081  35.730  1.00  0.00     0.029 A 
ATOM     54  N   UNL A   1      41.478  29.368  33.636  1.00  0.00    -0.354 N 
ATOM     55  N   UNL A   1      42.226  27.814  31.256  1.00  0.00    -0.248 NA
ATOM     56  C   UNL A   1      43.737  26.434  30.130  1.00  0.00     0.031 C 
ATOM     57  C   UNL A   1      42.766  29.215  35.438  1.00  0.00     0.029 A 
ATOM     58  C   UNL A   1      42.612  28.757  34.138  1.00  0.00     0.049 A 
ATOM     59  H   UNL A   1      41.120  29.238  32.728  1.00  0.00     0.167 HD
ATOM     60  C   UNL A   1      43.250  27.457  32.125  1.00  0.00     0.074 A 
ATOM     61  C   UNL A   1      44.130  26.570  31.390  1.00  0.00     0.031 C 
ATOM     62  C   UNL A   1      43.448  27.835  33.411  1.00  0.00     0.034 A 
BRANCH  49  63
ATOM     63  C   UNL A   1      39.289  31.894  35.527  1.00  0.00     0.023 A 
ATOM     64  C   UNL A   1      39.638  33.260  35.515  1.00  0.00     0.012 A 
ATOM     65  C   UNL A   1      38.492  31.391  36.571  1.00  0.00     0.148 A 
ATOM     66  C   UNL A   1      39.234  34.104  36.548  1.00  0.00     0.002 A 
ATOM     67  C   UNL A   1      38.053  32.248  37.572  1.00  0.00     0.091 A 
ATOM     68  F   UNL A   1      38.196  30.083  36.576  1.00  0.00    -0.205 F 
ATOM     69  C   UNL A   1      38.434  33.600  37.570  1.00  0.00     0.022 A 
BRANCH  67  70
ATOM     70  S   UNL A   1      36.959  31.714  38.890  1.00  0.00     0.127 S 
ATOM     71  O   UNL A   1      36.664  30.339  38.489  1.00  0.00    -0.237 OA
ATOM     72  O   UNL A   1      37.819  31.834  40.068  1.00  0.00    -0.237 OA
ATOM     73  O   UNL A   1      35.825  32.626  38.869  1.00  0.00    -0.744 OA
ENDBRANCH  67  70
ENDBRANCH  49  63
BRANCH  50  74
ATOM     74  C   UNL A   1      42.123  26.380  27.680  1.00  0.00     0.023 A 
ATOM     75  C   UNL A   1      42.850  27.012  26.652  1.00  0.00     0.012 A 
ATOM     76  C   UNL A   1      41.838  25.005  27.572  1.00  0.00     0.148 A 
ATOM     77  C   UNL A   1      43.248  26.302  25.519  1.00  0.00     0.002 A 
ATOM     78  C   UNL A   1      42.283  24.291  26.463  1.00  0.00     0.091 A 
ATOM     79  F   UNL A   1      41.142  24.420  28.557  1.00  0.00    -0.205 F 
ATOM     80  C   UNL A   1      42.971  24.941  25.428  1.00  0.00     0.022 A 
BRANCH  78  81
ATOM     81  S   UNL A   1      42.073  22.512  26.312  1.00  0.00     0.127 S 
ATOM     82  O   UNL A   1      40.620  22.377  26.362  1.00  0.00    -0.237 OA
ATOM     83  O   UNL A   1      42.672  22.249  25.002  1.00  0.00    -0.237 OA
ATOM     84  O   UNL A   1      42.802  21.932  27.432  1.00  0.00    -0.744 OA
ENDBRANCH  78  81
ENDBRANCH  50  74
BRANCH  62  85
ATOM     85  C   UNL A   1      44.636  27.258  34.133  1.00  0.00     0.023 A 
ATOM     86  C   UNL A   1      45.860  27.956  34.148  1.00  0.00     0.012 A 
ATOM     87  C   UNL A   1      44.509  26.063  34.867  1.00  0.00     0.148 A 
ATOM     88  C   UNL A   1      46.950  27.453  34.857  1.00  0.00     0.002 A 
ATOM     89  C   UNL A   1      45.583  25.598  35.616  1.00  0.00     0.091 A 
ATOM     90  F   UNL A   1      43.341  25.406  34.823  1.00  0.00    -0.205 F 
ATOM     91  C   UNL A   1      46.807  26.285  35.601  1.00  0.00     0.022 A 
BRANCH  89  92
ATOM     92  S   UNL A   1      45.458  24.161  36.686  1.00  0.00     0.127 S 
ATOM     93  O   UNL A   1      46.848  23.981  37.103  1.00  0.00    -0.237 OA
ATOM     94  O   UNL A   1      44.562  24.638  37.739  1.00  0.00    -0.237 OA
ATOM     95  O   UNL A   1      44.910  23.092  35.863  1.00  0.00    -0.744 OA
ENDBRANCH  89  92
ENDBRANCH  62  85
ENDBRANCH  36  37
ENDBRANCH  28  31
ENDBRANCH  26  27
ENDBRANCH   1  26
TORSDOF 16
ENDMDL
MODEL 2
REMARK VINA RESULT:     -12.4      2.224      8.024
REMARK SMILES C[C@@H]1[C@H](C(=O)NCCCNC(=O)c2ccc(-c3c4nc(c(-c5cccc(S(=O)(=O)[O-])c5F)c5ccc([nH]5)c(-c5cccc(S(=O)(=O)[O-])c5F)c5nc(c(-c6cccc(S(=O)(=O)[O-])c6F)c6ccc3[nH]6)C=C5)C=C4)cc2)CC[N@@H+]1Cc1cnn(-c2ccccc2)c1
REMARK SMILES IDX 8 1 7 2 6 3 4 4 5 5 3 7 1 8 2 9 78 10 76 11 77 12 79 14
REMARK SMILES IDX 80 15 81 16 90 17 82 18 83 19 84 20 85 21 89 22 86 23 88 24
REMARK SMILES IDX 87 25 9 26 10 27 11 28 12 30 13 31 14 32 75 33 15 34 74 35
REMARK SMILES IDX 16 36 17 37 18 38 68 39 19 40 73 41 67 42 69 43 20 44 72 45
REMARK SMILES IDX 66 46 65 47 21 49 53 50 33 51 52 52 34 53 37 54 51 55 70 56
REMARK SMILES IDX 35 57 36 58 50 60 71 61 38 62 22 63 23 64 31 65 24 66 26 67
REMARK SMILES IDX 32 68 25 69 27 70 28 71 29 72 30 73 54 74 55 75 63 76 56 77
REMARK SMILES IDX 58 78 64 79 57 80 59 81 60 82 61 83 62 84 39 85 40 86 48 87
REMARK SMILES IDX 41 88 43 89 49 90 42 91 44 92 45 93 46 94 47 95
REMARK H PARENT 6 6 78 13 10 29 69 48 37 59
REMARK Flexibility Score: inf
ROOT
ATOM      1  C   UNL A   1      31.389  31.775  26.386  1.00  0.00     0.042 C 
ENDROOT
BRANCH   1   2
ATOM      2  C   UNL A   1      31.441  30.309  25.981  1.00  0.00     0.117 C 
BRANCH   2   3
ATOM      3  N   UNL A   1      31.033  30.114  24.602  1.00  0.00    -0.356 N 
ATOM      4  C   UNL A   1      31.269  29.116  23.716  1.00  0.00     0.229 C 
ATOM      5  O   UNL A   1      30.837  29.292  22.571  1.00  0.00    -0.275 OA
ATOM      6  H   UNL A   1      30.480  30.845  24.243  1.00  0.00     0.163 HD
BRANCH   4   7
ATOM      7  C   UNL A   1      31.988  27.812  24.043  1.00  0.00     0.142 C 
ATOM      8  C   UNL A   1      29.687  26.561  24.253  1.00  0.00     0.076 C 
ATOM      9  C   UNL A   1      31.195  26.549  24.432  1.00  0.00     0.193 C 
ATOM     10  N   UNL A   1      31.949  25.443  23.836  1.00  0.00    -0.328 N 
ATOM     11  C   UNL A   1      33.056  27.354  23.055  1.00  0.00     0.081 C 
ATOM     12  C   UNL A   1      33.258  25.891  23.409  1.00  0.00     0.263 C 
ATOM     13  H   UNL A   1      32.028  24.798  24.623  1.00  0.00     0.348 HD
BRANCH  10  14
ATOM     14  C   UNL A   1      31.334  24.308  23.179  1.00  0.00     0.302 C 
BRANCH  14  15
ATOM     15  C   UNL A   1      31.670  22.987  23.787  1.00  0.00     0.045 A 
ATOM     16  C   UNL A   1      31.407  22.511  25.089  1.00  0.00     0.145 A 
ATOM     17  C   UNL A   1      32.217  21.885  23.159  1.00  0.00     0.124 A 
ATOM     18  N   UNL A   1      31.766  21.240  25.273  1.00  0.00    -0.176 NA
ATOM     19  N   UNL A   1      32.295  20.864  24.081  1.00  0.00    -0.240 N 
BRANCH  19  20
ATOM     20  C   UNL A   1      32.880  19.584  23.906  1.00  0.00     0.065 A 
ATOM     21  C   UNL A   1      34.027  19.229  24.631  1.00  0.00     0.028 A 
ATOM     22  C   UNL A   1      32.341  18.689  22.981  1.00  0.00     0.028 A 
ATOM     23  C   UNL A   1      34.611  17.973  24.448  1.00  0.00     0.002 A 
ATOM     24  C   UNL A   1      32.963  17.465  22.773  1.00  0.00     0.002 A 
ATOM     25  C   UNL A   1      34.078  17.089  23.516  1.00  0.00     0.000 A 
ENDBRANCH  19  20
ENDBRANCH  14  15
ENDBRANCH  10  14
ENDBRANCH   4   7
ENDBRANCH   2   3
ENDBRANCH   1   2
BRANCH   1  26
ATOM     26  C   UNL A   1      32.664  32.372  26.953  1.00  0.00     0.118 C 
BRANCH  26  27
ATOM     27  N   UNL A   1      32.495  33.682  27.558  1.00  0.00    -0.352 N 
ATOM     28  C   UNL A   1      33.211  34.341  28.533  1.00  0.00     0.251 C 
ATOM     29  H   UNL A   1      31.730  34.193  27.206  1.00  0.00     0.163 HD
ATOM     30  O   UNL A   1      32.830  35.460  28.878  1.00  0.00    -0.269 OA
BRANCH  28  31
ATOM     31  C   UNL A   1      34.387  33.732  29.216  1.00  0.00     0.039 A 
ATOM     32  C   UNL A   1      35.657  34.264  28.952  1.00  0.00     0.014 A 
ATOM     33  C   UNL A   1      34.285  32.655  30.097  1.00  0.00     0.014 A 
ATOM     34  C   UNL A   1      36.783  33.811  29.652  1.00  0.00     0.010 A 
ATOM     35  C   UNL A   1      35.386  32.259  30.858  1.00  0.00     0.010 A 
ATOM     36  C   UNL A   1      36.647  32.832  30.644  1.00  0.00    -0.014 A 
BRANCH  36  37
ATOM     37  C   UNL A   1      37.817  32.309  31.392  1.00  0.00     0.031 A 
ATOM     38  C   UNL A   1      38.606  31.178  30.799  1.00  0.00     0.074 A 
ATOM     39  C   UNL A   1      38.131  32.775  32.617  1.00  0.00     0.049 A 
ATOM     40  N   UNL A   1      39.633  30.544  31.294  1.00  0.00    -0.248 NA
ATOM     41  C   UNL A   1      38.167  30.683  29.482  1.00  0.00     0.031 C 
ATOM     42  C   UNL A   1      37.416  33.831  33.323  1.00  0.00     0.029 A 
ATOM     43  N   UNL A   1      39.110  32.401  33.505  1.00  0.00    -0.354 N 
ATOM     44  C   UNL A   1      39.956  29.567  30.363  1.00  0.00     0.074 A 
ATOM     45  C   UNL A   1      38.986  29.660  29.295  1.00  0.00     0.031 C 
ATOM     46  C   UNL A   1      37.956  34.014  34.537  1.00  0.00     0.029 A 
ATOM     47  C   UNL A   1      39.055  33.074  34.707  1.00  0.00     0.049 A 
ATOM     48  H   UNL A   1      39.787  31.715  33.303  1.00  0.00     0.167 HD
ATOM     49  C   UNL A   1      40.985  28.691  30.381  1.00  0.00     0.034 A 
ATOM     50  C   UNL A   1      39.800  32.946  35.821  1.00  0.00     0.034 A 
ATOM     51  C   UNL A   1      41.950  28.609  31.440  1.00  0.00     0.049 A 
ATOM     52  C   UNL A   1      40.934  31.957  35.819  1.00  0.00     0.074 A 
ATOM     53  C   UNL A   1      43.066  27.796  31.525  1.00  0.00     0.029 A 
ATOM     54  N   UNL A   1      41.903  29.351  32.611  1.00  0.00    -0.354 N 
ATOM     55  N   UNL A   1      41.320  31.152  34.860  1.00  0.00    -0.248 NA
ATOM     56  C   UNL A   1      41.760  31.890  37.032  1.00  0.00     0.031 C 
ATOM     57  C   UNL A   1      43.676  28.023  32.762  1.00  0.00     0.029 A 
ATOM     58  C   UNL A   1      42.962  29.005  33.431  1.00  0.00     0.049 A 
ATOM     59  H   UNL A   1      41.218  30.024  32.826  1.00  0.00     0.167 HD
ATOM     60  C   UNL A   1      42.460  30.516  35.333  1.00  0.00     0.074 A 
ATOM     61  C   UNL A   1      42.710  31.041  36.661  1.00  0.00     0.031 C 
ATOM     62  C   UNL A   1      43.226  29.576  34.728  1.00  0.00     0.034 A 
BRANCH  49  63
ATOM     63  C   UNL A   1      41.131  27.779  29.194  1.00  0.00     0.023 A 
ATOM     64  C   UNL A   1      40.492  26.522  29.200  1.00  0.00     0.012 A 
ATOM     65  C   UNL A   1      41.872  28.174  28.065  1.00  0.00     0.148 A 
ATOM     66  C   UNL A   1      40.621  25.655  28.116  1.00  0.00     0.002 A 
ATOM     67  C   UNL A   1      41.958  27.324  26.970  1.00  0.00     0.091 A 
ATOM     68  F   UNL A   1      42.494  29.361  28.093  1.00  0.00    -0.205 F 
ATOM     69  C   UNL A   1      41.346  26.060  26.999  1.00  0.00     0.022 A 
BRANCH  67  70
ATOM     70  S   UNL A   1      42.803  27.783  25.455  1.00  0.00     0.127 S 
ATOM     71  O   UNL A   1      42.640  26.573  24.649  1.00  0.00    -0.237 OA
ATOM     72  O   UNL A   1      42.013  28.928  25.001  1.00  0.00    -0.237 OA
ATOM     73  O   UNL A   1      44.171  28.099  25.835  1.00  0.00    -0.744 OA
ENDBRANCH  67  70
ENDBRANCH  49  63
BRANCH  50  74
ATOM     74  C   UNL A   1      39.549  33.819  37.005  1.00  0.00     0.023 A 
ATOM     75  C   UNL A   1      39.942  35.172  36.964  1.00  0.00     0.012 A 
ATOM     76  C   UNL A   1      38.924  33.322  38.165  1.00  0.00     0.148 A 
ATOM     77  C   UNL A   1      39.756  36.002  38.070  1.00  0.00     0.002 A 
ATOM     78  C   UNL A   1      38.695  34.169  39.246  1.00  0.00     0.091 A 
ATOM     79  F   UNL A   1      38.560  32.032  38.189  1.00  0.00    -0.205 F 
ATOM     80  C   UNL A   1      39.127  35.503  39.207  1.00  0.00     0.022 A 
BRANCH  78  81
ATOM     81  S   UNL A   1      37.789  33.647  40.708  1.00  0.00     0.127 S 
ATOM     82  O   UNL A   1      37.704  34.893  41.467  1.00  0.00    -0.237 OA
ATOM     83  O   UNL A   1      36.525  33.189  40.131  1.00  0.00    -0.237 OA
ATOM     84  O   UNL A   1      38.590  32.592  41.313  1.00  0.00    -0.744 OA
ENDBRANCH  78  81
ENDBRANCH  50  74
BRANCH  62  85
ATOM     85  C   UNL A   1      44.440  29.082  35.469  1.00  0.00     0.023 A 
ATOM     86  C   UNL A   1      45.681  29.726  35.300  1.00  0.00     0.012 A 
ATOM     87  C   UNL A   1      44.326  28.029  36.397  1.00  0.00     0.148 A 
ATOM     88  C   UNL A   1      46.798  29.307  36.021  1.00  0.00     0.002 A 
ATOM     89  C   UNL A   1      45.429  27.655  37.153  1.00  0.00     0.091 A 
ATOM     90  F   UNL A   1      43.139  27.418  36.528  1.00  0.00    -0.205 F 
ATOM     91  C   UNL A   1      46.669  28.283  36.956  1.00  0.00     0.022 A 
BRANCH  89  92
ATOM     92  S   UNL A   1      45.331  26.419  38.452  1.00  0.00     0.127 S 
ATOM     93  O   UNL A   1      44.459  27.079  39.424  1.00  0.00    -0.237 OA
ATOM     94  O   UNL A   1      44.721  25.287  37.756  1.00  0.00    -0.237 OA
ATOM     95  O   UNL A   1      46.699  26.191  38.896  1.00  0.00    -0.744 OA
ENDBRANCH  89  92
ENDBRANCH  62  85
ENDBRANCH  36  37
ENDBRANCH  28  31
ENDBRANCH  26  27
ENDBRANCH   1  26
TORSDOF 16
ENDMDL
MODEL 3
REMARK VINA RESULT:     -12.4      5.216     10.873
REMARK SMILES C[C@@H]1[C@H](C(=O)NCCCNC(=O)c2ccc(-c3c4nc(c(-c5cccc(S(=O)(=O)[O-])c5F)c5ccc([nH]5)c(-c5cccc(S(=O)(=O)[O-])c5F)c5nc(c(-c6cccc(S(=O)(=O)[O-])c6F)c6ccc3[nH]6)C=C5)C=C4)cc2)CC[N@@H+]1Cc1cnn(-c2ccccc2)c1
REMARK SMILES IDX 8 1 7 2 6 3 4 4 5 5 3 7 1 8 2 9 78 10 76 11 77 12 79 14
REMARK SMILES IDX 80 15 81 16 90 17 82 18 83 19 84 20 85 21 89 22 86 23 88 24
REMARK SMILES IDX 87 25 9 26 10 27 11 28 12 30 13 31 14 32 75 33 15 34 74 35
REMARK SMILES IDX 16 36 17 37 18 38 68 39 19 40 73 41 67 42 69 43 20 44 72 45
REMARK SMILES IDX 66 46 65 47 21 49 53 50 33 51 52 52 34 53 37 54 51 55 70 56
REMARK SMILES IDX 35 57 36 58 50 60 71 61 38 62 22 63 23 64 31 65 24 66 26 67
REMARK SMILES IDX 32 68 25 69 27 70 28 71 29 72 30 73 54 74 55 75 63 76 56 77
REMARK SMILES IDX 58 78 64 79 57 80 59 81 60 82 61 83 62 84 39 85 40 86 48 87
REMARK SMILES IDX 41 88 43 89 49 90 42 91 44 92 45 93 46 94 47 95
REMARK H PARENT 6 6 78 13 10 29 69 48 37 59
REMARK Flexibility Score: inf
ROOT
ATOM      1  C   UNL A   1      35.273  21.295  25.990  1.00  0.00     0.042 C 
ENDROOT
BRANCH   1   2
ATOM      2  C   UNL A   1      34.119  20.656  25.231  1.00  0.00     0.117 C 
BRANCH   2   3
ATOM      3  N   UNL A   1      33.713  21.454  24.090  1.00  0.00    -0.356 N 
ATOM      4  C   UNL A   1      32.976  22.587  23.988  1.00  0.00     0.229 C 
ATOM      5  O   UNL A   1      32.739  22.980  22.839  1.00  0.00    -0.275 OA
ATOM      6  H   UNL A   1      34.035  21.108  23.226  1.00  0.00     0.163 HD
BRANCH   4   7
ATOM      7  C   UNL A   1      32.460  23.400  25.169  1.00  0.00     0.142 C 
ATOM      8  C   UNL A   1      34.647  24.856  25.161  1.00  0.00     0.076 C 
ATOM      9  C   UNL A   1      33.347  24.466  25.842  1.00  0.00     0.193 C 
ATOM     10  N   UNL A   1      32.418  25.537  26.214  1.00  0.00    -0.328 N 
ATOM     11  C   UNL A   1      31.081  24.034  25.012  1.00  0.00     0.081 C 
ATOM     12  C   UNL A   1      31.047  25.079  26.113  1.00  0.00     0.263 C 
ATOM     13  H   UNL A   1      32.672  25.703  27.187  1.00  0.00     0.348 HD
BRANCH  10  14
ATOM     14  C   UNL A   1      32.711  26.948  26.066  1.00  0.00     0.302 C 
BRANCH  14  15
ATOM     15  C   UNL A   1      32.045  27.597  24.899  1.00  0.00     0.045 A 
ATOM     16  C   UNL A   1      32.205  27.335  23.521  1.00  0.00     0.145 A 
ATOM     17  C   UNL A   1      31.027  28.529  24.921  1.00  0.00     0.124 A 
ATOM     18  N   UNL A   1      31.381  28.042  22.748  1.00  0.00    -0.176 NA
ATOM     19  N   UNL A   1      30.671  28.803  23.618  1.00  0.00    -0.240 N 
BRANCH  19  20
ATOM     20  C   UNL A   1      29.740  29.771  23.162  1.00  0.00     0.065 A 
ATOM     21  C   UNL A   1      29.532  30.949  23.893  1.00  0.00     0.028 A 
ATOM     22  C   UNL A   1      28.998  29.534  22.003  1.00  0.00     0.028 A 
ATOM     23  C   UNL A   1      28.605  31.896  23.448  1.00  0.00     0.002 A 
ATOM     24  C   UNL A   1      28.044  30.460  21.603  1.00  0.00     0.002 A 
ATOM     25  C   UNL A   1      27.858  31.650  22.302  1.00  0.00     0.000 A 
ENDBRANCH  19  20
ENDBRANCH  14  15
ENDBRANCH  10  14
ENDBRANCH   4   7
ENDBRANCH   2   3
ENDBRANCH   1   2
BRANCH   1  26
ATOM     26  C   UNL A   1      36.525  21.607  25.192  1.00  0.00     0.118 C 
BRANCH  26  27
ATOM     27  N   UNL A   1      37.625  20.684  25.417  1.00  0.00    -0.352 N 
ATOM     28  C   UNL A   1      38.893  20.874  25.920  1.00  0.00     0.251 C 
ATOM     29  H   UNL A   1      37.426  19.753  25.165  1.00  0.00     0.163 HD
ATOM     30  O   UNL A   1      39.643  19.900  25.987  1.00  0.00    -0.269 OA
BRANCH  28  31
ATOM     31  C   UNL A   1      39.401  22.213  26.331  1.00  0.00     0.039 A 
ATOM     32  C   UNL A   1      40.473  22.266  27.234  1.00  0.00     0.014 A 
ATOM     33  C   UNL A   1      38.858  23.411  25.868  1.00  0.00     0.014 A 
ATOM     34  C   UNL A   1      41.070  23.491  27.565  1.00  0.00     0.010 A 
ATOM     35  C   UNL A   1      39.500  24.623  26.127  1.00  0.00     0.010 A 
ATOM     36  C   UNL A   1      40.613  24.676  26.978  1.00  0.00    -0.014 A 
BRANCH  36  37
ATOM     37  C   UNL A   1      41.201  25.996  27.320  1.00  0.00     0.031 A 
ATOM     38  C   UNL A   1      42.621  26.277  26.924  1.00  0.00     0.074 A 
ATOM     39  C   UNL A   1      40.513  26.903  28.042  1.00  0.00     0.049 A 
ATOM     40  N   UNL A   1      43.343  27.339  27.154  1.00  0.00    -0.248 NA
ATOM     41  C   UNL A   1      43.327  25.213  26.189  1.00  0.00     0.031 C 
ATOM     42  C   UNL A   1      39.150  26.731  28.530  1.00  0.00     0.029 A 
ATOM     43  N   UNL A   1      40.874  28.138  28.523  1.00  0.00    -0.354 N 
ATOM     44  C   UNL A   1      44.590  27.070  26.609  1.00  0.00     0.074 A 
ATOM     45  C   UNL A   1      44.542  25.726  26.078  1.00  0.00     0.031 C 
ATOM     46  C   UNL A   1      38.788  27.800  29.255  1.00  0.00     0.029 A 
ATOM     47  C   UNL A   1      39.903  28.736  29.298  1.00  0.00     0.049 A 
ATOM     48  H   UNL A   1      41.744  28.557  28.333  1.00  0.00     0.167 HD
ATOM     49  C   UNL A   1      45.669  27.881  26.529  1.00  0.00     0.034 A 
ATOM     50  C   UNL A   1      39.909  29.902  29.972  1.00  0.00     0.034 A 
ATOM     51  C   UNL A   1      45.709  29.217  27.052  1.00  0.00     0.049 A 
ATOM     52  C   UNL A   1      41.127  30.781  29.875  1.00  0.00     0.074 A 
ATOM     53  C   UNL A   1      46.735  30.141  26.970  1.00  0.00     0.029 A 
ATOM     54  N   UNL A   1      44.685  29.815  27.772  1.00  0.00    -0.354 N 
ATOM     55  N   UNL A   1      42.240  30.574  29.217  1.00  0.00    -0.248 NA
ATOM     56  C   UNL A   1      41.072  32.072  30.576  1.00  0.00     0.031 C 
ATOM     57  C   UNL A   1      46.344  31.287  27.669  1.00  0.00     0.029 A 
ATOM     58  C   UNL A   1      45.060  31.091  28.154  1.00  0.00     0.049 A 
ATOM     59  H   UNL A   1      43.821  29.393  27.980  1.00  0.00     0.167 HD
ATOM     60  C   UNL A   1      43.001  31.723  29.384  1.00  0.00     0.074 A 
ATOM     61  C   UNL A   1      42.214  32.630  30.195  1.00  0.00     0.031 C 
ATOM     62  C   UNL A   1      44.243  32.000  28.916  1.00  0.00     0.034 A 
BRANCH  49  63
ATOM     63  C   UNL A   1      46.881  27.343  25.818  1.00  0.00     0.023 A 
ATOM     64  C   UNL A   1      47.748  26.459  26.494  1.00  0.00     0.012 A 
ATOM     65  C   UNL A   1      47.145  27.686  24.480  1.00  0.00     0.148 A 
ATOM     66  C   UNL A   1      48.883  25.957  25.860  1.00  0.00     0.002 A 
ATOM     67  C   UNL A   1      48.252  27.144  23.840  1.00  0.00     0.091 A 
ATOM     68  F   UNL A   1      46.322  28.549  23.868  1.00  0.00    -0.205 F 
ATOM     69  C   UNL A   1      49.129  26.292  24.531  1.00  0.00     0.022 A 
BRANCH  67  70
ATOM     70  S   UNL A   1      48.615  27.453  22.109  1.00  0.00     0.127 S 
ATOM     71  O   UNL A   1      47.372  28.076  21.655  1.00  0.00    -0.237 OA
ATOM     72  O   UNL A   1      49.757  28.364  22.195  1.00  0.00    -0.237 OA
ATOM     73  O   UNL A   1      48.913  26.156  21.521  1.00  0.00    -0.744 OA
ENDBRANCH  67  70
ENDBRANCH  49  63
BRANCH  50  74
ATOM     74  C   UNL A   1      38.707  30.342  30.738  1.00  0.00     0.023 A 
ATOM     75  C   UNL A   1      38.597  30.014  32.104  1.00  0.00     0.012 A 
ATOM     76  C   UNL A   1      37.677  31.084  30.126  1.00  0.00     0.148 A 
ATOM     77  C   UNL A   1      37.466  30.378  32.836  1.00  0.00     0.002 A 
ATOM     78  C   UNL A   1      36.576  31.487  30.875  1.00  0.00     0.091 A 
ATOM     79  F   UNL A   1      37.796  31.384  28.825  1.00  0.00    -0.205 F 
ATOM     80  C   UNL A   1      36.460  31.120  32.224  1.00  0.00     0.022 A 
BRANCH  78  81
ATOM     81  S   UNL A   1      35.285  32.543  30.204  1.00  0.00     0.127 S 
ATOM     82  O   UNL A   1      34.747  31.712  29.130  1.00  0.00    -0.237 OA
ATOM     83  O   UNL A   1      34.401  32.709  31.359  1.00  0.00    -0.237 OA
ATOM     84  O   UNL A   1      35.955  33.766  29.782  1.00  0.00    -0.744 OA
ENDBRANCH  78  81
ENDBRANCH  50  74
BRANCH  62  85
ATOM     85  C   UNL A   1      44.818  33.358  29.223  1.00  0.00     0.023 A 
ATOM     86  C   UNL A   1      45.539  33.565  30.415  1.00  0.00     0.012 A 
ATOM     87  C   UNL A   1      44.712  34.403  28.285  1.00  0.00     0.148 A 
ATOM     88  C   UNL A   1      46.118  34.805  30.682  1.00  0.00     0.002 A 
ATOM     89  C   UNL A   1      45.338  35.617  28.533  1.00  0.00     0.091 A 
ATOM     90  F   UNL A   1      44.005  34.189  27.165  1.00  0.00    -0.205 F 
ATOM     91  C   UNL A   1      46.030  35.824  29.737  1.00  0.00     0.022 A 
BRANCH  89  92
ATOM     92  S   UNL A   1      45.367  36.949  27.329  1.00  0.00     0.127 S 
ATOM     93  O   UNL A   1      46.171  37.956  28.020  1.00  0.00    -0.237 OA
ATOM     94  O   UNL A   1      46.030  36.318  26.187  1.00  0.00    -0.237 OA
ATOM     95  O   UNL A   1      43.977  37.312  27.096  1.00  0.00    -0.744 OA
ENDBRANCH  89  92
ENDBRANCH  62  85
ENDBRANCH  36  37
ENDBRANCH  28  31
ENDBRANCH  26  27
ENDBRANCH   1  26
TORSDOF 16
ENDMDL
