MODEL 1
REMARK VINA RESULT:     -12.5      0.000      0.000
REMARK SMILES O=C(NCCCNC(=O)[C@@H]1CCC[N@@H+](Cc2cc(=O)n3ncsc3n2)C1)c1ccc(-c2c3nc(c(-c4cccc(S(=O)(=O)[O-])c4F)c4ccc([nH]4)c(-c4cccc(S(=O)(=O)[O-])c4F)c4nc(c(-c5cccc(S(=O)(=O)[O-])c5F)c5ccc2[nH]5)C=C4)C=C3)cc1
REMARK SMILES IDX 4 1 3 2 1 3 2 4 27 6 28 7 89 8 29 9 88 10 30 11 31 12 32 13
REMARK SMILES IDX 82 14 33 15 87 16 81 17 83 18 34 19 86 20 80 21 79 22 35 24
REMARK SMILES IDX 67 25 47 26 66 27 48 28 51 29 65 30 84 31 49 32 50 33 64 35
REMARK SMILES IDX 85 36 52 37 36 38 37 39 45 40 38 41 40 42 46 43 39 44 41 45
REMARK SMILES IDX 42 46 43 47 44 48 68 49 69 50 77 51 70 52 72 53 78 54 71 55
REMARK SMILES IDX 73 56 74 57 75 58 76 59 53 60 54 61 62 62 55 63 57 64 63 65
REMARK SMILES IDX 56 66 58 67 59 68 60 69 61 70 5 71 6 72 7 73 8 74 9 76 10 77
REMARK SMILES IDX 11 78 26 79 12 80 14 81 13 82 15 84 16 85 17 86 25 87 18 88
REMARK SMILES IDX 24 89 19 90 20 91 23 92 21 93 22 94
REMARK H PARENT 3 5 83 23 51 34 7 75 14 83
REMARK Flexibility Score: inf
ROOT
ATOM      1  C   UNL A   1      32.381  29.452  25.674  1.00  0.00     0.118 C 
ENDROOT
BRANCH   1   2
ATOM      2  N   UNL A   1      32.061  30.838  25.993  1.00  0.00    -0.352 N 
ATOM      3  O   UNL A   1      32.050  32.745  27.182  1.00  0.00    -0.269 OA
ATOM      4  C   UNL A   1      32.620  31.694  26.916  1.00  0.00     0.251 C 
ATOM      5  H   UNL A   1      31.327  31.225  25.463  1.00  0.00     0.163 HD
BRANCH   4   6
ATOM      6  C   UNL A   1      33.883  31.332  27.598  1.00  0.00     0.039 A 
ATOM      7  C   UNL A   1      34.140  30.010  27.963  1.00  0.00     0.014 A 
ATOM      8  C   UNL A   1      34.836  32.320  27.860  1.00  0.00     0.014 A 
ATOM      9  C   UNL A   1      35.237  29.711  28.757  1.00  0.00     0.010 A 
ATOM     10  C   UNL A   1      36.009  31.991  28.548  1.00  0.00     0.010 A 
ATOM     11  C   UNL A   1      36.201  30.691  29.037  1.00  0.00    -0.014 A 
BRANCH  11  12
ATOM     12  C   UNL A   1      37.434  30.295  29.766  1.00  0.00     0.031 A 
ATOM     13  C   UNL A   1      37.684  30.727  31.183  1.00  0.00     0.074 A 
ATOM     14  C   UNL A   1      38.326  29.509  29.129  1.00  0.00     0.049 A 
ATOM     15  N   UNL A   1      38.692  30.431  31.964  1.00  0.00    -0.248 NA
ATOM     16  C   UNL A   1      36.689  31.615  31.805  1.00  0.00     0.031 C 
ATOM     17  C   UNL A   1      38.209  29.063  27.738  1.00  0.00     0.029 A 
ATOM     18  N   UNL A   1      39.495  28.937  29.561  1.00  0.00    -0.354 N 
ATOM     19  C   UNL A   1      38.480  31.128  33.146  1.00  0.00     0.074 A 
ATOM     20  C   UNL A   1      37.248  31.869  32.981  1.00  0.00     0.031 C 
ATOM     21  C   UNL A   1      39.231  28.249  27.447  1.00  0.00     0.029 A 
ATOM     22  C   UNL A   1      40.114  28.169  28.603  1.00  0.00     0.049 A 
ATOM     23  H   UNL A   1      39.855  29.065  30.467  1.00  0.00     0.167 HD
ATOM     24  C   UNL A   1      39.236  31.138  34.271  1.00  0.00     0.034 A 
ATOM     25  C   UNL A   1      41.272  27.486  28.640  1.00  0.00     0.034 A 
ATOM     26  C   UNL A   1      40.438  30.364  34.442  1.00  0.00     0.049 A 
ATOM     27  C   UNL A   1      42.072  27.491  29.908  1.00  0.00     0.074 A 
ATOM     28  C   UNL A   1      41.238  30.253  35.566  1.00  0.00     0.029 A 
ATOM     29  N   UNL A   1      41.018  29.573  33.460  1.00  0.00    -0.354 N 
ATOM     30  N   UNL A   1      41.792  28.061  31.054  1.00  0.00    -0.248 NA
ATOM     31  C   UNL A   1      43.337  26.745  29.896  1.00  0.00     0.031 C 
ATOM     32  C   UNL A   1      42.312  29.410  35.257  1.00  0.00     0.029 A 
ATOM     33  C   UNL A   1      42.172  28.980  33.948  1.00  0.00     0.049 A 
ATOM     34  H   UNL A   1      40.662  29.452  32.550  1.00  0.00     0.167 HD
ATOM     35  C   UNL A   1      42.834  27.728  31.909  1.00  0.00     0.074 A 
ATOM     36  C   UNL A   1      43.737  26.882  31.154  1.00  0.00     0.031 C 
ATOM     37  C   UNL A   1      43.037  28.107  33.194  1.00  0.00     0.034 A 
BRANCH  24  38
ATOM     38  C   UNL A   1      38.769  31.991  35.423  1.00  0.00     0.023 A 
ATOM     39  C   UNL A   1      38.885  33.394  35.344  1.00  0.00     0.012 A 
ATOM     40  C   UNL A   1      38.167  31.413  36.557  1.00  0.00     0.148 A 
ATOM     41  C   UNL A   1      38.440  34.205  36.388  1.00  0.00     0.002 A 
ATOM     42  C   UNL A   1      37.689  32.229  37.577  1.00  0.00     0.091 A 
ATOM     43  F   UNL A   1      38.085  30.076  36.629  1.00  0.00    -0.205 F 
ATOM     44  C   UNL A   1      37.834  33.624  37.499  1.00  0.00     0.022 A 
BRANCH  42  45
ATOM     45  S   UNL A   1      36.828  31.574  39.012  1.00  0.00     0.127 S 
ATOM     46  O   UNL A   1      37.870  31.633  40.036  1.00  0.00    -0.237 OA
ATOM     47  O   UNL A   1      35.742  32.539  39.193  1.00  0.00    -0.237 OA
ATOM     48  O   UNL A   1      36.389  30.237  38.635  1.00  0.00    -0.744 OA
ENDBRANCH  42  45
ENDBRANCH  24  38
BRANCH  25  49
ATOM     49  C   UNL A   1      41.702  26.706  27.446  1.00  0.00     0.023 A 
ATOM     50  C   UNL A   1      42.405  27.353  26.413  1.00  0.00     0.012 A 
ATOM     51  C   UNL A   1      41.490  25.315  27.367  1.00  0.00     0.148 A 
ATOM     52  C   UNL A   1      42.879  26.633  25.317  1.00  0.00     0.002 A 
ATOM     53  C   UNL A   1      42.016  24.594  26.303  1.00  0.00     0.091 A 
ATOM     54  F   UNL A   1      40.804  24.721  28.354  1.00  0.00    -0.205 F 
ATOM     55  C   UNL A   1      42.698  25.253  25.269  1.00  0.00     0.022 A 
BRANCH  53  56
ATOM     56  S   UNL A   1      41.963  22.799  26.241  1.00  0.00     0.127 S 
ATOM     57  O   UNL A   1      40.525  22.544  26.219  1.00  0.00    -0.237 OA
ATOM     58  O   UNL A   1      42.658  22.519  24.985  1.00  0.00    -0.237 OA
ATOM     59  O   UNL A   1      42.670  22.345  27.430  1.00  0.00    -0.744 OA
ENDBRANCH  53  56
ENDBRANCH  25  49
BRANCH  37  60
ATOM     60  C   UNL A   1      44.278  27.596  33.874  1.00  0.00     0.023 A 
ATOM     61  C   UNL A   1      45.452  28.374  33.857  1.00  0.00     0.012 A 
ATOM     62  C   UNL A   1      44.265  26.376  34.577  1.00  0.00     0.148 A 
ATOM     63  C   UNL A   1      46.605  27.931  34.503  1.00  0.00     0.002 A 
ATOM     64  C   UNL A   1      45.404  25.962  35.258  1.00  0.00     0.091 A 
ATOM     65  F   UNL A   1      43.144  25.639  34.562  1.00  0.00    -0.205 F 
ATOM     66  C   UNL A   1      46.578  26.734  35.213  1.00  0.00     0.022 A 
BRANCH  64  67
ATOM     67  S   UNL A   1      45.430  24.479  36.271  1.00  0.00     0.127 S 
ATOM     68  O   UNL A   1      45.268  23.429  35.267  1.00  0.00    -0.237 OA
ATOM     69  O   UNL A   1      46.759  24.540  36.881  1.00  0.00    -0.237 OA
ATOM     70  O   UNL A   1      44.329  24.622  37.214  1.00  0.00    -0.744 OA
ENDBRANCH  64  67
ENDBRANCH  37  60
ENDBRANCH  11  12
ENDBRANCH   4   6
ENDBRANCH   1   2
BRANCH   1  71
ATOM     71  C   UNL A   1      33.227  29.327  24.419  1.00  0.00     0.042 C 
BRANCH  71  72
ATOM     72  C   UNL A   1      32.600  28.431  23.367  1.00  0.00     0.117 C 
BRANCH  72  73
ATOM     73  N   UNL A   1      33.136  27.084  23.401  1.00  0.00    -0.356 N 
ATOM     74  C   UNL A   1      32.603  25.842  23.350  1.00  0.00     0.228 C 
ATOM     75  H   UNL A   1      34.118  27.071  23.478  1.00  0.00     0.163 HD
ATOM     76  O   UNL A   1      33.440  24.928  23.334  1.00  0.00    -0.275 OA
BRANCH  74  77
ATOM     77  C   UNL A   1      31.105  25.503  23.424  1.00  0.00     0.133 C 
ATOM     78  C   UNL A   1      30.432  26.410  24.480  1.00  0.00     0.025 C 
ATOM     79  C   UNL A   1      30.686  24.081  23.772  1.00  0.00     0.276 C 
ATOM     80  C   UNL A   1      30.821  25.977  25.902  1.00  0.00     0.062 C 
ATOM     81  N   UNL A   1      31.263  23.695  25.058  1.00  0.00    -0.329 N 
ATOM     82  C   UNL A   1      30.651  24.467  26.143  1.00  0.00     0.262 C 
ATOM     83  H   UNL A   1      32.252  23.944  25.029  1.00  0.00     0.348 HD
BRANCH  81  84
ATOM     84  C   UNL A   1      31.314  22.250  25.297  1.00  0.00     0.319 C 
BRANCH  84  85
ATOM     85  C   UNL A   1      32.674  21.577  25.227  1.00  0.00     0.103 A 
ATOM     86  C   UNL A   1      32.777  20.307  24.796  1.00  0.00     0.103 A 
ATOM     87  N   UNL A   1      33.761  22.363  25.555  1.00  0.00    -0.218 NA
ATOM     88  C   UNL A   1      34.099  19.650  24.750  1.00  0.00     0.275 A 
ATOM     89  C   UNL A   1      34.912  21.795  25.428  1.00  0.00     0.215 A 
ATOM     90  O   UNL A   1      34.172  18.457  24.481  1.00  0.00    -0.267 OA
ATOM     91  N   UNL A   1      35.139  20.502  25.045  1.00  0.00    -0.168 N 
ATOM     92  S   UNL A   1      36.423  22.588  25.734  1.00  0.00    -0.083 S 
ATOM     93  N   UNL A   1      36.451  20.090  25.000  1.00  0.00    -0.160 NA
ATOM     94  C   UNL A   1      37.210  21.082  25.329  1.00  0.00     0.202 A 
ENDBRANCH  84  85
ENDBRANCH  81  84
ENDBRANCH  74  77
ENDBRANCH  72  73
ENDBRANCH  71  72
ENDBRANCH   1  71
TORSDOF 15
ENDMDL
MODEL 2
REMARK VINA RESULT:     -12.4      1.335      1.710
REMARK SMILES O=C(NCCCNC(=O)[C@@H]1CCC[N@@H+](Cc2cc(=O)n3ncsc3n2)C1)c1ccc(-c2c3nc(c(-c4cccc(S(=O)(=O)[O-])c4F)c4ccc([nH]4)c(-c4cccc(S(=O)(=O)[O-])c4F)c4nc(c(-c5cccc(S(=O)(=O)[O-])c5F)c5ccc2[nH]5)C=C4)C=C3)cc1
REMARK SMILES IDX 4 1 3 2 1 3 2 4 27 6 28 7 89 8 29 9 88 10 30 11 31 12 32 13
REMARK SMILES IDX 82 14 33 15 87 16 81 17 83 18 34 19 86 20 80 21 79 22 35 24
REMARK SMILES IDX 67 25 47 26 66 27 48 28 51 29 65 30 84 31 49 32 50 33 64 35
REMARK SMILES IDX 85 36 52 37 36 38 37 39 45 40 38 41 40 42 46 43 39 44 41 45
REMARK SMILES IDX 42 46 43 47 44 48 68 49 69 50 77 51 70 52 72 53 78 54 71 55
REMARK SMILES IDX 73 56 74 57 75 58 76 59 53 60 54 61 62 62 55 63 57 64 63 65
REMARK SMILES IDX 56 66 58 67 59 68 60 69 61 70 5 71 6 72 7 73 8 74 9 76 10 77
REMARK SMILES IDX 11 78 26 79 12 80 14 81 13 82 15 84 16 85 17 86 25 87 18 88
REMARK SMILES IDX 24 89 19 90 20 91 23 92 21 93 22 94
REMARK H PARENT 3 5 83 23 51 34 7 75 14 83
REMARK Flexibility Score: inf
ROOT
ATOM      1  C   UNL A   1      32.650  29.538  25.708  1.00  0.00     0.118 C 
ENDROOT
BRANCH   1   2
ATOM      2  N   UNL A   1      32.333  30.919  26.047  1.00  0.00    -0.352 N 
ATOM      3  O   UNL A   1      32.332  32.811  27.261  1.00  0.00    -0.269 OA
ATOM      4  C   UNL A   1      32.899  31.763  26.976  1.00  0.00     0.251 C 
ATOM      5  H   UNL A   1      31.594  31.313  25.529  1.00  0.00     0.163 HD
BRANCH   4   6
ATOM      6  C   UNL A   1      34.168  31.392  27.643  1.00  0.00     0.039 A 
ATOM      7  C   UNL A   1      34.430  30.066  27.984  1.00  0.00     0.014 A 
ATOM      8  C   UNL A   1      35.121  32.378  27.913  1.00  0.00     0.014 A 
ATOM      9  C   UNL A   1      35.534  29.755  28.765  1.00  0.00     0.010 A 
ATOM     10  C   UNL A   1      36.301  32.040  28.586  1.00  0.00     0.010 A 
ATOM     11  C   UNL A   1      36.498  30.733  29.053  1.00  0.00    -0.014 A 
BRANCH  11  12
ATOM     12  C   UNL A   1      37.738  30.327  29.766  1.00  0.00     0.031 A 
ATOM     13  C   UNL A   1      38.013  30.763  31.177  1.00  0.00     0.074 A 
ATOM     14  C   UNL A   1      38.613  29.529  29.120  1.00  0.00     0.049 A 
ATOM     15  N   UNL A   1      39.029  30.460  31.945  1.00  0.00    -0.248 NA
ATOM     16  C   UNL A   1      37.036  31.663  31.810  1.00  0.00     0.031 C 
ATOM     17  C   UNL A   1      38.471  29.078  27.733  1.00  0.00     0.029 A 
ATOM     18  N   UNL A   1      39.781  28.947  29.537  1.00  0.00    -0.354 N 
ATOM     19  C   UNL A   1      38.842  31.165  33.127  1.00  0.00     0.074 A 
ATOM     20  C   UNL A   1      37.615  31.917  32.976  1.00  0.00     0.031 C 
ATOM     21  C   UNL A   1      39.480  28.252  27.430  1.00  0.00     0.029 A 
ATOM     22  C   UNL A   1      40.379  28.168  28.575  1.00  0.00     0.049 A 
ATOM     23  H   UNL A   1      40.156  29.075  30.438  1.00  0.00     0.167 HD
ATOM     24  C   UNL A   1      39.614  31.172  34.241  1.00  0.00     0.034 A 
ATOM     25  C   UNL A   1      41.530  27.473  28.598  1.00  0.00     0.034 A 
ATOM     26  C   UNL A   1      40.810  30.386  34.397  1.00  0.00     0.049 A 
ATOM     27  C   UNL A   1      42.348  27.476  29.854  1.00  0.00     0.074 A 
ATOM     28  C   UNL A   1      41.625  30.272  35.510  1.00  0.00     0.029 A 
ATOM     29  N   UNL A   1      41.368  29.585  33.411  1.00  0.00    -0.354 N 
ATOM     30  N   UNL A   1      42.091  28.054  31.001  1.00  0.00    -0.248 NA
ATOM     31  C   UNL A   1      43.606  26.717  29.827  1.00  0.00     0.031 C 
ATOM     32  C   UNL A   1      42.686  29.416  35.190  1.00  0.00     0.029 A 
ATOM     33  C   UNL A   1      42.522  28.982  33.885  1.00  0.00     0.049 A 
ATOM     34  H   UNL A   1      40.998  29.463  32.507  1.00  0.00     0.167 HD
ATOM     35  C   UNL A   1      43.142  27.714  31.842  1.00  0.00     0.074 A 
ATOM     36  C   UNL A   1      44.025  26.856  31.078  1.00  0.00     0.031 C 
ATOM     37  C   UNL A   1      43.368  28.097  33.123  1.00  0.00     0.034 A 
BRANCH  24  38
ATOM     38  C   UNL A   1      39.173  32.035  35.395  1.00  0.00     0.023 A 
ATOM     39  C   UNL A   1      39.402  33.425  35.354  1.00  0.00     0.012 A 
ATOM     40  C   UNL A   1      38.483  31.483  36.493  1.00  0.00     0.148 A 
ATOM     41  C   UNL A   1      38.984  34.246  36.401  1.00  0.00     0.002 A 
ATOM     42  C   UNL A   1      38.034  32.313  37.514  1.00  0.00     0.091 A 
ATOM     43  F   UNL A   1      38.293  30.156  36.529  1.00  0.00    -0.205 F 
ATOM     44  C   UNL A   1      38.291  33.693  37.475  1.00  0.00     0.022 A 
BRANCH  42  45
ATOM     45  S   UNL A   1      37.069  31.698  38.900  1.00  0.00     0.127 S 
ATOM     46  O   UNL A   1      37.984  31.919  40.018  1.00  0.00    -0.237 OA
ATOM     47  O   UNL A   1      35.902  32.582  38.885  1.00  0.00    -0.237 OA
ATOM     48  O   UNL A   1      36.773  30.306  38.591  1.00  0.00    -0.744 OA
ENDBRANCH  42  45
ENDBRANCH  24  38
BRANCH  25  49
ATOM     49  C   UNL A   1      41.935  26.683  27.401  1.00  0.00     0.023 A 
ATOM     50  C   UNL A   1      42.616  27.322  26.349  1.00  0.00     0.012 A 
ATOM     51  C   UNL A   1      41.721  25.292  27.338  1.00  0.00     0.148 A 
ATOM     52  C   UNL A   1      43.066  26.593  25.248  1.00  0.00     0.002 A 
ATOM     53  C   UNL A   1      42.224  24.562  26.269  1.00  0.00     0.091 A 
ATOM     54  F   UNL A   1      41.057  24.706  28.344  1.00  0.00    -0.205 F 
ATOM     55  C   UNL A   1      42.884  25.213  25.215  1.00  0.00     0.022 A 
BRANCH  53  56
ATOM     56  S   UNL A   1      42.170  22.767  26.223  1.00  0.00     0.127 S 
ATOM     57  O   UNL A   1      40.731  22.513  26.209  1.00  0.00    -0.237 OA
ATOM     58  O   UNL A   1      42.860  22.476  24.966  1.00  0.00    -0.237 OA
ATOM     59  O   UNL A   1      42.882  22.323  27.413  1.00  0.00    -0.744 OA
ENDBRANCH  53  56
ENDBRANCH  25  49
BRANCH  37  60
ATOM     60  C   UNL A   1      44.613  27.576  33.787  1.00  0.00     0.023 A 
ATOM     61  C   UNL A   1      45.805  28.324  33.716  1.00  0.00     0.012 A 
ATOM     62  C   UNL A   1      44.589  26.378  34.528  1.00  0.00     0.148 A 
ATOM     63  C   UNL A   1      46.963  27.873  34.347  1.00  0.00     0.002 A 
ATOM     64  C   UNL A   1      45.735  25.958  35.192  1.00  0.00     0.091 A 
ATOM     65  F   UNL A   1      43.451  25.669  34.563  1.00  0.00    -0.205 F 
ATOM     66  C   UNL A   1      46.925  26.698  35.095  1.00  0.00     0.022 A 
BRANCH  64  67
ATOM     67  S   UNL A   1      45.751  24.505  36.250  1.00  0.00     0.127 S 
ATOM     68  O   UNL A   1      47.168  24.402  36.593  1.00  0.00    -0.237 OA
ATOM     69  O   UNL A   1      44.884  24.915  37.355  1.00  0.00    -0.237 OA
ATOM     70  O   UNL A   1      45.220  23.417  35.440  1.00  0.00    -0.744 OA
ENDBRANCH  64  67
ENDBRANCH  37  60
ENDBRANCH  11  12
ENDBRANCH   4   6
ENDBRANCH   1   2
BRANCH   1  71
ATOM     71  C   UNL A   1      31.782  29.005  24.581  1.00  0.00     0.042 C 
BRANCH  71  72
ATOM     72  C   UNL A   1      32.581  28.309  23.494  1.00  0.00     0.117 C 
BRANCH  72  73
ATOM     73  N   UNL A   1      32.171  26.930  23.307  1.00  0.00    -0.356 N 
ATOM     74  C   UNL A   1      32.001  25.866  24.124  1.00  0.00     0.228 C 
ATOM     75  H   UNL A   1      31.970  26.720  22.367  1.00  0.00     0.163 HD
ATOM     76  O   UNL A   1      31.556  24.856  23.560  1.00  0.00    -0.275 OA
BRANCH  74  77
ATOM     77  C   UNL A   1      32.411  25.794  25.605  1.00  0.00     0.133 C 
ATOM     78  C   UNL A   1      33.937  26.013  25.720  1.00  0.00     0.025 C 
ATOM     79  C   UNL A   1      32.114  24.526  26.393  1.00  0.00     0.276 C 
ATOM     80  C   UNL A   1      34.705  24.778  25.224  1.00  0.00     0.062 C 
ATOM     81  N   UNL A   1      32.733  23.376  25.734  1.00  0.00    -0.329 N 
ATOM     82  C   UNL A   1      34.193  23.461  25.832  1.00  0.00     0.262 C 
ATOM     83  H   UNL A   1      32.491  23.432  24.745  1.00  0.00     0.348 HD
BRANCH  81  84
ATOM     84  C   UNL A   1      32.174  22.077  26.117  1.00  0.00     0.319 C 
BRANCH  84  85
ATOM     85  C   UNL A   1      32.277  20.947  25.108  1.00  0.00     0.103 A 
ATOM     86  C   UNL A   1      32.128  21.200  23.795  1.00  0.00     0.103 A 
ATOM     87  N   UNL A   1      32.596  19.704  25.615  1.00  0.00    -0.218 NA
ATOM     88  C   UNL A   1      32.208  20.095  22.819  1.00  0.00     0.275 A 
ATOM     89  C   UNL A   1      32.743  18.770  24.737  1.00  0.00     0.215 A 
ATOM     90  O   UNL A   1      31.945  20.308  21.641  1.00  0.00    -0.267 OA
ATOM     91  N   UNL A   1      32.574  18.895  23.385  1.00  0.00    -0.168 N 
ATOM     92  S   UNL A   1      33.189  17.140  25.121  1.00  0.00    -0.083 S 
ATOM     93  N   UNL A   1      32.755  17.761  22.630  1.00  0.00    -0.160 NA
ATOM     94  C   UNL A   1      33.084  16.787  23.413  1.00  0.00     0.202 A 
ENDBRANCH  84  85
ENDBRANCH  81  84
ENDBRANCH  74  77
ENDBRANCH  72  73
ENDBRANCH  71  72
ENDBRANCH   1  71
TORSDOF 15
ENDMDL
MODEL 3
REMARK VINA RESULT:     -12.4      1.667      1.985
REMARK SMILES O=C(NCCCNC(=O)[C@@H]1CCC[N@@H+](Cc2cc(=O)n3ncsc3n2)C1)c1ccc(-c2c3nc(c(-c4cccc(S(=O)(=O)[O-])c4F)c4ccc([nH]4)c(-c4cccc(S(=O)(=O)[O-])c4F)c4nc(c(-c5cccc(S(=O)(=O)[O-])c5F)c5ccc2[nH]5)C=C4)C=C3)cc1
REMARK SMILES IDX 4 1 3 2 1 3 2 4 27 6 28 7 89 8 29 9 88 10 30 11 31 12 32 13
REMARK SMILES IDX 82 14 33 15 87 16 81 17 83 18 34 19 86 20 80 21 79 22 35 24
REMARK SMILES IDX 67 25 47 26 66 27 48 28 51 29 65 30 84 31 49 32 50 33 64 35
REMARK SMILES IDX 85 36 52 37 36 38 37 39 45 40 38 41 40 42 46 43 39 44 41 45
REMARK SMILES IDX 42 46 43 47 44 48 68 49 69 50 77 51 70 52 72 53 78 54 71 55
REMARK SMILES IDX 73 56 74 57 75 58 76 59 53 60 54 61 62 62 55 63 57 64 63 65
REMARK SMILES IDX 56 66 58 67 59 68 60 69 61 70 5 71 6 72 7 73 8 74 9 76 10 77
REMARK SMILES IDX 11 78 26 79 12 80 14 81 13 82 15 84 16 85 17 86 25 87 18 88
REMARK SMILES IDX 24 89 19 90 20 91 23 92 21 93 22 94
REMARK H PARENT 3 5 83 23 51 34 7 75 14 83
REMARK Flexibility Score: inf
ROOT
ATOM      1  C   UNL A   1      33.103  29.121  25.275  1.00  0.00     0.118 C 
ENDROOT
BRANCH   1   2
ATOM      2  N   UNL A   1      32.632  30.416  25.750  1.00  0.00    -0.352 N 
ATOM      3  O   UNL A   1      32.382  32.140  27.170  1.00  0.00    -0.269 OA
ATOM      4  C   UNL A   1      33.065  31.193  26.801  1.00  0.00     0.251 C 
ATOM      5  H   UNL A   1      31.883  30.797  25.237  1.00  0.00     0.163 HD
BRANCH   4   6
ATOM      6  C   UNL A   1      34.332  30.866  27.496  1.00  0.00     0.039 A 
ATOM      7  C   UNL A   1      34.568  29.578  27.974  1.00  0.00     0.014 A 
ATOM      8  C   UNL A   1      35.308  31.854  27.654  1.00  0.00     0.014 A 
ATOM      9  C   UNL A   1      35.672  29.328  28.776  1.00  0.00     0.010 A 
ATOM     10  C   UNL A   1      36.485  31.564  28.352  1.00  0.00     0.010 A 
ATOM     11  C   UNL A   1      36.659  30.309  28.953  1.00  0.00    -0.014 A 
BRANCH  11  12
ATOM     12  C   UNL A   1      37.896  29.954  29.698  1.00  0.00     0.031 A 
ATOM     13  C   UNL A   1      38.134  30.433  31.102  1.00  0.00     0.074 A 
ATOM     14  C   UNL A   1      38.802  29.163  29.087  1.00  0.00     0.049 A 
ATOM     15  N   UNL A   1      39.144  30.175  31.894  1.00  0.00    -0.248 NA
ATOM     16  C   UNL A   1      37.124  31.323  31.694  1.00  0.00     0.031 C 
ATOM     17  C   UNL A   1      38.696  28.674  27.709  1.00  0.00     0.029 A 
ATOM     18  N   UNL A   1      39.978  28.623  29.539  1.00  0.00    -0.354 N 
ATOM     19  C   UNL A   1      38.918  30.905  33.054  1.00  0.00     0.074 A 
ATOM     20  C   UNL A   1      37.675  31.620  32.863  1.00  0.00     0.031 C 
ATOM     21  C   UNL A   1      39.732  27.867  27.446  1.00  0.00     0.029 A 
ATOM     22  C   UNL A   1      40.612  27.836  28.607  1.00  0.00     0.049 A 
ATOM     23  H   UNL A   1      40.333  28.783  30.442  1.00  0.00     0.167 HD
ATOM     24  C   UNL A   1      39.670  30.960  34.180  1.00  0.00     0.034 A 
ATOM     25  C   UNL A   1      41.781  27.172  28.668  1.00  0.00     0.034 A 
ATOM     26  C   UNL A   1      40.883  30.210  34.377  1.00  0.00     0.049 A 
ATOM     27  C   UNL A   1      42.576  27.228  29.937  1.00  0.00     0.074 A 
ATOM     28  C   UNL A   1      41.681  30.145  35.507  1.00  0.00     0.029 A 
ATOM     29  N   UNL A   1      41.479  29.399  33.422  1.00  0.00    -0.354 N 
ATOM     30  N   UNL A   1      42.283  27.827  31.065  1.00  0.00    -0.248 NA
ATOM     31  C   UNL A   1      43.852  26.501  29.952  1.00  0.00     0.031 C 
ATOM     32  C   UNL A   1      42.769  29.310  35.227  1.00  0.00     0.029 A 
ATOM     33  C   UNL A   1      42.639  28.839  33.930  1.00  0.00     0.049 A 
ATOM     34  H   UNL A   1      41.127  29.245  32.515  1.00  0.00     0.167 HD
ATOM     35  C   UNL A   1      43.328  27.537  31.932  1.00  0.00     0.074 A 
ATOM     36  C   UNL A   1      44.246  26.682  31.206  1.00  0.00     0.031 C 
ATOM     37  C   UNL A   1      43.521  27.957  33.206  1.00  0.00     0.034 A 
BRANCH  24  38
ATOM     38  C   UNL A   1      39.186  31.840  35.305  1.00  0.00     0.023 A 
ATOM     39  C   UNL A   1      38.224  31.348  36.211  1.00  0.00     0.012 A 
ATOM     40  C   UNL A   1      39.720  33.129  35.500  1.00  0.00     0.148 A 
ATOM     41  C   UNL A   1      37.777  32.137  37.271  1.00  0.00     0.002 A 
ATOM     42  C   UNL A   1      39.298  33.894  36.582  1.00  0.00     0.091 A 
ATOM     43  F   UNL A   1      40.616  33.592  34.616  1.00  0.00    -0.205 F 
ATOM     44  C   UNL A   1      38.321  33.404  37.462  1.00  0.00     0.022 A 
BRANCH  42  45
ATOM     45  S   UNL A   1      39.998  35.508  36.950  1.00  0.00     0.127 S 
ATOM     46  O   UNL A   1      39.569  36.288  35.790  1.00  0.00    -0.237 OA
ATOM     47  O   UNL A   1      39.327  35.861  38.202  1.00  0.00    -0.237 OA
ATOM     48  O   UNL A   1      41.434  35.299  37.074  1.00  0.00    -0.744 OA
ENDBRANCH  42  45
ENDBRANCH  24  38
BRANCH  25  49
ATOM     49  C   UNL A   1      42.226  26.363  27.499  1.00  0.00     0.023 A 
ATOM     50  C   UNL A   1      43.087  26.940  26.547  1.00  0.00     0.012 A 
ATOM     51  C   UNL A   1      41.869  25.006  27.371  1.00  0.00     0.148 A 
ATOM     52  C   UNL A   1      43.574  26.184  25.480  1.00  0.00     0.002 A 
ATOM     53  C   UNL A   1      42.405  24.243  26.341  1.00  0.00     0.091 A 
ATOM     54  F   UNL A   1      41.036  24.480  28.281  1.00  0.00    -0.205 F 
ATOM     55  C   UNL A   1      43.246  24.834  25.386  1.00  0.00     0.022 A 
BRANCH  53  56
ATOM     56  S   UNL A   1      42.159  22.467  26.235  1.00  0.00     0.127 S 
ATOM     57  O   UNL A   1      42.881  22.138  25.009  1.00  0.00    -0.237 OA
ATOM     58  O   UNL A   1      42.792  21.999  27.469  1.00  0.00    -0.237 OA
ATOM     59  O   UNL A   1      40.716  22.273  26.193  1.00  0.00    -0.744 OA
ENDBRANCH  53  56
ENDBRANCH  25  49
BRANCH  37  60
ATOM     60  C   UNL A   1      44.767  27.485  33.905  1.00  0.00     0.023 A 
ATOM     61  C   UNL A   1      45.934  28.273  33.853  1.00  0.00     0.012 A 
ATOM     62  C   UNL A   1      44.766  26.296  34.658  1.00  0.00     0.148 A 
ATOM     63  C   UNL A   1      47.092  27.868  34.516  1.00  0.00     0.002 A 
ATOM     64  C   UNL A   1      45.910  25.921  35.354  1.00  0.00     0.091 A 
ATOM     65  F   UNL A   1      43.652  25.549  34.676  1.00  0.00    -0.205 F 
ATOM     66  C   UNL A   1      47.076  26.700  35.275  1.00  0.00     0.022 A 
BRANCH  64  67
ATOM     67  S   UNL A   1      45.950  24.482  36.428  1.00  0.00     0.127 S 
ATOM     68  O   UNL A   1      47.386  24.308  36.640  1.00  0.00    -0.237 OA
ATOM     69  O   UNL A   1      45.212  24.948  37.602  1.00  0.00    -0.237 OA
ATOM     70  O   UNL A   1      45.290  23.414  35.688  1.00  0.00    -0.744 OA
ENDBRANCH  64  67
ENDBRANCH  37  60
ENDBRANCH  11  12
ENDBRANCH   4   6
ENDBRANCH   1   2
BRANCH   1  71
ATOM     71  C   UNL A   1      33.664  29.191  23.865  1.00  0.00     0.042 C 
BRANCH  71  72
ATOM     72  C   UNL A   1      33.226  28.028  22.993  1.00  0.00     0.117 C 
BRANCH  72  73
ATOM     73  N   UNL A   1      33.607  26.746  23.554  1.00  0.00    -0.356 N 
ATOM     74  C   UNL A   1      32.976  25.567  23.756  1.00  0.00     0.228 C 
ATOM     75  H   UNL A   1      34.543  26.730  23.859  1.00  0.00     0.163 HD
ATOM     76  O   UNL A   1      33.701  24.671  24.212  1.00  0.00    -0.275 OA
BRANCH  74  77
ATOM     77  C   UNL A   1      31.470  25.310  23.577  1.00  0.00     0.133 C 
ATOM     78  C   UNL A   1      30.677  26.341  24.414  1.00  0.00     0.025 C 
ATOM     79  C   UNL A   1      30.903  23.948  23.953  1.00  0.00     0.276 C 
ATOM     80  C   UNL A   1      30.774  26.018  25.914  1.00  0.00     0.062 C 
ATOM     81  N   UNL A   1      31.212  23.650  25.351  1.00  0.00    -0.329 N 
ATOM     82  C   UNL A   1      30.464  24.546  26.238  1.00  0.00     0.262 C 
ATOM     83  H   UNL A   1      32.203  23.846  25.486  1.00  0.00     0.348 HD
BRANCH  81  84
ATOM     84  C   UNL A   1      31.124  22.232  25.708  1.00  0.00     0.319 C 
BRANCH  84  85
ATOM     85  C   UNL A   1      32.329  21.359  25.403  1.00  0.00     0.103 A 
ATOM     86  C   UNL A   1      33.570  21.807  25.664  1.00  0.00     0.103 A 
ATOM     87  N   UNL A   1      32.059  20.091  24.927  1.00  0.00    -0.218 NA
ATOM     88  C   UNL A   1      34.739  20.964  25.347  1.00  0.00     0.275 A 
ATOM     89  C   UNL A   1      33.091  19.341  24.736  1.00  0.00     0.215 A 
ATOM     90  O   UNL A   1      35.869  21.425  25.466  1.00  0.00    -0.267 OA
ATOM     91  N   UNL A   1      34.399  19.700  24.921  1.00  0.00    -0.168 N 
ATOM     92  S   UNL A   1      33.008  17.699  24.190  1.00  0.00    -0.083 S 
ATOM     93  N   UNL A   1      35.349  18.750  24.631  1.00  0.00    -0.160 NA
ATOM     94  C   UNL A   1      34.754  17.668  24.249  1.00  0.00     0.202 A 
ENDBRANCH  84  85
ENDBRANCH  81  84
ENDBRANCH  74  77
ENDBRANCH  72  73
ENDBRANCH  71  72
ENDBRANCH   1  71
TORSDOF 15
ENDMDL
