MODEL 1
REMARK VINA RESULT:     -12.0      0.000      0.000
REMARK SMILES O=C(C[C@@H]([NH2+]Cc1ccccc1)C(=O)NCCCNC(=O)c1ccc(-c2c3nc(c(-c4cccc(S(=O)(=O)[O-])c4F)c4ccc([nH]4)c(-c4cccc(S(=O)(=O)[O-])c4F)c4nc(c(-c5cccc(S(=O)(=O)[O-])c5F)c5ccc2[nH]5)C=C4)C=C3)cc1)Nc1cccc(Cl)c1Cl
REMARK SMILES IDX 17 1 16 2 15 3 13 4 14 5 4 7 3 8 2 9 1 10 85 11 86 13 87 14
REMARK SMILES IDX 92 15 88 16 90 17 93 18 89 19 91 20 5 21 6 24 7 25 8 26
REMARK SMILES IDX 12 27 9 28 11 29 10 30 18 31 19 32 20 33 21 35 22 36 23 37
REMARK SMILES IDX 84 38 24 39 83 40 25 41 26 42 27 43 77 44 28 45 82 46 76 47
REMARK SMILES IDX 78 48 29 49 81 50 75 51 74 52 30 54 62 55 42 56 61 57 43 58
REMARK SMILES IDX 46 59 60 60 79 61 44 62 45 63 59 65 80 66 47 67 31 68 32 69
REMARK SMILES IDX 40 70 33 71 35 72 41 73 34 74 36 75 37 76 38 77 39 78 63 79
REMARK SMILES IDX 64 80 72 81 65 82 67 83 73 84 66 85 68 86 69 87 70 88 71 89
REMARK SMILES IDX 48 90 49 91 57 92 50 93 52 94 58 95 51 96 53 97 54 98 55 99
REMARK SMILES IDX 56 100
REMARK H PARENT 15 6 85 12 5 22 5 23 19 34 78 53 46 64
REMARK Flexibility Score: inf
ROOT
ATOM      1  C   UNL A   1      31.752  28.711  26.646  1.00  0.00     0.042 C 
ENDROOT
BRANCH   1   2
ATOM      2  C   UNL A   1      31.821  27.251  26.204  1.00  0.00     0.118 C 
BRANCH   2   3
ATOM      3  N   UNL A   1      30.686  26.489  26.689  1.00  0.00    -0.351 N 
ATOM      4  C   UNL A   1      30.221  25.262  26.321  1.00  0.00     0.278 C 
ATOM      5  O   UNL A   1      29.225  24.833  26.911  1.00  0.00    -0.268 OA
ATOM      6  H   UNL A   1      30.167  26.930  27.399  1.00  0.00     0.163 HD
BRANCH   4   7
ATOM      7  C   UNL A   1      30.923  24.417  25.241  1.00  0.00     0.282 C 
BRANCH   7   8
ATOM      8  C   UNL A   1      31.145  22.982  25.735  1.00  0.00     0.175 C 
BRANCH   8   9
ATOM      9  C   UNL A   1      32.597  22.738  26.071  1.00  0.00     0.230 C 
ATOM     10  O   UNL A   1      32.999  22.677  27.228  1.00  0.00    -0.274 OA
ATOM     11  N   UNL A   1      33.406  22.740  24.943  1.00  0.00    -0.325 N 
ATOM     12  H   UNL A   1      32.987  22.907  24.068  1.00  0.00     0.169 HD
BRANCH  11  13
ATOM     13  C   UNL A   1      34.797  22.513  24.984  1.00  0.00     0.061 A 
ATOM     14  C   UNL A   1      35.609  23.656  25.026  1.00  0.00     0.028 A 
ATOM     15  C   UNL A   1      35.384  21.232  24.951  1.00  0.00     0.083 A 
ATOM     16  C   UNL A   1      36.995  23.533  25.111  1.00  0.00     0.004 A 
ATOM     17  C   UNL A   1      36.782  21.123  25.008  1.00  0.00     0.061 A 
ATOM     18  Cl  UNL A   1      34.412  19.822  24.656  1.00  0.00    -0.080 Cl
ATOM     19  C   UNL A   1      37.579  22.268  25.105  1.00  0.00     0.022 A 
ATOM     20  Cl  UNL A   1      37.605  19.602  24.929  1.00  0.00    -0.083 Cl
ENDBRANCH  11  13
ENDBRANCH   8   9
ENDBRANCH   7   8
BRANCH   7  21
ATOM     21  N   UNL A   1      30.198  24.476  23.934  1.00  0.00    -0.332 N 
ATOM     22  H   UNL A   1      29.481  25.200  23.992  1.00  0.00     0.347 HD
ATOM     23  H   UNL A   1      29.798  23.554  23.767  1.00  0.00     0.347 HD
BRANCH  21  24
ATOM     24  C   UNL A   1      31.081  24.784  22.795  1.00  0.00     0.297 C 
BRANCH  24  25
ATOM     25  C   UNL A   1      31.636  26.193  22.736  1.00  0.00     0.006 A 
ATOM     26  C   UNL A   1      30.835  27.343  22.637  1.00  0.00     0.009 A 
ATOM     27  C   UNL A   1      33.027  26.363  22.828  1.00  0.00     0.009 A 
ATOM     28  C   UNL A   1      31.410  28.613  22.557  1.00  0.00     0.001 A 
ATOM     29  C   UNL A   1      33.601  27.635  22.767  1.00  0.00     0.001 A 
ATOM     30  C   UNL A   1      32.792  28.758  22.619  1.00  0.00     0.000 A 
ENDBRANCH  24  25
ENDBRANCH  21  24
ENDBRANCH   7  21
ENDBRANCH   4   7
ENDBRANCH   2   3
ENDBRANCH   1   2
BRANCH   1  31
ATOM     31  C   UNL A   1      32.780  29.616  25.977  1.00  0.00     0.118 C 
BRANCH  31  32
ATOM     32  N   UNL A   1      32.579  31.020  26.299  1.00  0.00    -0.352 N 
ATOM     33  C   UNL A   1      33.237  31.830  27.188  1.00  0.00     0.251 C 
ATOM     34  H   UNL A   1      31.854  31.458  25.798  1.00  0.00     0.163 HD
ATOM     35  O   UNL A   1      32.764  32.935  27.445  1.00  0.00    -0.269 OA
BRANCH  33  36
ATOM     36  C   UNL A   1      34.490  31.391  27.841  1.00  0.00     0.039 A 
ATOM     37  C   UNL A   1      35.539  32.307  27.956  1.00  0.00     0.014 A 
ATOM     38  C   UNL A   1      34.661  30.079  28.295  1.00  0.00     0.014 A 
ATOM     39  C   UNL A   1      36.736  31.920  28.561  1.00  0.00     0.010 A 
ATOM     40  C   UNL A   1      35.825  29.718  28.972  1.00  0.00     0.010 A 
ATOM     41  C   UNL A   1      36.882  30.629  29.096  1.00  0.00    -0.014 A 
BRANCH  41  42
ATOM     42  C   UNL A   1      38.132  30.241  29.797  1.00  0.00     0.031 A 
ATOM     43  C   UNL A   1      38.418  30.715  31.196  1.00  0.00     0.074 A 
ATOM     44  C   UNL A   1      39.040  29.486  29.147  1.00  0.00     0.049 A 
ATOM     45  N   UNL A   1      39.416  30.403  31.983  1.00  0.00    -0.248 NA
ATOM     46  C   UNL A   1      37.477  31.685  31.780  1.00  0.00     0.031 C 
ATOM     47  C   UNL A   1      38.929  29.045  27.755  1.00  0.00     0.029 A 
ATOM     48  N   UNL A   1      40.232  28.956  29.570  1.00  0.00    -0.354 N 
ATOM     49  C   UNL A   1      39.238  31.152  33.140  1.00  0.00     0.074 A 
ATOM     50  C   UNL A   1      38.062  31.970  32.933  1.00  0.00     0.031 C 
ATOM     51  C   UNL A   1      39.991  28.282  27.451  1.00  0.00     0.029 A 
ATOM     52  C   UNL A   1      40.862  28.190  28.617  1.00  0.00     0.049 A 
ATOM     53  H   UNL A   1      40.602  29.109  30.469  1.00  0.00     0.167 HD
ATOM     54  C   UNL A   1      39.962  31.137  34.285  1.00  0.00     0.034 A 
ATOM     55  C   UNL A   1      42.000  27.473  28.683  1.00  0.00     0.034 A 
ATOM     56  C   UNL A   1      41.110  30.295  34.497  1.00  0.00     0.049 A 
ATOM     57  C   UNL A   1      42.751  27.415  29.984  1.00  0.00     0.074 A 
ATOM     58  C   UNL A   1      41.864  30.135  35.647  1.00  0.00     0.029 A 
ATOM     59  N   UNL A   1      41.678  29.474  33.534  1.00  0.00    -0.354 N 
ATOM     60  N   UNL A   1      42.466  27.988  31.128  1.00  0.00    -0.248 NA
ATOM     61  C   UNL A   1      43.953  26.572  30.016  1.00  0.00     0.031 C 
ATOM     62  C   UNL A   1      42.897  29.231  35.373  1.00  0.00     0.029 A 
ATOM     63  C   UNL A   1      42.775  28.810  34.058  1.00  0.00     0.049 A 
ATOM     64  H   UNL A   1      41.349  29.378  32.611  1.00  0.00     0.167 HD
ATOM     65  C   UNL A   1      43.433  27.550  32.026  1.00  0.00     0.074 A 
ATOM     66  C   UNL A   1      44.296  26.643  31.295  1.00  0.00     0.031 C 
ATOM     67  C   UNL A   1      43.600  27.879  33.331  1.00  0.00     0.034 A 
BRANCH  54  68
ATOM     68  C   UNL A   1      39.490  32.017  35.415  1.00  0.00     0.023 A 
ATOM     69  C   UNL A   1      38.570  31.503  36.354  1.00  0.00     0.012 A 
ATOM     70  C   UNL A   1      39.966  33.333  35.569  1.00  0.00     0.148 A 
ATOM     71  C   UNL A   1      38.094  32.298  37.396  1.00  0.00     0.002 A 
ATOM     72  C   UNL A   1      39.522  34.105  36.638  1.00  0.00     0.091 A 
ATOM     73  F   UNL A   1      40.821  33.818  34.658  1.00  0.00    -0.205 F 
ATOM     74  C   UNL A   1      38.578  33.596  37.543  1.00  0.00     0.022 A 
BRANCH  72  75
ATOM     75  S   UNL A   1      40.150  35.759  36.953  1.00  0.00     0.127 S 
ATOM     76  O   UNL A   1      39.663  36.488  35.782  1.00  0.00    -0.237 OA
ATOM     77  O   UNL A   1      39.486  36.112  38.208  1.00  0.00    -0.237 OA
ATOM     78  O   UNL A   1      41.596  35.619  37.056  1.00  0.00    -0.744 OA
ENDBRANCH  72  75
ENDBRANCH  54  68
BRANCH  55  79
ATOM     79  C   UNL A   1      42.420  26.653  27.513  1.00  0.00     0.023 A 
ATOM     80  C   UNL A   1      43.237  27.238  26.525  1.00  0.00     0.012 A 
ATOM     81  C   UNL A   1      42.073  25.293  27.403  1.00  0.00     0.148 A 
ATOM     82  C   UNL A   1      43.684  26.490  25.437  1.00  0.00     0.002 A 
ATOM     83  C   UNL A   1      42.567  24.540  26.343  1.00  0.00     0.091 A 
ATOM     84  F   UNL A   1      41.292  24.759  28.350  1.00  0.00    -0.205 F 
ATOM     85  C   UNL A   1      43.359  25.140  25.351  1.00  0.00     0.022 A 
BRANCH  83  86
ATOM     86  S   UNL A   1      42.315  22.765  26.221  1.00  0.00     0.127 S 
ATOM     87  O   UNL A   1      43.043  22.279  27.391  1.00  0.00    -0.237 OA
ATOM     88  O   UNL A   1      40.857  22.665  26.317  1.00  0.00    -0.237 OA
ATOM     89  O   UNL A   1      42.861  22.377  24.931  1.00  0.00    -0.744 OA
ENDBRANCH  83  86
ENDBRANCH  55  79
BRANCH  67  90
ATOM     90  C   UNL A   1      44.750  27.236  34.063  1.00  0.00     0.023 A 
ATOM     91  C   UNL A   1      46.029  27.827  34.014  1.00  0.00     0.012 A 
ATOM     92  C   UNL A   1      44.558  26.073  34.834  1.00  0.00     0.148 A 
ATOM     93  C   UNL A   1      47.105  27.247  34.684  1.00  0.00     0.002 A 
ATOM     94  C   UNL A   1      45.625  25.527  35.538  1.00  0.00     0.091 A 
ATOM     95  F   UNL A   1      43.340  25.508  34.852  1.00  0.00    -0.205 F 
ATOM     96  C   UNL A   1      46.902  26.104  35.454  1.00  0.00     0.022 A 
BRANCH  94  97
ATOM     97  S   UNL A   1      45.422  24.112  36.627  1.00  0.00     0.127 S 
ATOM     98  O   UNL A   1      46.784  23.913  37.117  1.00  0.00    -0.237 OA
ATOM     99  O   UNL A   1      44.480  24.616  37.629  1.00  0.00    -0.237 OA
ATOM    100  O   UNL A   1      44.889  23.045  35.789  1.00  0.00    -0.744 OA
ENDBRANCH  94  97
ENDBRANCH  67  90
ENDBRANCH  41  42
ENDBRANCH  33  36
ENDBRANCH  31  32
ENDBRANCH   1  31
TORSDOF 19
ENDMDL
MODEL 2
REMARK VINA RESULT:     -11.8      4.788     10.089
REMARK SMILES O=C(C[C@@H]([NH2+]Cc1ccccc1)C(=O)NCCCNC(=O)c1ccc(-c2c3nc(c(-c4cccc(S(=O)(=O)[O-])c4F)c4ccc([nH]4)c(-c4cccc(S(=O)(=O)[O-])c4F)c4nc(c(-c5cccc(S(=O)(=O)[O-])c5F)c5ccc2[nH]5)C=C4)C=C3)cc1)Nc1cccc(Cl)c1Cl
REMARK SMILES IDX 17 1 16 2 15 3 13 4 14 5 4 7 3 8 2 9 1 10 85 11 86 13 87 14
REMARK SMILES IDX 92 15 88 16 90 17 93 18 89 19 91 20 5 21 6 24 7 25 8 26
REMARK SMILES IDX 12 27 9 28 11 29 10 30 18 31 19 32 20 33 21 35 22 36 23 37
REMARK SMILES IDX 84 38 24 39 83 40 25 41 26 42 27 43 77 44 28 45 82 46 76 47
REMARK SMILES IDX 78 48 29 49 81 50 75 51 74 52 30 54 62 55 42 56 61 57 43 58
REMARK SMILES IDX 46 59 60 60 79 61 44 62 45 63 59 65 80 66 47 67 31 68 32 69
REMARK SMILES IDX 40 70 33 71 35 72 41 73 34 74 36 75 37 76 38 77 39 78 63 79
REMARK SMILES IDX 64 80 72 81 65 82 67 83 73 84 66 85 68 86 69 87 70 88 71 89
REMARK SMILES IDX 48 90 49 91 57 92 50 93 52 94 58 95 51 96 53 97 54 98 55 99
REMARK SMILES IDX 56 100
REMARK H PARENT 15 6 85 12 5 22 5 23 19 34 78 53 46 64
REMARK Flexibility Score: inf
ROOT
ATOM      1  C   UNL A   1      36.063  22.503  24.348  1.00  0.00     0.042 C 
ENDROOT
BRANCH   1   2
ATOM      2  C   UNL A   1      35.185  23.750  24.289  1.00  0.00     0.118 C 
BRANCH   2   3
ATOM      3  N   UNL A   1      34.615  23.942  22.969  1.00  0.00    -0.351 N 
ATOM      4  C   UNL A   1      33.357  23.697  22.503  1.00  0.00     0.278 C 
ATOM      5  O   UNL A   1      33.129  23.965  21.320  1.00  0.00    -0.268 OA
ATOM      6  H   UNL A   1      35.237  24.309  22.301  1.00  0.00     0.163 HD
BRANCH   4   7
ATOM      7  C   UNL A   1      32.246  23.144  23.415  1.00  0.00     0.282 C 
BRANCH   7   8
ATOM      8  C   UNL A   1      30.949  23.943  23.236  1.00  0.00     0.175 C 
BRANCH   8   9
ATOM      9  C   UNL A   1      30.904  25.127  24.171  1.00  0.00     0.230 C 
ATOM     10  O   UNL A   1      30.324  25.087  25.251  1.00  0.00    -0.274 OA
ATOM     11  N   UNL A   1      31.457  26.268  23.605  1.00  0.00    -0.325 N 
ATOM     12  H   UNL A   1      31.799  26.213  22.683  1.00  0.00     0.169 HD
BRANCH  11  13
ATOM     13  C   UNL A   1      31.555  27.502  24.280  1.00  0.00     0.061 A 
ATOM     14  C   UNL A   1      30.741  28.537  23.800  1.00  0.00     0.028 A 
ATOM     15  C   UNL A   1      32.434  27.738  25.357  1.00  0.00     0.083 A 
ATOM     16  C   UNL A   1      30.737  29.781  24.428  1.00  0.00     0.004 A 
ATOM     17  C   UNL A   1      32.442  29.003  25.964  1.00  0.00     0.061 A 
ATOM     18  Cl  UNL A   1      33.619  26.549  25.808  1.00  0.00    -0.080 Cl
ATOM     19  C   UNL A   1      31.584  30.011  25.510  1.00  0.00     0.022 A 
ATOM     20  Cl  UNL A   1      33.511  29.411  27.262  1.00  0.00    -0.083 Cl
ENDBRANCH  11  13
ENDBRANCH   8   9
ENDBRANCH   7   8
BRANCH   7  21
ATOM     21  N   UNL A   1      32.054  21.672  23.224  1.00  0.00    -0.332 N 
ATOM     22  H   UNL A   1      32.522  21.393  22.361  1.00  0.00     0.347 HD
ATOM     23  H   UNL A   1      31.049  21.500  23.187  1.00  0.00     0.347 HD
BRANCH  21  24
ATOM     24  C   UNL A   1      32.596  20.867  24.332  1.00  0.00     0.297 C 
BRANCH  24  25
ATOM     25  C   UNL A   1      33.073  19.473  23.978  1.00  0.00     0.006 A 
ATOM     26  C   UNL A   1      32.450  18.655  23.020  1.00  0.00     0.009 A 
ATOM     27  C   UNL A   1      34.226  18.984  24.613  1.00  0.00     0.009 A 
ATOM     28  C   UNL A   1      32.921  17.367  22.761  1.00  0.00     0.001 A 
ATOM     29  C   UNL A   1      34.709  17.702  24.339  1.00  0.00     0.001 A 
ATOM     30  C   UNL A   1      34.048  16.890  23.423  1.00  0.00     0.000 A 
ENDBRANCH  24  25
ENDBRANCH  21  24
ENDBRANCH   7  21
ENDBRANCH   4   7
ENDBRANCH   2   3
ENDBRANCH   1   2
BRANCH   1  31
ATOM     31  C   UNL A   1      36.351  22.008  25.761  1.00  0.00     0.118 C 
BRANCH  31  32
ATOM     32  N   UNL A   1      37.376  20.976  25.791  1.00  0.00    -0.352 N 
ATOM     33  C   UNL A   1      38.730  21.075  25.986  1.00  0.00     0.251 C 
ATOM     34  H   UNL A   1      37.044  20.060  25.650  1.00  0.00     0.163 HD
ATOM     35  O   UNL A   1      39.434  20.091  25.767  1.00  0.00    -0.269 OA
BRANCH  33  36
ATOM     36  C   UNL A   1      39.347  22.341  26.439  1.00  0.00     0.039 A 
ATOM     37  C   UNL A   1      40.482  22.275  27.252  1.00  0.00     0.014 A 
ATOM     38  C   UNL A   1      38.796  23.585  26.116  1.00  0.00     0.014 A 
ATOM     39  C   UNL A   1      41.083  23.452  27.703  1.00  0.00     0.010 A 
ATOM     40  C   UNL A   1      39.444  24.758  26.497  1.00  0.00     0.010 A 
ATOM     41  C   UNL A   1      40.584  24.705  27.310  1.00  0.00    -0.014 A 
BRANCH  41  42
ATOM     42  C   UNL A   1      41.264  25.954  27.737  1.00  0.00     0.031 A 
ATOM     43  C   UNL A   1      42.681  26.246  27.326  1.00  0.00     0.074 A 
ATOM     44  C   UNL A   1      40.608  26.816  28.539  1.00  0.00     0.049 A 
ATOM     45  N   UNL A   1      43.394  27.323  27.538  1.00  0.00    -0.248 NA
ATOM     46  C   UNL A   1      43.402  25.184  26.606  1.00  0.00     0.031 C 
ATOM     47  C   UNL A   1      39.268  26.602  29.090  1.00  0.00     0.029 A 
ATOM     48  N   UNL A   1      40.978  28.042  29.031  1.00  0.00    -0.354 N 
ATOM     49  C   UNL A   1      44.650  27.061  27.003  1.00  0.00     0.074 A 
ATOM     50  C   UNL A   1      44.616  25.705  26.498  1.00  0.00     0.031 C 
ATOM     51  C   UNL A   1      38.914  27.676  29.813  1.00  0.00     0.029 A 
ATOM     52  C   UNL A   1      40.003  28.646  29.789  1.00  0.00     0.049 A 
ATOM     53  H   UNL A   1      41.857  28.450  28.858  1.00  0.00     0.167 HD
ATOM     54  C   UNL A   1      45.723  27.882  26.905  1.00  0.00     0.034 A 
ATOM     55  C   UNL A   1      39.979  29.858  30.378  1.00  0.00     0.034 A 
ATOM     56  C   UNL A   1      45.739  29.241  27.378  1.00  0.00     0.049 A 
ATOM     57  C   UNL A   1      41.153  30.780  30.198  1.00  0.00     0.074 A 
ATOM     58  C   UNL A   1      46.741  30.188  27.252  1.00  0.00     0.029 A 
ATOM     59  N   UNL A   1      44.706  29.848  28.077  1.00  0.00    -0.354 N 
ATOM     60  N   UNL A   1      42.264  30.582  29.531  1.00  0.00    -0.248 NA
ATOM     61  C   UNL A   1      41.048  32.109  30.813  1.00  0.00     0.031 C 
ATOM     62  C   UNL A   1      46.319  31.362  27.890  1.00  0.00     0.029 A 
ATOM     63  C   UNL A   1      45.045  31.153  28.395  1.00  0.00     0.049 A 
ATOM     64  H   UNL A   1      43.854  29.414  28.313  1.00  0.00     0.167 HD
ATOM     65  C   UNL A   1      42.977  31.771  29.616  1.00  0.00     0.074 A 
ATOM     66  C   UNL A   1      42.159  32.692  30.380  1.00  0.00     0.031 C 
ATOM     67  C   UNL A   1      44.203  32.071  29.119  1.00  0.00     0.034 A 
BRANCH  54  68
ATOM     68  C   UNL A   1      46.945  27.344  26.205  1.00  0.00     0.023 A 
ATOM     69  C   UNL A   1      47.073  27.511  24.810  1.00  0.00     0.012 A 
ATOM     70  C   UNL A   1      47.975  26.700  26.917  1.00  0.00     0.148 A 
ATOM     71  C   UNL A   1      48.179  27.003  24.128  1.00  0.00     0.002 A 
ATOM     72  C   UNL A   1      49.097  26.237  26.236  1.00  0.00     0.091 A 
ATOM     73  F   UNL A   1      47.832  26.526  28.238  1.00  0.00    -0.205 F 
ATOM     74  C   UNL A   1      49.195  26.375  24.843  1.00  0.00     0.022 A 
BRANCH  72  75
ATOM     75  S   UNL A   1      50.492  25.486  27.085  1.00  0.00     0.127 S 
ATOM     76  O   UNL A   1      51.403  25.214  25.974  1.00  0.00    -0.237 OA
ATOM     77  O   UNL A   1      50.928  26.559  27.979  1.00  0.00    -0.237 OA
ATOM     78  O   UNL A   1      49.956  24.316  27.767  1.00  0.00    -0.744 OA
ENDBRANCH  72  75
ENDBRANCH  54  68
BRANCH  55  79
ATOM     79  C   UNL A   1      38.745  30.307  31.081  1.00  0.00     0.023 A 
ATOM     80  C   UNL A   1      38.626  30.082  32.466  1.00  0.00     0.012 A 
ATOM     81  C   UNL A   1      37.727  31.008  30.408  1.00  0.00     0.148 A 
ATOM     82  C   UNL A   1      37.505  30.525  33.166  1.00  0.00     0.002 A 
ATOM     83  C   UNL A   1      36.637  31.495  31.122  1.00  0.00     0.091 A 
ATOM     84  F   UNL A   1      37.858  31.208  29.089  1.00  0.00    -0.205 F 
ATOM     85  C   UNL A   1      36.516  31.240  32.497  1.00  0.00     0.022 A 
BRANCH  83  86
ATOM     86  S   UNL A   1      35.383  32.541  30.374  1.00  0.00     0.127 S 
ATOM     87  O   UNL A   1      34.932  31.713  29.256  1.00  0.00    -0.237 OA
ATOM     88  O   UNL A   1      34.418  32.678  31.467  1.00  0.00    -0.237 OA
ATOM     89  O   UNL A   1      36.062  33.774  30.012  1.00  0.00    -0.744 OA
ENDBRANCH  83  86
ENDBRANCH  55  79
BRANCH  67  90
ATOM     90  C   UNL A   1      44.728  33.462  29.368  1.00  0.00     0.023 A 
ATOM     91  C   UNL A   1      45.363  33.762  30.591  1.00  0.00     0.012 A 
ATOM     92  C   UNL A   1      44.632  34.459  28.378  1.00  0.00     0.148 A 
ATOM     93  C   UNL A   1      45.854  35.043  30.840  1.00  0.00     0.002 A 
ATOM     94  C   UNL A   1      45.167  35.720  28.615  1.00  0.00     0.091 A 
ATOM     95  F   UNL A   1      44.005  34.165  27.229  1.00  0.00    -0.205 F 
ATOM     96  C   UNL A   1      45.766  36.019  29.849  1.00  0.00     0.022 A 
BRANCH  94  97
ATOM     97  S   UNL A   1      45.178  37.001  27.355  1.00  0.00     0.127 S 
ATOM     98  O   UNL A   1      45.980  36.379  26.303  1.00  0.00    -0.237 OA
ATOM     99  O   UNL A   1      43.757  37.143  27.035  1.00  0.00    -0.237 OA
ATOM    100  O   UNL A   1      45.768  38.172  27.990  1.00  0.00    -0.744 OA
ENDBRANCH  94  97
ENDBRANCH  67  90
ENDBRANCH  41  42
ENDBRANCH  33  36
ENDBRANCH  31  32
ENDBRANCH   1  31
TORSDOF 19
ENDMDL
MODEL 3
REMARK VINA RESULT:     -11.7      1.753      2.325
REMARK SMILES O=C(C[C@@H]([NH2+]Cc1ccccc1)C(=O)NCCCNC(=O)c1ccc(-c2c3nc(c(-c4cccc(S(=O)(=O)[O-])c4F)c4ccc([nH]4)c(-c4cccc(S(=O)(=O)[O-])c4F)c4nc(c(-c5cccc(S(=O)(=O)[O-])c5F)c5ccc2[nH]5)C=C4)C=C3)cc1)Nc1cccc(Cl)c1Cl
REMARK SMILES IDX 17 1 16 2 15 3 13 4 14 5 4 7 3 8 2 9 1 10 85 11 86 13 87 14
REMARK SMILES IDX 92 15 88 16 90 17 93 18 89 19 91 20 5 21 6 24 7 25 8 26
REMARK SMILES IDX 12 27 9 28 11 29 10 30 18 31 19 32 20 33 21 35 22 36 23 37
REMARK SMILES IDX 84 38 24 39 83 40 25 41 26 42 27 43 77 44 28 45 82 46 76 47
REMARK SMILES IDX 78 48 29 49 81 50 75 51 74 52 30 54 62 55 42 56 61 57 43 58
REMARK SMILES IDX 46 59 60 60 79 61 44 62 45 63 59 65 80 66 47 67 31 68 32 69
REMARK SMILES IDX 40 70 33 71 35 72 41 73 34 74 36 75 37 76 38 77 39 78 63 79
REMARK SMILES IDX 64 80 72 81 65 82 67 83 73 84 66 85 68 86 69 87 70 88 71 89
REMARK SMILES IDX 48 90 49 91 57 92 50 93 52 94 58 95 51 96 53 97 54 98 55 99
REMARK SMILES IDX 56 100
REMARK H PARENT 15 6 85 12 5 22 5 23 19 34 78 53 46 64
REMARK Flexibility Score: inf
ROOT
ATOM      1  C   UNL A   1      32.106  29.007  26.925  1.00  0.00     0.042 C 
ENDROOT
BRANCH   1   2
ATOM      2  C   UNL A   1      32.482  27.528  26.980  1.00  0.00     0.118 C 
BRANCH   2   3
ATOM      3  N   UNL A   1      31.324  26.674  26.801  1.00  0.00    -0.351 N 
ATOM      4  C   UNL A   1      30.854  26.040  25.689  1.00  0.00     0.278 C 
ATOM      5  O   UNL A   1      29.836  25.354  25.815  1.00  0.00    -0.268 OA
ATOM      6  H   UNL A   1      30.790  26.527  27.615  1.00  0.00     0.163 HD
BRANCH   4   7
ATOM      7  C   UNL A   1      31.575  26.139  24.332  1.00  0.00     0.282 C 
BRANCH   7   8
ATOM      8  C   UNL A   1      31.069  25.057  23.369  1.00  0.00     0.175 C 
BRANCH   8   9
ATOM      9  C   UNL A   1      32.061  23.925  23.249  1.00  0.00     0.230 C 
ATOM     10  O   UNL A   1      32.648  23.678  22.201  1.00  0.00    -0.274 OA
ATOM     11  N   UNL A   1      32.106  23.141  24.394  1.00  0.00    -0.325 N 
ATOM     12  H   UNL A   1      31.507  23.370  25.141  1.00  0.00     0.169 HD
BRANCH  11  13
ATOM     13  C   UNL A   1      32.966  22.033  24.544  1.00  0.00     0.061 A 
ATOM     14  C   UNL A   1      32.367  20.768  24.457  1.00  0.00     0.028 A 
ATOM     15  C   UNL A   1      34.348  22.144  24.804  1.00  0.00     0.083 A 
ATOM     16  C   UNL A   1      33.142  19.614  24.551  1.00  0.00     0.004 A 
ATOM     17  C   UNL A   1      35.112  20.973  24.924  1.00  0.00     0.061 A 
ATOM     18  Cl  UNL A   1      35.061  23.689  25.154  1.00  0.00    -0.080 Cl
ATOM     19  C   UNL A   1      34.513  19.717  24.781  1.00  0.00     0.022 A 
ATOM     20  Cl  UNL A   1      36.805  20.995  25.286  1.00  0.00    -0.083 Cl
ENDBRANCH  11  13
ENDBRANCH   8   9
ENDBRANCH   7   8
BRANCH   7  21
ATOM     21  N   UNL A   1      31.489  27.517  23.756  1.00  0.00    -0.332 N 
ATOM     22  H   UNL A   1      32.430  27.826  23.510  1.00  0.00     0.347 HD
ATOM     23  H   UNL A   1      31.063  28.115  24.464  1.00  0.00     0.347 HD
BRANCH  21  24
ATOM     24  C   UNL A   1      30.642  27.591  22.553  1.00  0.00     0.297 C 
BRANCH  24  25
ATOM     25  C   UNL A   1      29.592  28.684  22.537  1.00  0.00     0.006 A 
ATOM     26  C   UNL A   1      28.296  28.530  23.060  1.00  0.00     0.009 A 
ATOM     27  C   UNL A   1      29.945  29.936  22.008  1.00  0.00     0.009 A 
ATOM     28  C   UNL A   1      27.366  29.568  22.987  1.00  0.00     0.001 A 
ATOM     29  C   UNL A   1      29.019  30.980  21.953  1.00  0.00     0.001 A 
ATOM     30  C   UNL A   1      27.726  30.791  22.431  1.00  0.00     0.000 A 
ENDBRANCH  24  25
ENDBRANCH  21  24
ENDBRANCH   7  21
ENDBRANCH   4   7
ENDBRANCH   2   3
ENDBRANCH   1   2
BRANCH   1  31
ATOM     31  C   UNL A   1      33.140  29.889  26.234  1.00  0.00     0.118 C 
BRANCH  31  32
ATOM     32  N   UNL A   1      33.024  31.287  26.618  1.00  0.00    -0.352 N 
ATOM     33  C   UNL A   1      33.749  32.024  27.519  1.00  0.00     0.251 C 
ATOM     34  H   UNL A   1      32.310  31.784  26.156  1.00  0.00     0.163 HD
ATOM     35  O   UNL A   1      33.344  33.141  27.834  1.00  0.00    -0.269 OA
BRANCH  33  36
ATOM     36  C   UNL A   1      34.994  31.492  28.117  1.00  0.00     0.039 A 
ATOM     37  C   UNL A   1      36.129  32.306  28.127  1.00  0.00     0.014 A 
ATOM     38  C   UNL A   1      35.068  30.190  28.621  1.00  0.00     0.014 A 
ATOM     39  C   UNL A   1      37.321  31.829  28.677  1.00  0.00     0.010 A 
ATOM     40  C   UNL A   1      36.233  29.745  29.243  1.00  0.00     0.010 A 
ATOM     41  C   UNL A   1      37.378  30.553  29.263  1.00  0.00    -0.014 A 
BRANCH  41  42
ATOM     42  C   UNL A   1      38.627  30.075  29.905  1.00  0.00     0.031 A 
ATOM     43  C   UNL A   1      39.023  30.543  31.279  1.00  0.00     0.074 A 
ATOM     44  C   UNL A   1      39.436  29.238  29.225  1.00  0.00     0.049 A 
ATOM     45  N   UNL A   1      40.032  30.162  32.020  1.00  0.00    -0.248 NA
ATOM     46  C   UNL A   1      38.195  31.595  31.892  1.00  0.00     0.031 C 
ATOM     47  C   UNL A   1      39.217  28.789  27.848  1.00  0.00     0.029 A 
ATOM     48  N   UNL A   1      40.602  28.619  29.596  1.00  0.00    -0.354 N 
ATOM     49  C   UNL A   1      39.976  30.940  33.171  1.00  0.00     0.074 A 
ATOM     50  C   UNL A   1      38.861  31.848  33.009  1.00  0.00     0.031 C 
ATOM     51  C   UNL A   1      40.196  27.938  27.504  1.00  0.00     0.029 A 
ATOM     52  C   UNL A   1      41.117  27.792  28.625  1.00  0.00     0.049 A 
ATOM     53  H   UNL A   1      41.029  28.754  30.472  1.00  0.00     0.167 HD
ATOM     54  C   UNL A   1      40.756  30.881  34.277  1.00  0.00     0.034 A 
ATOM     55  C   UNL A   1      42.195  26.985  28.646  1.00  0.00     0.034 A 
ATOM     56  C   UNL A   1      41.842  29.952  34.446  1.00  0.00     0.049 A 
ATOM     57  C   UNL A   1      43.006  26.884  29.909  1.00  0.00     0.074 A 
ATOM     58  C   UNL A   1      42.639  29.747  35.558  1.00  0.00     0.029 A 
ATOM     59  N   UNL A   1      42.290  29.074  33.470  1.00  0.00    -0.354 N 
ATOM     60  N   UNL A   1      42.829  27.494  31.055  1.00  0.00    -0.248 NA
ATOM     61  C   UNL A   1      44.136  25.946  29.894  1.00  0.00     0.031 C 
ATOM     62  C   UNL A   1      43.580  28.758  35.248  1.00  0.00     0.029 A 
ATOM     63  C   UNL A   1      43.356  28.330  33.949  1.00  0.00     0.049 A 
ATOM     64  H   UNL A   1      41.907  28.992  32.567  1.00  0.00     0.167 HD
ATOM     65  C   UNL A   1      43.803  26.992  31.910  1.00  0.00     0.074 A 
ATOM     66  C   UNL A   1      44.551  26.007  31.153  1.00  0.00     0.031 C 
ATOM     67  C   UNL A   1      44.063  27.324  33.199  1.00  0.00     0.034 A 
BRANCH  54  68
ATOM     68  C   UNL A   1      40.416  31.812  35.413  1.00  0.00     0.023 A 
ATOM     69  C   UNL A   1      41.246  32.926  35.667  1.00  0.00     0.012 A 
ATOM     70  C   UNL A   1      39.275  31.611  36.212  1.00  0.00     0.148 A 
ATOM     71  C   UNL A   1      40.975  33.793  36.725  1.00  0.00     0.002 A 
ATOM     72  C   UNL A   1      38.985  32.507  37.238  1.00  0.00     0.091 A 
ATOM     73  F   UNL A   1      38.507  30.538  35.978  1.00  0.00    -0.205 F 
ATOM     74  C   UNL A   1      39.840  33.588  37.504  1.00  0.00     0.022 A 
BRANCH  72  75
ATOM     75  S   UNL A   1      37.500  32.368  38.241  1.00  0.00     0.127 S 
ATOM     76  O   UNL A   1      36.517  33.065  37.412  1.00  0.00    -0.237 OA
ATOM     77  O   UNL A   1      37.311  30.919  38.320  1.00  0.00    -0.237 OA
ATOM     78  O   UNL A   1      37.822  33.004  39.511  1.00  0.00    -0.744 OA
ENDBRANCH  72  75
ENDBRANCH  54  68
BRANCH  55  79
ATOM     79  C   UNL A   1      42.486  26.117  27.471  1.00  0.00     0.023 A 
ATOM     80  C   UNL A   1      43.299  26.617  26.436  1.00  0.00     0.012 A 
ATOM     81  C   UNL A   1      42.021  24.790  27.402  1.00  0.00     0.148 A 
ATOM     82  C   UNL A   1      43.627  25.820  25.340  1.00  0.00     0.002 A 
ATOM     83  C   UNL A   1      42.396  23.984  26.332  1.00  0.00     0.091 A 
ATOM     84  F   UNL A   1      41.244  24.337  28.395  1.00  0.00    -0.205 F 
ATOM     85  C   UNL A   1      43.185  24.501  25.294  1.00  0.00     0.022 A 
BRANCH  83  86
ATOM     86  S   UNL A   1      41.988  22.236  26.253  1.00  0.00     0.127 S 
ATOM     87  O   UNL A   1      42.749  21.805  25.081  1.00  0.00    -0.237 OA
ATOM     88  O   UNL A   1      42.505  21.751  27.534  1.00  0.00    -0.237 OA
ATOM     89  O   UNL A   1      40.542  22.173  26.125  1.00  0.00    -0.744 OA
ENDBRANCH  83  86
ENDBRANCH  55  79
BRANCH  67  90
ATOM     90  C   UNL A   1      45.195  26.600  33.883  1.00  0.00     0.023 A 
ATOM     91  C   UNL A   1      46.514  27.079  33.750  1.00  0.00     0.012 A 
ATOM     92  C   UNL A   1      44.949  25.473  34.691  1.00  0.00     0.148 A 
ATOM     93  C   UNL A   1      47.574  26.423  34.375  1.00  0.00     0.002 A 
ATOM     94  C   UNL A   1      46.004  24.852  35.349  1.00  0.00     0.091 A 
ATOM     95  F   UNL A   1      43.691  25.014  34.788  1.00  0.00    -0.205 F 
ATOM     96  C   UNL A   1      47.319  25.316  35.182  1.00  0.00     0.022 A 
BRANCH  94  97
ATOM     97  S   UNL A   1      45.744  23.481  36.481  1.00  0.00     0.127 S 
ATOM     98  O   UNL A   1      45.086  22.501  35.619  1.00  0.00    -0.237 OA
ATOM     99  O   UNL A   1      47.110  23.130  36.872  1.00  0.00    -0.237 OA
ATOM    100  O   UNL A   1      44.931  24.016  37.565  1.00  0.00    -0.744 OA
ENDBRANCH  94  97
ENDBRANCH  67  90
ENDBRANCH  41  42
ENDBRANCH  33  36
ENDBRANCH  31  32
ENDBRANCH   1  31
TORSDOF 19
ENDMDL
