MODEL 1
REMARK VINA RESULT:     -12.7      0.000      0.000
REMARK SMILES Cc1nn(C)c(=O)c(C(=O)N2CCCC[C@H]2C(=O)NCCCNC(=O)c2ccc(-c3c4nc(c(-c5cccc(S(=O)(=O)[O-])c5F)c5ccc([nH]5)c(-c5cccc(S(=O)(=O)[O-])c5F)c5nc(c(-c6cccc(S(=O)(=O)[O-])c6F)c6ccc3[nH]6)C=C5)C=C4)cc2)c1C
REMARK SMILES IDX 21 1 20 2 19 3 17 4 18 5 16 7 11 8 12 9 13 10 15 11 14 12
REMARK SMILES IDX 9 13 10 14 8 15 1 16 2 17 3 18 89 19 4 20 90 21 5 22 6 23
REMARK SMILES IDX 7 24 22 25 23 26 24 27 25 29 26 30 27 31 88 32 28 33 87 34
REMARK SMILES IDX 29 35 30 36 31 37 81 38 32 39 86 40 80 41 82 42 33 43 85 44
REMARK SMILES IDX 79 45 78 46 34 48 66 49 46 50 65 51 47 52 50 53 64 54 83 55
REMARK SMILES IDX 48 56 49 57 63 59 84 60 51 61 35 62 36 63 44 64 37 65 39 66
REMARK SMILES IDX 45 67 38 68 40 69 41 70 42 71 43 72 67 73 68 74 76 75 69 76
REMARK SMILES IDX 71 77 77 78 70 79 72 80 73 81 74 82 75 83 52 84 53 85 61 86
REMARK SMILES IDX 54 87 56 88 62 89 55 90 57 91 58 92 59 93 60 94
REMARK H PARENT 19 6 23 28 82 47 50 58
REMARK Flexibility Score: inf
ROOT
ATOM      1  C   UNL A   1      31.997  30.127  25.483  1.00  0.00     0.042 C 
ENDROOT
BRANCH   1   2
ATOM      2  C   UNL A   1      33.275  29.327  25.265  1.00  0.00     0.117 C 
BRANCH   2   3
ATOM      3  N   UNL A   1      33.265  27.963  25.786  1.00  0.00    -0.354 N 
ATOM      4  C   UNL A   1      33.267  26.723  25.221  1.00  0.00     0.242 C 
ATOM      5  O   UNL A   1      33.580  25.804  25.991  1.00  0.00    -0.273 OA
ATOM      6  H   UNL A   1      33.254  27.933  26.769  1.00  0.00     0.163 HD
BRANCH   4   7
ATOM      7  C   UNL A   1      32.720  26.376  23.809  1.00  0.00     0.174 C 
ATOM      8  N   UNL A   1      32.467  24.997  23.470  1.00  0.00    -0.326 N 
ATOM      9  C   UNL A   1      31.178  24.477  23.998  1.00  0.00     0.120 C 
ATOM     10  C   UNL A   1      29.968  25.378  23.749  1.00  0.00     0.022 C 
ATOM     11  C   UNL A   1      31.529  27.275  23.416  1.00  0.00     0.035 C 
ATOM     12  C   UNL A   1      30.250  26.831  24.102  1.00  0.00     0.004 C 
BRANCH   8  13
ATOM     13  C   UNL A   1      33.312  24.125  22.780  1.00  0.00     0.260 C 
ATOM     14  O   UNL A   1      33.319  24.273  21.550  1.00  0.00    -0.269 OA
BRANCH  13  15
ATOM     15  C   UNL A   1      34.061  22.867  23.331  1.00  0.00     0.111 A 
ATOM     16  C   UNL A   1      36.771  21.478  25.595  1.00  0.00     0.069 C 
ATOM     17  C   UNL A   1      35.488  21.532  24.779  1.00  0.00     0.062 A 
ATOM     18  N   UNL A   1      34.561  20.741  25.188  1.00  0.00    -0.175 NA
ATOM     19  C   UNL A   1      35.345  22.546  23.657  1.00  0.00    -0.010 A 
ATOM     20  N   UNL A   1      33.392  20.761  24.513  1.00  0.00    -0.232 N 
ATOM     21  C   UNL A   1      36.672  23.101  23.246  1.00  0.00     0.047 C 
ATOM     22  C   UNL A   1      32.482  19.670  24.837  1.00  0.00     0.178 C 
ATOM     23  C   UNL A   1      33.108  21.667  23.507  1.00  0.00     0.279 A 
ATOM     24  O   UNL A   1      32.158  21.501  22.743  1.00  0.00    -0.267 OA
ENDBRANCH  13  15
ENDBRANCH   8  13
ENDBRANCH   4   7
ENDBRANCH   2   3
ENDBRANCH   1   2
BRANCH   1  25
ATOM     25  C   UNL A   1      31.802  30.709  26.874  1.00  0.00     0.118 C 
BRANCH  25  26
ATOM     26  N   UNL A   1      31.949  32.149  26.868  1.00  0.00    -0.352 N 
ATOM     27  C   UNL A   1      32.907  32.921  27.480  1.00  0.00     0.251 C 
ATOM     28  H   UNL A   1      31.270  32.643  26.354  1.00  0.00     0.163 HD
ATOM     29  O   UNL A   1      32.681  34.119  27.640  1.00  0.00    -0.269 OA
BRANCH  27  30
ATOM     30  C   UNL A   1      34.203  32.349  27.930  1.00  0.00     0.039 A 
ATOM     31  C   UNL A   1      34.229  31.014  28.353  1.00  0.00     0.014 A 
ATOM     32  C   UNL A   1      35.353  33.134  28.065  1.00  0.00     0.014 A 
ATOM     33  C   UNL A   1      35.389  30.478  28.923  1.00  0.00     0.010 A 
ATOM     34  C   UNL A   1      36.528  32.581  28.585  1.00  0.00     0.010 A 
ATOM     35  C   UNL A   1      36.547  31.260  29.058  1.00  0.00    -0.014 A 
BRANCH  35  36
ATOM     36  C   UNL A   1      37.746  30.728  29.761  1.00  0.00     0.031 A 
ATOM     37  C   UNL A   1      38.070  31.192  31.159  1.00  0.00     0.074 A 
ATOM     38  C   UNL A   1      38.555  29.841  29.152  1.00  0.00     0.049 A 
ATOM     39  N   UNL A   1      39.069  30.848  31.933  1.00  0.00    -0.248 NA
ATOM     40  C   UNL A   1      37.160  32.178  31.764  1.00  0.00     0.031 C 
ATOM     41  C   UNL A   1      38.378  29.334  27.791  1.00  0.00     0.029 A 
ATOM     42  N   UNL A   1      39.695  29.216  29.595  1.00  0.00    -0.354 N 
ATOM     43  C   UNL A   1      38.919  31.586  33.102  1.00  0.00     0.074 A 
ATOM     44  C   UNL A   1      37.753  32.423  32.924  1.00  0.00     0.031 C 
ATOM     45  C   UNL A   1      39.368  28.472  27.512  1.00  0.00     0.029 A 
ATOM     46  C   UNL A   1      40.267  28.383  28.661  1.00  0.00     0.049 A 
ATOM     47  H   UNL A   1      40.069  29.352  30.496  1.00  0.00     0.167 HD
ATOM     48  C   UNL A   1      39.662  31.549  34.234  1.00  0.00     0.034 A 
ATOM     49  C   UNL A   1      41.388  27.634  28.721  1.00  0.00     0.034 A 
ATOM     50  C   UNL A   1      40.798  30.688  34.432  1.00  0.00     0.049 A 
ATOM     51  C   UNL A   1      42.198  27.612  29.992  1.00  0.00     0.074 A 
ATOM     52  C   UNL A   1      41.574  30.541  35.568  1.00  0.00     0.029 A 
ATOM     53  N   UNL A   1      41.323  29.832  33.478  1.00  0.00    -0.354 N 
ATOM     54  N   UNL A   1      41.967  28.220  31.129  1.00  0.00    -0.248 NA
ATOM     55  C   UNL A   1      43.408  26.775  29.996  1.00  0.00     0.031 C 
ATOM     56  C   UNL A   1      42.582  29.611  35.294  1.00  0.00     0.029 A 
ATOM     57  C   UNL A   1      42.419  29.162  33.994  1.00  0.00     0.049 A 
ATOM     58  H   UNL A   1      40.968  29.716  32.566  1.00  0.00     0.167 HD
ATOM     59  C   UNL A   1      42.984  27.823  31.990  1.00  0.00     0.074 A 
ATOM     60  C   UNL A   1      43.818  26.896  31.252  1.00  0.00     0.031 C 
ATOM     61  C   UNL A   1      43.221  28.207  33.270  1.00  0.00     0.034 A 
BRANCH  48  62
ATOM     62  C   UNL A   1      39.236  32.423  35.386  1.00  0.00     0.023 A 
ATOM     63  C   UNL A   1      38.383  31.893  36.375  1.00  0.00     0.012 A 
ATOM     64  C   UNL A   1      39.749  33.726  35.544  1.00  0.00     0.148 A 
ATOM     65  C   UNL A   1      38.027  32.651  37.489  1.00  0.00     0.002 A 
ATOM     66  C   UNL A   1      39.426  34.460  36.679  1.00  0.00     0.091 A 
ATOM     67  F   UNL A   1      40.545  34.220  34.583  1.00  0.00    -0.205 F 
ATOM     68  C   UNL A   1      38.558  33.928  37.647  1.00  0.00     0.022 A 
BRANCH  66  69
ATOM     69  S   UNL A   1      40.118  36.084  37.019  1.00  0.00     0.127 S 
ATOM     70  O   UNL A   1      41.535  35.768  37.194  1.00  0.00    -0.237 OA
ATOM     71  O   UNL A   1      39.803  36.815  35.792  1.00  0.00    -0.237 OA
ATOM     72  O   UNL A   1      39.436  36.569  38.210  1.00  0.00    -0.744 OA
ENDBRANCH  66  69
ENDBRANCH  48  62
BRANCH  49  73
ATOM     73  C   UNL A   1      41.771  26.787  27.556  1.00  0.00     0.023 A 
ATOM     74  C   UNL A   1      42.493  27.361  26.492  1.00  0.00     0.012 A 
ATOM     75  C   UNL A   1      41.466  25.412  27.515  1.00  0.00     0.148 A 
ATOM     76  C   UNL A   1      42.889  26.588  25.400  1.00  0.00     0.002 A 
ATOM     77  C   UNL A   1      41.915  24.635  26.454  1.00  0.00     0.091 A 
ATOM     78  F   UNL A   1      40.759  24.888  28.527  1.00  0.00    -0.205 F 
ATOM     79  C   UNL A   1      42.612  25.223  25.387  1.00  0.00     0.022 A 
BRANCH  77  80
ATOM     80  S   UNL A   1      41.730  22.848  26.420  1.00  0.00     0.127 S 
ATOM     81  O   UNL A   1      42.407  22.500  25.175  1.00  0.00    -0.237 OA
ATOM     82  O   UNL A   1      42.433  22.451  27.639  1.00  0.00    -0.237 OA
ATOM     83  O   UNL A   1      40.293  22.602  26.448  1.00  0.00    -0.744 OA
ENDBRANCH  77  80
ENDBRANCH  49  73
BRANCH  61  84
ATOM     84  C   UNL A   1      44.428  27.636  33.970  1.00  0.00     0.023 A 
ATOM     85  C   UNL A   1      45.644  28.347  33.944  1.00  0.00     0.012 A 
ATOM     86  C   UNL A   1      44.337  26.454  34.731  1.00  0.00     0.148 A 
ATOM     87  C   UNL A   1      46.758  27.877  34.639  1.00  0.00     0.002 A 
ATOM     88  C   UNL A   1      45.437  26.017  35.462  1.00  0.00     0.091 A 
ATOM     89  F   UNL A   1      43.177  25.780  34.733  1.00  0.00    -0.205 F 
ATOM     90  C   UNL A   1      46.650  26.720  35.409  1.00  0.00     0.022 A 
BRANCH  88  91
ATOM     91  S   UNL A   1      45.363  24.597  36.562  1.00  0.00     0.127 S 
ATOM     92  O   UNL A   1      45.125  23.503  35.621  1.00  0.00    -0.237 OA
ATOM     93  O   UNL A   1      46.695  24.601  37.167  1.00  0.00    -0.237 OA
ATOM     94  O   UNL A   1      44.276  24.869  37.493  1.00  0.00    -0.744 OA
ENDBRANCH  88  91
ENDBRANCH  61  84
ENDBRANCH  35  36
ENDBRANCH  27  30
ENDBRANCH  25  26
ENDBRANCH   1  25
TORSDOF 15
ENDMDL
MODEL 2
REMARK VINA RESULT:     -12.6      1.734      2.079
REMARK SMILES Cc1nn(C)c(=O)c(C(=O)N2CCCC[C@H]2C(=O)NCCCNC(=O)c2ccc(-c3c4nc(c(-c5cccc(S(=O)(=O)[O-])c5F)c5ccc([nH]5)c(-c5cccc(S(=O)(=O)[O-])c5F)c5nc(c(-c6cccc(S(=O)(=O)[O-])c6F)c6ccc3[nH]6)C=C5)C=C4)cc2)c1C
REMARK SMILES IDX 21 1 20 2 19 3 17 4 18 5 16 7 11 8 12 9 13 10 15 11 14 12
REMARK SMILES IDX 9 13 10 14 8 15 1 16 2 17 3 18 89 19 4 20 90 21 5 22 6 23
REMARK SMILES IDX 7 24 22 25 23 26 24 27 25 29 26 30 27 31 88 32 28 33 87 34
REMARK SMILES IDX 29 35 30 36 31 37 81 38 32 39 86 40 80 41 82 42 33 43 85 44
REMARK SMILES IDX 79 45 78 46 34 48 66 49 46 50 65 51 47 52 50 53 64 54 83 55
REMARK SMILES IDX 48 56 49 57 63 59 84 60 51 61 35 62 36 63 44 64 37 65 39 66
REMARK SMILES IDX 45 67 38 68 40 69 41 70 42 71 43 72 67 73 68 74 76 75 69 76
REMARK SMILES IDX 71 77 77 78 70 79 72 80 73 81 74 82 75 83 52 84 53 85 61 86
REMARK SMILES IDX 54 87 56 88 62 89 55 90 57 91 58 92 59 93 60 94
REMARK H PARENT 19 6 23 28 82 47 50 58
REMARK Flexibility Score: inf
ROOT
ATOM      1  C   UNL A   1      31.768  29.473  27.060  1.00  0.00     0.042 C 
ENDROOT
BRANCH   1   2
ATOM      2  C   UNL A   1      32.083  28.003  27.307  1.00  0.00     0.117 C 
BRANCH   2   3
ATOM      3  N   UNL A   1      31.034  27.059  26.931  1.00  0.00    -0.354 N 
ATOM      4  C   UNL A   1      31.019  25.817  26.371  1.00  0.00     0.242 C 
ATOM      5  O   UNL A   1      29.951  25.203  26.502  1.00  0.00    -0.273 OA
ATOM      6  H   UNL A   1      30.131  27.399  27.128  1.00  0.00     0.163 HD
BRANCH   4   7
ATOM      7  C   UNL A   1      32.118  25.238  25.438  1.00  0.00     0.174 C 
ATOM      8  N   UNL A   1      31.883  23.984  24.765  1.00  0.00    -0.326 N 
ATOM      9  C   UNL A   1      31.042  24.109  23.546  1.00  0.00     0.120 C 
ATOM     10  C   UNL A   1      31.456  25.226  22.587  1.00  0.00     0.022 C 
ATOM     11  C   UNL A   1      32.667  26.301  24.464  1.00  0.00     0.035 C 
ATOM     12  C   UNL A   1      31.710  26.540  23.310  1.00  0.00     0.004 C 
BRANCH   8  13
ATOM     13  C   UNL A   1      32.296  22.713  25.170  1.00  0.00     0.260 C 
ATOM     14  O   UNL A   1      31.619  22.212  26.079  1.00  0.00    -0.269 OA
BRANCH  13  15
ATOM     15  C   UNL A   1      33.611  21.956  24.787  1.00  0.00     0.111 A 
ATOM     16  C   UNL A   1      37.311  21.419  25.431  1.00  0.00     0.069 C 
ATOM     17  C   UNL A   1      35.886  21.122  24.986  1.00  0.00     0.062 A 
ATOM     18  N   UNL A   1      35.572  19.876  24.994  1.00  0.00    -0.175 NA
ATOM     19  C   UNL A   1      34.934  22.266  24.683  1.00  0.00    -0.010 A 
ATOM     20  N   UNL A   1      34.313  19.556  24.626  1.00  0.00    -0.232 N 
ATOM     21  C   UNL A   1      35.668  23.554  24.482  1.00  0.00     0.047 C 
ATOM     22  C   UNL A   1      34.089  18.136  24.390  1.00  0.00     0.178 C 
ATOM     23  C   UNL A   1      33.330  20.497  24.376  1.00  0.00     0.279 A 
ATOM     24  O   UNL A   1      32.286  20.195  23.798  1.00  0.00    -0.267 OA
ENDBRANCH  13  15
ENDBRANCH   8  13
ENDBRANCH   4   7
ENDBRANCH   2   3
ENDBRANCH   1   2
BRANCH   1  25
ATOM     25  C   UNL A   1      32.828  30.268  26.315  1.00  0.00     0.118 C 
BRANCH  25  26
ATOM     26  N   UNL A   1      32.816  31.661  26.710  1.00  0.00    -0.352 N 
ATOM     27  C   UNL A   1      33.623  32.308  27.614  1.00  0.00     0.251 C 
ATOM     28  H   UNL A   1      32.135  32.221  26.271  1.00  0.00     0.163 HD
ATOM     29  O   UNL A   1      33.254  33.393  28.060  1.00  0.00    -0.269 OA
BRANCH  27  30
ATOM     30  C   UNL A   1      34.929  31.741  28.042  1.00  0.00     0.039 A 
ATOM     31  C   UNL A   1      34.971  30.402  28.450  1.00  0.00     0.014 A 
ATOM     32  C   UNL A   1      36.074  32.534  28.174  1.00  0.00     0.014 A 
ATOM     33  C   UNL A   1      36.141  29.868  29.001  1.00  0.00     0.010 A 
ATOM     34  C   UNL A   1      37.260  31.985  28.675  1.00  0.00     0.010 A 
ATOM     35  C   UNL A   1      37.294  30.659  29.132  1.00  0.00    -0.014 A 
BRANCH  35  36
ATOM     36  C   UNL A   1      38.506  30.129  29.815  1.00  0.00     0.031 A 
ATOM     37  C   UNL A   1      38.855  30.597  31.206  1.00  0.00     0.074 A 
ATOM     38  C   UNL A   1      39.303  29.238  29.195  1.00  0.00     0.049 A 
ATOM     39  N   UNL A   1      39.867  30.255  31.963  1.00  0.00    -0.248 NA
ATOM     40  C   UNL A   1      37.956  31.586  31.823  1.00  0.00     0.031 C 
ATOM     41  C   UNL A   1      39.101  28.726  27.840  1.00  0.00     0.029 A 
ATOM     42  N   UNL A   1      40.450  28.614  29.620  1.00  0.00    -0.354 N 
ATOM     43  C   UNL A   1      39.739  30.998  33.131  1.00  0.00     0.074 A 
ATOM     44  C   UNL A   1      38.570  31.836  32.971  1.00  0.00     0.031 C 
ATOM     45  C   UNL A   1      40.085  27.862  27.546  1.00  0.00     0.029 A 
ATOM     46  C   UNL A   1      41.004  27.777  28.680  1.00  0.00     0.049 A 
ATOM     47  H   UNL A   1      40.840  28.753  30.514  1.00  0.00     0.167 HD
ATOM     48  C   UNL A   1      40.502  30.965  34.250  1.00  0.00     0.034 A 
ATOM     49  C   UNL A   1      42.126  27.027  28.722  1.00  0.00     0.034 A 
ATOM     50  C   UNL A   1      41.641  30.104  34.431  1.00  0.00     0.049 A 
ATOM     51  C   UNL A   1      42.958  27.009  29.978  1.00  0.00     0.074 A 
ATOM     52  C   UNL A   1      42.436  29.960  35.554  1.00  0.00     0.029 A 
ATOM     53  N   UNL A   1      42.147  29.244  33.471  1.00  0.00    -0.354 N 
ATOM     54  N   UNL A   1      42.748  27.622  31.118  1.00  0.00    -0.248 NA
ATOM     55  C   UNL A   1      44.167  26.171  29.964  1.00  0.00     0.031 C 
ATOM     56  C   UNL A   1      43.439  29.028  35.265  1.00  0.00     0.029 A 
ATOM     57  C   UNL A   1      43.252  28.575  33.970  1.00  0.00     0.049 A 
ATOM     58  H   UNL A   1      41.776  29.124  32.566  1.00  0.00     0.167 HD
ATOM     59  C   UNL A   1      43.780  27.227  31.961  1.00  0.00     0.074 A 
ATOM     60  C   UNL A   1      44.600  26.297  31.212  1.00  0.00     0.031 C 
ATOM     61  C   UNL A   1      44.040  27.616  33.235  1.00  0.00     0.034 A 
BRANCH  48  62
ATOM     62  C   UNL A   1      40.098  31.844  35.407  1.00  0.00     0.023 A 
ATOM     63  C   UNL A   1      40.622  33.149  35.496  1.00  0.00     0.012 A 
ATOM     64  C   UNL A   1      39.136  31.420  36.345  1.00  0.00     0.148 A 
ATOM     65  C   UNL A   1      40.215  34.011  36.513  1.00  0.00     0.002 A 
ATOM     66  C   UNL A   1      38.702  32.299  37.330  1.00  0.00     0.091 A 
ATOM     67  F   UNL A   1      38.662  30.169  36.254  1.00  0.00    -0.205 F 
ATOM     68  C   UNL A   1      39.247  33.591  37.421  1.00  0.00     0.022 A 
BRANCH  66  69
ATOM     69  S   UNL A   1      37.401  31.887  38.500  1.00  0.00     0.127 S 
ATOM     70  O   UNL A   1      38.073  32.114  39.778  1.00  0.00    -0.237 OA
ATOM     71  O   UNL A   1      36.368  32.869  38.170  1.00  0.00    -0.237 OA
ATOM     72  O   UNL A   1      37.037  30.504  38.225  1.00  0.00    -0.744 OA
ENDBRANCH  66  69
ENDBRANCH  48  62
BRANCH  49  73
ATOM     73  C   UNL A   1      42.487  26.175  27.554  1.00  0.00     0.023 A 
ATOM     74  C   UNL A   1      43.343  26.690  26.562  1.00  0.00     0.012 A 
ATOM     75  C   UNL A   1      42.027  24.848  27.441  1.00  0.00     0.148 A 
ATOM     76  C   UNL A   1      43.721  25.908  25.469  1.00  0.00     0.002 A 
ATOM     77  C   UNL A   1      42.454  24.055  26.384  1.00  0.00     0.091 A 
ATOM     78  F   UNL A   1      41.196  24.382  28.385  1.00  0.00    -0.205 F 
ATOM     79  C   UNL A   1      43.288  24.587  25.387  1.00  0.00     0.022 A 
BRANCH  77  80
ATOM     80  S   UNL A   1      42.065  22.304  26.271  1.00  0.00     0.127 S 
ATOM     81  O   UNL A   1      42.688  21.780  27.483  1.00  0.00    -0.237 OA
ATOM     82  O   UNL A   1      40.603  22.321  26.284  1.00  0.00    -0.237 OA
ATOM     83  O   UNL A   1      42.650  21.853  25.014  1.00  0.00    -0.744 OA
ENDBRANCH  77  80
ENDBRANCH  49  73
BRANCH  61  84
ATOM     84  C   UNL A   1      45.259  27.047  33.916  1.00  0.00     0.023 A 
ATOM     85  C   UNL A   1      46.475  27.756  33.866  1.00  0.00     0.012 A 
ATOM     86  C   UNL A   1      45.181  25.867  34.683  1.00  0.00     0.148 A 
ATOM     87  C   UNL A   1      47.601  27.288  34.543  1.00  0.00     0.002 A 
ATOM     88  C   UNL A   1      46.294  25.432  35.395  1.00  0.00     0.091 A 
ATOM     89  F   UNL A   1      44.021  25.194  34.707  1.00  0.00    -0.205 F 
ATOM     90  C   UNL A   1      47.506  26.135  35.318  1.00  0.00     0.022 A 
BRANCH  88  91
ATOM     91  S   UNL A   1      46.238  24.016  36.501  1.00  0.00     0.127 S 
ATOM     92  O   UNL A   1      45.082  24.335  37.337  1.00  0.00    -0.237 OA
ATOM     93  O   UNL A   1      46.032  22.903  35.574  1.00  0.00    -0.237 OA
ATOM     94  O   UNL A   1      47.522  23.996  37.190  1.00  0.00    -0.744 OA
ENDBRANCH  88  91
ENDBRANCH  61  84
ENDBRANCH  35  36
ENDBRANCH  27  30
ENDBRANCH  25  26
ENDBRANCH   1  25
TORSDOF 15
ENDMDL
MODEL 3
REMARK VINA RESULT:     -12.5      4.241      7.654
REMARK SMILES Cc1nn(C)c(=O)c(C(=O)N2CCCC[C@H]2C(=O)NCCCNC(=O)c2ccc(-c3c4nc(c(-c5cccc(S(=O)(=O)[O-])c5F)c5ccc([nH]5)c(-c5cccc(S(=O)(=O)[O-])c5F)c5nc(c(-c6cccc(S(=O)(=O)[O-])c6F)c6ccc3[nH]6)C=C5)C=C4)cc2)c1C
REMARK SMILES IDX 21 1 20 2 19 3 17 4 18 5 16 7 11 8 12 9 13 10 15 11 14 12
REMARK SMILES IDX 9 13 10 14 8 15 1 16 2 17 3 18 89 19 4 20 90 21 5 22 6 23
REMARK SMILES IDX 7 24 22 25 23 26 24 27 25 29 26 30 27 31 88 32 28 33 87 34
REMARK SMILES IDX 29 35 30 36 31 37 81 38 32 39 86 40 80 41 82 42 33 43 85 44
REMARK SMILES IDX 79 45 78 46 34 48 66 49 46 50 65 51 47 52 50 53 64 54 83 55
REMARK SMILES IDX 48 56 49 57 63 59 84 60 51 61 35 62 36 63 44 64 37 65 39 66
REMARK SMILES IDX 45 67 38 68 40 69 41 70 42 71 43 72 67 73 68 74 76 75 69 76
REMARK SMILES IDX 71 77 77 78 70 79 72 80 73 81 74 82 75 83 52 84 53 85 61 86
REMARK SMILES IDX 54 87 56 88 62 89 55 90 57 91 58 92 59 93 60 94
REMARK H PARENT 19 6 23 28 82 47 50 58
REMARK Flexibility Score: inf
ROOT
ATOM      1  C   UNL A   1      34.004  33.498  28.656  1.00  0.00     0.042 C 
ENDROOT
BRANCH   1   2
ATOM      2  C   UNL A   1      32.918  34.432  28.136  1.00  0.00     0.117 C 
BRANCH   2   3
ATOM      3  N   UNL A   1      32.833  35.732  28.795  1.00  0.00    -0.354 N 
ATOM      4  C   UNL A   1      33.099  36.189  30.050  1.00  0.00     0.242 C 
ATOM      5  O   UNL A   1      33.209  37.420  30.142  1.00  0.00    -0.273 OA
ATOM      6  H   UNL A   1      32.508  36.440  28.193  1.00  0.00     0.163 HD
BRANCH   4   7
ATOM      7  C   UNL A   1      33.057  35.333  31.347  1.00  0.00     0.174 C 
ATOM      8  N   UNL A   1      34.292  35.007  32.017  1.00  0.00    -0.326 N 
ATOM      9  C   UNL A   1      34.818  36.106  32.868  1.00  0.00     0.120 C 
ATOM     10  C   UNL A   1      33.791  36.749  33.801  1.00  0.00     0.022 C 
ATOM     11  C   UNL A   1      31.999  35.848  32.344  1.00  0.00     0.035 C 
ATOM     12  C   UNL A   1      32.491  37.079  33.085  1.00  0.00     0.004 C 
BRANCH   8  13
ATOM     13  C   UNL A   1      35.041  33.834  31.894  1.00  0.00     0.260 C 
ATOM     14  O   UNL A   1      34.383  32.787  31.978  1.00  0.00    -0.269 OA
BRANCH  13  15
ATOM     15  C   UNL A   1      36.597  33.677  31.890  1.00  0.00     0.111 A 
ATOM     16  C   UNL A   1      39.897  34.436  30.176  1.00  0.00     0.069 C 
ATOM     17  C   UNL A   1      38.916  34.098  31.290  1.00  0.00     0.062 A 
ATOM     18  N   UNL A   1      39.294  34.460  32.464  1.00  0.00    -0.175 NA
ATOM     19  C   UNL A   1      37.567  33.485  30.952  1.00  0.00    -0.010 A 
ATOM     20  N   UNL A   1      38.454  34.202  33.488  1.00  0.00    -0.232 N 
ATOM     21  C   UNL A   1      37.550  32.924  29.565  1.00  0.00     0.047 C 
ATOM     22  C   UNL A   1      39.034  34.380  34.813  1.00  0.00     0.178 C 
ATOM     23  C   UNL A   1      37.177  33.698  33.318  1.00  0.00     0.279 A 
ATOM     24  O   UNL A   1      36.539  33.234  34.263  1.00  0.00    -0.267 OA
ENDBRANCH  13  15
ENDBRANCH   8  13
ENDBRANCH   4   7
ENDBRANCH   2   3
ENDBRANCH   1   2
BRANCH   1  25
ATOM     25  C   UNL A   1      34.617  32.552  27.635  1.00  0.00     0.118 C 
BRANCH  25  26
ATOM     26  N   UNL A   1      33.962  31.261  27.654  1.00  0.00    -0.352 N 
ATOM     27  C   UNL A   1      34.524  30.010  27.738  1.00  0.00     0.251 C 
ATOM     28  H   UNL A   1      32.979  31.283  27.599  1.00  0.00     0.163 HD
ATOM     29  O   UNL A   1      33.846  29.039  27.407  1.00  0.00    -0.269 OA
BRANCH  27  30
ATOM     30  C   UNL A   1      35.910  29.807  28.236  1.00  0.00     0.039 A 
ATOM     31  C   UNL A   1      36.971  29.977  27.337  1.00  0.00     0.014 A 
ATOM     32  C   UNL A   1      36.173  29.326  29.524  1.00  0.00     0.014 A 
ATOM     33  C   UNL A   1      38.277  29.653  27.718  1.00  0.00     0.010 A 
ATOM     34  C   UNL A   1      37.486  29.053  29.921  1.00  0.00     0.010 A 
ATOM     35  C   UNL A   1      38.547  29.174  29.010  1.00  0.00    -0.014 A 
BRANCH  35  36
ATOM     36  C   UNL A   1      39.916  28.726  29.385  1.00  0.00     0.031 A 
ATOM     37  C   UNL A   1      40.674  29.442  30.475  1.00  0.00     0.074 A 
ATOM     38  C   UNL A   1      40.490  27.688  28.749  1.00  0.00     0.049 A 
ATOM     39  N   UNL A   1      41.874  29.203  30.940  1.00  0.00    -0.248 NA
ATOM     40  C   UNL A   1      40.001  30.582  31.119  1.00  0.00     0.031 C 
ATOM     41  C   UNL A   1      39.884  26.928  27.656  1.00  0.00     0.029 A 
ATOM     42  N   UNL A   1      41.720  27.099  28.923  1.00  0.00    -0.354 N 
ATOM     43  C   UNL A   1      42.107  30.170  31.913  1.00  0.00     0.074 A 
ATOM     44  C   UNL A   1      40.938  31.021  31.948  1.00  0.00     0.031 C 
ATOM     45  C   UNL A   1      40.738  25.970  27.261  1.00  0.00     0.029 A 
ATOM     46  C   UNL A   1      41.963  26.063  28.051  1.00  0.00     0.049 A 
ATOM     47  H   UNL A   1      42.366  27.392  29.606  1.00  0.00     0.167 HD
ATOM     48  C   UNL A   1      43.179  30.318  32.727  1.00  0.00     0.034 A 
ATOM     49  C   UNL A   1      43.051  25.277  27.903  1.00  0.00     0.034 A 
ATOM     50  C   UNL A   1      44.327  29.450  32.725  1.00  0.00     0.049 A 
ATOM     51  C   UNL A   1      44.231  25.464  28.821  1.00  0.00     0.074 A 
ATOM     52  C   UNL A   1      45.432  29.490  33.556  1.00  0.00     0.029 A 
ATOM     53  N   UNL A   1      44.520  28.390  31.855  1.00  0.00    -0.354 N 
ATOM     54  N   UNL A   1      44.378  26.301  29.818  1.00  0.00    -0.248 NA
ATOM     55  C   UNL A   1      45.385  24.576  28.611  1.00  0.00     0.031 C 
ATOM     56  C   UNL A   1      46.306  28.466  33.173  1.00  0.00     0.029 A 
ATOM     57  C   UNL A   1      45.732  27.774  32.120  1.00  0.00     0.049 A 
ATOM     58  H   UNL A   1      43.887  28.113  31.152  1.00  0.00     0.167 HD
ATOM     59  C   UNL A   1      45.625  26.027  30.368  1.00  0.00     0.074 A 
ATOM     60  C   UNL A   1      46.182  24.923  29.613  1.00  0.00     0.031 C 
ATOM     61  C   UNL A   1      46.263  26.647  31.393  1.00  0.00     0.034 A 
BRANCH  48  62
ATOM     62  C   UNL A   1      43.144  31.431  33.744  1.00  0.00     0.023 A 
ATOM     63  C   UNL A   1      43.720  32.676  33.423  1.00  0.00     0.012 A 
ATOM     64  C   UNL A   1      42.466  31.278  34.970  1.00  0.00     0.148 A 
ATOM     65  C   UNL A   1      43.643  33.746  34.314  1.00  0.00     0.002 A 
ATOM     66  C   UNL A   1      42.355  32.362  35.833  1.00  0.00     0.091 A 
ATOM     67  F   UNL A   1      41.940  30.080  35.265  1.00  0.00    -0.205 F 
ATOM     68  C   UNL A   1      42.951  33.593  35.511  1.00  0.00     0.022 A 
BRANCH  66  69
ATOM     69  S   UNL A   1      41.416  32.294  37.365  1.00  0.00     0.127 S 
ATOM     70  O   UNL A   1      42.256  31.425  38.187  1.00  0.00    -0.237 OA
ATOM     71  O   UNL A   1      41.403  33.698  37.779  1.00  0.00    -0.237 OA
ATOM     72  O   UNL A   1      40.112  31.750  37.013  1.00  0.00    -0.744 OA
ENDBRANCH  66  69
ENDBRANCH  48  62
BRANCH  49  73
ATOM     73  C   UNL A   1      43.040  24.191  26.882  1.00  0.00     0.023 A 
ATOM     74  C   UNL A   1      43.779  24.352  25.695  1.00  0.00     0.012 A 
ATOM     75  C   UNL A   1      42.345  22.985  27.098  1.00  0.00     0.148 A 
ATOM     76  C   UNL A   1      43.811  23.343  24.732  1.00  0.00     0.002 A 
ATOM     77  C   UNL A   1      42.429  21.961  26.163  1.00  0.00     0.091 A 
ATOM     78  F   UNL A   1      41.629  22.858  28.226  1.00  0.00    -0.205 F 
ATOM     79  C   UNL A   1      43.148  22.142  24.971  1.00  0.00     0.022 A 
BRANCH  77  80
ATOM     80  S   UNL A   1      41.727  20.332  26.451  1.00  0.00     0.127 S 
ATOM     81  O   UNL A   1      40.295  20.607  26.391  1.00  0.00    -0.237 OA
ATOM     82  O   UNL A   1      42.259  19.572  25.320  1.00  0.00    -0.237 OA
ATOM     83  O   UNL A   1      42.236  19.909  27.750  1.00  0.00    -0.744 OA
ENDBRANCH  77  80
ENDBRANCH  49  73
BRANCH  61  84
ATOM     84  C   UNL A   1      47.639  26.159  31.772  1.00  0.00     0.023 A 
ATOM     85  C   UNL A   1      48.765  26.679  31.104  1.00  0.00     0.012 A 
ATOM     86  C   UNL A   1      47.825  25.266  32.845  1.00  0.00     0.148 A 
ATOM     87  C   UNL A   1      50.053  26.297  31.479  1.00  0.00     0.002 A 
ATOM     88  C   UNL A   1      49.113  24.927  33.246  1.00  0.00     0.091 A 
ATOM     89  F   UNL A   1      46.742  24.767  33.460  1.00  0.00    -0.205 F 
ATOM     90  C   UNL A   1      50.227  25.433  32.558  1.00  0.00     0.022 A 
BRANCH  88  91
ATOM     91  S   UNL A   1      49.438  23.903  34.687  1.00  0.00     0.127 S 
ATOM     92  O   UNL A   1      50.900  23.885  34.717  1.00  0.00    -0.237 OA
ATOM     93  O   UNL A   1      48.816  24.673  35.765  1.00  0.00    -0.237 OA
ATOM     94  O   UNL A   1      48.802  22.620  34.418  1.00  0.00    -0.744 OA
ENDBRANCH  88  91
ENDBRANCH  61  84
ENDBRANCH  35  36
ENDBRANCH  27  30
ENDBRANCH  25  26
ENDBRANCH   1  25
TORSDOF 15
ENDMDL
