MODEL 1
REMARK VINA RESULT:     -10.6      0.000      0.000
REMARK SMILES C#CC[N@H+](CC(=O)NCCCNC(=O)c1ccc(-c2c3nc(c(-c4cccc(S(=O)(=O)[O-])c4F)c4ccc([nH]4)c(-c4cccc(S(=O)(=O)[O-])c4F)c4nc(c(-c5cccc(S(=O)(=O)[O-])c5F)c5ccc2[nH]5)C=C4)C=C3)cc1)[C@H]1CCO[C@@H](C(C)C)C1
REMARK SMILES IDX 10 1 9 2 8 3 6 4 7 5 5 7 4 8 3 10 2 11 1 12 78 13 79 14
REMARK SMILES IDX 86 15 80 16 82 17 81 18 83 19 84 20 85 21 11 22 12 23 13 24
REMARK SMILES IDX 14 26 15 27 16 28 77 29 17 30 76 31 18 32 19 33 20 34 70 35
REMARK SMILES IDX 21 36 75 37 69 38 71 39 22 40 74 41 68 42 67 43 23 45 55 46
REMARK SMILES IDX 35 47 54 48 36 49 39 50 53 51 72 52 37 53 38 54 52 56 73 57
REMARK SMILES IDX 40 58 24 59 25 60 33 61 26 62 28 63 34 64 27 65 29 66 30 67
REMARK SMILES IDX 31 68 32 69 56 70 57 71 65 72 58 73 60 74 66 75 59 76 61 77
REMARK SMILES IDX 62 78 63 79 64 80 41 81 42 82 50 83 43 84 45 85 51 86 44 87
REMARK SMILES IDX 46 88 47 89 48 90 49 91
REMARK H PARENT 8 6 4 9 12 25 71 44 39 55
REMARK Flexibility Score: inf
ROOT
ATOM      1  C   UNL A   1      31.598  28.915  26.235  1.00  0.00     0.042 C 
ENDROOT
BRANCH   1   2
ATOM      2  C   UNL A   1      31.834  27.868  27.330  1.00  0.00     0.118 C 
BRANCH   2   3
ATOM      3  N   UNL A   1      31.497  26.506  26.936  1.00  0.00    -0.351 N 
ATOM      4  C   UNL A   1      32.151  25.593  26.155  1.00  0.00     0.275 C 
ATOM      5  O   UNL A   1      31.648  24.469  26.064  1.00  0.00    -0.269 OA
ATOM      6  H   UNL A   1      30.640  26.184  27.299  1.00  0.00     0.163 HD
BRANCH   4   7
ATOM      7  C   UNL A   1      33.457  25.944  25.410  1.00  0.00     0.364 C 
BRANCH   7   8
ATOM      8  N   UNL A   1      33.828  24.887  24.427  1.00  0.00    -0.314 N 
ATOM      9  H   UNL A   1      33.238  24.071  24.589  1.00  0.00     0.349 HD
BRANCH   8  10
ATOM     10  C   UNL A   1      33.596  25.461  23.098  1.00  0.00     0.354 C 
BRANCH  10  11
ATOM     11  C   UNL A   1      33.619  26.960  22.849  1.00  0.00    -0.047 C 
ATOM     12  C   UNL A   1      33.640  28.246  22.634  1.00  0.00     0.010 C 
ENDBRANCH  10  11
ENDBRANCH   8  10
BRANCH   8  13
ATOM     13  C   UNL A   1      35.163  24.275  24.588  1.00  0.00     0.190 C 
ATOM     14  C   UNL A   1      35.575  23.825  26.008  1.00  0.00     0.093 C 
ATOM     15  C   UNL A   1      35.282  23.017  23.693  1.00  0.00     0.097 C 
ATOM     16  C   UNL A   1      34.834  22.579  26.477  1.00  0.00     0.166 C 
ATOM     17  C   UNL A   1      34.521  21.792  24.234  1.00  0.00     0.126 C 
ATOM     18  O   UNL A   1      34.993  21.501  25.560  1.00  0.00    -0.377 OA
BRANCH  17  19
ATOM     19  C   UNL A   1      32.971  21.848  24.157  1.00  0.00     0.012 C 
ATOM     20  C   UNL A   1      32.467  22.029  22.723  1.00  0.00     0.010 C 
ATOM     21  C   UNL A   1      32.336  20.589  24.761  1.00  0.00     0.010 C 
ENDBRANCH  17  19
ENDBRANCH   8  13
ENDBRANCH   7   8
ENDBRANCH   4   7
ENDBRANCH   2   3
ENDBRANCH   1   2
BRANCH   1  22
ATOM     22  C   UNL A   1      32.848  29.663  25.797  1.00  0.00     0.118 C 
BRANCH  22  23
ATOM     23  N   UNL A   1      32.736  31.071  26.125  1.00  0.00    -0.352 N 
ATOM     24  C   UNL A   1      33.358  31.768  27.135  1.00  0.00     0.251 C 
ATOM     25  H   UNL A   1      32.136  31.598  25.550  1.00  0.00     0.163 HD
ATOM     26  O   UNL A   1      32.861  32.826  27.517  1.00  0.00    -0.269 OA
BRANCH  24  27
ATOM     27  C   UNL A   1      34.612  31.268  27.754  1.00  0.00     0.039 A 
ATOM     28  C   UNL A   1      34.674  29.937  28.181  1.00  0.00     0.014 A 
ATOM     29  C   UNL A   1      35.689  32.122  28.008  1.00  0.00     0.014 A 
ATOM     30  C   UNL A   1      35.808  29.468  28.853  1.00  0.00     0.010 A 
ATOM     31  C   UNL A   1      36.852  31.632  28.601  1.00  0.00     0.010 A 
ATOM     32  C   UNL A   1      36.910  30.312  29.068  1.00  0.00    -0.014 A 
BRANCH  32  33
ATOM     33  C   UNL A   1      38.096  29.859  29.844  1.00  0.00     0.031 A 
ATOM     34  C   UNL A   1      38.336  30.397  31.233  1.00  0.00     0.074 A 
ATOM     35  C   UNL A   1      38.990  29.019  29.286  1.00  0.00     0.049 A 
ATOM     36  N   UNL A   1      39.338  30.175  32.045  1.00  0.00    -0.248 NA
ATOM     37  C   UNL A   1      37.331  31.332  31.770  1.00  0.00     0.031 C 
ATOM     38  C   UNL A   1      38.912  28.480  27.927  1.00  0.00     0.029 A 
ATOM     39  N   UNL A   1      40.154  28.490  29.785  1.00  0.00    -0.354 N 
ATOM     40  C   UNL A   1      39.106  30.970  33.163  1.00  0.00     0.074 A 
ATOM     41  C   UNL A   1      37.890  31.710  32.910  1.00  0.00     0.031 C 
ATOM     42  C   UNL A   1      39.976  27.693  27.703  1.00  0.00     0.029 A 
ATOM     43  C   UNL A   1      40.827  27.689  28.891  1.00  0.00     0.049 A 
ATOM     44  H   UNL A   1      40.478  28.666  30.698  1.00  0.00     0.167 HD
ATOM     45  C   UNL A   1      39.817  31.053  34.313  1.00  0.00     0.034 A 
ATOM     46  C   UNL A   1      41.994  27.027  29.015  1.00  0.00     0.034 A 
ATOM     47  C   UNL A   1      40.989  30.269  34.590  1.00  0.00     0.049 A 
ATOM     48  C   UNL A   1      42.737  27.094  30.323  1.00  0.00     0.074 A 
ATOM     49  C   UNL A   1      41.733  30.215  35.755  1.00  0.00     0.029 A 
ATOM     50  N   UNL A   1      41.584  29.396  33.693  1.00  0.00    -0.354 N 
ATOM     51  N   UNL A   1      42.420  27.736  31.420  1.00  0.00    -0.248 NA
ATOM     52  C   UNL A   1      43.979  26.312  30.423  1.00  0.00     0.031 C 
ATOM     53  C   UNL A   1      42.786  29.314  35.559  1.00  0.00     0.029 A 
ATOM     54  C   UNL A   1      42.686  28.797  34.277  1.00  0.00     0.049 A 
ATOM     55  H   UNL A   1      41.269  29.228  32.776  1.00  0.00     0.167 HD
ATOM     56  C   UNL A   1      43.399  27.408  32.352  1.00  0.00     0.074 A 
ATOM     57  C   UNL A   1      44.308  26.492  31.695  1.00  0.00     0.031 C 
ATOM     58  C   UNL A   1      43.543  27.838  33.630  1.00  0.00     0.034 A 
BRANCH  45  59
ATOM     59  C   UNL A   1      39.302  31.974  35.391  1.00  0.00     0.023 A 
ATOM     60  C   UNL A   1      38.344  31.498  36.309  1.00  0.00     0.012 A 
ATOM     61  C   UNL A   1      39.799  33.286  35.530  1.00  0.00     0.148 A 
ATOM     62  C   UNL A   1      37.860  32.321  37.325  1.00  0.00     0.002 A 
ATOM     63  C   UNL A   1      39.343  34.087  36.572  1.00  0.00     0.091 A 
ATOM     64  F   UNL A   1      40.694  33.730  34.637  1.00  0.00    -0.205 F 
ATOM     65  C   UNL A   1      38.366  33.610  37.463  1.00  0.00     0.022 A 
BRANCH  63  66
ATOM     66  S   UNL A   1      39.989  35.734  36.883  1.00  0.00     0.127 S 
ATOM     67  O   UNL A   1      41.413  35.462  37.067  1.00  0.00    -0.237 OA
ATOM     68  O   UNL A   1      39.658  36.435  35.640  1.00  0.00    -0.237 OA
ATOM     69  O   UNL A   1      39.286  36.225  38.060  1.00  0.00    -0.744 OA
ENDBRANCH  63  66
ENDBRANCH  45  59
BRANCH  46  70
ATOM     70  C   UNL A   1      42.491  26.176  27.896  1.00  0.00     0.023 A 
ATOM     71  C   UNL A   1      43.448  26.702  27.004  1.00  0.00     0.012 A 
ATOM     72  C   UNL A   1      42.051  24.850  27.723  1.00  0.00     0.148 A 
ATOM     73  C   UNL A   1      43.932  25.936  25.944  1.00  0.00     0.002 A 
ATOM     74  C   UNL A   1      42.579  24.073  26.698  1.00  0.00     0.091 A 
ATOM     75  F   UNL A   1      41.129  24.371  28.571  1.00  0.00    -0.205 F 
ATOM     76  C   UNL A   1      43.506  24.618  25.797  1.00  0.00     0.022 A 
BRANCH  74  77
ATOM     77  S   UNL A   1      42.189  22.328  26.520  1.00  0.00     0.127 S 
ATOM     78  O   UNL A   1      42.627  21.790  27.804  1.00  0.00    -0.237 OA
ATOM     79  O   UNL A   1      40.738  22.357  26.325  1.00  0.00    -0.237 OA
ATOM     80  O   UNL A   1      42.936  21.881  25.351  1.00  0.00    -0.744 OA
ENDBRANCH  74  77
ENDBRANCH  46  70
BRANCH  58  81
ATOM     81  C   UNL A   1      44.703  27.298  34.423  1.00  0.00     0.023 A 
ATOM     82  C   UNL A   1      45.945  27.964  34.386  1.00  0.00     0.012 A 
ATOM     83  C   UNL A   1      44.540  26.182  35.268  1.00  0.00     0.148 A 
ATOM     84  C   UNL A   1      47.014  27.509  35.156  1.00  0.00     0.002 A 
ATOM     85  C   UNL A   1      45.596  25.763  36.067  1.00  0.00     0.091 A 
ATOM     86  F   UNL A   1      43.357  25.551  35.273  1.00  0.00    -0.205 F 
ATOM     87  C   UNL A   1      46.837  26.419  36.005  1.00  0.00     0.022 A 
BRANCH  85  88
ATOM     88  S   UNL A   1      45.430  24.429  37.257  1.00  0.00     0.127 S 
ATOM     89  O   UNL A   1      44.315  24.898  38.079  1.00  0.00    -0.237 OA
ATOM     90  O   UNL A   1      45.117  23.284  36.402  1.00  0.00    -0.237 OA
ATOM     91  O   UNL A   1      46.716  24.338  37.938  1.00  0.00    -0.744 OA
ENDBRANCH  85  88
ENDBRANCH  58  81
ENDBRANCH  32  33
ENDBRANCH  24  27
ENDBRANCH  22  23
ENDBRANCH   1  22
TORSDOF 18
ENDMDL
MODEL 2
REMARK VINA RESULT:     -10.6      0.704      7.936
REMARK SMILES C#CC[N@H+](CC(=O)NCCCNC(=O)c1ccc(-c2c3nc(c(-c4cccc(S(=O)(=O)[O-])c4F)c4ccc([nH]4)c(-c4cccc(S(=O)(=O)[O-])c4F)c4nc(c(-c5cccc(S(=O)(=O)[O-])c5F)c5ccc2[nH]5)C=C4)C=C3)cc1)[C@H]1CCO[C@@H](C(C)C)C1
REMARK SMILES IDX 10 1 9 2 8 3 6 4 7 5 5 7 4 8 3 10 2 11 1 12 78 13 79 14
REMARK SMILES IDX 86 15 80 16 82 17 81 18 83 19 84 20 85 21 11 22 12 23 13 24
REMARK SMILES IDX 14 26 15 27 16 28 77 29 17 30 76 31 18 32 19 33 20 34 70 35
REMARK SMILES IDX 21 36 75 37 69 38 71 39 22 40 74 41 68 42 67 43 23 45 55 46
REMARK SMILES IDX 35 47 54 48 36 49 39 50 53 51 72 52 37 53 38 54 52 56 73 57
REMARK SMILES IDX 40 58 24 59 25 60 33 61 26 62 28 63 34 64 27 65 29 66 30 67
REMARK SMILES IDX 31 68 32 69 56 70 57 71 65 72 58 73 60 74 66 75 59 76 61 77
REMARK SMILES IDX 62 78 63 79 64 80 41 81 42 82 50 83 43 84 45 85 51 86 44 87
REMARK SMILES IDX 46 88 47 89 48 90 49 91
REMARK H PARENT 8 6 4 9 12 25 71 44 39 55
REMARK Flexibility Score: inf
ROOT
ATOM      1  C   UNL A   1      31.481  28.433  25.640  1.00  0.00     0.042 C 
ENDROOT
BRANCH   1   2
ATOM      2  C   UNL A   1      31.453  27.451  26.817  1.00  0.00     0.118 C 
BRANCH   2   3
ATOM      3  N   UNL A   1      31.044  26.100  26.457  1.00  0.00    -0.351 N 
ATOM      4  C   UNL A   1      31.764  24.968  26.188  1.00  0.00     0.275 C 
ATOM      5  O   UNL A   1      31.126  23.930  25.986  1.00  0.00    -0.269 OA
ATOM      6  H   UNL A   1      30.068  25.978  26.395  1.00  0.00     0.163 HD
BRANCH   4   7
ATOM      7  C   UNL A   1      33.307  24.978  26.130  1.00  0.00     0.364 C 
BRANCH   7   8
ATOM      8  N   UNL A   1      33.807  24.623  24.772  1.00  0.00    -0.314 N 
ATOM      9  H   UNL A   1      33.275  23.824  24.428  1.00  0.00     0.349 HD
BRANCH   8  10
ATOM     10  C   UNL A   1      33.596  25.807  23.933  1.00  0.00     0.354 C 
BRANCH  10  11
ATOM     11  C   UNL A   1      33.025  25.713  22.528  1.00  0.00    -0.047 C 
ATOM     12  C   UNL A   1      32.535  25.632  21.322  1.00  0.00     0.010 C 
ENDBRANCH  10  11
ENDBRANCH   8  10
BRANCH   8  13
ATOM     13  C   UNL A   1      35.176  24.074  24.695  1.00  0.00     0.190 C 
ATOM     14  C   UNL A   1      35.765  23.446  25.978  1.00  0.00     0.093 C 
ATOM     15  C   UNL A   1      35.244  22.968  23.612  1.00  0.00     0.097 C 
ATOM     16  C   UNL A   1      35.136  22.104  26.329  1.00  0.00     0.166 C 
ATOM     17  C   UNL A   1      34.602  21.636  24.038  1.00  0.00     0.126 C 
ATOM     18  O   UNL A   1      35.234  21.182  25.247  1.00  0.00    -0.377 OA
BRANCH  17  19
ATOM     19  C   UNL A   1      33.052  21.612  24.137  1.00  0.00     0.012 C 
ATOM     20  C   UNL A   1      32.382  22.050  22.832  1.00  0.00     0.010 C 
ATOM     21  C   UNL A   1      32.539  20.220  24.528  1.00  0.00     0.010 C 
ENDBRANCH  17  19
ENDBRANCH   8  13
ENDBRANCH   7   8
ENDBRANCH   4   7
ENDBRANCH   2   3
ENDBRANCH   1   2
BRANCH   1  22
ATOM     22  C   UNL A   1      32.761  29.247  25.529  1.00  0.00     0.118 C 
BRANCH  22  23
ATOM     23  N   UNL A   1      32.506  30.637  25.856  1.00  0.00    -0.352 N 
ATOM     24  C   UNL A   1      33.042  31.391  26.874  1.00  0.00     0.251 C 
ATOM     25  H   UNL A   1      31.865  31.103  25.272  1.00  0.00     0.163 HD
ATOM     26  O   UNL A   1      32.439  32.394  27.249  1.00  0.00    -0.269 OA
BRANCH  24  27
ATOM     27  C   UNL A   1      34.332  31.016  27.509  1.00  0.00     0.039 A 
ATOM     28  C   UNL A   1      34.529  29.691  27.913  1.00  0.00     0.014 A 
ATOM     29  C   UNL A   1      35.305  31.975  27.802  1.00  0.00     0.014 A 
ATOM     30  C   UNL A   1      35.694  29.332  28.600  1.00  0.00     0.010 A 
ATOM     31  C   UNL A   1      36.502  31.601  28.410  1.00  0.00     0.010 A 
ATOM     32  C   UNL A   1      36.694  30.285  28.854  1.00  0.00    -0.014 A 
BRANCH  32  33
ATOM     33  C   UNL A   1      37.907  29.947  29.646  1.00  0.00     0.031 A 
ATOM     34  C   UNL A   1      38.952  29.027  29.063  1.00  0.00     0.074 A 
ATOM     35  C   UNL A   1      38.046  30.409  30.904  1.00  0.00     0.049 A 
ATOM     36  N   UNL A   1      40.047  28.564  29.612  1.00  0.00    -0.248 NA
ATOM     37  C   UNL A   1      38.723  28.539  27.692  1.00  0.00     0.031 C 
ATOM     38  C   UNL A   1      37.077  31.250  31.609  1.00  0.00     0.029 A 
ATOM     39  N   UNL A   1      39.048  30.217  31.823  1.00  0.00    -0.354 N 
ATOM     40  C   UNL A   1      40.609  27.704  28.675  1.00  0.00     0.074 A 
ATOM     41  C   UNL A   1      39.717  27.676  27.538  1.00  0.00     0.031 C 
ATOM     42  C   UNL A   1      37.533  31.506  32.845  1.00  0.00     0.029 A 
ATOM     43  C   UNL A   1      38.814  30.829  33.033  1.00  0.00     0.049 A 
ATOM     44  H   UNL A   1      39.858  29.690  31.634  1.00  0.00     0.167 HD
ATOM     45  C   UNL A   1      41.779  27.024  28.735  1.00  0.00     0.034 A 
ATOM     46  C   UNL A   1      39.548  30.844  34.162  1.00  0.00     0.034 A 
ATOM     47  C   UNL A   1      42.697  27.103  29.838  1.00  0.00     0.049 A 
ATOM     48  C   UNL A   1      40.871  30.123  34.185  1.00  0.00     0.074 A 
ATOM     49  C   UNL A   1      43.946  26.522  29.961  1.00  0.00     0.029 A 
ATOM     50  N   UNL A   1      42.467  27.812  31.007  1.00  0.00    -0.354 N 
ATOM     51  N   UNL A   1      41.452  29.437  33.232  1.00  0.00    -0.248 NA
ATOM     52  C   UNL A   1      41.658  30.214  35.424  1.00  0.00     0.031 C 
ATOM     53  C   UNL A   1      44.469  26.874  31.211  1.00  0.00     0.029 A 
ATOM     54  C   UNL A   1      43.551  27.686  31.857  1.00  0.00     0.049 A 
ATOM     55  H   UNL A   1      41.652  28.329  31.201  1.00  0.00     0.167 HD
ATOM     56  C   UNL A   1      42.686  29.045  33.741  1.00  0.00     0.074 A 
ATOM     57  C   UNL A   1      42.776  29.591  35.080  1.00  0.00     0.031 C 
ATOM     58  C   UNL A   1      43.650  28.289  33.160  1.00  0.00     0.034 A 
BRANCH  45  59
ATOM     59  C   UNL A   1      42.168  26.192  27.539  1.00  0.00     0.023 A 
ATOM     60  C   UNL A   1      42.919  26.781  26.501  1.00  0.00     0.012 A 
ATOM     61  C   UNL A   1      41.842  24.823  27.464  1.00  0.00     0.148 A 
ATOM     62  C   UNL A   1      43.306  26.033  25.390  1.00  0.00     0.002 A 
ATOM     63  C   UNL A   1      42.269  24.073  26.373  1.00  0.00     0.091 A 
ATOM     64  F   UNL A   1      41.111  24.283  28.449  1.00  0.00    -0.205 F 
ATOM     65  C   UNL A   1      42.991  24.679  25.330  1.00  0.00     0.022 A 
BRANCH  63  66
ATOM     66  S   UNL A   1      41.982  22.304  26.239  1.00  0.00     0.127 S 
ATOM     67  O   UNL A   1      42.688  21.985  24.999  1.00  0.00    -0.237 OA
ATOM     68  O   UNL A   1      42.622  21.795  27.452  1.00  0.00    -0.237 OA
ATOM     69  O   UNL A   1      40.537  22.135  26.199  1.00  0.00    -0.744 OA
ENDBRANCH  63  66
ENDBRANCH  45  59
BRANCH  46  70
ATOM     70  C   UNL A   1      39.089  31.634  35.340  1.00  0.00     0.023 A 
ATOM     71  C   UNL A   1      38.232  31.030  36.282  1.00  0.00     0.012 A 
ATOM     72  C   UNL A   1      39.513  32.959  35.552  1.00  0.00     0.148 A 
ATOM     73  C   UNL A   1      37.779  31.740  37.394  1.00  0.00     0.002 A 
ATOM     74  C   UNL A   1      39.103  33.645  36.691  1.00  0.00     0.091 A 
ATOM     75  F   UNL A   1      40.315  33.524  34.639  1.00  0.00    -0.205 F 
ATOM     76  C   UNL A   1      38.223  33.044  37.604  1.00  0.00     0.022 A 
BRANCH  74  77
ATOM     77  S   UNL A   1      39.734  35.274  37.108  1.00  0.00     0.127 S 
ATOM     78  O   UNL A   1      41.172  35.034  37.161  1.00  0.00    -0.237 OA
ATOM     79  O   UNL A   1      39.283  36.078  35.971  1.00  0.00    -0.237 OA
ATOM     80  O   UNL A   1      39.097  35.624  38.372  1.00  0.00    -0.744 OA
ENDBRANCH  74  77
ENDBRANCH  46  70
BRANCH  58  81
ATOM     81  C   UNL A   1      44.908  28.033  33.948  1.00  0.00     0.023 A 
ATOM     82  C   UNL A   1      45.984  28.939  33.861  1.00  0.00     0.012 A 
ATOM     83  C   UNL A   1      44.991  26.942  34.835  1.00  0.00     0.148 A 
ATOM     84  C   UNL A   1      47.135  28.745  34.624  1.00  0.00     0.002 A 
ATOM     85  C   UNL A   1      46.122  26.782  35.627  1.00  0.00     0.091 A 
ATOM     86  F   UNL A   1      43.964  26.080  34.888  1.00  0.00    -0.205 F 
ATOM     87  C   UNL A   1      47.199  27.676  35.514  1.00  0.00     0.022 A 
BRANCH  85  88
ATOM     88  S   UNL A   1      46.252  25.490  36.867  1.00  0.00     0.127 S 
ATOM     89  O   UNL A   1      46.255  24.283  36.042  1.00  0.00    -0.237 OA
ATOM     90  O   UNL A   1      47.532  25.796  37.505  1.00  0.00    -0.237 OA
ATOM     91  O   UNL A   1      45.093  25.652  37.736  1.00  0.00    -0.744 OA
ENDBRANCH  85  88
ENDBRANCH  58  81
ENDBRANCH  32  33
ENDBRANCH  24  27
ENDBRANCH  22  23
ENDBRANCH   1  22
TORSDOF 18
ENDMDL
MODEL 3
REMARK VINA RESULT:     -10.5      1.945      2.738
REMARK SMILES C#CC[N@H+](CC(=O)NCCCNC(=O)c1ccc(-c2c3nc(c(-c4cccc(S(=O)(=O)[O-])c4F)c4ccc([nH]4)c(-c4cccc(S(=O)(=O)[O-])c4F)c4nc(c(-c5cccc(S(=O)(=O)[O-])c5F)c5ccc2[nH]5)C=C4)C=C3)cc1)[C@H]1CCO[C@@H](C(C)C)C1
REMARK SMILES IDX 10 1 9 2 8 3 6 4 7 5 5 7 4 8 3 10 2 11 1 12 78 13 79 14
REMARK SMILES IDX 86 15 80 16 82 17 81 18 83 19 84 20 85 21 11 22 12 23 13 24
REMARK SMILES IDX 14 26 15 27 16 28 77 29 17 30 76 31 18 32 19 33 20 34 70 35
REMARK SMILES IDX 21 36 75 37 69 38 71 39 22 40 74 41 68 42 67 43 23 45 55 46
REMARK SMILES IDX 35 47 54 48 36 49 39 50 53 51 72 52 37 53 38 54 52 56 73 57
REMARK SMILES IDX 40 58 24 59 25 60 33 61 26 62 28 63 34 64 27 65 29 66 30 67
REMARK SMILES IDX 31 68 32 69 56 70 57 71 65 72 58 73 60 74 66 75 59 76 61 77
REMARK SMILES IDX 62 78 63 79 64 80 41 81 42 82 50 83 43 84 45 85 51 86 44 87
REMARK SMILES IDX 46 88 47 89 48 90 49 91
REMARK H PARENT 8 6 4 9 12 25 71 44 39 55
REMARK Flexibility Score: inf
ROOT
ATOM      1  C   UNL A   1      31.350  31.519  26.086  1.00  0.00     0.042 C 
ENDROOT
BRANCH   1   2
ATOM      2  C   UNL A   1      31.265  30.151  25.399  1.00  0.00     0.118 C 
BRANCH   2   3
ATOM      3  N   UNL A   1      32.500  29.734  24.748  1.00  0.00    -0.351 N 
ATOM      4  C   UNL A   1      32.737  29.084  23.568  1.00  0.00     0.275 C 
ATOM      5  O   UNL A   1      33.917  28.935  23.235  1.00  0.00    -0.269 OA
ATOM      6  H   UNL A   1      33.316  29.962  25.251  1.00  0.00     0.163 HD
BRANCH   4   7
ATOM      7  C   UNL A   1      31.587  28.550  22.686  1.00  0.00     0.364 C 
BRANCH   7   8
ATOM      8  N   UNL A   1      31.086  27.235  23.178  1.00  0.00    -0.314 N 
ATOM      9  H   UNL A   1      31.670  26.936  23.957  1.00  0.00     0.349 HD
BRANCH   8  10
ATOM     10  C   UNL A   1      29.699  27.456  23.600  1.00  0.00     0.354 C 
BRANCH  10  11
ATOM     11  C   UNL A   1      28.836  28.554  23.002  1.00  0.00    -0.047 C 
ATOM     12  C   UNL A   1      28.095  29.497  22.489  1.00  0.00     0.010 C 
ENDBRANCH  10  11
ENDBRANCH   8  10
BRANCH   8  13
ATOM     13  C   UNL A   1      31.258  26.083  22.270  1.00  0.00     0.190 C 
ATOM     14  C   UNL A   1      32.626  25.924  21.569  1.00  0.00     0.093 C 
ATOM     15  C   UNL A   1      31.021  24.760  23.040  1.00  0.00     0.097 C 
ATOM     16  C   UNL A   1      33.733  25.475  22.515  1.00  0.00     0.166 C 
ATOM     17  C   UNL A   1      32.183  24.360  23.967  1.00  0.00     0.126 C 
ATOM     18  O   UNL A   1      33.388  24.267  23.187  1.00  0.00    -0.377 OA
BRANCH  17  19
ATOM     19  C   UNL A   1      32.375  25.214  25.249  1.00  0.00     0.012 C 
ATOM     20  C   UNL A   1      31.140  25.187  26.154  1.00  0.00     0.010 C 
ATOM     21  C   UNL A   1      33.599  24.752  26.051  1.00  0.00     0.010 C 
ENDBRANCH  17  19
ENDBRANCH   8  13
ENDBRANCH   7   8
ENDBRANCH   4   7
ENDBRANCH   2   3
ENDBRANCH   1   2
BRANCH   1  22
ATOM     22  C   UNL A   1      32.532  31.678  27.031  1.00  0.00     0.118 C 
BRANCH  22  23
ATOM     23  N   UNL A   1      32.828  33.083  27.238  1.00  0.00    -0.352 N 
ATOM     24  C   UNL A   1      33.756  33.648  28.082  1.00  0.00     0.251 C 
ATOM     25  H   UNL A   1      32.295  33.715  26.705  1.00  0.00     0.163 HD
ATOM     26  O   UNL A   1      33.606  34.818  28.429  1.00  0.00    -0.269 OA
BRANCH  24  27
ATOM     27  C   UNL A   1      34.928  32.873  28.564  1.00  0.00     0.039 A 
ATOM     28  C   UNL A   1      34.712  31.746  29.365  1.00  0.00     0.014 A 
ATOM     29  C   UNL A   1      36.235  33.302  28.319  1.00  0.00     0.014 A 
ATOM     30  C   UNL A   1      35.800  31.055  29.911  1.00  0.00     0.010 A 
ATOM     31  C   UNL A   1      37.319  32.563  28.793  1.00  0.00     0.010 A 
ATOM     32  C   UNL A   1      37.115  31.457  29.628  1.00  0.00    -0.014 A 
BRANCH  32  33
ATOM     33  C   UNL A   1      38.285  30.785  30.254  1.00  0.00     0.031 A 
ATOM     34  C   UNL A   1      38.705  31.158  31.655  1.00  0.00     0.074 A 
ATOM     35  C   UNL A   1      39.009  29.890  29.552  1.00  0.00     0.049 A 
ATOM     36  N   UNL A   1      39.728  30.734  32.353  1.00  0.00    -0.248 NA
ATOM     37  C   UNL A   1      37.885  32.162  32.354  1.00  0.00     0.031 C 
ATOM     38  C   UNL A   1      38.749  29.492  28.168  1.00  0.00     0.029 A 
ATOM     39  N   UNL A   1      40.124  29.170  29.901  1.00  0.00    -0.354 N 
ATOM     40  C   UNL A   1      39.696  31.447  33.547  1.00  0.00     0.074 A 
ATOM     41  C   UNL A   1      38.578  32.359  33.465  1.00  0.00     0.031 C 
ATOM     42  C   UNL A   1      39.675  28.597  27.787  1.00  0.00     0.029 A 
ATOM     43  C   UNL A   1      40.608  28.373  28.888  1.00  0.00     0.049 A 
ATOM     44  H   UNL A   1      40.540  29.219  30.792  1.00  0.00     0.167 HD
ATOM     45  C   UNL A   1      40.500  31.330  34.632  1.00  0.00     0.034 A 
ATOM     46  C   UNL A   1      41.678  27.557  28.853  1.00  0.00     0.034 A 
ATOM     47  C   UNL A   1      41.571  30.378  34.738  1.00  0.00     0.049 A 
ATOM     48  C   UNL A   1      42.525  27.406  30.089  1.00  0.00     0.074 A 
ATOM     49  C   UNL A   1      42.391  30.122  35.823  1.00  0.00     0.029 A 
ATOM     50  N   UNL A   1      41.969  29.521  33.724  1.00  0.00    -0.354 N 
ATOM     51  N   UNL A   1      42.387  27.981  31.259  1.00  0.00    -0.248 NA
ATOM     52  C   UNL A   1      43.651  26.463  30.015  1.00  0.00     0.031 C 
ATOM     53  C   UNL A   1      43.291  29.113  35.461  1.00  0.00     0.029 A 
ATOM     54  C   UNL A   1      43.020  28.732  34.155  1.00  0.00     0.049 A 
ATOM     55  H   UNL A   1      41.562  29.480  32.828  1.00  0.00     0.167 HD
ATOM     56  C   UNL A   1      43.382  27.444  32.069  1.00  0.00     0.074 A 
ATOM     57  C   UNL A   1      44.101  26.481  31.261  1.00  0.00     0.031 C 
ATOM     58  C   UNL A   1      43.683  27.733  33.359  1.00  0.00     0.034 A 
BRANCH  45  59
ATOM     59  C   UNL A   1      40.204  32.209  35.821  1.00  0.00     0.023 A 
ATOM     60  C   UNL A   1      40.968  33.377  36.026  1.00  0.00     0.012 A 
ATOM     61  C   UNL A   1      39.145  31.914  36.703  1.00  0.00     0.148 A 
ATOM     62  C   UNL A   1      40.708  34.216  37.107  1.00  0.00     0.002 A 
ATOM     63  C   UNL A   1      38.865  32.779  37.755  1.00  0.00     0.091 A 
ATOM     64  F   UNL A   1      38.442  30.789  36.506  1.00  0.00    -0.205 F 
ATOM     65  C   UNL A   1      39.652  33.924  37.965  1.00  0.00     0.022 A 
BRANCH  63  66
ATOM     66  S   UNL A   1      37.478  32.533  38.870  1.00  0.00     0.127 S 
ATOM     67  O   UNL A   1      37.747  33.535  39.900  1.00  0.00    -0.237 OA
ATOM     68  O   UNL A   1      36.333  32.838  38.010  1.00  0.00    -0.237 OA
ATOM     69  O   UNL A   1      37.556  31.147  39.307  1.00  0.00    -0.744 OA
ENDBRANCH  63  66
ENDBRANCH  45  59
BRANCH  46  70
ATOM     70  C   UNL A   1      41.964  26.754  27.629  1.00  0.00     0.023 A 
ATOM     71  C   UNL A   1      42.541  27.388  26.510  1.00  0.00     0.012 A 
ATOM     72  C   UNL A   1      41.700  25.373  27.572  1.00  0.00     0.148 A 
ATOM     73  C   UNL A   1      42.818  26.669  25.347  1.00  0.00     0.002 A 
ATOM     74  C   UNL A   1      42.029  24.651  26.430  1.00  0.00     0.091 A 
ATOM     75  F   UNL A   1      41.137  24.789  28.639  1.00  0.00    -0.205 F 
ATOM     76  C   UNL A   1      42.573  25.299  25.311  1.00  0.00     0.022 A 
BRANCH  74  77
ATOM     77  S   UNL A   1      41.874  22.863  26.350  1.00  0.00     0.127 S 
ATOM     78  O   UNL A   1      42.488  22.565  25.060  1.00  0.00    -0.237 OA
ATOM     79  O   UNL A   1      42.647  22.435  27.517  1.00  0.00    -0.237 OA
ATOM     80  O   UNL A   1      40.444  22.593  26.454  1.00  0.00    -0.744 OA
ENDBRANCH  74  77
ENDBRANCH  46  70
BRANCH  58  81
ATOM     81  C   UNL A   1      44.817  26.977  33.999  1.00  0.00     0.023 A 
ATOM     82  C   UNL A   1      46.137  27.451  33.863  1.00  0.00     0.012 A 
ATOM     83  C   UNL A   1      44.565  25.847  34.801  1.00  0.00     0.148 A 
ATOM     84  C   UNL A   1      47.193  26.793  34.493  1.00  0.00     0.002 A 
ATOM     85  C   UNL A   1      45.617  25.224  35.464  1.00  0.00     0.091 A 
ATOM     86  F   UNL A   1      43.305  25.401  34.901  1.00  0.00    -0.205 F 
ATOM     87  C   UNL A   1      46.932  25.689  35.302  1.00  0.00     0.022 A 
BRANCH  85  88
ATOM     88  S   UNL A   1      45.361  23.856  36.599  1.00  0.00     0.127 S 
ATOM     89  O   UNL A   1      46.728  23.564  37.027  1.00  0.00    -0.237 OA
ATOM     90  O   UNL A   1      44.515  24.459  37.629  1.00  0.00    -0.237 OA
ATOM     91  O   UNL A   1      44.709  22.809  35.822  1.00  0.00    -0.744 OA
ENDBRANCH  85  88
ENDBRANCH  58  81
ENDBRANCH  32  33
ENDBRANCH  24  27
ENDBRANCH  22  23
ENDBRANCH   1  22
TORSDOF 18
ENDMDL
