MODEL 1
REMARK VINA RESULT:     -11.5      0.000      0.000
REMARK SMILES COc1cccc(S(=O)(=O)N[C@H](CC(C)C)C(=O)NCCCNC(=O)c2ccc(-c3c4nc(c(-c5cccc(S(=O)(=O)[O-])c5F)c5ccc([nH]5)c(-c5cccc(S(=O)(=O)[O-])c5F)c5nc(c(-c6cccc(S(=O)(=O)[O-])c6F)c6ccc3[nH]6)C=C5)C=C4)cc2)c1
REMARK SMILES IDX 20 1 19 2 17 3 18 4 12 6 11 7 8 9 9 10 10 11 7 12 3 13 4 14
REMARK SMILES IDX 89 15 5 16 6 17 2 18 1 19 13 20 14 21 15 22 16 23 21 24
REMARK SMILES IDX 22 25 23 26 24 27 25 29 26 30 27 31 88 32 28 33 87 34 29 35
REMARK SMILES IDX 30 36 31 37 81 38 32 39 86 40 80 41 82 42 33 43 85 44 79 45
REMARK SMILES IDX 78 46 34 48 66 49 46 50 65 51 47 52 50 53 64 54 83 55 48 56
REMARK SMILES IDX 49 57 63 59 84 60 51 61 35 62 36 63 44 64 37 65 39 66 45 67
REMARK SMILES IDX 38 68 40 69 41 70 42 71 43 72 67 73 68 74 76 75 69 76 71 77
REMARK SMILES IDX 77 78 70 79 72 80 73 81 74 82 75 83 52 84 53 85 61 86 54 87
REMARK SMILES IDX 56 88 62 89 55 90 57 91 58 92 59 93 60 94
REMARK H PARENT 19 5 11 8 23 28 82 47 50 58
REMARK Flexibility Score: inf
ROOT
ATOM      1  C   UNL A   1      31.915  27.662  27.014  1.00  0.00     0.117 C 
ENDROOT
BRANCH   1   2
ATOM      2  N   UNL A   1      30.806  26.718  26.877  1.00  0.00    -0.355 N 
ATOM      3  C   UNL A   1      30.614  25.571  26.141  1.00  0.00     0.238 C 
ATOM      4  O   UNL A   1      29.791  24.791  26.630  1.00  0.00    -0.273 OA
ATOM      5  H   UNL A   1      30.027  26.955  27.431  1.00  0.00     0.163 HD
BRANCH   3   6
ATOM      6  C   UNL A   1      31.368  25.211  24.824  1.00  0.00     0.159 C 
BRANCH   6   7
ATOM      7  N   UNL A   1      30.647  25.789  23.667  1.00  0.00    -0.199 NA
ATOM      8  H   UNL A   1      30.487  24.999  23.042  1.00  0.00     0.142 HD
BRANCH   7   9
ATOM      9  S   UNL A   1      31.139  27.036  22.660  1.00  0.00     0.241 S 
ATOM     10  O   UNL A   1      31.310  26.527  21.326  1.00  0.00    -0.207 OA
ATOM     11  O   UNL A   1      32.267  27.591  23.389  1.00  0.00    -0.207 OA
BRANCH   9  12
ATOM     12  C   UNL A   1      29.863  28.293  22.654  1.00  0.00     0.086 A 
ATOM     13  C   UNL A   1      29.008  30.505  22.093  1.00  0.00     0.120 A 
ATOM     14  C   UNL A   1      27.761  30.135  22.583  1.00  0.00     0.046 A 
ATOM     15  C   UNL A   1      30.059  29.591  22.158  1.00  0.00     0.068 A 
ATOM     16  C   UNL A   1      27.553  28.847  23.082  1.00  0.00     0.005 A 
ATOM     17  C   UNL A   1      28.596  27.920  23.104  1.00  0.00     0.022 A 
BRANCH  13  18
ATOM     18  O   UNL A   1      29.110  31.781  21.612  1.00  0.00    -0.497 OA
ATOM     19  C   UNL A   1      28.203  32.736  22.153  1.00  0.00     0.278 C 
ENDBRANCH  13  18
ENDBRANCH   9  12
ENDBRANCH   7   9
ENDBRANCH   6   7
BRANCH   6  20
ATOM     20  C   UNL A   1      31.750  23.734  24.521  1.00  0.00     0.033 C 
BRANCH  20  21
ATOM     21  C   UNL A   1      33.071  23.163  23.969  1.00  0.00    -0.015 C 
ATOM     22  C   UNL A   1      34.216  23.064  24.973  1.00  0.00     0.007 C 
ATOM     23  C   UNL A   1      32.755  21.710  23.525  1.00  0.00     0.007 C 
ENDBRANCH  20  21
ENDBRANCH   6  20
ENDBRANCH   3   6
ENDBRANCH   1   2
BRANCH   1  24
ATOM     24  C   UNL A   1      31.583  29.164  27.031  1.00  0.00     0.042 C 
BRANCH  24  25
ATOM     25  C   UNL A   1      32.208  30.054  25.945  1.00  0.00     0.118 C 
BRANCH  25  26
ATOM     26  N   UNL A   1      32.240  31.449  26.370  1.00  0.00    -0.352 N 
ATOM     27  C   UNL A   1      33.047  32.189  27.199  1.00  0.00     0.251 C 
ATOM     28  H   UNL A   1      31.516  31.982  25.970  1.00  0.00     0.163 HD
ATOM     29  O   UNL A   1      32.577  33.269  27.568  1.00  0.00    -0.269 OA
BRANCH  27  30
ATOM     30  C   UNL A   1      34.428  31.831  27.657  1.00  0.00     0.039 A 
ATOM     31  C   UNL A   1      34.622  30.503  28.083  1.00  0.00     0.014 A 
ATOM     32  C   UNL A   1      35.467  32.737  27.873  1.00  0.00     0.014 A 
ATOM     33  C   UNL A   1      35.805  30.099  28.728  1.00  0.00     0.010 A 
ATOM     34  C   UNL A   1      36.675  32.321  28.487  1.00  0.00     0.010 A 
ATOM     35  C   UNL A   1      36.853  31.003  28.948  1.00  0.00    -0.014 A 
BRANCH  35  36
ATOM     36  C   UNL A   1      38.089  30.546  29.671  1.00  0.00     0.031 A 
ATOM     37  C   UNL A   1      38.400  30.993  31.084  1.00  0.00     0.074 A 
ATOM     38  C   UNL A   1      38.944  29.682  29.081  1.00  0.00     0.049 A 
ATOM     39  N   UNL A   1      39.373  30.609  31.878  1.00  0.00    -0.248 NA
ATOM     40  C   UNL A   1      37.513  32.001  31.681  1.00  0.00     0.031 C 
ATOM     41  C   UNL A   1      38.827  29.183  27.711  1.00  0.00     0.029 A 
ATOM     42  N   UNL A   1      40.084  29.073  29.558  1.00  0.00    -0.354 N 
ATOM     43  C   UNL A   1      39.227  31.336  33.056  1.00  0.00     0.074 A 
ATOM     44  C   UNL A   1      38.084  32.205  32.863  1.00  0.00     0.031 C 
ATOM     45  C   UNL A   1      39.843  28.341  27.462  1.00  0.00     0.029 A 
ATOM     46  C   UNL A   1      40.693  28.239  28.647  1.00  0.00     0.049 A 
ATOM     47  H   UNL A   1      40.430  29.219  30.468  1.00  0.00     0.167 HD
ATOM     48  C   UNL A   1      39.947  31.272  34.205  1.00  0.00     0.034 A 
ATOM     49  C   UNL A   1      41.798  27.471  28.744  1.00  0.00     0.034 A 
ATOM     50  C   UNL A   1      41.059  30.385  34.443  1.00  0.00     0.049 A 
ATOM     51  C   UNL A   1      42.556  27.389  30.044  1.00  0.00     0.074 A 
ATOM     52  C   UNL A   1      41.795  30.223  35.608  1.00  0.00     0.029 A 
ATOM     53  N   UNL A   1      41.598  29.512  33.515  1.00  0.00    -0.354 N 
ATOM     54  N   UNL A   1      42.294  27.963  31.192  1.00  0.00    -0.248 NA
ATOM     55  C   UNL A   1      43.741  26.514  30.072  1.00  0.00     0.031 C 
ATOM     56  C   UNL A   1      42.781  29.255  35.381  1.00  0.00     0.029 A 
ATOM     57  C   UNL A   1      42.655  28.811  34.077  1.00  0.00     0.049 A 
ATOM     58  H   UNL A   1      41.277  29.403  32.591  1.00  0.00     0.167 HD
ATOM     59  C   UNL A   1      43.260  27.498  32.080  1.00  0.00     0.074 A 
ATOM     60  C   UNL A   1      44.094  26.570  31.349  1.00  0.00     0.031 C 
ATOM     61  C   UNL A   1      43.452  27.836  33.379  1.00  0.00     0.034 A 
BRANCH  48  62
ATOM     62  C   UNL A   1      39.509  32.139  35.359  1.00  0.00     0.023 A 
ATOM     63  C   UNL A   1      38.657  31.589  36.337  1.00  0.00     0.012 A 
ATOM     64  C   UNL A   1      40.020  33.440  35.539  1.00  0.00     0.148 A 
ATOM     65  C   UNL A   1      38.302  32.327  37.466  1.00  0.00     0.002 A 
ATOM     66  C   UNL A   1      39.687  34.158  36.683  1.00  0.00     0.091 A 
ATOM     67  F   UNL A   1      40.820  33.950  34.592  1.00  0.00    -0.205 F 
ATOM     68  C   UNL A   1      38.824  33.604  37.644  1.00  0.00     0.022 A 
BRANCH  66  69
ATOM     69  S   UNL A   1      40.363  35.784  37.042  1.00  0.00     0.127 S 
ATOM     70  O   UNL A   1      39.681  36.612  36.049  1.00  0.00    -0.237 OA
ATOM     71  O   UNL A   1      39.928  36.005  38.422  1.00  0.00    -0.237 OA
ATOM     72  O   UNL A   1      41.805  35.663  36.873  1.00  0.00    -0.744 OA
ENDBRANCH  66  69
ENDBRANCH  48  62
BRANCH  49  73
ATOM     73  C   UNL A   1      42.228  26.639  27.583  1.00  0.00     0.023 A 
ATOM     74  C   UNL A   1      43.013  27.219  26.568  1.00  0.00     0.012 A 
ATOM     75  C   UNL A   1      41.864  25.283  27.478  1.00  0.00     0.148 A 
ATOM     76  C   UNL A   1      43.403  26.473  25.456  1.00  0.00     0.002 A 
ATOM     77  C   UNL A   1      42.302  24.532  26.395  1.00  0.00     0.091 A 
ATOM     78  F   UNL A   1      41.088  24.753  28.436  1.00  0.00    -0.205 F 
ATOM     79  C   UNL A   1      43.058  25.126  25.374  1.00  0.00     0.022 A 
BRANCH  77  80
ATOM     80  S   UNL A   1      42.002  22.763  26.302  1.00  0.00     0.127 S 
ATOM     81  O   UNL A   1      42.638  22.414  25.036  1.00  0.00    -0.237 OA
ATOM     82  O   UNL A   1      42.689  22.265  27.495  1.00  0.00    -0.237 OA
ATOM     83  O   UNL A   1      40.551  22.628  26.356  1.00  0.00    -0.744 OA
ENDBRANCH  77  80
ENDBRANCH  49  73
BRANCH  61  84
ATOM     84  C   UNL A   1      44.603  27.192  34.112  1.00  0.00     0.023 A 
ATOM     85  C   UNL A   1      45.873  27.802  34.076  1.00  0.00     0.012 A 
ATOM     86  C   UNL A   1      44.426  26.019  34.872  1.00  0.00     0.148 A 
ATOM     87  C   UNL A   1      46.955  27.238  34.753  1.00  0.00     0.002 A 
ATOM     88  C   UNL A   1      45.500  25.483  35.578  1.00  0.00     0.091 A 
ATOM     89  F   UNL A   1      43.219  25.435  34.882  1.00  0.00    -0.205 F 
ATOM     90  C   UNL A   1      46.767  26.086  35.512  1.00  0.00     0.022 A 
BRANCH  88  91
ATOM     91  S   UNL A   1      45.315  24.045  36.640  1.00  0.00     0.127 S 
ATOM     92  O   UNL A   1      46.706  23.725  36.959  1.00  0.00    -0.237 OA
ATOM     93  O   UNL A   1      44.540  24.572  37.764  1.00  0.00    -0.237 OA
ATOM     94  O   UNL A   1      44.605  23.058  35.836  1.00  0.00    -0.744 OA
ENDBRANCH  88  91
ENDBRANCH  61  84
ENDBRANCH  35  36
ENDBRANCH  27  30
ENDBRANCH  25  26
ENDBRANCH  24  25
ENDBRANCH   1  24
TORSDOF 19
ENDMDL
MODEL 2
REMARK VINA RESULT:     -11.1      1.096      7.822
REMARK SMILES COc1cccc(S(=O)(=O)N[C@H](CC(C)C)C(=O)NCCCNC(=O)c2ccc(-c3c4nc(c(-c5cccc(S(=O)(=O)[O-])c5F)c5ccc([nH]5)c(-c5cccc(S(=O)(=O)[O-])c5F)c5nc(c(-c6cccc(S(=O)(=O)[O-])c6F)c6ccc3[nH]6)C=C5)C=C4)cc2)c1
REMARK SMILES IDX 20 1 19 2 17 3 18 4 12 6 11 7 8 9 9 10 10 11 7 12 3 13 4 14
REMARK SMILES IDX 89 15 5 16 6 17 2 18 1 19 13 20 14 21 15 22 16 23 21 24
REMARK SMILES IDX 22 25 23 26 24 27 25 29 26 30 27 31 88 32 28 33 87 34 29 35
REMARK SMILES IDX 30 36 31 37 81 38 32 39 86 40 80 41 82 42 33 43 85 44 79 45
REMARK SMILES IDX 78 46 34 48 66 49 46 50 65 51 47 52 50 53 64 54 83 55 48 56
REMARK SMILES IDX 49 57 63 59 84 60 51 61 35 62 36 63 44 64 37 65 39 66 45 67
REMARK SMILES IDX 38 68 40 69 41 70 42 71 43 72 67 73 68 74 76 75 69 76 71 77
REMARK SMILES IDX 77 78 70 79 72 80 73 81 74 82 75 83 52 84 53 85 61 86 54 87
REMARK SMILES IDX 56 88 62 89 55 90 57 91 58 92 59 93 60 94
REMARK H PARENT 19 5 11 8 23 28 82 47 50 58
REMARK Flexibility Score: inf
ROOT
ATOM      1  C   UNL A   1      32.085  26.892  26.660  1.00  0.00     0.117 C 
ENDROOT
BRANCH   1   2
ATOM      2  N   UNL A   1      31.157  25.767  26.784  1.00  0.00    -0.355 N 
ATOM      3  C   UNL A   1      31.231  24.429  26.475  1.00  0.00     0.238 C 
ATOM      4  O   UNL A   1      30.483  23.714  27.148  1.00  0.00    -0.273 OA
ATOM      5  H   UNL A   1      30.289  26.025  27.174  1.00  0.00     0.163 HD
BRANCH   3   6
ATOM      6  C   UNL A   1      32.185  23.804  25.411  1.00  0.00     0.159 C 
BRANCH   6   7
ATOM      7  N   UNL A   1      31.679  24.108  24.053  1.00  0.00    -0.199 NA
ATOM      8  H   UNL A   1      31.891  23.274  23.506  1.00  0.00     0.142 HD
BRANCH   7   9
ATOM      9  S   UNL A   1      32.099  25.390  23.056  1.00  0.00     0.241 S 
ATOM     10  O   UNL A   1      32.282  24.905  21.715  1.00  0.00    -0.207 OA
ATOM     11  O   UNL A   1      33.204  25.992  23.781  1.00  0.00    -0.207 OA
BRANCH   9  12
ATOM     12  C   UNL A   1      30.762  26.581  23.076  1.00  0.00     0.086 A 
ATOM     13  C   UNL A   1      29.721  28.676  22.393  1.00  0.00     0.120 A 
ATOM     14  C   UNL A   1      28.565  28.311  23.074  1.00  0.00     0.046 A 
ATOM     15  C   UNL A   1      30.822  27.822  22.423  1.00  0.00     0.068 A 
ATOM     16  C   UNL A   1      28.492  27.080  23.731  1.00  0.00     0.005 A 
ATOM     17  C   UNL A   1      29.582  26.207  23.720  1.00  0.00     0.022 A 
BRANCH  13  18
ATOM     18  O   UNL A   1      29.691  29.892  21.768  1.00  0.00    -0.497 OA
ATOM     19  C   UNL A   1      28.407  30.376  21.387  1.00  0.00     0.278 C 
ENDBRANCH  13  18
ENDBRANCH   9  12
ENDBRANCH   7   9
ENDBRANCH   6   7
BRANCH   6  20
ATOM     20  C   UNL A   1      32.579  22.302  25.501  1.00  0.00     0.033 C 
BRANCH  20  21
ATOM     21  C   UNL A   1      33.862  21.664  26.068  1.00  0.00    -0.015 C 
ATOM     22  C   UNL A   1      34.996  21.461  25.067  1.00  0.00     0.007 C 
ATOM     23  C   UNL A   1      34.396  22.658  27.134  1.00  0.00     0.007 C 
ENDBRANCH  20  21
ENDBRANCH   6  20
ENDBRANCH   3   6
ENDBRANCH   1   2
BRANCH   1  24
ATOM     24  C   UNL A   1      31.493  28.288  26.403  1.00  0.00     0.042 C 
BRANCH  24  25
ATOM     25  C   UNL A   1      32.287  29.257  25.512  1.00  0.00     0.118 C 
BRANCH  25  26
ATOM     26  N   UNL A   1      32.159  30.628  25.993  1.00  0.00    -0.352 N 
ATOM     27  C   UNL A   1      32.833  31.399  26.908  1.00  0.00     0.251 C 
ATOM     28  H   UNL A   1      31.419  31.112  25.560  1.00  0.00     0.163 HD
ATOM     29  O   UNL A   1      32.239  32.416  27.282  1.00  0.00    -0.269 OA
BRANCH  27  30
ATOM     30  C   UNL A   1      34.204  31.146  27.454  1.00  0.00     0.039 A 
ATOM     31  C   UNL A   1      34.536  29.803  27.718  1.00  0.00     0.014 A 
ATOM     32  C   UNL A   1      35.093  32.129  27.894  1.00  0.00     0.014 A 
ATOM     33  C   UNL A   1      35.702  29.454  28.422  1.00  0.00     0.010 A 
ATOM     34  C   UNL A   1      36.288  31.775  28.569  1.00  0.00     0.010 A 
ATOM     35  C   UNL A   1      36.598  30.435  28.867  1.00  0.00    -0.014 A 
BRANCH  35  36
ATOM     36  C   UNL A   1      37.817  30.029  29.647  1.00  0.00     0.031 A 
ATOM     37  C   UNL A   1      38.871  29.112  29.062  1.00  0.00     0.074 A 
ATOM     38  C   UNL A   1      38.023  30.511  30.892  1.00  0.00     0.049 A 
ATOM     39  N   UNL A   1      40.027  28.750  29.570  1.00  0.00    -0.248 NA
ATOM     40  C   UNL A   1      38.594  28.523  27.744  1.00  0.00     0.031 C 
ATOM     41  C   UNL A   1      37.094  31.367  31.630  1.00  0.00     0.029 A 
ATOM     42  N   UNL A   1      39.080  30.347  31.760  1.00  0.00    -0.354 N 
ATOM     43  C   UNL A   1      40.605  27.882  28.648  1.00  0.00     0.074 A 
ATOM     44  C   UNL A   1      39.659  27.752  27.558  1.00  0.00     0.031 C 
ATOM     45  C   UNL A   1      37.622  31.659  32.829  1.00  0.00     0.029 A 
ATOM     46  C   UNL A   1      38.925  31.009  32.958  1.00  0.00     0.049 A 
ATOM     47  H   UNL A   1      39.873  29.806  31.544  1.00  0.00     0.167 HD
ATOM     48  C   UNL A   1      41.818  27.273  28.678  1.00  0.00     0.034 A 
ATOM     49  C   UNL A   1      39.734  31.101  34.035  1.00  0.00     0.034 A 
ATOM     50  C   UNL A   1      42.798  27.419  29.725  1.00  0.00     0.049 A 
ATOM     51  C   UNL A   1      41.090  30.446  34.026  1.00  0.00     0.074 A 
ATOM     52  C   UNL A   1      44.074  26.880  29.790  1.00  0.00     0.029 A 
ATOM     53  N   UNL A   1      42.625  28.154  30.885  1.00  0.00    -0.354 N 
ATOM     54  N   UNL A   1      41.676  29.770  33.069  1.00  0.00    -0.248 NA
ATOM     55  C   UNL A   1      41.918  30.609  35.234  1.00  0.00     0.031 C 
ATOM     56  C   UNL A   1      44.670  27.285  30.990  1.00  0.00     0.029 A 
ATOM     57  C   UNL A   1      43.766  28.081  31.671  1.00  0.00     0.049 A 
ATOM     58  H   UNL A   1      41.811  28.656  31.118  1.00  0.00     0.167 HD
ATOM     59  C   UNL A   1      42.944  29.451  33.549  1.00  0.00     0.074 A 
ATOM     60  C   UNL A   1      43.057  30.036  34.866  1.00  0.00     0.031 C 
ATOM     61  C   UNL A   1      43.915  28.714  32.955  1.00  0.00     0.034 A 
BRANCH  48  62
ATOM     62  C   UNL A   1      42.213  26.432  27.489  1.00  0.00     0.023 A 
ATOM     63  C   UNL A   1      42.965  27.026  26.456  1.00  0.00     0.012 A 
ATOM     64  C   UNL A   1      41.945  25.049  27.442  1.00  0.00     0.148 A 
ATOM     65  C   UNL A   1      43.428  26.264  25.385  1.00  0.00     0.002 A 
ATOM     66  C   UNL A   1      42.437  24.289  26.386  1.00  0.00     0.091 A 
ATOM     67  F   UNL A   1      41.218  24.505  28.428  1.00  0.00    -0.205 F 
ATOM     68  C   UNL A   1      43.173  24.896  25.355  1.00  0.00     0.022 A 
BRANCH  66  69
ATOM     69  S   UNL A   1      42.225  22.507  26.290  1.00  0.00     0.127 S 
ATOM     70  O   UNL A   1      42.822  22.071  27.551  1.00  0.00    -0.237 OA
ATOM     71  O   UNL A   1      40.770  22.369  26.226  1.00  0.00    -0.237 OA
ATOM     72  O   UNL A   1      42.928  22.085  25.086  1.00  0.00    -0.744 OA
ENDBRANCH  66  69
ENDBRANCH  48  62
BRANCH  49  73
ATOM     73  C   UNL A   1      39.314  31.917  35.210  1.00  0.00     0.023 A 
ATOM     74  C   UNL A   1      38.463  31.351  36.179  1.00  0.00     0.012 A 
ATOM     75  C   UNL A   1      39.749  33.246  35.372  1.00  0.00     0.148 A 
ATOM     76  C   UNL A   1      38.029  32.101  37.272  1.00  0.00     0.002 A 
ATOM     77  C   UNL A   1      39.357  33.970  36.492  1.00  0.00     0.091 A 
ATOM     78  F   UNL A   1      40.533  33.782  34.425  1.00  0.00    -0.205 F 
ATOM     79  C   UNL A   1      38.485  33.407  37.435  1.00  0.00     0.022 A 
BRANCH  77  80
ATOM     80  S   UNL A   1      40.019  35.606  36.825  1.00  0.00     0.127 S 
ATOM     81  O   UNL A   1      41.457  35.359  36.814  1.00  0.00    -0.237 OA
ATOM     82  O   UNL A   1      39.519  36.385  35.691  1.00  0.00    -0.237 OA
ATOM     83  O   UNL A   1      39.439  35.989  38.107  1.00  0.00    -0.744 OA
ENDBRANCH  77  80
ENDBRANCH  49  73
BRANCH  61  84
ATOM     84  C   UNL A   1      45.201  28.501  33.715  1.00  0.00     0.023 A 
ATOM     85  C   UNL A   1      46.251  29.429  33.571  1.00  0.00     0.012 A 
ATOM     86  C   UNL A   1      45.358  27.418  34.603  1.00  0.00     0.148 A 
ATOM     87  C   UNL A   1      47.448  29.267  34.269  1.00  0.00     0.002 A 
ATOM     88  C   UNL A   1      46.540  27.284  35.327  1.00  0.00     0.091 A 
ATOM     89  F   UNL A   1      44.362  26.528  34.716  1.00  0.00    -0.205 F 
ATOM     90  C   UNL A   1      47.590  28.201  35.154  1.00  0.00     0.022 A 
BRANCH  88  91
ATOM     91  S   UNL A   1      46.765  25.980  36.544  1.00  0.00     0.127 S 
ATOM     92  O   UNL A   1      46.804  24.785  35.703  1.00  0.00    -0.237 OA
ATOM     93  O   UNL A   1      48.046  26.331  37.160  1.00  0.00    -0.237 OA
ATOM     94  O   UNL A   1      45.622  26.087  37.443  1.00  0.00    -0.744 OA
ENDBRANCH  88  91
ENDBRANCH  61  84
ENDBRANCH  35  36
ENDBRANCH  27  30
ENDBRANCH  25  26
ENDBRANCH  24  25
ENDBRANCH   1  24
TORSDOF 19
ENDMDL
MODEL 3
REMARK VINA RESULT:     -11.1      2.009      4.190
REMARK SMILES COc1cccc(S(=O)(=O)N[C@H](CC(C)C)C(=O)NCCCNC(=O)c2ccc(-c3c4nc(c(-c5cccc(S(=O)(=O)[O-])c5F)c5ccc([nH]5)c(-c5cccc(S(=O)(=O)[O-])c5F)c5nc(c(-c6cccc(S(=O)(=O)[O-])c6F)c6ccc3[nH]6)C=C5)C=C4)cc2)c1
REMARK SMILES IDX 20 1 19 2 17 3 18 4 12 6 11 7 8 9 9 10 10 11 7 12 3 13 4 14
REMARK SMILES IDX 89 15 5 16 6 17 2 18 1 19 13 20 14 21 15 22 16 23 21 24
REMARK SMILES IDX 22 25 23 26 24 27 25 29 26 30 27 31 88 32 28 33 87 34 29 35
REMARK SMILES IDX 30 36 31 37 81 38 32 39 86 40 80 41 82 42 33 43 85 44 79 45
REMARK SMILES IDX 78 46 34 48 66 49 46 50 65 51 47 52 50 53 64 54 83 55 48 56
REMARK SMILES IDX 49 57 63 59 84 60 51 61 35 62 36 63 44 64 37 65 39 66 45 67
REMARK SMILES IDX 38 68 40 69 41 70 42 71 43 72 67 73 68 74 76 75 69 76 71 77
REMARK SMILES IDX 77 78 70 79 72 80 73 81 74 82 75 83 52 84 53 85 61 86 54 87
REMARK SMILES IDX 56 88 62 89 55 90 57 91 58 92 59 93 60 94
REMARK H PARENT 19 5 11 8 23 28 82 47 50 58
REMARK Flexibility Score: inf
ROOT
ATOM      1  C   UNL A   1      33.532  27.606  25.810  1.00  0.00     0.117 C 
ENDROOT
BRANCH   1   2
ATOM      2  N   UNL A   1      32.467  26.808  26.419  1.00  0.00    -0.355 N 
ATOM      3  C   UNL A   1      31.745  25.711  26.012  1.00  0.00     0.238 C 
ATOM      4  O   UNL A   1      31.301  25.027  26.939  1.00  0.00    -0.273 OA
ATOM      5  H   UNL A   1      32.212  27.126  27.316  1.00  0.00     0.163 HD
BRANCH   3   6
ATOM      6  C   UNL A   1      31.507  25.290  24.529  1.00  0.00     0.159 C 
BRANCH   6   7
ATOM      7  N   UNL A   1      32.757  24.731  23.966  1.00  0.00    -0.199 NA
ATOM      8  H   UNL A   1      32.748  25.014  22.986  1.00  0.00     0.142 HD
BRANCH   7   9
ATOM      9  S   UNL A   1      33.253  23.129  23.941  1.00  0.00     0.241 S 
ATOM     10  O   UNL A   1      33.333  22.680  22.577  1.00  0.00    -0.207 OA
ATOM     11  O   UNL A   1      32.326  22.506  24.870  1.00  0.00    -0.207 OA
BRANCH   9  12
ATOM     12  C   UNL A   1      34.876  23.029  24.691  1.00  0.00     0.086 A 
ATOM     13  C   UNL A   1      36.941  21.854  25.231  1.00  0.00     0.120 A 
ATOM     14  C   UNL A   1      37.450  23.024  25.783  1.00  0.00     0.046 A 
ATOM     15  C   UNL A   1      35.647  21.857  24.715  1.00  0.00     0.068 A 
ATOM     16  C   UNL A   1      36.693  24.198  25.768  1.00  0.00     0.005 A 
ATOM     17  C   UNL A   1      35.414  24.208  25.210  1.00  0.00     0.022 A 
BRANCH  13  18
ATOM     18  O   UNL A   1      37.762  20.761  25.278  1.00  0.00    -0.497 OA
ATOM     19  C   UNL A   1      37.230  19.548  24.754  1.00  0.00     0.278 C 
ENDBRANCH  13  18
ENDBRANCH   9  12
ENDBRANCH   7   9
ENDBRANCH   6   7
BRANCH   6  20
ATOM     20  C   UNL A   1      30.881  26.297  23.521  1.00  0.00     0.033 C 
BRANCH  20  21
ATOM     21  C   UNL A   1      30.484  27.771  23.738  1.00  0.00    -0.015 C 
ATOM     22  C   UNL A   1      31.248  28.790  22.897  1.00  0.00     0.007 C 
ATOM     23  C   UNL A   1      28.997  27.879  23.307  1.00  0.00     0.007 C 
ENDBRANCH  20  21
ENDBRANCH   6  20
ENDBRANCH   3   6
ENDBRANCH   1   2
BRANCH   1  24
ATOM     24  C   UNL A   1      33.405  29.138  25.867  1.00  0.00     0.042 C 
BRANCH  24  25
ATOM     25  C   UNL A   1      32.405  29.742  26.866  1.00  0.00     0.118 C 
BRANCH  25  26
ATOM     26  N   UNL A   1      32.606  31.181  26.996  1.00  0.00    -0.352 N 
ATOM     27  C   UNL A   1      33.567  31.975  27.572  1.00  0.00     0.251 C 
ATOM     28  H   UNL A   1      31.887  31.703  26.571  1.00  0.00     0.163 HD
ATOM     29  O   UNL A   1      33.238  33.151  27.760  1.00  0.00    -0.269 OA
BRANCH  27  30
ATOM     30  C   UNL A   1      34.957  31.566  27.951  1.00  0.00     0.039 A 
ATOM     31  C   UNL A   1      35.113  30.257  28.444  1.00  0.00     0.014 A 
ATOM     32  C   UNL A   1      36.056  32.423  28.034  1.00  0.00     0.014 A 
ATOM     33  C   UNL A   1      36.317  29.824  29.025  1.00  0.00     0.010 A 
ATOM     34  C   UNL A   1      37.284  31.974  28.585  1.00  0.00     0.010 A 
ATOM     35  C   UNL A   1      37.425  30.677  29.113  1.00  0.00    -0.014 A 
BRANCH  35  36
ATOM     36  C   UNL A   1      38.686  30.193  29.772  1.00  0.00     0.031 A 
ATOM     37  C   UNL A   1      39.076  30.629  31.169  1.00  0.00     0.074 A 
ATOM     38  C   UNL A   1      39.494  29.315  29.137  1.00  0.00     0.049 A 
ATOM     39  N   UNL A   1      40.080  30.223  31.913  1.00  0.00    -0.248 NA
ATOM     40  C   UNL A   1      38.240  31.652  31.812  1.00  0.00     0.031 C 
ATOM     41  C   UNL A   1      39.299  28.823  27.774  1.00  0.00     0.029 A 
ATOM     42  N   UNL A   1      40.643  28.681  29.556  1.00  0.00    -0.354 N 
ATOM     43  C   UNL A   1      40.007  30.947  33.099  1.00  0.00     0.074 A 
ATOM     44  C   UNL A   1      38.874  31.840  32.965  1.00  0.00     0.031 C 
ATOM     45  C   UNL A   1      40.284  27.962  27.472  1.00  0.00     0.029 A 
ATOM     46  C   UNL A   1      41.189  27.839  28.613  1.00  0.00     0.049 A 
ATOM     47  H   UNL A   1      41.037  28.816  30.448  1.00  0.00     0.167 HD
ATOM     48  C   UNL A   1      40.782  30.865  34.210  1.00  0.00     0.034 A 
ATOM     49  C   UNL A   1      42.283  27.048  28.653  1.00  0.00     0.034 A 
ATOM     50  C   UNL A   1      41.887  29.956  34.390  1.00  0.00     0.049 A 
ATOM     51  C   UNL A   1      43.102  26.946  29.913  1.00  0.00     0.074 A 
ATOM     52  C   UNL A   1      42.676  29.775  35.516  1.00  0.00     0.029 A 
ATOM     53  N   UNL A   1      42.360  29.075  33.433  1.00  0.00    -0.354 N 
ATOM     54  N   UNL A   1      42.909  27.521  31.074  1.00  0.00    -0.248 NA
ATOM     55  C   UNL A   1      44.269  26.047  29.880  1.00  0.00     0.031 C 
ATOM     56  C   UNL A   1      43.630  28.788  35.238  1.00  0.00     0.029 A 
ATOM     57  C   UNL A   1      43.431  28.351  33.940  1.00  0.00     0.049 A 
ATOM     58  H   UNL A   1      41.992  28.976  32.526  1.00  0.00     0.167 HD
ATOM     59  C   UNL A   1      43.909  27.034  31.912  1.00  0.00     0.074 A 
ATOM     60  C   UNL A   1      44.687  26.092  31.138  1.00  0.00     0.031 C 
ATOM     61  C   UNL A   1      44.172  27.363  33.201  1.00  0.00     0.034 A 
BRANCH  48  62
ATOM     62  C   UNL A   1      40.419  31.737  35.387  1.00  0.00     0.023 A 
ATOM     63  C   UNL A   1      41.084  32.968  35.551  1.00  0.00     0.012 A 
ATOM     64  C   UNL A   1      39.360  31.401  36.254  1.00  0.00     0.148 A 
ATOM     65  C   UNL A   1      40.716  33.844  36.572  1.00  0.00     0.002 A 
ATOM     66  C   UNL A   1      38.978  32.294  37.250  1.00  0.00     0.091 A 
ATOM     67  F   UNL A   1      38.748  30.220  36.089  1.00  0.00    -0.205 F 
ATOM     68  C   UNL A   1      39.659  33.512  37.413  1.00  0.00     0.022 A 
BRANCH  66  69
ATOM     69  S   UNL A   1      37.582  31.993  38.341  1.00  0.00     0.127 S 
ATOM     70  O   UNL A   1      38.160  32.293  39.649  1.00  0.00    -0.237 OA
ATOM     71  O   UNL A   1      36.601  32.972  37.870  1.00  0.00    -0.237 OA
ATOM     72  O   UNL A   1      37.201  30.604  38.129  1.00  0.00    -0.744 OA
ENDBRANCH  66  69
ENDBRANCH  48  62
BRANCH  49  73
ATOM     73  C   UNL A   1      42.637  26.212  27.470  1.00  0.00     0.023 A 
ATOM     74  C   UNL A   1      43.397  26.775  26.426  1.00  0.00     0.012 A 
ATOM     75  C   UNL A   1      42.227  24.869  27.372  1.00  0.00     0.148 A 
ATOM     76  C   UNL A   1      43.716  26.026  25.294  1.00  0.00     0.002 A 
ATOM     77  C   UNL A   1      42.595  24.112  26.267  1.00  0.00     0.091 A 
ATOM     78  F   UNL A   1      41.476  24.356  28.359  1.00  0.00    -0.205 F 
ATOM     79  C   UNL A   1      43.326  24.691  25.219  1.00  0.00     0.022 A 
BRANCH  77  80
ATOM     80  S   UNL A   1      42.237  22.355  26.176  1.00  0.00     0.127 S 
ATOM     81  O   UNL A   1      42.857  21.985  24.908  1.00  0.00    -0.237 OA
ATOM     82  O   UNL A   1      42.912  21.834  27.367  1.00  0.00    -0.237 OA
ATOM     83  O   UNL A   1      40.783  22.267  26.235  1.00  0.00    -0.744 OA
ENDBRANCH  77  80
ENDBRANCH  49  73
BRANCH  61  84
ATOM     84  C   UNL A   1      45.345  26.694  33.874  1.00  0.00     0.023 A 
ATOM     85  C   UNL A   1      46.602  27.329  33.864  1.00  0.00     0.012 A 
ATOM     86  C   UNL A   1      45.200  25.469  34.554  1.00  0.00     0.148 A 
ATOM     87  C   UNL A   1      47.703  26.742  34.487  1.00  0.00     0.002 A 
ATOM     88  C   UNL A   1      46.294  24.907  35.208  1.00  0.00     0.091 A 
ATOM     89  F   UNL A   1      44.005  24.861  34.539  1.00  0.00    -0.205 F 
ATOM     90  C   UNL A   1      47.548  25.537  35.168  1.00  0.00     0.022 A 
BRANCH  88  91
ATOM     91  S   UNL A   1      46.151  23.396  36.172  1.00  0.00     0.127 S 
ATOM     92  O   UNL A   1      45.175  23.779  37.191  1.00  0.00    -0.237 OA
ATOM     93  O   UNL A   1      45.655  22.433  35.188  1.00  0.00    -0.237 OA
ATOM     94  O   UNL A   1      47.497  23.116  36.656  1.00  0.00    -0.744 OA
ENDBRANCH  88  91
ENDBRANCH  61  84
ENDBRANCH  35  36
ENDBRANCH  27  30
ENDBRANCH  25  26
ENDBRANCH  24  25
ENDBRANCH   1  24
TORSDOF 19
ENDMDL
