MODEL 1
REMARK VINA RESULT:     -12.8      0.000      0.000
REMARK SMILES C[N@H+]1Cc2ccccc2C[C@@H]1C(=O)NCCC(=O)NCC(=O)NCCCNC(=O)c1ccc(-c2c3nc(c(-c4cccc(S(=O)(=O)[O-])c4F)c4ccc([nH]4)c(-c4cccc(S(=O)(=O)[O-])c4F)c4nc(c(-c5cccc(S(=O)(=O)[O-])c5F)c5ccc2[nH]5)C=C4)C=C3)cc1
REMARK SMILES IDX 24 1 23 2 21 3 22 4 20 6 19 7 17 8 18 9 16 11 15 12 14 13
REMARK SMILES IDX 12 14 13 15 11 17 1 18 2 19 3 20 4 22 10 23 5 24 9 25 6 26
REMARK SMILES IDX 8 27 7 28 25 29 26 30 27 31 28 32 29 34 30 35 31 36 92 37
REMARK SMILES IDX 32 38 91 39 33 40 34 41 35 42 85 43 36 44 90 45 84 46 86 47
REMARK SMILES IDX 37 48 89 49 83 50 82 51 38 53 70 54 50 55 69 56 51 57 54 58
REMARK SMILES IDX 68 59 87 60 52 61 53 62 67 64 88 65 55 66 39 67 40 68 48 69
REMARK SMILES IDX 41 70 43 71 49 72 42 73 44 74 45 75 46 76 47 77 71 78 72 79
REMARK SMILES IDX 80 80 73 81 75 82 81 83 74 84 76 85 77 86 78 87 79 88 56 89
REMARK SMILES IDX 57 90 65 91 58 92 60 93 66 94 59 95 61 96 62 97 63 98 64 99
REMARK H PARENT 23 5 19 10 14 16 2 21 27 33 86 52 54 63
REMARK Flexibility Score: inf
ROOT
ATOM      1  C   UNL A   1      35.268  21.012  24.677  1.00  0.00     0.117 C 
ENDROOT
BRANCH   1   2
ATOM      2  N   UNL A   1      34.362  19.978  25.157  1.00  0.00    -0.355 N 
ATOM      3  C   UNL A   1      33.022  19.945  25.398  1.00  0.00     0.239 C 
ATOM      4  O   UNL A   1      32.555  18.856  25.750  1.00  0.00    -0.273 OA
ATOM      5  H   UNL A   1      34.812  19.124  25.349  1.00  0.00     0.163 HD
BRANCH   3   6
ATOM      6  C   UNL A   1      32.068  21.111  25.071  1.00  0.00     0.216 C 
BRANCH   6   7
ATOM      7  N   UNL A   1      31.644  21.958  26.169  1.00  0.00    -0.347 N 
ATOM      8  C   UNL A   1      32.147  23.139  26.619  1.00  0.00     0.222 C 
ATOM      9  O   UNL A   1      31.657  23.634  27.634  1.00  0.00    -0.275 OA
ATOM     10  H   UNL A   1      30.865  21.624  26.671  1.00  0.00     0.164 HD
BRANCH   8  11
ATOM     11  C   UNL A   1      33.313  23.810  25.925  1.00  0.00     0.121 C 
BRANCH  11  12
ATOM     12  C   UNL A   1      33.275  25.337  26.041  1.00  0.00     0.126 C 
BRANCH  12  13
ATOM     13  N   UNL A   1      33.539  25.995  24.765  1.00  0.00    -0.350 N 
ATOM     14  C   UNL A   1      32.753  26.046  23.659  1.00  0.00     0.278 C 
ATOM     15  O   UNL A   1      33.239  25.573  22.625  1.00  0.00    -0.268 OA
ATOM     16  H   UNL A   1      34.403  26.463  24.697  1.00  0.00     0.163 HD
BRANCH  14  17
ATOM     17  C   UNL A   1      31.424  26.830  23.625  1.00  0.00     0.278 C 
ATOM     18  C   UNL A   1      30.280  24.673  24.104  1.00  0.00     0.333 C 
ATOM     19  N   UNL A   1      30.251  25.935  23.357  1.00  0.00    -0.323 N 
ATOM     20  C   UNL A   1      29.009  26.661  23.697  1.00  0.00     0.299 C 
ATOM     21  H   UNL A   1      30.294  25.688  22.368  1.00  0.00     0.348 HD
ATOM     22  C   UNL A   1      28.921  28.048  23.095  1.00  0.00     0.010 A 
ATOM     23  C   UNL A   1      31.388  27.969  22.599  1.00  0.00     0.111 C 
ATOM     24  C   UNL A   1      27.702  28.739  23.106  1.00  0.00     0.010 A 
ATOM     25  C   UNL A   1      30.062  28.684  22.580  1.00  0.00    -0.033 A 
ATOM     26  C   UNL A   1      27.615  30.027  22.575  1.00  0.00     0.001 A 
ATOM     27  C   UNL A   1      29.961  29.963  22.021  1.00  0.00     0.004 A 
ATOM     28  C   UNL A   1      28.740  30.634  22.023  1.00  0.00     0.000 A 
ENDBRANCH  14  17
ENDBRANCH  12  13
ENDBRANCH  11  12
ENDBRANCH   8  11
ENDBRANCH   6   7
ENDBRANCH   3   6
ENDBRANCH   1   2
BRANCH   1  29
ATOM     29  C   UNL A   1      36.280  21.457  25.711  1.00  0.00     0.042 C 
BRANCH  29  30
ATOM     30  C   UNL A   1      37.671  21.638  25.126  1.00  0.00     0.118 C 
BRANCH  30  31
ATOM     31  N   UNL A   1      38.653  20.708  25.682  1.00  0.00    -0.352 N 
ATOM     32  C   UNL A   1      39.798  20.939  26.408  1.00  0.00     0.251 C 
ATOM     33  H   UNL A   1      38.462  19.757  25.508  1.00  0.00     0.163 HD
ATOM     34  O   UNL A   1      40.568  20.009  26.642  1.00  0.00    -0.269 OA
BRANCH  32  35
ATOM     35  C   UNL A   1      40.122  22.302  26.880  1.00  0.00     0.039 A 
ATOM     36  C   UNL A   1      41.094  22.476  27.869  1.00  0.00     0.014 A 
ATOM     37  C   UNL A   1      39.482  23.413  26.333  1.00  0.00     0.014 A 
ATOM     38  C   UNL A   1      41.494  23.766  28.228  1.00  0.00     0.010 A 
ATOM     39  C   UNL A   1      39.968  24.686  26.596  1.00  0.00     0.010 A 
ATOM     40  C   UNL A   1      40.975  24.882  27.551  1.00  0.00    -0.014 A 
BRANCH  40  41
ATOM     41  C   UNL A   1      41.460  26.263  27.807  1.00  0.00     0.031 A 
ATOM     42  C   UNL A   1      42.862  26.652  27.412  1.00  0.00     0.074 A 
ATOM     43  C   UNL A   1      40.696  27.122  28.511  1.00  0.00     0.049 A 
ATOM     44  N   UNL A   1      43.522  27.747  27.682  1.00  0.00    -0.248 NA
ATOM     45  C   UNL A   1      43.642  25.657  26.655  1.00  0.00     0.031 C 
ATOM     46  C   UNL A   1      39.361  26.833  29.043  1.00  0.00     0.029 A 
ATOM     47  N   UNL A   1      40.948  28.404  28.936  1.00  0.00    -0.354 N 
ATOM     48  C   UNL A   1      44.803  27.552  27.179  1.00  0.00     0.074 A 
ATOM     49  C   UNL A   1      44.842  26.216  26.628  1.00  0.00     0.031 C 
ATOM     50  C   UNL A   1      38.911  27.905  29.715  1.00  0.00     0.029 A 
ATOM     51  C   UNL A   1      39.934  28.945  29.692  1.00  0.00     0.049 A 
ATOM     52  H   UNL A   1      41.776  28.889  28.719  1.00  0.00     0.167 HD
ATOM     53  C   UNL A   1      45.843  28.418  27.142  1.00  0.00     0.034 A 
ATOM     54  C   UNL A   1      39.841  30.142  30.305  1.00  0.00     0.034 A 
ATOM     55  C   UNL A   1      45.775  29.772  27.617  1.00  0.00     0.049 A 
ATOM     56  C   UNL A   1      40.976  31.119  30.170  1.00  0.00     0.074 A 
ATOM     57  C   UNL A   1      46.736  30.764  27.529  1.00  0.00     0.029 A 
ATOM     58  N   UNL A   1      44.679  30.328  28.257  1.00  0.00    -0.354 N 
ATOM     59  N   UNL A   1      42.123  30.970  29.551  1.00  0.00    -0.248 NA
ATOM     60  C   UNL A   1      40.792  32.443  30.783  1.00  0.00     0.031 C 
ATOM     61  C   UNL A   1      46.220  31.923  28.121  1.00  0.00     0.029 A 
ATOM     62  C   UNL A   1      44.936  31.652  28.567  1.00  0.00     0.049 A 
ATOM     63  H   UNL A   1      43.843  29.853  28.462  1.00  0.00     0.167 HD
ATOM     64  C   UNL A   1      42.782  32.187  29.674  1.00  0.00     0.074 A 
ATOM     65  C   UNL A   1      41.898  33.070  30.405  1.00  0.00     0.031 C 
ATOM     66  C   UNL A   1      44.019  32.535  29.240  1.00  0.00     0.034 A 
BRANCH  53  67
ATOM     67  C   UNL A   1      47.118  27.949  26.490  1.00  0.00     0.023 A 
ATOM     68  C   UNL A   1      48.140  27.397  27.291  1.00  0.00     0.012 A 
ATOM     69  C   UNL A   1      47.292  28.009  25.094  1.00  0.00     0.148 A 
ATOM     70  C   UNL A   1      49.329  26.949  26.719  1.00  0.00     0.002 A 
ATOM     71  C   UNL A   1      48.463  27.519  24.525  1.00  0.00     0.091 A 
ATOM     72  F   UNL A   1      46.321  28.558  24.350  1.00  0.00    -0.205 F 
ATOM     73  C   UNL A   1      49.486  27.000  25.337  1.00  0.00     0.022 A 
BRANCH  71  74
ATOM     74  S   UNL A   1      48.730  27.469  22.750  1.00  0.00     0.127 S 
ATOM     75  O   UNL A   1      50.114  27.932  22.647  1.00  0.00    -0.237 OA
ATOM     76  O   UNL A   1      48.539  26.050  22.447  1.00  0.00    -0.237 OA
ATOM     77  O   UNL A   1      47.728  28.352  22.170  1.00  0.00    -0.744 OA
ENDBRANCH  71  74
ENDBRANCH  53  67
BRANCH  54  78
ATOM     78  C   UNL A   1      38.593  30.509  31.032  1.00  0.00     0.023 A 
ATOM     79  C   UNL A   1      38.469  30.175  32.395  1.00  0.00     0.012 A 
ATOM     80  C   UNL A   1      37.550  31.214  30.402  1.00  0.00     0.148 A 
ATOM     81  C   UNL A   1      37.318  30.511  33.109  1.00  0.00     0.002 A 
ATOM     82  C   UNL A   1      36.428  31.592  31.131  1.00  0.00     0.091 A 
ATOM     83  F   UNL A   1      37.679  31.513  29.100  1.00  0.00    -0.205 F 
ATOM     84  C   UNL A   1      36.304  31.228  32.481  1.00  0.00     0.022 A 
BRANCH  82  85
ATOM     85  S   UNL A   1      35.135  32.629  30.437  1.00  0.00     0.127 S 
ATOM     86  O   UNL A   1      34.209  32.744  31.559  1.00  0.00    -0.237 OA
ATOM     87  O   UNL A   1      35.867  33.855  30.113  1.00  0.00    -0.237 OA
ATOM     88  O   UNL A   1      34.641  31.903  29.274  1.00  0.00    -0.744 OA
ENDBRANCH  82  85
ENDBRANCH  54  78
BRANCH  66  89
ATOM     89  C   UNL A   1      44.485  33.939  29.515  1.00  0.00     0.023 A 
ATOM     90  C   UNL A   1      45.084  34.243  30.753  1.00  0.00     0.012 A 
ATOM     91  C   UNL A   1      44.409  34.932  28.519  1.00  0.00     0.148 A 
ATOM     92  C   UNL A   1      45.578  35.521  31.006  1.00  0.00     0.002 A 
ATOM     93  C   UNL A   1      44.945  36.191  28.761  1.00  0.00     0.091 A 
ATOM     94  F   UNL A   1      43.818  34.628  27.354  1.00  0.00    -0.205 F 
ATOM     95  C   UNL A   1      45.521  36.490  30.006  1.00  0.00     0.022 A 
BRANCH  93  96
ATOM     96  S   UNL A   1      44.997  37.470  27.500  1.00  0.00     0.127 S 
ATOM     97  O   UNL A   1      43.584  37.603  27.153  1.00  0.00    -0.237 OA
ATOM     98  O   UNL A   1      45.556  38.608  28.232  1.00  0.00    -0.237 OA
ATOM     99  O   UNL A   1      45.858  36.954  26.444  1.00  0.00    -0.744 OA
ENDBRANCH  93  96
ENDBRANCH  66  89
ENDBRANCH  40  41
ENDBRANCH  32  35
ENDBRANCH  30  31
ENDBRANCH  29  30
ENDBRANCH   1  29
TORSDOF 18
ENDMDL
MODEL 2
REMARK VINA RESULT:     -12.6      4.974     10.547
REMARK SMILES C[N@H+]1Cc2ccccc2C[C@@H]1C(=O)NCCC(=O)NCC(=O)NCCCNC(=O)c1ccc(-c2c3nc(c(-c4cccc(S(=O)(=O)[O-])c4F)c4ccc([nH]4)c(-c4cccc(S(=O)(=O)[O-])c4F)c4nc(c(-c5cccc(S(=O)(=O)[O-])c5F)c5ccc2[nH]5)C=C4)C=C3)cc1
REMARK SMILES IDX 24 1 23 2 21 3 22 4 20 6 19 7 17 8 18 9 16 11 15 12 14 13
REMARK SMILES IDX 12 14 13 15 11 17 1 18 2 19 3 20 4 22 10 23 5 24 9 25 6 26
REMARK SMILES IDX 8 27 7 28 25 29 26 30 27 31 28 32 29 34 30 35 31 36 92 37
REMARK SMILES IDX 32 38 91 39 33 40 34 41 35 42 85 43 36 44 90 45 84 46 86 47
REMARK SMILES IDX 37 48 89 49 83 50 82 51 38 53 70 54 50 55 69 56 51 57 54 58
REMARK SMILES IDX 68 59 87 60 52 61 53 62 67 64 88 65 55 66 39 67 40 68 48 69
REMARK SMILES IDX 41 70 43 71 49 72 42 73 44 74 45 75 46 76 47 77 71 78 72 79
REMARK SMILES IDX 80 80 73 81 75 82 81 83 74 84 76 85 77 86 78 87 79 88 56 89
REMARK SMILES IDX 57 90 65 91 58 92 60 93 66 94 59 95 61 96 62 97 63 98 64 99
REMARK H PARENT 23 5 19 10 14 16 2 21 27 33 86 52 54 63
REMARK Flexibility Score: inf
ROOT
ATOM      1  C   UNL A   1      32.163  29.360  24.412  1.00  0.00     0.117 C 
ENDROOT
BRANCH   1   2
ATOM      2  N   UNL A   1      31.215  29.677  23.353  1.00  0.00    -0.355 N 
ATOM      3  C   UNL A   1      30.548  28.921  22.436  1.00  0.00     0.239 C 
ATOM      4  O   UNL A   1      29.751  29.523  21.707  1.00  0.00    -0.273 OA
ATOM      5  H   UNL A   1      31.015  30.638  23.283  1.00  0.00     0.163 HD
BRANCH   3   6
ATOM      6  C   UNL A   1      30.594  27.381  22.404  1.00  0.00     0.216 C 
BRANCH   6   7
ATOM      7  N   UNL A   1      31.471  26.757  21.432  1.00  0.00    -0.347 N 
ATOM      8  C   UNL A   1      32.531  25.923  21.606  1.00  0.00     0.222 C 
ATOM      9  O   UNL A   1      33.177  25.584  20.615  1.00  0.00    -0.275 OA
ATOM     10  H   UNL A   1      31.265  26.971  20.493  1.00  0.00     0.164 HD
BRANCH   8  11
ATOM     11  C   UNL A   1      32.946  25.459  22.987  1.00  0.00     0.121 C 
BRANCH  11  12
ATOM     12  C   UNL A   1      32.188  24.209  23.446  1.00  0.00     0.126 C 
BRANCH  12  13
ATOM     13  N   UNL A   1      32.360  23.954  24.873  1.00  0.00    -0.350 N 
ATOM     14  C   UNL A   1      32.051  22.834  25.577  1.00  0.00     0.278 C 
ATOM     15  O   UNL A   1      31.238  22.979  26.498  1.00  0.00    -0.268 OA
ATOM     16  H   UNL A   1      32.751  24.692  25.395  1.00  0.00     0.163 HD
BRANCH  14  17
ATOM     17  C   UNL A   1      32.814  21.506  25.394  1.00  0.00     0.278 C 
ATOM     18  C   UNL A   1      34.890  22.764  25.942  1.00  0.00     0.333 C 
ATOM     19  N   UNL A   1      34.269  21.730  25.108  1.00  0.00    -0.323 N 
ATOM     20  C   UNL A   1      34.996  20.458  25.307  1.00  0.00     0.299 C 
ATOM     21  H   UNL A   1      34.329  22.059  24.144  1.00  0.00     0.348 HD
ATOM     22  C   UNL A   1      34.370  19.272  24.604  1.00  0.00     0.010 A 
ATOM     23  C   UNL A   1      32.254  20.601  24.290  1.00  0.00     0.111 C 
ATOM     24  C   UNL A   1      35.085  18.074  24.480  1.00  0.00     0.010 A 
ATOM     25  C   UNL A   1      33.050  19.332  24.127  1.00  0.00    -0.033 A 
ATOM     26  C   UNL A   1      34.508  16.967  23.854  1.00  0.00     0.001 A 
ATOM     27  C   UNL A   1      32.489  18.230  23.473  1.00  0.00     0.004 A 
ATOM     28  C   UNL A   1      33.216  17.049  23.342  1.00  0.00     0.000 A 
ENDBRANCH  14  17
ENDBRANCH  12  13
ENDBRANCH  11  12
ENDBRANCH   8  11
ENDBRANCH   6   7
ENDBRANCH   3   6
ENDBRANCH   1   2
BRANCH   1  29
ATOM     29  C   UNL A   1      31.504  29.027  25.733  1.00  0.00     0.042 C 
BRANCH  29  30
ATOM     30  C   UNL A   1      32.244  29.620  26.920  1.00  0.00     0.118 C 
BRANCH  30  31
ATOM     31  N   UNL A   1      32.312  31.081  26.882  1.00  0.00    -0.352 N 
ATOM     32  C   UNL A   1      33.281  31.946  27.332  1.00  0.00     0.251 C 
ATOM     33  H   UNL A   1      31.534  31.518  26.463  1.00  0.00     0.163 HD
ATOM     34  O   UNL A   1      33.060  33.156  27.341  1.00  0.00    -0.269 OA
BRANCH  32  35
ATOM     35  C   UNL A   1      34.572  31.429  27.834  1.00  0.00     0.039 A 
ATOM     36  C   UNL A   1      35.620  32.318  28.085  1.00  0.00     0.014 A 
ATOM     37  C   UNL A   1      34.744  30.067  28.077  1.00  0.00     0.014 A 
ATOM     38  C   UNL A   1      36.797  31.852  28.678  1.00  0.00     0.010 A 
ATOM     39  C   UNL A   1      35.857  29.628  28.780  1.00  0.00     0.010 A 
ATOM     40  C   UNL A   1      36.902  30.511  29.084  1.00  0.00    -0.014 A 
BRANCH  40  41
ATOM     41  C   UNL A   1      38.079  29.997  29.831  1.00  0.00     0.031 A 
ATOM     42  C   UNL A   1      38.366  30.503  31.222  1.00  0.00     0.074 A 
ATOM     43  C   UNL A   1      38.961  29.183  29.215  1.00  0.00     0.049 A 
ATOM     44  N   UNL A   1      39.414  30.299  31.975  1.00  0.00    -0.248 NA
ATOM     45  C   UNL A   1      37.363  31.399  31.826  1.00  0.00     0.031 C 
ATOM     46  C   UNL A   1      38.854  28.703  27.835  1.00  0.00     0.029 A 
ATOM     47  N   UNL A   1      40.144  28.646  29.659  1.00  0.00    -0.354 N 
ATOM     48  C   UNL A   1      39.224  31.078  33.110  1.00  0.00     0.074 A 
ATOM     49  C   UNL A   1      37.983  31.795  32.928  1.00  0.00     0.031 C 
ATOM     50  C   UNL A   1      39.920  27.939  27.548  1.00  0.00     0.029 A 
ATOM     51  C   UNL A   1      40.803  27.901  28.708  1.00  0.00     0.049 A 
ATOM     52  H   UNL A   1      40.487  28.780  30.571  1.00  0.00     0.167 HD
ATOM     53  C   UNL A   1      39.991  31.162  34.223  1.00  0.00     0.034 A 
ATOM     54  C   UNL A   1      41.990  27.264  28.762  1.00  0.00     0.034 A 
ATOM     55  C   UNL A   1      41.181  30.386  34.435  1.00  0.00     0.049 A 
ATOM     56  C   UNL A   1      42.778  27.299  30.043  1.00  0.00     0.074 A 
ATOM     57  C   UNL A   1      41.972  30.315  35.568  1.00  0.00     0.029 A 
ATOM     58  N   UNL A   1      41.745  29.536  33.497  1.00  0.00    -0.354 N 
ATOM     59  N   UNL A   1      42.500  27.918  31.165  1.00  0.00    -0.248 NA
ATOM     60  C   UNL A   1      44.024  26.519  30.080  1.00  0.00     0.031 C 
ATOM     61  C   UNL A   1      43.018  29.422  35.314  1.00  0.00     0.029 A 
ATOM     62  C   UNL A   1      42.872  28.931  34.026  1.00  0.00     0.049 A 
ATOM     63  H   UNL A   1      41.397  29.385  32.590  1.00  0.00     0.167 HD
ATOM     64  C   UNL A   1      43.516  27.579  32.049  1.00  0.00     0.074 A 
ATOM     65  C   UNL A   1      44.404  26.680  31.341  1.00  0.00     0.031 C 
ATOM     66  C   UNL A   1      43.710  27.991  33.326  1.00  0.00     0.034 A 
BRANCH  53  67
ATOM     67  C   UNL A   1      39.516  32.066  35.331  1.00  0.00     0.023 A 
ATOM     68  C   UNL A   1      38.588  31.573  36.272  1.00  0.00     0.012 A 
ATOM     69  C   UNL A   1      40.013  33.376  35.472  1.00  0.00     0.148 A 
ATOM     70  C   UNL A   1      38.133  32.380  37.313  1.00  0.00     0.002 A 
ATOM     71  C   UNL A   1      39.588  34.160  36.539  1.00  0.00     0.091 A 
ATOM     72  F   UNL A   1      40.876  33.836  34.555  1.00  0.00    -0.205 F 
ATOM     73  C   UNL A   1      38.640  33.669  37.452  1.00  0.00     0.022 A 
BRANCH  71  74
ATOM     74  S   UNL A   1      40.238  35.805  36.850  1.00  0.00     0.127 S 
ATOM     75  O   UNL A   1      39.653  36.568  35.747  1.00  0.00    -0.237 OA
ATOM     76  O   UNL A   1      39.681  36.115  38.167  1.00  0.00    -0.237 OA
ATOM     77  O   UNL A   1      41.688  35.674  36.821  1.00  0.00    -0.744 OA
ENDBRANCH  71  74
ENDBRANCH  53  67
BRANCH  54  78
ATOM     78  C   UNL A   1      42.462  26.473  27.591  1.00  0.00     0.023 A 
ATOM     79  C   UNL A   1      43.277  27.096  26.625  1.00  0.00     0.012 A 
ATOM     80  C   UNL A   1      42.147  25.109  27.444  1.00  0.00     0.148 A 
ATOM     81  C   UNL A   1      43.745  26.384  25.520  1.00  0.00     0.002 A 
ATOM     82  C   UNL A   1      42.658  24.391  26.368  1.00  0.00     0.091 A 
ATOM     83  F   UNL A   1      41.359  24.535  28.366  1.00  0.00    -0.205 F 
ATOM     84  C   UNL A   1      43.445  25.030  25.397  1.00  0.00     0.022 A 
BRANCH  82  85
ATOM     85  S   UNL A   1      42.430  22.617  26.203  1.00  0.00     0.127 S 
ATOM     86  O   UNL A   1      40.976  22.508  26.118  1.00  0.00    -0.237 OA
ATOM     87  O   UNL A   1      43.142  22.331  24.956  1.00  0.00    -0.237 OA
ATOM     88  O   UNL A   1      43.045  22.035  27.388  1.00  0.00    -0.744 OA
ENDBRANCH  82  85
ENDBRANCH  54  78
BRANCH  66  89
ATOM     89  C   UNL A   1      44.911  27.456  34.058  1.00  0.00     0.023 A 
ATOM     90  C   UNL A   1      46.120  28.178  34.030  1.00  0.00     0.012 A 
ATOM     91  C   UNL A   1      44.817  26.289  34.841  1.00  0.00     0.148 A 
ATOM     92  C   UNL A   1      47.226  27.733  34.750  1.00  0.00     0.002 A 
ATOM     93  C   UNL A   1      45.911  25.876  35.593  1.00  0.00     0.091 A 
ATOM     94  F   UNL A   1      43.663  25.607  34.839  1.00  0.00    -0.205 F 
ATOM     95  C   UNL A   1      47.118  26.591  35.541  1.00  0.00     0.022 A 
BRANCH  93  96
ATOM     96  S   UNL A   1      45.831  24.471  36.710  1.00  0.00     0.127 S 
ATOM     97  O   UNL A   1      44.772  24.881  37.629  1.00  0.00    -0.237 OA
ATOM     98  O   UNL A   1      45.467  23.376  35.808  1.00  0.00    -0.237 OA
ATOM     99  O   UNL A   1      47.160  24.351  37.296  1.00  0.00    -0.744 OA
ENDBRANCH  93  96
ENDBRANCH  66  89
ENDBRANCH  40  41
ENDBRANCH  32  35
ENDBRANCH  30  31
ENDBRANCH  29  30
ENDBRANCH   1  29
TORSDOF 18
ENDMDL
MODEL 3
REMARK VINA RESULT:     -12.6      5.101      8.494
REMARK SMILES C[N@H+]1Cc2ccccc2C[C@@H]1C(=O)NCCC(=O)NCC(=O)NCCCNC(=O)c1ccc(-c2c3nc(c(-c4cccc(S(=O)(=O)[O-])c4F)c4ccc([nH]4)c(-c4cccc(S(=O)(=O)[O-])c4F)c4nc(c(-c5cccc(S(=O)(=O)[O-])c5F)c5ccc2[nH]5)C=C4)C=C3)cc1
REMARK SMILES IDX 24 1 23 2 21 3 22 4 20 6 19 7 17 8 18 9 16 11 15 12 14 13
REMARK SMILES IDX 12 14 13 15 11 17 1 18 2 19 3 20 4 22 10 23 5 24 9 25 6 26
REMARK SMILES IDX 8 27 7 28 25 29 26 30 27 31 28 32 29 34 30 35 31 36 92 37
REMARK SMILES IDX 32 38 91 39 33 40 34 41 35 42 85 43 36 44 90 45 84 46 86 47
REMARK SMILES IDX 37 48 89 49 83 50 82 51 38 53 70 54 50 55 69 56 51 57 54 58
REMARK SMILES IDX 68 59 87 60 52 61 53 62 67 64 88 65 55 66 39 67 40 68 48 69
REMARK SMILES IDX 41 70 43 71 49 72 42 73 44 74 45 75 46 76 47 77 71 78 72 79
REMARK SMILES IDX 80 80 73 81 75 82 81 83 74 84 76 85 77 86 78 87 79 88 56 89
REMARK SMILES IDX 57 90 65 91 58 92 60 93 66 94 59 95 61 96 62 97 63 98 64 99
REMARK H PARENT 23 5 19 10 14 16 2 21 27 33 86 52 54 63
REMARK Flexibility Score: inf
ROOT
ATOM      1  C   UNL A   1      32.385  29.037  24.395  1.00  0.00     0.117 C 
ENDROOT
BRANCH   1   2
ATOM      2  N   UNL A   1      31.486  29.448  23.326  1.00  0.00    -0.355 N 
ATOM      3  C   UNL A   1      30.753  28.763  22.404  1.00  0.00     0.239 C 
ATOM      4  O   UNL A   1      30.029  29.443  21.666  1.00  0.00    -0.273 OA
ATOM      5  H   UNL A   1      31.387  30.424  23.254  1.00  0.00     0.163 HD
BRANCH   3   6
ATOM      6  C   UNL A   1      30.639  27.227  22.375  1.00  0.00     0.216 C 
BRANCH   6   7
ATOM      7  N   UNL A   1      31.533  26.505  21.490  1.00  0.00    -0.347 N 
ATOM      8  C   UNL A   1      32.624  25.742  21.768  1.00  0.00     0.222 C 
ATOM      9  O   UNL A   1      33.278  25.292  20.827  1.00  0.00    -0.275 OA
ATOM     10  H   UNL A   1      31.315  26.579  20.533  1.00  0.00     0.164 HD
BRANCH   8  11
ATOM     11  C   UNL A   1      33.062  25.489  23.194  1.00  0.00     0.121 C 
BRANCH  11  12
ATOM     12  C   UNL A   1      32.211  24.428  23.898  1.00  0.00     0.126 C 
BRANCH  12  13
ATOM     13  N   UNL A   1      32.678  24.157  25.255  1.00  0.00    -0.350 N 
ATOM     14  C   UNL A   1      32.462  23.057  26.022  1.00  0.00     0.278 C 
ATOM     15  O   UNL A   1      31.885  23.250  27.098  1.00  0.00    -0.268 OA
ATOM     16  H   UNL A   1      33.222  24.866  25.669  1.00  0.00     0.163 HD
BRANCH  14  17
ATOM     17  C   UNL A   1      33.079  21.682  25.688  1.00  0.00     0.278 C 
ATOM     18  C   UNL A   1      35.299  22.700  26.161  1.00  0.00     0.333 C 
ATOM     19  N   UNL A   1      34.525  21.794  25.307  1.00  0.00    -0.323 N 
ATOM     20  C   UNL A   1      35.138  20.450  25.360  1.00  0.00     0.299 C 
ATOM     21  H   UNL A   1      34.548  22.190  24.367  1.00  0.00     0.348 HD
ATOM     22  C   UNL A   1      34.352  19.383  24.627  1.00  0.00     0.010 A 
ATOM     23  C   UNL A   1      32.358  20.919  24.571  1.00  0.00     0.111 C 
ATOM     24  C   UNL A   1      34.938  18.138  24.365  1.00  0.00     0.010 A 
ATOM     25  C   UNL A   1      33.014  19.600  24.259  1.00  0.00    -0.033 A 
ATOM     26  C   UNL A   1      34.214  17.140  23.711  1.00  0.00     0.001 A 
ATOM     27  C   UNL A   1      32.305  18.606  23.575  1.00  0.00     0.004 A 
ATOM     28  C   UNL A   1      32.903  17.378  23.306  1.00  0.00     0.000 A 
ENDBRANCH  14  17
ENDBRANCH  12  13
ENDBRANCH  11  12
ENDBRANCH   8  11
ENDBRANCH   6   7
ENDBRANCH   3   6
ENDBRANCH   1   2
BRANCH   1  29
ATOM     29  C   UNL A   1      31.717  28.957  25.751  1.00  0.00     0.042 C 
BRANCH  29  30
ATOM     30  C   UNL A   1      32.571  29.550  26.858  1.00  0.00     0.118 C 
BRANCH  30  31
ATOM     31  N   UNL A   1      32.492  31.009  26.924  1.00  0.00    -0.352 N 
ATOM     32  C   UNL A   1      33.367  31.933  27.447  1.00  0.00     0.251 C 
ATOM     33  H   UNL A   1      31.676  31.395  26.528  1.00  0.00     0.163 HD
ATOM     34  O   UNL A   1      33.025  33.111  27.538  1.00  0.00    -0.269 OA
BRANCH  32  35
ATOM     35  C   UNL A   1      34.700  31.513  27.926  1.00  0.00     0.039 A 
ATOM     36  C   UNL A   1      35.733  32.452  28.003  1.00  0.00     0.014 A 
ATOM     37  C   UNL A   1      34.930  30.195  28.319  1.00  0.00     0.014 A 
ATOM     38  C   UNL A   1      36.956  32.091  28.573  1.00  0.00     0.010 A 
ATOM     39  C   UNL A   1      36.096  29.873  29.000  1.00  0.00     0.010 A 
ATOM     40  C   UNL A   1      37.128  30.812  29.130  1.00  0.00    -0.014 A 
BRANCH  40  41
ATOM     41  C   UNL A   1      38.363  30.423  29.859  1.00  0.00     0.031 A 
ATOM     42  C   UNL A   1      39.303  29.410  29.256  1.00  0.00     0.074 A 
ATOM     43  C   UNL A   1      38.572  30.873  31.113  1.00  0.00     0.049 A 
ATOM     44  N   UNL A   1      40.343  28.827  29.792  1.00  0.00    -0.248 NA
ATOM     45  C   UNL A   1      39.005  28.955  27.887  1.00  0.00     0.031 C 
ATOM     46  C   UNL A   1      37.684  31.775  31.851  1.00  0.00     0.029 A 
ATOM     47  N   UNL A   1      39.579  30.600  32.006  1.00  0.00    -0.354 N 
ATOM     48  C   UNL A   1      40.787  27.904  28.853  1.00  0.00     0.074 A 
ATOM     49  C   UNL A   1      39.877  27.971  27.732  1.00  0.00     0.031 C 
ATOM     50  C   UNL A   1      38.188  31.987  33.077  1.00  0.00     0.029 A 
ATOM     51  C   UNL A   1      39.414  31.211  33.228  1.00  0.00     0.049 A 
ATOM     52  H   UNL A   1      40.347  30.023  31.791  1.00  0.00     0.167 HD
ATOM     53  C   UNL A   1      41.876  27.100  28.899  1.00  0.00     0.034 A 
ATOM     54  C   UNL A   1      40.163  31.149  34.347  1.00  0.00     0.034 A 
ATOM     55  C   UNL A   1      42.823  27.097  29.979  1.00  0.00     0.049 A 
ATOM     56  C   UNL A   1      41.417  30.318  34.338  1.00  0.00     0.074 A 
ATOM     57  C   UNL A   1      44.015  26.400  30.075  1.00  0.00     0.029 A 
ATOM     58  N   UNL A   1      42.692  27.834  31.144  1.00  0.00    -0.354 N 
ATOM     59  N   UNL A   1      41.905  29.572  33.377  1.00  0.00    -0.248 NA
ATOM     60  C   UNL A   1      42.245  30.350  35.553  1.00  0.00     0.031 C 
ATOM     61  C   UNL A   1      44.605  26.716  31.304  1.00  0.00     0.029 A 
ATOM     62  C   UNL A   1      43.784  27.615  31.966  1.00  0.00     0.049 A 
ATOM     63  H   UNL A   1      41.936  28.425  31.357  1.00  0.00     0.167 HD
ATOM     64  C   UNL A   1      43.108  29.071  33.857  1.00  0.00     0.074 A 
ATOM     65  C   UNL A   1      43.288  29.617  35.186  1.00  0.00     0.031 C 
ATOM     66  C   UNL A   1      43.976  28.217  33.261  1.00  0.00     0.034 A 
BRANCH  53  67
ATOM     67  C   UNL A   1      42.144  26.220  27.705  1.00  0.00     0.023 A 
ATOM     68  C   UNL A   1      42.828  26.755  26.594  1.00  0.00     0.012 A 
ATOM     69  C   UNL A   1      41.764  24.864  27.695  1.00  0.00     0.148 A 
ATOM     70  C   UNL A   1      43.097  25.966  25.477  1.00  0.00     0.002 A 
ATOM     71  C   UNL A   1      42.076  24.071  26.596  1.00  0.00     0.091 A 
ATOM     72  F   UNL A   1      41.094  24.378  28.750  1.00  0.00    -0.205 F 
ATOM     73  C   UNL A   1      42.731  24.624  25.482  1.00  0.00     0.022 A 
BRANCH  71  74
ATOM     74  S   UNL A   1      41.715  22.313  26.536  1.00  0.00     0.127 S 
ATOM     75  O   UNL A   1      42.381  21.834  27.748  1.00  0.00    -0.237 OA
ATOM     76  O   UNL A   1      40.253  22.294  26.597  1.00  0.00    -0.237 OA
ATOM     77  O   UNL A   1      42.276  21.832  25.281  1.00  0.00    -0.744 OA
ENDBRANCH  71  74
ENDBRANCH  53  67
BRANCH  54  78
ATOM     78  C   UNL A   1      39.786  31.959  35.539  1.00  0.00     0.023 A 
ATOM     79  C   UNL A   1      40.319  33.255  35.685  1.00  0.00     0.012 A 
ATOM     80  C   UNL A   1      38.881  31.478  36.504  1.00  0.00     0.148 A 
ATOM     81  C   UNL A   1      39.981  34.045  36.784  1.00  0.00     0.002 A 
ATOM     82  C   UNL A   1      38.507  32.290  37.570  1.00  0.00     0.091 A 
ATOM     83  F   UNL A   1      38.393  30.237  36.356  1.00  0.00    -0.205 F 
ATOM     84  C   UNL A   1      39.067  33.568  37.720  1.00  0.00     0.022 A 
BRANCH  82  85
ATOM     85  S   UNL A   1      37.240  31.805  38.748  1.00  0.00     0.127 S 
ATOM     86  O   UNL A   1      37.027  30.404  38.398  1.00  0.00    -0.237 OA
ATOM     87  O   UNL A   1      37.914  32.024  40.029  1.00  0.00    -0.237 OA
ATOM     88  O   UNL A   1      36.119  32.702  38.502  1.00  0.00    -0.744 OA
ENDBRANCH  82  85
ENDBRANCH  54  78
BRANCH  66  89
ATOM     89  C   UNL A   1      45.218  27.838  34.022  1.00  0.00     0.023 A 
ATOM     90  C   UNL A   1      46.342  28.685  33.984  1.00  0.00     0.012 A 
ATOM     91  C   UNL A   1      45.240  26.691  34.840  1.00  0.00     0.148 A 
ATOM     92  C   UNL A   1      47.480  28.385  34.730  1.00  0.00     0.002 A 
ATOM     93  C   UNL A   1      46.361  26.422  35.616  1.00  0.00     0.091 A 
ATOM     94  F   UNL A   1      44.166  25.888  34.847  1.00  0.00    -0.205 F 
ATOM     95  C   UNL A   1      47.485  27.262  35.555  1.00  0.00     0.022 A 
BRANCH  93  96
ATOM     96  S   UNL A   1      46.418  25.051  36.775  1.00  0.00     0.127 S 
ATOM     97  O   UNL A   1      45.269  25.337  37.632  1.00  0.00    -0.237 OA
ATOM     98  O   UNL A   1      46.250  23.892  35.896  1.00  0.00    -0.237 OA
ATOM     99  O   UNL A   1      47.720  25.129  37.423  1.00  0.00    -0.744 OA
ENDBRANCH  93  96
ENDBRANCH  66  89
ENDBRANCH  40  41
ENDBRANCH  32  35
ENDBRANCH  30  31
ENDBRANCH  29  30
ENDBRANCH   1  29
TORSDOF 18
ENDMDL
