MODEL 1
REMARK VINA RESULT:     -11.4      0.000      0.000
REMARK SMILES CC[C@@](C)(NS(=O)(=O)c1ccc(F)c(Cl)c1)C(=O)NCCCNC(=O)c1ccc(-c2c3nc(c(-c4cccc(S(=O)(=O)[O-])c4F)c4ccc([nH]4)c(-c4cccc(S(=O)(=O)[O-])c4F)c4nc(c(-c5cccc(S(=O)(=O)[O-])c5F)c5ccc2[nH]5)C=C4)C=C3)cc1
REMARK SMILES IDX 21 1 20 2 19 3 17 4 18 5 3 7 4 8 2 9 1 10 5 11 6 13 7 14
REMARK SMILES IDX 8 15 9 16 10 17 16 18 11 19 14 20 12 21 15 22 13 23 22 24
REMARK SMILES IDX 23 25 24 26 25 28 26 29 27 30 88 31 28 32 87 33 29 34 30 35
REMARK SMILES IDX 31 36 81 37 32 38 86 39 80 40 82 41 33 42 85 43 79 44 78 45
REMARK SMILES IDX 34 47 66 48 46 49 65 50 47 51 50 52 64 53 83 54 48 55 49 56
REMARK SMILES IDX 63 58 84 59 51 60 35 61 36 62 44 63 37 64 39 65 45 66 38 67
REMARK SMILES IDX 40 68 41 69 42 70 43 71 67 72 68 73 76 74 69 75 71 76 77 77
REMARK SMILES IDX 70 78 72 79 73 80 74 81 75 82 52 83 53 84 61 85 54 86 56 87
REMARK SMILES IDX 62 88 55 89 57 90 58 91 59 92 60 93
REMARK H PARENT 19 6 5 12 23 27 82 46 50 57
REMARK Flexibility Score: inf
ROOT
ATOM      1  C   UNL A   1      37.489  19.654  24.815  1.00  0.00     0.042 C 
ENDROOT
BRANCH   1   2
ATOM      2  C   UNL A   1      36.021  20.120  25.006  1.00  0.00     0.117 C 
BRANCH   2   3
ATOM      3  N   UNL A   1      35.620  21.038  26.069  1.00  0.00    -0.354 N 
ATOM      4  C   UNL A   1      35.048  22.276  26.184  1.00  0.00     0.241 C 
ATOM      5  O   UNL A   1      34.674  22.534  27.340  1.00  0.00    -0.273 OA
ATOM      6  H   UNL A   1      35.817  20.658  26.955  1.00  0.00     0.163 HD
BRANCH   4   7
ATOM      7  C   UNL A   1      34.921  23.370  25.088  1.00  0.00     0.108 C 
ATOM      8  C   UNL A   1      34.385  24.697  25.634  1.00  0.00     0.040 C 
BRANCH   7   9
ATOM      9  C   UNL A   1      36.333  23.661  24.431  1.00  0.00     0.030 C 
ATOM     10  C   UNL A   1      36.679  23.015  23.099  1.00  0.00     0.006 C 
ENDBRANCH   7   9
BRANCH   7  11
ATOM     11  N   UNL A   1      34.151  22.977  23.886  1.00  0.00    -0.196 NA
ATOM     12  H   UNL A   1      34.487  22.038  23.674  1.00  0.00     0.142 HD
BRANCH  11  13
ATOM     13  S   UNL A   1      32.521  22.882  23.634  1.00  0.00     0.241 S 
ATOM     14  O   UNL A   1      32.312  22.096  22.435  1.00  0.00    -0.207 OA
ATOM     15  O   UNL A   1      31.999  22.446  24.901  1.00  0.00    -0.207 OA
BRANCH  13  16
ATOM     16  C   UNL A   1      31.893  24.523  23.346  1.00  0.00     0.084 A 
ATOM     17  C   UNL A   1      32.547  25.366  22.444  1.00  0.00     0.025 A 
ATOM     18  C   UNL A   1      30.638  24.900  23.824  1.00  0.00     0.045 A 
ATOM     19  C   UNL A   1      32.024  26.594  22.059  1.00  0.00     0.042 A 
ATOM     20  C   UNL A   1      30.088  26.124  23.415  1.00  0.00     0.078 A 
ATOM     21  C   UNL A   1      30.786  26.965  22.544  1.00  0.00     0.141 A 
ATOM     22  Cl  UNL A   1      28.523  26.574  23.968  1.00  0.00    -0.081 Cl
ATOM     23  F   UNL A   1      30.268  28.133  22.135  1.00  0.00    -0.205 F 
ENDBRANCH  13  16
ENDBRANCH  11  13
ENDBRANCH   7  11
ENDBRANCH   4   7
ENDBRANCH   2   3
ENDBRANCH   1   2
BRANCH   1  24
ATOM     24  C   UNL A   1      38.691  20.102  25.666  1.00  0.00     0.118 C 
BRANCH  24  25
ATOM     25  N   UNL A   1      39.749  19.127  25.851  1.00  0.00    -0.352 N 
ATOM     26  C   UNL A   1      41.072  19.381  26.162  1.00  0.00     0.251 C 
ATOM     27  H   UNL A   1      39.497  18.181  25.745  1.00  0.00     0.163 HD
ATOM     28  O   UNL A   1      41.886  18.461  26.175  1.00  0.00    -0.269 OA
BRANCH  26  29
ATOM     29  C   UNL A   1      41.530  20.761  26.465  1.00  0.00     0.039 A 
ATOM     30  C   UNL A   1      41.788  21.652  25.417  1.00  0.00     0.014 A 
ATOM     31  C   UNL A   1      41.798  21.151  27.780  1.00  0.00     0.014 A 
ATOM     32  C   UNL A   1      42.263  22.945  25.689  1.00  0.00     0.010 A 
ATOM     33  C   UNL A   1      42.258  22.450  28.051  1.00  0.00     0.010 A 
ATOM     34  C   UNL A   1      42.489  23.367  27.011  1.00  0.00    -0.014 A 
BRANCH  34  35
ATOM     35  C   UNL A   1      42.917  24.767  27.314  1.00  0.00     0.031 A 
ATOM     36  C   UNL A   1      41.971  25.760  27.945  1.00  0.00     0.074 A 
ATOM     37  C   UNL A   1      44.152  25.180  26.958  1.00  0.00     0.049 A 
ATOM     38  N   UNL A   1      42.171  27.020  28.242  1.00  0.00    -0.248 NA
ATOM     39  C   UNL A   1      40.623  25.275  28.275  1.00  0.00     0.031 C 
ATOM     40  C   UNL A   1      45.156  24.348  26.294  1.00  0.00     0.029 A 
ATOM     41  N   UNL A   1      44.764  26.407  27.074  1.00  0.00    -0.354 N 
ATOM     42  C   UNL A   1      40.972  27.489  28.767  1.00  0.00     0.074 A 
ATOM     43  C   UNL A   1      40.042  26.378  28.733  1.00  0.00     0.031 C 
ATOM     44  C   UNL A   1      46.250  25.088  26.050  1.00  0.00     0.029 A 
ATOM     45  C   UNL A   1      46.021  26.453  26.515  1.00  0.00     0.049 A 
ATOM     46  H   UNL A   1      44.342  27.179  27.515  1.00  0.00     0.167 HD
ATOM     47  C   UNL A   1      40.672  28.721  29.248  1.00  0.00     0.034 A 
ATOM     48  C   UNL A   1      46.892  27.475  26.378  1.00  0.00     0.034 A 
ATOM     49  C   UNL A   1      41.599  29.823  29.308  1.00  0.00     0.049 A 
ATOM     50  C   UNL A   1      46.539  28.832  26.934  1.00  0.00     0.074 A 
ATOM     51  C   UNL A   1      41.402  31.083  29.848  1.00  0.00     0.029 A 
ATOM     52  N   UNL A   1      42.888  29.806  28.800  1.00  0.00    -0.354 N 
ATOM     53  N   UNL A   1      45.457  29.206  27.569  1.00  0.00    -0.248 NA
ATOM     54  C   UNL A   1      47.545  29.897  26.787  1.00  0.00     0.031 C 
ATOM     55  C   UNL A   1      42.564  31.835  29.646  1.00  0.00     0.029 A 
ATOM     56  C   UNL A   1      43.495  31.035  29.006  1.00  0.00     0.049 A 
ATOM     57  H   UNL A   1      43.311  29.035  28.360  1.00  0.00     0.167 HD
ATOM     58  C   UNL A   1      45.666  30.531  27.935  1.00  0.00     0.074 A 
ATOM     59  C   UNL A   1      46.985  30.894  27.460  1.00  0.00     0.031 C 
ATOM     60  C   UNL A   1      44.833  31.373  28.594  1.00  0.00     0.034 A 
BRANCH  47  61
ATOM     61  C   UNL A   1      39.286  28.945  29.805  1.00  0.00     0.023 A 
ATOM     62  C   UNL A   1      38.993  28.525  31.118  1.00  0.00     0.012 A 
ATOM     63  C   UNL A   1      38.306  29.639  29.066  1.00  0.00     0.148 A 
ATOM     64  C   UNL A   1      37.735  28.758  31.675  1.00  0.00     0.002 A 
ATOM     65  C   UNL A   1      37.068  29.903  29.643  1.00  0.00     0.091 A 
ATOM     66  F   UNL A   1      38.599  30.023  27.816  1.00  0.00    -0.205 F 
ATOM     67  C   UNL A   1      36.778  29.454  30.942  1.00  0.00     0.022 A 
BRANCH  65  68
ATOM     68  S   UNL A   1      35.795  30.864  28.813  1.00  0.00     0.127 S 
ATOM     69  O   UNL A   1      35.044  29.819  28.118  1.00  0.00    -0.237 OA
ATOM     70  O   UNL A   1      35.087  31.476  29.939  1.00  0.00    -0.237 OA
ATOM     71  O   UNL A   1      36.499  31.806  27.956  1.00  0.00    -0.744 OA
ENDBRANCH  65  68
ENDBRANCH  47  61
BRANCH  48  72
ATOM     72  C   UNL A   1      48.218  27.243  25.736  1.00  0.00     0.023 A 
ATOM     73  C   UNL A   1      49.298  26.794  26.523  1.00  0.00     0.012 A 
ATOM     74  C   UNL A   1      48.411  27.442  24.355  1.00  0.00     0.148 A 
ATOM     75  C   UNL A   1      50.553  26.577  25.952  1.00  0.00     0.002 A 
ATOM     76  C   UNL A   1      49.649  27.169  23.783  1.00  0.00     0.091 A 
ATOM     77  F   UNL A   1      47.377  27.884  23.626  1.00  0.00    -0.205 F 
ATOM     78  C   UNL A   1      50.726  26.753  24.581  1.00  0.00     0.022 A 
BRANCH  76  79
ATOM     79  S   UNL A   1      49.932  27.246  22.010  1.00  0.00     0.127 S 
ATOM     80  O   UNL A   1      48.890  26.357  21.502  1.00  0.00    -0.237 OA
ATOM     81  O   UNL A   1      49.717  28.668  21.733  1.00  0.00    -0.237 OA
ATOM     82  O   UNL A   1      51.302  26.798  21.812  1.00  0.00    -0.744 OA
ENDBRANCH  76  79
ENDBRANCH  48  72
BRANCH  60  83
ATOM     83  C   UNL A   1      45.324  32.764  28.904  1.00  0.00     0.023 A 
ATOM     84  C   UNL A   1      45.994  33.021  30.116  1.00  0.00     0.012 A 
ATOM     85  C   UNL A   1      45.212  33.793  27.946  1.00  0.00     0.148 A 
ATOM     86  C   UNL A   1      46.528  34.283  30.378  1.00  0.00     0.002 A 
ATOM     87  C   UNL A   1      45.786  35.035  28.194  1.00  0.00     0.091 A 
ATOM     88  F   UNL A   1      44.554  33.535  26.806  1.00  0.00    -0.205 F 
ATOM     89  C   UNL A   1      46.436  35.284  29.414  1.00  0.00     0.022 A 
BRANCH  87  90
ATOM     90  S   UNL A   1      45.802  36.354  26.974  1.00  0.00     0.127 S 
ATOM     91  O   UNL A   1      46.805  37.261  27.529  1.00  0.00    -0.237 OA
ATOM     92  O   UNL A   1      46.219  35.650  25.762  1.00  0.00    -0.237 OA
ATOM     93  O   UNL A   1      44.444  36.880  26.932  1.00  0.00    -0.744 OA
ENDBRANCH  87  90
ENDBRANCH  60  83
ENDBRANCH  34  35
ENDBRANCH  26  29
ENDBRANCH  24  25
ENDBRANCH   1  24
TORSDOF 17
ENDMDL
MODEL 2
REMARK VINA RESULT:     -11.2      1.771      2.262
REMARK SMILES CC[C@@](C)(NS(=O)(=O)c1ccc(F)c(Cl)c1)C(=O)NCCCNC(=O)c1ccc(-c2c3nc(c(-c4cccc(S(=O)(=O)[O-])c4F)c4ccc([nH]4)c(-c4cccc(S(=O)(=O)[O-])c4F)c4nc(c(-c5cccc(S(=O)(=O)[O-])c5F)c5ccc2[nH]5)C=C4)C=C3)cc1
REMARK SMILES IDX 21 1 20 2 19 3 17 4 18 5 3 7 4 8 2 9 1 10 5 11 6 13 7 14
REMARK SMILES IDX 8 15 9 16 10 17 16 18 11 19 14 20 12 21 15 22 13 23 22 24
REMARK SMILES IDX 23 25 24 26 25 28 26 29 27 30 88 31 28 32 87 33 29 34 30 35
REMARK SMILES IDX 31 36 81 37 32 38 86 39 80 40 82 41 33 42 85 43 79 44 78 45
REMARK SMILES IDX 34 47 66 48 46 49 65 50 47 51 50 52 64 53 83 54 48 55 49 56
REMARK SMILES IDX 63 58 84 59 51 60 35 61 36 62 44 63 37 64 39 65 45 66 38 67
REMARK SMILES IDX 40 68 41 69 42 70 43 71 67 72 68 73 76 74 69 75 71 76 77 77
REMARK SMILES IDX 70 78 72 79 73 80 74 81 75 82 52 83 53 84 61 85 54 86 56 87
REMARK SMILES IDX 62 88 55 89 57 90 58 91 59 92 60 93
REMARK H PARENT 19 6 5 12 23 27 82 46 50 57
REMARK Flexibility Score: inf
ROOT
ATOM      1  C   UNL A   1      37.917  19.777  24.967  1.00  0.00     0.042 C 
ENDROOT
BRANCH   1   2
ATOM      2  C   UNL A   1      36.563  20.536  24.998  1.00  0.00     0.117 C 
BRANCH   2   3
ATOM      3  N   UNL A   1      35.276  19.852  24.896  1.00  0.00    -0.354 N 
ATOM      4  C   UNL A   1      33.947  20.178  24.886  1.00  0.00     0.241 C 
ATOM      5  O   UNL A   1      33.219  19.240  24.521  1.00  0.00    -0.273 OA
ATOM      6  H   UNL A   1      35.400  18.880  24.810  1.00  0.00     0.163 HD
BRANCH   4   7
ATOM      7  C   UNL A   1      33.290  21.504  25.360  1.00  0.00     0.108 C 
ATOM      8  C   UNL A   1      31.765  21.492  25.222  1.00  0.00     0.040 C 
BRANCH   7   9
ATOM      9  C   UNL A   1      33.628  21.775  26.884  1.00  0.00     0.030 C 
ATOM     10  C   UNL A   1      32.885  22.875  27.625  1.00  0.00     0.006 C 
ENDBRANCH   7   9
BRANCH   7  11
ATOM     11  N   UNL A   1      33.837  22.737  24.749  1.00  0.00    -0.196 NA
ATOM     12  H   UNL A   1      34.788  22.791  25.113  1.00  0.00     0.142 HD
BRANCH  11  13
ATOM     13  S   UNL A   1      33.993  23.176  23.164  1.00  0.00     0.241 S 
ATOM     14  O   UNL A   1      35.402  23.112  22.833  1.00  0.00    -0.207 OA
ATOM     15  O   UNL A   1      33.036  22.348  22.479  1.00  0.00    -0.207 OA
BRANCH  13  16
ATOM     16  C   UNL A   1      33.450  24.862  22.985  1.00  0.00     0.084 A 
ATOM     17  C   UNL A   1      32.462  25.175  22.048  1.00  0.00     0.025 A 
ATOM     18  C   UNL A   1      33.822  25.833  23.915  1.00  0.00     0.045 A 
ATOM     19  C   UNL A   1      31.886  26.436  21.967  1.00  0.00     0.042 A 
ATOM     20  C   UNL A   1      33.222  27.100  23.860  1.00  0.00     0.078 A 
ATOM     21  C   UNL A   1      32.266  27.396  22.885  1.00  0.00     0.141 A 
ATOM     22  Cl  UNL A   1      33.646  28.287  25.030  1.00  0.00    -0.081 Cl
ATOM     23  F   UNL A   1      31.676  28.599  22.827  1.00  0.00    -0.205 F 
ENDBRANCH  13  16
ENDBRANCH  11  13
ENDBRANCH   7  11
ENDBRANCH   4   7
ENDBRANCH   2   3
ENDBRANCH   1   2
BRANCH   1  24
ATOM     24  C   UNL A   1      39.190  20.181  25.732  1.00  0.00     0.118 C 
BRANCH  24  25
ATOM     25  N   UNL A   1      40.229  19.174  25.831  1.00  0.00    -0.352 N 
ATOM     26  C   UNL A   1      41.576  19.385  26.064  1.00  0.00     0.251 C 
ATOM     27  H   UNL A   1      39.945  18.237  25.721  1.00  0.00     0.163 HD
ATOM     28  O   UNL A   1      42.362  18.443  26.007  1.00  0.00    -0.269 OA
BRANCH  26  29
ATOM     29  C   UNL A   1      42.090  20.745  26.366  1.00  0.00     0.039 A 
ATOM     30  C   UNL A   1      42.394  21.620  25.317  1.00  0.00     0.014 A 
ATOM     31  C   UNL A   1      42.366  21.128  27.682  1.00  0.00     0.014 A 
ATOM     32  C   UNL A   1      42.922  22.893  25.588  1.00  0.00     0.010 A 
ATOM     33  C   UNL A   1      42.879  22.406  27.952  1.00  0.00     0.010 A 
ATOM     34  C   UNL A   1      43.157  23.310  26.911  1.00  0.00    -0.014 A 
BRANCH  34  35
ATOM     35  C   UNL A   1      43.643  24.691  27.212  1.00  0.00     0.031 A 
ATOM     36  C   UNL A   1      42.709  25.757  27.729  1.00  0.00     0.074 A 
ATOM     37  C   UNL A   1      44.928  25.018  26.956  1.00  0.00     0.049 A 
ATOM     38  N   UNL A   1      42.960  27.013  28.009  1.00  0.00    -0.248 NA
ATOM     39  C   UNL A   1      41.309  25.364  27.951  1.00  0.00     0.031 C 
ATOM     40  C   UNL A   1      45.932  24.106  26.406  1.00  0.00     0.029 A 
ATOM     41  N   UNL A   1      45.601  26.209  27.092  1.00  0.00    -0.354 N 
ATOM     42  C   UNL A   1      41.751  27.569  28.412  1.00  0.00     0.074 A 
ATOM     43  C   UNL A   1      40.761  26.514  28.326  1.00  0.00     0.031 C 
ATOM     44  C   UNL A   1      47.086  24.772  26.240  1.00  0.00     0.029 A 
ATOM     45  C   UNL A   1      46.903  26.163  26.646  1.00  0.00     0.049 A 
ATOM     46  H   UNL A   1      45.191  27.019  27.473  1.00  0.00     0.167 HD
ATOM     47  C   UNL A   1      41.487  28.832  28.832  1.00  0.00     0.034 A 
ATOM     48  C   UNL A   1      47.844  27.127  26.559  1.00  0.00     0.034 A 
ATOM     49  C   UNL A   1      42.472  29.878  28.943  1.00  0.00     0.049 A 
ATOM     50  C   UNL A   1      47.529  28.519  27.045  1.00  0.00     0.074 A 
ATOM     51  C   UNL A   1      42.307  31.165  29.430  1.00  0.00     0.029 A 
ATOM     52  N   UNL A   1      43.796  29.768  28.552  1.00  0.00    -0.354 N 
ATOM     53  N   UNL A   1      46.421  28.977  27.571  1.00  0.00    -0.248 NA
ATOM     54  C   UNL A   1      48.607  29.518  26.958  1.00  0.00     0.031 C 
ATOM     55  C   UNL A   1      43.526  31.839  29.311  1.00  0.00     0.029 A 
ATOM     56  C   UNL A   1      44.458  30.965  28.777  1.00  0.00     0.049 A 
ATOM     57  H   UNL A   1      44.208  28.959  28.172  1.00  0.00     0.167 HD
ATOM     58  C   UNL A   1      46.678  30.299  27.917  1.00  0.00     0.074 A 
ATOM     59  C   UNL A   1      48.054  30.567  27.552  1.00  0.00     0.031 C 
ATOM     60  C   UNL A   1      45.846  31.210  28.477  1.00  0.00     0.034 A 
BRANCH  47  61
ATOM     61  C   UNL A   1      40.075  29.155  29.256  1.00  0.00     0.023 A 
ATOM     62  C   UNL A   1      39.090  29.375  28.272  1.00  0.00     0.012 A 
ATOM     63  C   UNL A   1      39.704  29.159  30.617  1.00  0.00     0.148 A 
ATOM     64  C   UNL A   1      37.767  29.631  28.634  1.00  0.00     0.002 A 
ATOM     65  C   UNL A   1      38.376  29.375  30.968  1.00  0.00     0.091 A 
ATOM     66  F   UNL A   1      40.654  28.957  31.540  1.00  0.00    -0.205 F 
ATOM     67  C   UNL A   1      37.409  29.621  29.979  1.00  0.00     0.022 A 
BRANCH  65  68
ATOM     68  S   UNL A   1      37.796  29.302  32.668  1.00  0.00     0.127 S 
ATOM     69  O   UNL A   1      36.518  30.007  32.574  1.00  0.00    -0.237 OA
ATOM     70  O   UNL A   1      37.681  27.860  32.894  1.00  0.00    -0.237 OA
ATOM     71  O   UNL A   1      38.819  29.959  33.468  1.00  0.00    -0.744 OA
ENDBRANCH  65  68
ENDBRANCH  47  61
BRANCH  48  72
ATOM     72  C   UNL A   1      49.204  26.796  26.044  1.00  0.00     0.023 A 
ATOM     73  C   UNL A   1      50.084  26.045  26.849  1.00  0.00     0.012 A 
ATOM     74  C   UNL A   1      49.622  27.198  24.760  1.00  0.00     0.148 A 
ATOM     75  C   UNL A   1      51.366  25.728  26.398  1.00  0.00     0.002 A 
ATOM     76  C   UNL A   1      50.880  26.830  24.295  1.00  0.00     0.091 A 
ATOM     77  F   UNL A   1      48.777  27.924  24.016  1.00  0.00    -0.205 F 
ATOM     78  C   UNL A   1      51.760  26.110  25.117  1.00  0.00     0.022 A 
BRANCH  76  79
ATOM     79  S   UNL A   1      51.425  27.168  22.617  1.00  0.00     0.127 S 
ATOM     80  O   UNL A   1      51.583  28.620  22.640  1.00  0.00    -0.237 OA
ATOM     81  O   UNL A   1      52.678  26.414  22.550  1.00  0.00    -0.237 OA
ATOM     82  O   UNL A   1      50.372  26.658  21.752  1.00  0.00    -0.744 OA
ENDBRANCH  76  79
ENDBRANCH  48  72
BRANCH  60  83
ATOM     83  C   UNL A   1      46.393  32.578  28.791  1.00  0.00     0.023 A 
ATOM     84  C   UNL A   1      47.087  32.800  29.997  1.00  0.00     0.012 A 
ATOM     85  C   UNL A   1      46.309  33.618  27.842  1.00  0.00     0.148 A 
ATOM     86  C   UNL A   1      47.671  34.039  30.262  1.00  0.00     0.002 A 
ATOM     87  C   UNL A   1      46.932  34.835  28.093  1.00  0.00     0.091 A 
ATOM     88  F   UNL A   1      45.628  33.394  26.709  1.00  0.00    -0.205 F 
ATOM     89  C   UNL A   1      47.606  35.050  29.307  1.00  0.00     0.022 A 
BRANCH  87  90
ATOM     90  S   UNL A   1      46.984  36.163  26.883  1.00  0.00     0.127 S 
ATOM     91  O   UNL A   1      45.570  36.515  26.767  1.00  0.00    -0.237 OA
ATOM     92  O   UNL A   1      47.809  37.165  27.558  1.00  0.00    -0.237 OA
ATOM     93  O   UNL A   1      47.584  35.592  25.685  1.00  0.00    -0.744 OA
ENDBRANCH  87  90
ENDBRANCH  60  83
ENDBRANCH  34  35
ENDBRANCH  26  29
ENDBRANCH  24  25
ENDBRANCH   1  24
TORSDOF 17
ENDMDL
MODEL 3
REMARK VINA RESULT:     -11.2      6.609     11.638
REMARK SMILES CC[C@@](C)(NS(=O)(=O)c1ccc(F)c(Cl)c1)C(=O)NCCCNC(=O)c1ccc(-c2c3nc(c(-c4cccc(S(=O)(=O)[O-])c4F)c4ccc([nH]4)c(-c4cccc(S(=O)(=O)[O-])c4F)c4nc(c(-c5cccc(S(=O)(=O)[O-])c5F)c5ccc2[nH]5)C=C4)C=C3)cc1
REMARK SMILES IDX 21 1 20 2 19 3 17 4 18 5 3 7 4 8 2 9 1 10 5 11 6 13 7 14
REMARK SMILES IDX 8 15 9 16 10 17 16 18 11 19 14 20 12 21 15 22 13 23 22 24
REMARK SMILES IDX 23 25 24 26 25 28 26 29 27 30 88 31 28 32 87 33 29 34 30 35
REMARK SMILES IDX 31 36 81 37 32 38 86 39 80 40 82 41 33 42 85 43 79 44 78 45
REMARK SMILES IDX 34 47 66 48 46 49 65 50 47 51 50 52 64 53 83 54 48 55 49 56
REMARK SMILES IDX 63 58 84 59 51 60 35 61 36 62 44 63 37 64 39 65 45 66 38 67
REMARK SMILES IDX 40 68 41 69 42 70 43 71 67 72 68 73 76 74 69 75 71 76 77 77
REMARK SMILES IDX 70 78 72 79 73 80 74 81 75 82 52 83 53 84 61 85 54 86 56 87
REMARK SMILES IDX 62 88 55 89 57 90 58 91 59 92 60 93
REMARK H PARENT 19 6 5 12 23 27 82 46 50 57
REMARK Flexibility Score: inf
ROOT
ATOM      1  C   UNL A   1      31.476  32.112  26.434  1.00  0.00     0.042 C 
ENDROOT
BRANCH   1   2
ATOM      2  C   UNL A   1      31.388  30.625  25.996  1.00  0.00     0.117 C 
BRANCH   2   3
ATOM      3  N   UNL A   1      32.196  30.077  24.909  1.00  0.00    -0.354 N 
ATOM      4  C   UNL A   1      32.181  28.993  24.074  1.00  0.00     0.241 C 
ATOM      5  O   UNL A   1      32.976  29.098  23.125  1.00  0.00    -0.273 OA
ATOM      6  H   UNL A   1      32.974  30.652  24.725  1.00  0.00     0.163 HD
BRANCH   4   7
ATOM      7  C   UNL A   1      31.384  27.671  24.248  1.00  0.00     0.108 C 
ATOM      8  C   UNL A   1      31.284  27.225  25.709  1.00  0.00     0.040 C 
BRANCH   7   9
ATOM      9  C   UNL A   1      29.907  27.840  23.699  1.00  0.00     0.030 C 
ATOM     10  C   UNL A   1      29.594  28.990  22.754  1.00  0.00     0.006 C 
ENDBRANCH   7   9
BRANCH   7  11
ATOM     11  N   UNL A   1      31.843  26.539  23.411  1.00  0.00    -0.196 NA
ATOM     12  H   UNL A   1      31.699  26.864  22.455  1.00  0.00     0.142 HD
BRANCH  11  13
ATOM     13  S   UNL A   1      33.302  25.766  23.352  1.00  0.00     0.241 S 
ATOM     14  O   UNL A   1      33.799  25.881  21.996  1.00  0.00    -0.207 OA
ATOM     15  O   UNL A   1      34.036  26.324  24.456  1.00  0.00    -0.207 OA
BRANCH  13  16
ATOM     16  C   UNL A   1      33.047  24.041  23.712  1.00  0.00     0.084 A 
ATOM     17  C   UNL A   1      32.539  23.195  22.723  1.00  0.00     0.025 A 
ATOM     18  C   UNL A   1      33.559  23.473  24.879  1.00  0.00     0.045 A 
ATOM     19  C   UNL A   1      32.464  21.818  22.888  1.00  0.00     0.042 A 
ATOM     20  C   UNL A   1      33.515  22.081  25.040  1.00  0.00     0.078 A 
ATOM     21  C   UNL A   1      32.962  21.264  24.050  1.00  0.00     0.141 A 
ATOM     22  Cl  UNL A   1      34.183  21.373  26.458  1.00  0.00    -0.081 Cl
ATOM     23  F   UNL A   1      32.924  19.930  24.185  1.00  0.00    -0.205 F 
ENDBRANCH  13  16
ENDBRANCH  11  13
ENDBRANCH   7  11
ENDBRANCH   4   7
ENDBRANCH   2   3
ENDBRANCH   1   2
BRANCH   1  24
ATOM     24  C   UNL A   1      32.630  32.746  27.232  1.00  0.00     0.118 C 
BRANCH  24  25
ATOM     25  N   UNL A   1      32.436  34.117  27.665  1.00  0.00    -0.352 N 
ATOM     26  C   UNL A   1      33.125  34.780  28.664  1.00  0.00     0.251 C 
ATOM     27  H   UNL A   1      31.740  34.631  27.196  1.00  0.00     0.163 HD
ATOM     28  O   UNL A   1      32.775  35.908  29.003  1.00  0.00    -0.269 OA
BRANCH  26  29
ATOM     29  C   UNL A   1      34.277  34.138  29.348  1.00  0.00     0.039 A 
ATOM     30  C   UNL A   1      35.581  34.458  28.956  1.00  0.00     0.014 A 
ATOM     31  C   UNL A   1      34.072  33.148  30.313  1.00  0.00     0.014 A 
ATOM     32  C   UNL A   1      36.678  33.825  29.565  1.00  0.00     0.010 A 
ATOM     33  C   UNL A   1      35.169  32.528  30.931  1.00  0.00     0.010 A 
ATOM     34  C   UNL A   1      36.487  32.863  30.572  1.00  0.00    -0.014 A 
BRANCH  34  35
ATOM     35  C   UNL A   1      37.648  32.244  31.282  1.00  0.00     0.031 A 
ATOM     36  C   UNL A   1      38.409  31.086  30.684  1.00  0.00     0.074 A 
ATOM     37  C   UNL A   1      37.987  32.681  32.514  1.00  0.00     0.049 A 
ATOM     38  N   UNL A   1      39.417  30.413  31.182  1.00  0.00    -0.248 NA
ATOM     39  C   UNL A   1      37.974  30.618  29.360  1.00  0.00     0.031 C 
ATOM     40  C   UNL A   1      37.310  33.756  33.239  1.00  0.00     0.029 A 
ATOM     41  N   UNL A   1      38.963  32.257  33.386  1.00  0.00    -0.354 N 
ATOM     42  C   UNL A   1      39.721  29.426  30.251  1.00  0.00     0.074 A 
ATOM     43  C   UNL A   1      38.778  29.579  29.162  1.00  0.00     0.031 C 
ATOM     44  C   UNL A   1      37.879  33.899  34.446  1.00  0.00     0.029 A 
ATOM     45  C   UNL A   1      38.945  32.912  34.597  1.00  0.00     0.049 A 
ATOM     46  H   UNL A   1      39.612  31.551  33.165  1.00  0.00     0.167 HD
ATOM     47  C   UNL A   1      40.702  28.489  30.285  1.00  0.00     0.034 A 
ATOM     48  C   UNL A   1      39.689  32.737  35.709  1.00  0.00     0.034 A 
ATOM     49  C   UNL A   1      41.658  28.347  31.354  1.00  0.00     0.049 A 
ATOM     50  C   UNL A   1      40.782  31.698  35.717  1.00  0.00     0.074 A 
ATOM     51  C   UNL A   1      42.731  27.475  31.436  1.00  0.00     0.029 A 
ATOM     52  N   UNL A   1      41.653  29.081  32.529  1.00  0.00    -0.354 N 
ATOM     53  N   UNL A   1      41.151  30.884  34.759  1.00  0.00    -0.248 NA
ATOM     54  C   UNL A   1      41.584  31.579  36.945  1.00  0.00     0.031 C 
ATOM     55  C   UNL A   1      43.359  27.665  32.671  1.00  0.00     0.029 A 
ATOM     56  C   UNL A   1      42.696  28.676  33.346  1.00  0.00     0.049 A 
ATOM     57  H   UNL A   1      41.004  29.787  32.751  1.00  0.00     0.167 HD
ATOM     58  C   UNL A   1      42.251  30.189  35.251  1.00  0.00     0.074 A 
ATOM     59  C   UNL A   1      42.497  30.685  36.589  1.00  0.00     0.031 C 
ATOM     60  C   UNL A   1      42.982  29.219  34.649  1.00  0.00     0.034 A 
BRANCH  47  61
ATOM     61  C   UNL A   1      40.833  27.559  29.104  1.00  0.00     0.023 A 
ATOM     62  C   UNL A   1      40.001  26.424  29.021  1.00  0.00     0.012 A 
ATOM     63  C   UNL A   1      41.713  27.849  28.041  1.00  0.00     0.148 A 
ATOM     64  C   UNL A   1      40.068  25.571  27.920  1.00  0.00     0.002 A 
ATOM     65  C   UNL A   1      41.745  27.016  26.927  1.00  0.00     0.091 A 
ATOM     66  F   UNL A   1      42.503  28.927  28.138  1.00  0.00    -0.205 F 
ATOM     67  C   UNL A   1      40.932  25.872  26.870  1.00  0.00     0.022 A 
BRANCH  65  68
ATOM     68  S   UNL A   1      42.763  27.360  25.486  1.00  0.00     0.127 S 
ATOM     69  O   UNL A   1      42.142  28.580  24.971  1.00  0.00    -0.237 OA
ATOM     70  O   UNL A   1      44.086  27.555  26.081  1.00  0.00    -0.237 OA
ATOM     71  O   UNL A   1      42.652  26.189  24.628  1.00  0.00    -0.744 OA
ENDBRANCH  65  68
ENDBRANCH  47  61
BRANCH  48  72
ATOM     72  C   UNL A   1      39.470  33.611  36.897  1.00  0.00     0.023 A 
ATOM     73  C   UNL A   1      39.906  34.950  36.860  1.00  0.00     0.012 A 
ATOM     74  C   UNL A   1      38.816  33.134  38.050  1.00  0.00     0.148 A 
ATOM     75  C   UNL A   1      39.723  35.790  37.960  1.00  0.00     0.002 A 
ATOM     76  C   UNL A   1      38.586  33.992  39.121  1.00  0.00     0.091 A 
ATOM     77  F   UNL A   1      38.422  31.853  38.073  1.00  0.00    -0.205 F 
ATOM     78  C   UNL A   1      39.054  35.315  39.085  1.00  0.00     0.022 A 
BRANCH  76  79
ATOM     79  S   UNL A   1      37.624  33.506  40.558  1.00  0.00     0.127 S 
ATOM     80  O   UNL A   1      38.459  32.456  41.136  1.00  0.00    -0.237 OA
ATOM     81  O   UNL A   1      37.581  34.752  41.326  1.00  0.00    -0.237 OA
ATOM     82  O   UNL A   1      36.334  33.077  40.039  1.00  0.00    -0.744 OA
ENDBRANCH  76  79
ENDBRANCH  48  72
BRANCH  60  83
ATOM     83  C   UNL A   1      44.163  28.651  35.395  1.00  0.00     0.023 A 
ATOM     84  C   UNL A   1      45.445  29.203  35.210  1.00  0.00     0.012 A 
ATOM     85  C   UNL A   1      43.981  27.635  36.356  1.00  0.00     0.148 A 
ATOM     86  C   UNL A   1      46.530  28.742  35.956  1.00  0.00     0.002 A 
ATOM     87  C   UNL A   1      45.057  27.213  37.128  1.00  0.00     0.091 A 
ATOM     88  F   UNL A   1      42.757  27.108  36.504  1.00  0.00    -0.205 F 
ATOM     89  C   UNL A   1      46.335  27.759  36.922  1.00  0.00     0.022 A 
BRANCH  87  90
ATOM     90  S   UNL A   1      44.883  26.021  38.461  1.00  0.00     0.127 S 
ATOM     91  O   UNL A   1      43.880  26.665  39.307  1.00  0.00    -0.237 OA
ATOM     92  O   UNL A   1      44.410  24.831  37.754  1.00  0.00    -0.237 OA
ATOM     93  O   UNL A   1      46.205  25.886  39.057  1.00  0.00    -0.744 OA
ENDBRANCH  87  90
ENDBRANCH  60  83
ENDBRANCH  34  35
ENDBRANCH  26  29
ENDBRANCH  24  25
ENDBRANCH   1  24
TORSDOF 17
ENDMDL
