MODEL 1
REMARK VINA RESULT:     -12.4      0.000      0.000
REMARK SMILES O=C(NCCCNC(=O)[C@H]1[C@H]2CC[C@H](C2)[C@H]1NC(=O)c1ccncc1Cl)c1ccc(-c2c3nc(c(-c4cccc(S(=O)(=O)[O-])c4F)c4ccc([nH]4)c(-c4cccc(S(=O)(=O)[O-])c4F)c4nc(c(-c5cccc(S(=O)(=O)[O-])c5F)c5ccc2[nH]5)C=C4)C=C3)cc1
REMARK SMILES IDX 4 1 3 2 1 3 2 4 27 6 28 7 89 8 29 9 88 10 30 11 31 12 32 13
REMARK SMILES IDX 82 14 33 15 87 16 81 17 83 18 34 19 86 20 80 21 79 22 35 24
REMARK SMILES IDX 67 25 47 26 66 27 48 28 51 29 65 30 84 31 49 32 50 33 64 35
REMARK SMILES IDX 85 36 52 37 36 38 37 39 45 40 38 41 40 42 46 43 39 44 41 45
REMARK SMILES IDX 42 46 43 47 44 48 68 49 69 50 77 51 70 52 72 53 78 54 71 55
REMARK SMILES IDX 73 56 74 57 75 58 76 59 53 60 54 61 62 62 55 63 57 64 63 65
REMARK SMILES IDX 56 66 58 67 59 68 60 69 61 70 5 71 6 72 7 73 8 74 9 76 10 77
REMARK SMILES IDX 11 78 16 79 12 80 15 81 14 82 13 83 17 84 18 85 19 87 20 88
REMARK SMILES IDX 21 89 25 90 22 91 24 92 26 93 23 94
REMARK H PARENT 3 5 83 23 51 34 7 75 17 86
REMARK Flexibility Score: inf
ROOT
ATOM      1  C   UNL A   1      36.510  23.533  25.883  1.00  0.00     0.118 C 
ENDROOT
BRANCH   1   2
ATOM      2  N   UNL A   1      37.547  22.540  26.132  1.00  0.00    -0.352 N 
ATOM      3  O   UNL A   1      39.636  21.740  26.367  1.00  0.00    -0.269 OA
ATOM      4  C   UNL A   1      38.872  22.701  26.459  1.00  0.00     0.251 C 
ATOM      5  H   UNL A   1      37.253  21.603  26.053  1.00  0.00     0.163 HD
BRANCH   4   6
ATOM      6  C   UNL A   1      39.380  24.020  26.892  1.00  0.00     0.039 A 
ATOM      7  C   UNL A   1      39.308  24.404  28.232  1.00  0.00     0.014 A 
ATOM      8  C   UNL A   1      39.962  24.876  25.953  1.00  0.00     0.014 A 
ATOM      9  C   UNL A   1      39.643  25.699  28.603  1.00  0.00     0.010 A 
ATOM     10  C   UNL A   1      40.407  26.139  26.351  1.00  0.00     0.010 A 
ATOM     11  C   UNL A   1      40.216  26.575  27.672  1.00  0.00    -0.014 A 
BRANCH  11  12
ATOM     12  C   UNL A   1      40.674  27.916  28.114  1.00  0.00     0.031 A 
ATOM     13  C   UNL A   1      42.133  28.275  28.113  1.00  0.00     0.074 A 
ATOM     14  C   UNL A   1      39.755  28.805  28.539  1.00  0.00     0.049 A 
ATOM     15  N   UNL A   1      42.707  29.379  28.515  1.00  0.00    -0.248 NA
ATOM     16  C   UNL A   1      43.072  27.263  27.606  1.00  0.00     0.031 C 
ATOM     17  C   UNL A   1      38.313  28.554  28.612  1.00  0.00     0.029 A 
ATOM     18  N   UNL A   1      39.890  30.088  29.001  1.00  0.00    -0.354 N 
ATOM     19  C   UNL A   1      44.074  29.178  28.361  1.00  0.00     0.074 A 
ATOM     20  C   UNL A   1      44.244  27.843  27.829  1.00  0.00     0.031 C 
ATOM     21  C   UNL A   1      37.697  29.648  29.078  1.00  0.00     0.029 A 
ATOM     22  C   UNL A   1      38.702  30.653  29.399  1.00  0.00     0.049 A 
ATOM     23  H   UNL A   1      40.754  30.558  29.044  1.00  0.00     0.167 HD
ATOM     24  C   UNL A   1      45.090  30.032  28.630  1.00  0.00     0.034 A 
ATOM     25  C   UNL A   1      38.446  31.836  29.989  1.00  0.00     0.034 A 
ATOM     26  C   UNL A   1      44.904  31.370  29.127  1.00  0.00     0.049 A 
ATOM     27  C   UNL A   1      39.589  32.770  30.260  1.00  0.00     0.074 A 
ATOM     28  C   UNL A   1      45.863  32.337  29.372  1.00  0.00     0.029 A 
ATOM     29  N   UNL A   1      43.680  31.929  29.462  1.00  0.00    -0.354 N 
ATOM     30  N   UNL A   1      40.863  32.604  30.005  1.00  0.00    -0.248 NA
ATOM     31  C   UNL A   1      39.259  34.062  30.874  1.00  0.00     0.031 C 
ATOM     32  C   UNL A   1      45.220  33.472  29.878  1.00  0.00     0.029 A 
ATOM     33  C   UNL A   1      43.857  33.223  29.920  1.00  0.00     0.049 A 
ATOM     34  H   UNL A   1      42.811  31.472  29.385  1.00  0.00     0.167 HD
ATOM     35  C   UNL A   1      41.486  33.781  30.396  1.00  0.00     0.074 A 
ATOM     36  C   UNL A   1      40.443  34.659  30.892  1.00  0.00     0.031 C 
ATOM     37  C   UNL A   1      42.802  34.102  30.360  1.00  0.00     0.034 A 
BRANCH  24  38
ATOM     38  C   UNL A   1      46.496  29.554  28.372  1.00  0.00     0.023 A 
ATOM     39  C   UNL A   1      47.117  29.842  27.140  1.00  0.00     0.012 A 
ATOM     40  C   UNL A   1      47.218  28.861  29.362  1.00  0.00     0.148 A 
ATOM     41  C   UNL A   1      48.421  29.417  26.883  1.00  0.00     0.002 A 
ATOM     42  C   UNL A   1      48.532  28.477  29.116  1.00  0.00     0.091 A 
ATOM     43  F   UNL A   1      46.607  28.574  30.520  1.00  0.00    -0.205 F 
ATOM     44  C   UNL A   1      49.130  28.743  27.874  1.00  0.00     0.022 A 
BRANCH  42  45
ATOM     45  S   UNL A   1      49.550  27.673  30.360  1.00  0.00     0.127 S 
ATOM     46  O   UNL A   1      50.626  27.114  29.544  1.00  0.00    -0.237 OA
ATOM     47  O   UNL A   1      49.950  28.797  31.208  1.00  0.00    -0.237 OA
ATOM     48  O   UNL A   1      48.684  26.702  31.014  1.00  0.00    -0.744 OA
ENDBRANCH  42  45
ENDBRANCH  24  38
BRANCH  25  49
ATOM     49  C   UNL A   1      37.041  32.195  30.322  1.00  0.00     0.023 A 
ATOM     50  C   UNL A   1      36.556  31.968  31.624  1.00  0.00     0.012 A 
ATOM     51  C   UNL A   1      36.212  32.837  29.381  1.00  0.00     0.148 A 
ATOM     52  C   UNL A   1      35.265  32.359  31.979  1.00  0.00     0.002 A 
ATOM     53  C   UNL A   1      34.949  33.276  29.757  1.00  0.00     0.091 A 
ATOM     54  F   UNL A   1      36.691  33.036  28.145  1.00  0.00    -0.205 F 
ATOM     55  C   UNL A   1      34.468  33.025  31.052  1.00  0.00     0.022 A 
BRANCH  53  56
ATOM     56  S   UNL A   1      33.912  34.269  28.677  1.00  0.00     0.127 S 
ATOM     57  O   UNL A   1      33.462  33.279  27.704  1.00  0.00    -0.237 OA
ATOM     58  O   UNL A   1      32.880  34.740  29.601  1.00  0.00    -0.237 OA
ATOM     59  O   UNL A   1      34.777  35.320  28.157  1.00  0.00    -0.744 OA
ENDBRANCH  53  56
ENDBRANCH  25  49
BRANCH  37  60
ATOM     60  C   UNL A   1      43.196  35.477  30.826  1.00  0.00     0.023 A 
ATOM     61  C   UNL A   1      43.540  35.690  32.175  1.00  0.00     0.012 A 
ATOM     62  C   UNL A   1      43.308  36.537  29.905  1.00  0.00     0.148 A 
ATOM     63  C   UNL A   1      43.966  36.946  32.606  1.00  0.00     0.002 A 
ATOM     64  C   UNL A   1      43.779  37.772  30.332  1.00  0.00     0.091 A 
ATOM     65  F   UNL A   1      42.954  36.317  28.631  1.00  0.00    -0.205 F 
ATOM     66  C   UNL A   1      44.098  37.982  31.683  1.00  0.00     0.022 A 
BRANCH  64  67
ATOM     67  S   UNL A   1      44.074  39.133  29.196  1.00  0.00     0.127 S 
ATOM     68  O   UNL A   1      42.722  39.423  28.723  1.00  0.00    -0.237 OA
ATOM     69  O   UNL A   1      44.643  40.154  30.078  1.00  0.00    -0.237 OA
ATOM     70  O   UNL A   1      44.993  38.623  28.188  1.00  0.00    -0.744 OA
ENDBRANCH  64  67
ENDBRANCH  37  60
ENDBRANCH  11  12
ENDBRANCH   4   6
ENDBRANCH   1   2
BRANCH   1  71
ATOM     71  C   UNL A   1      35.110  22.952  26.028  1.00  0.00     0.042 C 
BRANCH  71  72
ATOM     72  C   UNL A   1      34.033  24.018  26.114  1.00  0.00     0.117 C 
BRANCH  72  73
ATOM     73  N   UNL A   1      34.201  25.046  25.103  1.00  0.00    -0.356 N 
ATOM     74  C   UNL A   1      33.683  26.279  24.918  1.00  0.00     0.225 C 
ATOM     75  H   UNL A   1      34.833  24.786  24.394  1.00  0.00     0.163 HD
ATOM     76  O   UNL A   1      34.029  26.838  23.868  1.00  0.00    -0.275 OA
BRANCH  74  77
ATOM     77  C   UNL A   1      32.650  26.949  25.824  1.00  0.00     0.104 C 
ATOM     78  C   UNL A   1      33.068  27.842  27.010  1.00  0.00     0.004 C 
ATOM     79  C   UNL A   1      31.634  27.886  25.061  1.00  0.00     0.098 C 
ATOM     80  C   UNL A   1      33.996  28.972  26.545  1.00  0.00     0.005 C 
ATOM     81  C   UNL A   1      31.780  28.616  27.307  1.00  0.00     0.010 C 
ATOM     82  C   UNL A   1      31.689  29.193  25.893  1.00  0.00     0.013 C 
ATOM     83  C   UNL A   1      33.044  29.906  25.805  1.00  0.00     0.006 C 
BRANCH  79  84
ATOM     84  N   UNL A   1      31.786  27.956  23.609  1.00  0.00    -0.348 N 
ATOM     85  C   UNL A   1      30.843  27.805  22.629  1.00  0.00     0.253 C 
ATOM     86  H   UNL A   1      32.700  28.139  23.291  1.00  0.00     0.164 HD
ATOM     87  O   UNL A   1      31.029  27.087  21.646  1.00  0.00    -0.269 OA
BRANCH  85  88
ATOM     88  C   UNL A   1      29.613  28.589  22.695  1.00  0.00     0.061 A 
ATOM     89  C   UNL A   1      29.655  29.938  22.343  1.00  0.00     0.035 A 
ATOM     90  C   UNL A   1      28.437  28.017  23.175  1.00  0.00     0.072 A 
ATOM     91  C   UNL A   1      28.467  30.643  22.379  1.00  0.00     0.112 A 
ATOM     92  C   UNL A   1      27.296  28.799  23.127  1.00  0.00     0.132 A 
ATOM     93  Cl  UNL A   1      28.349  26.441  23.869  1.00  0.00    -0.082 Cl
ATOM     94  N   UNL A   1      27.281  30.094  22.726  1.00  0.00    -0.263 NA
ENDBRANCH  85  88
ENDBRANCH  79  84
ENDBRANCH  74  77
ENDBRANCH  72  73
ENDBRANCH  71  72
ENDBRANCH   1  71
TORSDOF 15
ENDMDL
MODEL 2
REMARK VINA RESULT:     -12.4      4.691      9.825
REMARK SMILES O=C(NCCCNC(=O)[C@H]1[C@H]2CC[C@H](C2)[C@H]1NC(=O)c1ccncc1Cl)c1ccc(-c2c3nc(c(-c4cccc(S(=O)(=O)[O-])c4F)c4ccc([nH]4)c(-c4cccc(S(=O)(=O)[O-])c4F)c4nc(c(-c5cccc(S(=O)(=O)[O-])c5F)c5ccc2[nH]5)C=C4)C=C3)cc1
REMARK SMILES IDX 4 1 3 2 1 3 2 4 27 6 28 7 89 8 29 9 88 10 30 11 31 12 32 13
REMARK SMILES IDX 82 14 33 15 87 16 81 17 83 18 34 19 86 20 80 21 79 22 35 24
REMARK SMILES IDX 67 25 47 26 66 27 48 28 51 29 65 30 84 31 49 32 50 33 64 35
REMARK SMILES IDX 85 36 52 37 36 38 37 39 45 40 38 41 40 42 46 43 39 44 41 45
REMARK SMILES IDX 42 46 43 47 44 48 68 49 69 50 77 51 70 52 72 53 78 54 71 55
REMARK SMILES IDX 73 56 74 57 75 58 76 59 53 60 54 61 62 62 55 63 57 64 63 65
REMARK SMILES IDX 56 66 58 67 59 68 60 69 61 70 5 71 6 72 7 73 8 74 9 76 10 77
REMARK SMILES IDX 11 78 16 79 12 80 15 81 14 82 13 83 17 84 18 85 19 87 20 88
REMARK SMILES IDX 21 89 25 90 22 91 24 92 26 93 23 94
REMARK H PARENT 3 5 83 23 51 34 7 75 17 86
REMARK Flexibility Score: inf
ROOT
ATOM      1  C   UNL A   1      33.672  28.293  26.612  1.00  0.00     0.118 C 
ENDROOT
BRANCH   1   2
ATOM      2  N   UNL A   1      33.611  29.720  26.904  1.00  0.00    -0.352 N 
ATOM      3  O   UNL A   1      34.063  31.632  27.996  1.00  0.00    -0.269 OA
ATOM      4  C   UNL A   1      34.439  30.508  27.665  1.00  0.00     0.251 C 
ATOM      5  H   UNL A   1      32.855  30.196  26.488  1.00  0.00     0.163 HD
BRANCH   4   6
ATOM      6  C   UNL A   1      35.756  30.002  28.105  1.00  0.00     0.039 A 
ATOM      7  C   UNL A   1      35.906  29.401  29.356  1.00  0.00     0.014 A 
ATOM      8  C   UNL A   1      36.855  30.103  27.246  1.00  0.00     0.014 A 
ATOM      9  C   UNL A   1      37.171  29.072  29.823  1.00  0.00     0.010 A 
ATOM     10  C   UNL A   1      38.110  29.663  27.673  1.00  0.00     0.010 A 
ATOM     11  C   UNL A   1      38.285  29.179  28.979  1.00  0.00    -0.014 A 
BRANCH  11  12
ATOM     12  C   UNL A   1      39.612  28.714  29.456  1.00  0.00     0.031 A 
ATOM     13  C   UNL A   1      40.330  29.430  30.565  1.00  0.00     0.074 A 
ATOM     14  C   UNL A   1      40.174  27.645  28.860  1.00  0.00     0.049 A 
ATOM     15  N   UNL A   1      41.513  29.190  31.066  1.00  0.00    -0.248 NA
ATOM     16  C   UNL A   1      39.637  30.569  31.186  1.00  0.00     0.031 C 
ATOM     17  C   UNL A   1      39.581  26.890  27.752  1.00  0.00     0.029 A 
ATOM     18  N   UNL A   1      41.370  27.014  29.086  1.00  0.00    -0.354 N 
ATOM     19  C   UNL A   1      41.732  30.175  32.021  1.00  0.00     0.074 A 
ATOM     20  C   UNL A   1      40.557  31.019  32.030  1.00  0.00     0.031 C 
ATOM     21  C   UNL A   1      40.407  25.894  27.404  1.00  0.00     0.029 A 
ATOM     22  C   UNL A   1      41.614  25.978  28.216  1.00  0.00     0.049 A 
ATOM     23  H   UNL A   1      41.993  27.277  29.802  1.00  0.00     0.167 HD
ATOM     24  C   UNL A   1      42.809  30.351  32.823  1.00  0.00     0.034 A 
ATOM     25  C   UNL A   1      42.702  25.200  28.060  1.00  0.00     0.034 A 
ATOM     26  C   UNL A   1      43.958  29.484  32.829  1.00  0.00     0.049 A 
ATOM     27  C   UNL A   1      43.874  25.406  28.973  1.00  0.00     0.074 A 
ATOM     28  C   UNL A   1      45.073  29.538  33.646  1.00  0.00     0.029 A 
ATOM     29  N   UNL A   1      44.143  28.408  31.973  1.00  0.00    -0.354 N 
ATOM     30  N   UNL A   1      44.016  26.274  29.944  1.00  0.00    -0.248 NA
ATOM     31  C   UNL A   1      45.024  24.512  28.789  1.00  0.00     0.031 C 
ATOM     32  C   UNL A   1      45.943  28.510  33.267  1.00  0.00     0.029 A 
ATOM     33  C   UNL A   1      45.356  27.796  32.234  1.00  0.00     0.049 A 
ATOM     34  H   UNL A   1      43.504  28.121  31.280  1.00  0.00     0.167 HD
ATOM     35  C   UNL A   1      45.256  26.012  30.510  1.00  0.00     0.074 A 
ATOM     36  C   UNL A   1      45.819  24.893  29.781  1.00  0.00     0.031 C 
ATOM     37  C   UNL A   1      45.878  26.649  31.533  1.00  0.00     0.034 A 
BRANCH  24  38
ATOM     38  C   UNL A   1      42.789  31.517  33.779  1.00  0.00     0.023 A 
ATOM     39  C   UNL A   1      43.257  32.777  33.356  1.00  0.00     0.012 A 
ATOM     40  C   UNL A   1      42.265  31.378  35.079  1.00  0.00     0.148 A 
ATOM     41  C   UNL A   1      43.238  33.871  34.221  1.00  0.00     0.002 A 
ATOM     42  C   UNL A   1      42.211  32.482  35.923  1.00  0.00     0.091 A 
ATOM     43  F   UNL A   1      41.845  30.168  35.476  1.00  0.00    -0.205 F 
ATOM     44  C   UNL A   1      42.707  33.725  35.500  1.00  0.00     0.022 A 
BRANCH  42  45
ATOM     45  S   UNL A   1      41.473  32.408  37.560  1.00  0.00     0.127 S 
ATOM     46  O   UNL A   1      41.570  33.802  37.989  1.00  0.00    -0.237 OA
ATOM     47  O   UNL A   1      40.113  31.953  37.268  1.00  0.00    -0.237 OA
ATOM     48  O   UNL A   1      42.279  31.458  38.315  1.00  0.00    -0.744 OA
ENDBRANCH  42  45
ENDBRANCH  24  38
BRANCH  25  49
ATOM     49  C   UNL A   1      42.696  24.140  27.015  1.00  0.00     0.023 A 
ATOM     50  C   UNL A   1      43.424  24.334  25.826  1.00  0.00     0.012 A 
ATOM     51  C   UNL A   1      42.041  22.911  27.230  1.00  0.00     0.148 A 
ATOM     52  C   UNL A   1      43.490  23.327  24.863  1.00  0.00     0.002 A 
ATOM     53  C   UNL A   1      42.159  21.892  26.293  1.00  0.00     0.091 A 
ATOM     54  F   UNL A   1      41.347  22.752  28.366  1.00  0.00    -0.205 F 
ATOM     55  C   UNL A   1      42.870  22.103  25.102  1.00  0.00     0.022 A 
BRANCH  53  56
ATOM     56  S   UNL A   1      41.519  20.238  26.582  1.00  0.00     0.127 S 
ATOM     57  O   UNL A   1      40.083  20.485  26.663  1.00  0.00    -0.237 OA
ATOM     58  O   UNL A   1      41.957  19.532  25.378  1.00  0.00    -0.237 OA
ATOM     59  O   UNL A   1      42.152  19.780  27.812  1.00  0.00    -0.744 OA
ENDBRANCH  53  56
ENDBRANCH  25  49
BRANCH  37  60
ATOM     60  C   UNL A   1      47.222  26.127  31.963  1.00  0.00     0.023 A 
ATOM     61  C   UNL A   1      48.393  26.607  31.344  1.00  0.00     0.012 A 
ATOM     62  C   UNL A   1      47.325  25.225  33.040  1.00  0.00     0.148 A 
ATOM     63  C   UNL A   1      49.646  26.177  31.775  1.00  0.00     0.002 A 
ATOM     64  C   UNL A   1      48.579  24.838  33.496  1.00  0.00     0.091 A 
ATOM     65  F   UNL A   1      46.196  24.765  33.599  1.00  0.00    -0.205 F 
ATOM     66  C   UNL A   1      49.741  25.304  32.859  1.00  0.00     0.022 A 
BRANCH  64  67
ATOM     67  S   UNL A   1      48.796  23.796  34.943  1.00  0.00     0.127 S 
ATOM     68  O   UNL A   1      48.113  24.574  35.975  1.00  0.00    -0.237 OA
ATOM     69  O   UNL A   1      48.106  22.568  34.547  1.00  0.00    -0.237 OA
ATOM     70  O   UNL A   1      50.235  23.651  35.120  1.00  0.00    -0.744 OA
ENDBRANCH  64  67
ENDBRANCH  37  60
ENDBRANCH  11  12
ENDBRANCH   4   6
ENDBRANCH   1   2
BRANCH   1  71
ATOM     71  C   UNL A   1      33.910  28.017  25.134  1.00  0.00     0.042 C 
BRANCH  71  72
ATOM     72  C   UNL A   1      33.373  26.669  24.690  1.00  0.00     0.117 C 
BRANCH  72  73
ATOM     73  N   UNL A   1      33.540  25.651  25.712  1.00  0.00    -0.356 N 
ATOM     74  C   UNL A   1      34.150  24.447  25.751  1.00  0.00     0.225 C 
ATOM     75  H   UNL A   1      33.113  25.892  26.565  1.00  0.00     0.163 HD
ATOM     76  O   UNL A   1      34.012  23.827  26.814  1.00  0.00    -0.275 OA
BRANCH  74  77
ATOM     77  C   UNL A   1      34.869  23.781  24.578  1.00  0.00     0.104 C 
ATOM     78  C   UNL A   1      36.408  23.744  24.483  1.00  0.00     0.004 C 
ATOM     79  C   UNL A   1      34.500  22.260  24.376  1.00  0.00     0.098 C 
ATOM     80  C   UNL A   1      37.020  23.120  25.744  1.00  0.00     0.005 C 
ATOM     81  C   UNL A   1      36.646  22.635  23.454  1.00  0.00     0.010 C 
ATOM     82  C   UNL A   1      35.891  21.585  24.271  1.00  0.00     0.013 C 
ATOM     83  C   UNL A   1      36.688  21.640  25.581  1.00  0.00     0.006 C 
BRANCH  79  84
ATOM     84  N   UNL A   1      33.507  21.708  25.296  1.00  0.00    -0.348 N 
ATOM     85  C   UNL A   1      32.425  20.913  25.031  1.00  0.00     0.253 C 
ATOM     86  H   UNL A   1      33.636  21.943  26.243  1.00  0.00     0.164 HD
ATOM     87  O   UNL A   1      31.309  21.150  25.494  1.00  0.00    -0.269 OA
BRANCH  85  88
ATOM     88  C   UNL A   1      32.610  19.693  24.251  1.00  0.00     0.061 A 
ATOM     89  C   UNL A   1      33.194  18.585  24.864  1.00  0.00     0.035 A 
ATOM     90  C   UNL A   1      32.278  19.663  22.898  1.00  0.00     0.072 A 
ATOM     91  C   UNL A   1      33.320  17.433  24.111  1.00  0.00     0.112 A 
ATOM     92  C   UNL A   1      32.403  18.446  22.250  1.00  0.00     0.132 A 
ATOM     93  Cl  UNL A   1      31.792  21.051  21.998  1.00  0.00    -0.082 Cl
ATOM     94  N   UNL A   1      32.902  17.327  22.829  1.00  0.00    -0.263 NA
ENDBRANCH  85  88
ENDBRANCH  79  84
ENDBRANCH  74  77
ENDBRANCH  72  73
ENDBRANCH  71  72
ENDBRANCH   1  71
TORSDOF 15
ENDMDL
MODEL 3
REMARK VINA RESULT:     -12.2      4.670      8.227
REMARK SMILES O=C(NCCCNC(=O)[C@H]1[C@H]2CC[C@H](C2)[C@H]1NC(=O)c1ccncc1Cl)c1ccc(-c2c3nc(c(-c4cccc(S(=O)(=O)[O-])c4F)c4ccc([nH]4)c(-c4cccc(S(=O)(=O)[O-])c4F)c4nc(c(-c5cccc(S(=O)(=O)[O-])c5F)c5ccc2[nH]5)C=C4)C=C3)cc1
REMARK SMILES IDX 4 1 3 2 1 3 2 4 27 6 28 7 89 8 29 9 88 10 30 11 31 12 32 13
REMARK SMILES IDX 82 14 33 15 87 16 81 17 83 18 34 19 86 20 80 21 79 22 35 24
REMARK SMILES IDX 67 25 47 26 66 27 48 28 51 29 65 30 84 31 49 32 50 33 64 35
REMARK SMILES IDX 85 36 52 37 36 38 37 39 45 40 38 41 40 42 46 43 39 44 41 45
REMARK SMILES IDX 42 46 43 47 44 48 68 49 69 50 77 51 70 52 72 53 78 54 71 55
REMARK SMILES IDX 73 56 74 57 75 58 76 59 53 60 54 61 62 62 55 63 57 64 63 65
REMARK SMILES IDX 56 66 58 67 59 68 60 69 61 70 5 71 6 72 7 73 8 74 9 76 10 77
REMARK SMILES IDX 11 78 16 79 12 80 15 81 14 82 13 83 17 84 18 85 19 87 20 88
REMARK SMILES IDX 21 89 25 90 22 91 24 92 26 93 23 94
REMARK H PARENT 3 5 83 23 51 34 7 75 17 86
REMARK Flexibility Score: inf
ROOT
ATOM      1  C   UNL A   1      33.503  29.050  25.066  1.00  0.00     0.118 C 
ENDROOT
BRANCH   1   2
ATOM      2  N   UNL A   1      32.907  30.247  25.646  1.00  0.00    -0.352 N 
ATOM      3  O   UNL A   1      32.435  31.763  27.238  1.00  0.00    -0.269 OA
ATOM      4  C   UNL A   1      33.228  30.934  26.791  1.00  0.00     0.251 C 
ATOM      5  H   UNL A   1      32.153  30.624  25.136  1.00  0.00     0.163 HD
BRANCH   4   6
ATOM      6  C   UNL A   1      34.500  30.664  27.493  1.00  0.00     0.039 A 
ATOM      7  C   UNL A   1      34.776  29.392  27.999  1.00  0.00     0.014 A 
ATOM      8  C   UNL A   1      35.445  31.685  27.626  1.00  0.00     0.014 A 
ATOM      9  C   UNL A   1      35.898  29.187  28.791  1.00  0.00     0.010 A 
ATOM     10  C   UNL A   1      36.631  31.445  28.324  1.00  0.00     0.010 A 
ATOM     11  C   UNL A   1      36.849  30.205  28.945  1.00  0.00    -0.014 A 
BRANCH  11  12
ATOM     12  C   UNL A   1      38.098  29.931  29.698  1.00  0.00     0.031 A 
ATOM     13  C   UNL A   1      39.155  29.019  29.141  1.00  0.00     0.074 A 
ATOM     14  C   UNL A   1      38.261  30.500  30.909  1.00  0.00     0.049 A 
ATOM     15  N   UNL A   1      40.277  28.631  29.689  1.00  0.00    -0.248 NA
ATOM     16  C   UNL A   1      38.919  28.460  27.801  1.00  0.00     0.031 C 
ATOM     17  C   UNL A   1      37.287  31.378  31.563  1.00  0.00     0.029 A 
ATOM     18  N   UNL A   1      39.290  30.419  31.811  1.00  0.00    -0.354 N 
ATOM     19  C   UNL A   1      40.856  27.745  28.788  1.00  0.00     0.074 A 
ATOM     20  C   UNL A   1      39.959  27.651  27.657  1.00  0.00     0.031 C 
ATOM     21  C   UNL A   1      37.768  31.763  32.752  1.00  0.00     0.029 A 
ATOM     22  C   UNL A   1      39.051  31.109  32.976  1.00  0.00     0.049 A 
ATOM     23  H   UNL A   1      40.118  29.915  31.641  1.00  0.00     0.167 HD
ATOM     24  C   UNL A   1      42.032  27.081  28.893  1.00  0.00     0.034 A 
ATOM     25  C   UNL A   1      39.765  31.184  34.114  1.00  0.00     0.034 A 
ATOM     26  C   UNL A   1      42.932  27.211  30.009  1.00  0.00     0.049 A 
ATOM     27  C   UNL A   1      41.072  30.453  34.197  1.00  0.00     0.074 A 
ATOM     28  C   UNL A   1      44.176  26.631  30.183  1.00  0.00     0.029 A 
ATOM     29  N   UNL A   1      42.682  27.967  31.145  1.00  0.00    -0.354 N 
ATOM     30  N   UNL A   1      41.654  29.707  33.289  1.00  0.00    -0.248 NA
ATOM     31  C   UNL A   1      41.833  30.591  35.444  1.00  0.00     0.031 C 
ATOM     32  C   UNL A   1      44.667  27.018  31.435  1.00  0.00     0.029 A 
ATOM     33  C   UNL A   1      43.743  27.864  32.028  1.00  0.00     0.049 A 
ATOM     34  H   UNL A   1      41.869  28.501  31.300  1.00  0.00     0.167 HD
ATOM     35  C   UNL A   1      42.865  29.312  33.842  1.00  0.00     0.074 A 
ATOM     36  C   UNL A   1      42.939  29.915  35.159  1.00  0.00     0.031 C 
ATOM     37  C   UNL A   1      43.824  28.513  33.312  1.00  0.00     0.034 A 
BRANCH  24  38
ATOM     38  C   UNL A   1      42.426  26.168  27.760  1.00  0.00     0.023 A 
ATOM     39  C   UNL A   1      43.301  26.634  26.758  1.00  0.00     0.012 A 
ATOM     40  C   UNL A   1      41.968  24.837  27.710  1.00  0.00     0.148 A 
ATOM     41  C   UNL A   1      43.686  25.802  25.706  1.00  0.00     0.002 A 
ATOM     42  C   UNL A   1      42.388  24.000  26.681  1.00  0.00     0.091 A 
ATOM     43  F   UNL A   1      41.118  24.415  28.657  1.00  0.00    -0.205 F 
ATOM     44  C   UNL A   1      43.237  24.485  25.673  1.00  0.00     0.022 A 
BRANCH  42  45
ATOM     45  S   UNL A   1      41.924  22.266  26.599  1.00  0.00     0.127 S 
ATOM     46  O   UNL A   1      40.470  22.356  26.494  1.00  0.00    -0.237 OA
ATOM     47  O   UNL A   1      42.597  21.822  25.377  1.00  0.00    -0.237 OA
ATOM     48  O   UNL A   1      42.433  21.661  27.822  1.00  0.00    -0.744 OA
ENDBRANCH  42  45
ENDBRANCH  24  38
BRANCH  25  49
ATOM     49  C   UNL A   1      39.258  32.016  35.239  1.00  0.00     0.023 A 
ATOM     50  C   UNL A   1      38.365  31.453  36.170  1.00  0.00     0.012 A 
ATOM     51  C   UNL A   1      39.720  33.333  35.436  1.00  0.00     0.148 A 
ATOM     52  C   UNL A   1      37.929  32.191  37.271  1.00  0.00     0.002 A 
ATOM     53  C   UNL A   1      39.328  34.041  36.565  1.00  0.00     0.091 A 
ATOM     54  F   UNL A   1      40.563  33.851  34.533  1.00  0.00    -0.205 F 
ATOM     55  C   UNL A   1      38.421  33.478  37.476  1.00  0.00     0.022 A 
BRANCH  53  56
ATOM     56  S   UNL A   1      40.022  35.644  36.987  1.00  0.00     0.127 S 
ATOM     57  O   UNL A   1      41.444  35.333  37.096  1.00  0.00    -0.237 OA
ATOM     58  O   UNL A   1      39.653  36.447  35.821  1.00  0.00    -0.237 OA
ATOM     59  O   UNL A   1      39.365  36.045  38.224  1.00  0.00    -0.744 OA
ENDBRANCH  53  56
ENDBRANCH  25  49
BRANCH  37  60
ATOM     60  C   UNL A   1      45.062  28.275  34.132  1.00  0.00     0.023 A 
ATOM     61  C   UNL A   1      46.153  29.161  34.032  1.00  0.00     0.012 A 
ATOM     62  C   UNL A   1      45.107  27.222  35.066  1.00  0.00     0.148 A 
ATOM     63  C   UNL A   1      47.281  28.986  34.831  1.00  0.00     0.002 A 
ATOM     64  C   UNL A   1      46.214  27.083  35.894  1.00  0.00     0.091 A 
ATOM     65  F   UNL A   1      44.066  26.378  35.129  1.00  0.00    -0.205 F 
ATOM     66  C   UNL A   1      47.306  27.957  35.771  1.00  0.00     0.022 A 
BRANCH  64  67
ATOM     67  S   UNL A   1      46.292  25.848  37.197  1.00  0.00     0.127 S 
ATOM     68  O   UNL A   1      46.095  24.610  36.445  1.00  0.00    -0.237 OA
ATOM     69  O   UNL A   1      47.646  26.035  37.720  1.00  0.00    -0.237 OA
ATOM     70  O   UNL A   1      45.229  26.186  38.134  1.00  0.00    -0.744 OA
ENDBRANCH  64  67
ENDBRANCH  37  60
ENDBRANCH  11  12
ENDBRANCH   4   6
ENDBRANCH   1   2
BRANCH   1  71
ATOM     71  C   UNL A   1      32.550  27.863  25.089  1.00  0.00     0.042 C 
BRANCH  71  72
ATOM     72  C   UNL A   1      33.182  26.586  24.567  1.00  0.00     0.117 C 
BRANCH  72  73
ATOM     73  N   UNL A   1      33.376  25.604  25.619  1.00  0.00    -0.356 N 
ATOM     74  C   UNL A   1      34.038  24.430  25.701  1.00  0.00     0.225 C 
ATOM     75  H   UNL A   1      32.922  25.848  26.458  1.00  0.00     0.163 HD
ATOM     76  O   UNL A   1      33.907  23.832  26.778  1.00  0.00    -0.275 OA
BRANCH  74  77
ATOM     77  C   UNL A   1      34.807  23.767  24.559  1.00  0.00     0.104 C 
ATOM     78  C   UNL A   1      36.348  23.790  24.497  1.00  0.00     0.004 C 
ATOM     79  C   UNL A   1      34.504  22.227  24.386  1.00  0.00     0.098 C 
ATOM     80  C   UNL A   1      36.958  23.220  25.784  1.00  0.00     0.005 C 
ATOM     81  C   UNL A   1      36.653  22.668  23.499  1.00  0.00     0.010 C 
ATOM     82  C   UNL A   1      35.923  21.607  24.325  1.00  0.00     0.013 C 
ATOM     83  C   UNL A   1      36.689  21.724  25.650  1.00  0.00     0.006 C 
BRANCH  79  84
ATOM     84  N   UNL A   1      33.514  21.658  25.298  1.00  0.00    -0.348 N 
ATOM     85  C   UNL A   1      32.431  20.868  25.021  1.00  0.00     0.253 C 
ATOM     86  H   UNL A   1      33.646  21.873  26.249  1.00  0.00     0.164 HD
ATOM     87  O   UNL A   1      31.317  21.095  25.493  1.00  0.00    -0.269 OA
BRANCH  85  88
ATOM     88  C   UNL A   1      32.614  19.663  24.217  1.00  0.00     0.061 A 
ATOM     89  C   UNL A   1      33.204  18.544  24.805  1.00  0.00     0.035 A 
ATOM     90  C   UNL A   1      32.274  19.658  22.866  1.00  0.00     0.072 A 
ATOM     91  C   UNL A   1      33.327  17.408  24.029  1.00  0.00     0.112 A 
ATOM     92  C   UNL A   1      32.397  18.455  22.193  1.00  0.00     0.132 A 
ATOM     93  Cl  UNL A   1      31.780  21.063  21.996  1.00  0.00    -0.082 Cl
ATOM     94  N   UNL A   1      32.903  17.325  22.748  1.00  0.00    -0.263 NA
ENDBRANCH  85  88
ENDBRANCH  79  84
ENDBRANCH  74  77
ENDBRANCH  72  73
ENDBRANCH  71  72
ENDBRANCH   1  71
TORSDOF 15
ENDMDL
