MODEL 1
REMARK VINA RESULT:     -10.7      0.000      0.000
REMARK SMILES O=C(C[C@H](C(=O)OC[C@H]1CCCO1)[NH+]1CCOCC1)NCCCNC(=O)c1ccc(-c2c3nc(c(-c4cccc(S(=O)(=O)[O-])c4F)c4ccc([nH]4)c(-c4cccc(S(=O)(=O)[O-])c4F)c4nc(c(-c5cccc(S(=O)(=O)[O-])c5F)c5ccc2[nH]5)C=C4)C=C3)cc1
REMARK SMILES IDX 21 1 20 2 1 3 2 4 3 6 4 7 14 8 15 9 19 10 16 12 18 13 17 14
REMARK SMILES IDX 5 15 6 16 7 17 8 18 9 19 10 20 13 21 11 22 12 23 22 24 23 25
REMARK SMILES IDX 24 26 25 27 26 29 27 30 28 31 89 32 29 33 88 34 30 35 31 36
REMARK SMILES IDX 32 37 82 38 33 39 87 40 81 41 83 42 34 43 86 44 80 45 79 46
REMARK SMILES IDX 35 48 67 49 47 50 66 51 48 52 51 53 65 54 84 55 49 56 50 57
REMARK SMILES IDX 64 59 85 60 52 61 36 62 37 63 45 64 38 65 40 66 46 67 39 68
REMARK SMILES IDX 41 69 42 70 43 71 44 72 68 73 69 74 77 75 70 76 72 77 78 78
REMARK SMILES IDX 71 79 73 80 74 81 75 82 76 83 53 84 54 85 62 86 55 87 57 88
REMARK SMILES IDX 63 89 56 90 58 91 59 92 60 93 61 94
REMARK H PARENT 20 5 14 11 24 28 83 47 51 58
REMARK Flexibility Score: inf
ROOT
ATOM      1  C   UNL A   1      33.351  29.483  27.278  1.00  0.00     0.117 C 
ENDROOT
BRANCH   1   2
ATOM      2  N   UNL A   1      32.814  28.388  26.496  1.00  0.00    -0.356 N 
ATOM      3  O   UNL A   1      31.054  27.793  27.839  1.00  0.00    -0.275 OA
ATOM      4  C   UNL A   1      31.743  27.592  26.840  1.00  0.00     0.226 C 
ATOM      5  H   UNL A   1      33.257  28.194  25.638  1.00  0.00     0.163 HD
BRANCH   4   6
ATOM      6  C   UNL A   1      31.423  26.413  25.897  1.00  0.00     0.177 C 
BRANCH   6   7
ATOM      7  C   UNL A   1      31.200  26.772  24.417  1.00  0.00     0.304 C 
BRANCH   7   8
ATOM      8  N   UNL A   1      31.559  25.665  23.508  1.00  0.00    -0.319 N 
ATOM      9  C   UNL A   1      32.588  24.737  23.970  1.00  0.00     0.291 C 
ATOM     10  C   UNL A   1      31.561  25.920  22.061  1.00  0.00     0.291 C 
ATOM     11  H   UNL A   1      30.696  25.130  23.606  1.00  0.00     0.348 HD
ATOM     12  C   UNL A   1      33.899  24.747  23.175  1.00  0.00     0.221 C 
ATOM     13  C   UNL A   1      32.945  25.963  21.421  1.00  0.00     0.221 C 
ATOM     14  O   UNL A   1      33.672  24.780  21.763  1.00  0.00    -0.370 OA
ENDBRANCH   7   8
BRANCH   7  15
ATOM     15  C   UNL A   1      29.789  27.312  24.102  1.00  0.00     0.365 C 
ATOM     16  O   UNL A   1      28.780  26.642  23.955  1.00  0.00    -0.245 OA
BRANCH  15  17
ATOM     17  O   UNL A   1      29.869  28.661  23.902  1.00  0.00    -0.459 OA
BRANCH  17  18
ATOM     18  C   UNL A   1      29.861  29.174  22.550  1.00  0.00     0.265 C 
BRANCH  18  19
ATOM     19  C   UNL A   1      28.424  29.554  22.130  1.00  0.00     0.156 C 
ATOM     20  C   UNL A   1      27.610  30.276  23.190  1.00  0.00     0.038 C 
ATOM     21  O   UNL A   1      28.461  30.461  21.013  1.00  0.00    -0.375 OA
ATOM     22  C   UNL A   1      27.949  31.727  22.938  1.00  0.00     0.031 C 
ATOM     23  C   UNL A   1      28.099  31.777  21.436  1.00  0.00     0.161 C 
ENDBRANCH  18  19
ENDBRANCH  17  18
ENDBRANCH  15  17
ENDBRANCH   7  15
ENDBRANCH   6   7
ENDBRANCH   4   6
ENDBRANCH   1   2
BRANCH   1  24
ATOM     24  C   UNL A   1      32.479  30.749  27.268  1.00  0.00     0.042 C 
BRANCH  24  25
ATOM     25  C   UNL A   1      33.004  32.026  26.591  1.00  0.00     0.118 C 
BRANCH  25  26
ATOM     26  N   UNL A   1      32.533  33.283  27.149  1.00  0.00    -0.352 N 
ATOM     27  C   UNL A   1      33.057  34.022  28.188  1.00  0.00     0.251 C 
ATOM     28  H   UNL A   1      31.728  33.659  26.726  1.00  0.00     0.163 HD
ATOM     29  O   UNL A   1      32.492  35.053  28.547  1.00  0.00    -0.269 OA
BRANCH  27  30
ATOM     30  C   UNL A   1      34.277  33.574  28.902  1.00  0.00     0.039 A 
ATOM     31  C   UNL A   1      34.134  32.707  29.991  1.00  0.00     0.014 A 
ATOM     32  C   UNL A   1      35.548  34.025  28.537  1.00  0.00     0.014 A 
ATOM     33  C   UNL A   1      35.268  32.228  30.662  1.00  0.00     0.010 A 
ATOM     34  C   UNL A   1      36.681  33.525  29.193  1.00  0.00     0.010 A 
ATOM     35  C   UNL A   1      36.557  32.600  30.244  1.00  0.00    -0.014 A 
BRANCH  35  36
ATOM     36  C   UNL A   1      37.772  31.953  30.825  1.00  0.00     0.031 A 
ATOM     37  C   UNL A   1      38.527  30.881  30.085  1.00  0.00     0.074 A 
ATOM     38  C   UNL A   1      38.145  32.274  32.081  1.00  0.00     0.049 A 
ATOM     39  N   UNL A   1      39.556  30.174  30.483  1.00  0.00    -0.248 NA
ATOM     40  C   UNL A   1      38.062  30.551  28.731  1.00  0.00     0.031 C 
ATOM     41  C   UNL A   1      37.472  33.254  32.936  1.00  0.00     0.029 A 
ATOM     42  N   UNL A   1      39.158  31.787  32.873  1.00  0.00    -0.354 N 
ATOM     43  C   UNL A   1      39.845  29.295  29.446  1.00  0.00     0.074 A 
ATOM     44  C   UNL A   1      38.870  29.550  28.404  1.00  0.00     0.031 C 
ATOM     45  C   UNL A   1      38.078  33.287  34.132  1.00  0.00     0.029 A 
ATOM     46  C   UNL A   1      39.161  32.307  34.148  1.00  0.00     0.049 A 
ATOM     47  H   UNL A   1      39.819  31.128  32.560  1.00  0.00     0.167 HD
ATOM     48  C   UNL A   1      40.836  28.374  29.359  1.00  0.00     0.034 A 
ATOM     49  C   UNL A   1      39.925  32.017  35.220  1.00  0.00     0.034 A 
ATOM     50  C   UNL A   1      41.817  28.130  30.386  1.00  0.00     0.049 A 
ATOM     51  C   UNL A   1      41.013  30.985  35.098  1.00  0.00     0.074 A 
ATOM     52  C   UNL A   1      42.905  27.272  30.348  1.00  0.00     0.029 A 
ATOM     53  N   UNL A   1      41.823  28.720  31.640  1.00  0.00    -0.354 N 
ATOM     54  N   UNL A   1      41.367  30.279  34.053  1.00  0.00    -0.248 NA
ATOM     55  C   UNL A   1      41.829  30.732  36.296  1.00  0.00     0.031 C 
ATOM     56  C   UNL A   1      43.544  27.315  31.591  1.00  0.00     0.029 A 
ATOM     57  C   UNL A   1      42.881  28.230  32.391  1.00  0.00     0.049 A 
ATOM     58  H   UNL A   1      41.173  29.389  31.951  1.00  0.00     0.167 HD
ATOM     59  C   UNL A   1      42.465  29.526  34.456  1.00  0.00     0.074 A 
ATOM     60  C   UNL A   1      42.731  29.877  35.834  1.00  0.00     0.031 C 
ATOM     61  C   UNL A   1      43.177  28.615  33.748  1.00  0.00     0.034 A 
BRANCH  48  62
ATOM     62  C   UNL A   1      40.941  27.568  28.087  1.00  0.00     0.023 A 
ATOM     63  C   UNL A   1      41.536  28.143  26.946  1.00  0.00     0.012 A 
ATOM     64  C   UNL A   1      40.525  26.221  28.043  1.00  0.00     0.148 A 
ATOM     65  C   UNL A   1      41.684  27.404  25.773  1.00  0.00     0.002 A 
ATOM     66  C   UNL A   1      40.716  25.478  26.883  1.00  0.00     0.091 A 
ATOM     67  F   UNL A   1      39.952  25.693  29.133  1.00  0.00    -0.205 F 
ATOM     68  C   UNL A   1      41.283  26.071  25.744  1.00  0.00     0.022 A 
BRANCH  66  69
ATOM     69  S   UNL A   1      40.308  23.733  26.768  1.00  0.00     0.127 S 
ATOM     70  O   UNL A   1      38.910  23.784  26.340  1.00  0.00    -0.237 OA
ATOM     71  O   UNL A   1      41.241  23.264  25.743  1.00  0.00    -0.237 OA
ATOM     72  O   UNL A   1      40.533  23.177  28.095  1.00  0.00    -0.744 OA
ENDBRANCH  66  69
ENDBRANCH  48  62
BRANCH  49  73
ATOM     73  C   UNL A   1      39.711  32.745  36.505  1.00  0.00     0.023 A 
ATOM     74  C   UNL A   1      40.471  33.898  36.783  1.00  0.00     0.012 A 
ATOM     75  C   UNL A   1      38.755  32.310  37.443  1.00  0.00     0.148 A 
ATOM     76  C   UNL A   1      40.305  34.586  37.985  1.00  0.00     0.002 A 
ATOM     77  C   UNL A   1      38.554  33.033  38.612  1.00  0.00     0.091 A 
ATOM     78  F   UNL A   1      38.052  31.203  37.165  1.00  0.00    -0.205 F 
ATOM     79  C   UNL A   1      39.341  34.160  38.895  1.00  0.00     0.022 A 
BRANCH  77  80
ATOM     80  S   UNL A   1      37.248  32.636  39.780  1.00  0.00     0.127 S 
ATOM     81  O   UNL A   1      37.687  31.339  40.290  1.00  0.00    -0.237 OA
ATOM     82  O   UNL A   1      37.352  33.742  40.733  1.00  0.00    -0.237 OA
ATOM     83  O   UNL A   1      36.015  32.625  39.004  1.00  0.00    -0.744 OA
ENDBRANCH  77  80
ENDBRANCH  49  73
BRANCH  61  84
ATOM     84  C   UNL A   1      44.348  27.950  34.429  1.00  0.00     0.023 A 
ATOM     85  C   UNL A   1      45.621  28.552  34.389  1.00  0.00     0.012 A 
ATOM     86  C   UNL A   1      44.168  26.768  35.174  1.00  0.00     0.148 A 
ATOM     87  C   UNL A   1      46.703  27.971  35.053  1.00  0.00     0.002 A 
ATOM     88  C   UNL A   1      45.238  26.223  35.876  1.00  0.00     0.091 A 
ATOM     89  F   UNL A   1      42.953  26.199  35.188  1.00  0.00    -0.205 F 
ATOM     90  C   UNL A   1      46.508  26.817  35.806  1.00  0.00     0.022 A 
BRANCH  88  91
ATOM     91  S   UNL A   1      45.064  24.793  36.949  1.00  0.00     0.127 S 
ATOM     92  O   UNL A   1      44.020  25.237  37.872  1.00  0.00    -0.237 OA
ATOM     93  O   UNL A   1      44.644  23.751  36.010  1.00  0.00    -0.237 OA
ATOM     94  O   UNL A   1      46.373  24.576  37.550  1.00  0.00    -0.744 OA
ENDBRANCH  88  91
ENDBRANCH  61  84
ENDBRANCH  35  36
ENDBRANCH  27  30
ENDBRANCH  25  26
ENDBRANCH  24  25
ENDBRANCH   1  24
TORSDOF 19
ENDMDL
MODEL 2
REMARK VINA RESULT:     -10.6      6.201     11.564
REMARK SMILES O=C(C[C@H](C(=O)OC[C@H]1CCCO1)[NH+]1CCOCC1)NCCCNC(=O)c1ccc(-c2c3nc(c(-c4cccc(S(=O)(=O)[O-])c4F)c4ccc([nH]4)c(-c4cccc(S(=O)(=O)[O-])c4F)c4nc(c(-c5cccc(S(=O)(=O)[O-])c5F)c5ccc2[nH]5)C=C4)C=C3)cc1
REMARK SMILES IDX 21 1 20 2 1 3 2 4 3 6 4 7 14 8 15 9 19 10 16 12 18 13 17 14
REMARK SMILES IDX 5 15 6 16 7 17 8 18 9 19 10 20 13 21 11 22 12 23 22 24 23 25
REMARK SMILES IDX 24 26 25 27 26 29 27 30 28 31 89 32 29 33 88 34 30 35 31 36
REMARK SMILES IDX 32 37 82 38 33 39 87 40 81 41 83 42 34 43 86 44 80 45 79 46
REMARK SMILES IDX 35 48 67 49 47 50 66 51 48 52 51 53 65 54 84 55 49 56 50 57
REMARK SMILES IDX 64 59 85 60 52 61 36 62 37 63 45 64 38 65 40 66 46 67 39 68
REMARK SMILES IDX 41 69 42 70 43 71 44 72 68 73 69 74 77 75 70 76 72 77 78 78
REMARK SMILES IDX 71 79 73 80 74 81 75 82 76 83 53 84 54 85 62 86 55 87 57 88
REMARK SMILES IDX 63 89 56 90 58 91 59 92 60 93 61 94
REMARK H PARENT 20 5 14 11 24 28 83 47 51 58
REMARK Flexibility Score: inf
ROOT
ATOM      1  C   UNL A   1      37.779  21.786  24.991  1.00  0.00     0.117 C 
ENDROOT
BRANCH   1   2
ATOM      2  N   UNL A   1      36.465  21.922  25.585  1.00  0.00    -0.356 N 
ATOM      3  O   UNL A   1      35.626  23.597  24.264  1.00  0.00    -0.275 OA
ATOM      4  C   UNL A   1      35.499  22.836  25.221  1.00  0.00     0.226 C 
ATOM      5  H   UNL A   1      36.240  21.304  26.318  1.00  0.00     0.163 HD
BRANCH   4   6
ATOM      6  C   UNL A   1      34.214  22.866  26.076  1.00  0.00     0.177 C 
BRANCH   6   7
ATOM      7  C   UNL A   1      32.890  22.973  25.299  1.00  0.00     0.304 C 
BRANCH   7   8
ATOM      8  N   UNL A   1      32.591  24.357  24.882  1.00  0.00    -0.319 N 
ATOM      9  C   UNL A   1      33.114  25.430  25.725  1.00  0.00     0.291 C 
ATOM     10  C   UNL A   1      31.287  24.637  24.264  1.00  0.00     0.291 C 
ATOM     11  H   UNL A   1      33.199  24.381  24.063  1.00  0.00     0.348 HD
ATOM     12  C   UNL A   1      32.063  26.277  26.452  1.00  0.00     0.221 C 
ATOM     13  C   UNL A   1      30.324  25.437  25.135  1.00  0.00     0.221 C 
ATOM     14  O   UNL A   1      30.968  26.626  25.600  1.00  0.00    -0.370 OA
ENDBRANCH   7   8
BRANCH   7  15
ATOM     15  C   UNL A   1      32.773  21.998  24.108  1.00  0.00     0.365 C 
ATOM     16  O   UNL A   1      32.971  22.270  22.935  1.00  0.00    -0.245 OA
BRANCH  15  17
ATOM     17  O   UNL A   1      32.303  20.800  24.565  1.00  0.00    -0.459 OA
BRANCH  17  18
ATOM     18  C   UNL A   1      33.166  19.641  24.521  1.00  0.00     0.265 C 
BRANCH  18  19
ATOM     19  C   UNL A   1      32.384  18.408  24.020  1.00  0.00     0.156 C 
ATOM     20  C   UNL A   1      33.147  17.499  23.072  1.00  0.00     0.038 C 
ATOM     21  O   UNL A   1      32.029  17.565  25.132  1.00  0.00    -0.375 OA
ATOM     22  C   UNL A   1      33.838  16.541  24.014  1.00  0.00     0.031 C 
ATOM     23  C   UNL A   1      32.826  16.379  25.124  1.00  0.00     0.161 C 
ENDBRANCH  18  19
ENDBRANCH  17  18
ENDBRANCH  15  17
ENDBRANCH   7  15
ENDBRANCH   6   7
ENDBRANCH   4   6
ENDBRANCH   1   2
BRANCH   1  24
ATOM     24  C   UNL A   1      38.287  20.337  24.916  1.00  0.00     0.042 C 
BRANCH  24  25
ATOM     25  C   UNL A   1      38.906  19.684  26.163  1.00  0.00     0.118 C 
BRANCH  25  26
ATOM     26  N   UNL A   1      40.173  19.000  25.963  1.00  0.00    -0.352 N 
ATOM     27  C   UNL A   1      41.454  19.500  26.056  1.00  0.00     0.251 C 
ATOM     28  H   UNL A   1      40.107  18.047  25.726  1.00  0.00     0.163 HD
ATOM     29  O   UNL A   1      42.412  18.770  25.812  1.00  0.00    -0.269 OA
BRANCH  27  30
ATOM     30  C   UNL A   1      41.693  20.919  26.418  1.00  0.00     0.039 A 
ATOM     31  C   UNL A   1      41.929  21.236  27.761  1.00  0.00     0.014 A 
ATOM     32  C   UNL A   1      41.648  21.937  25.463  1.00  0.00     0.014 A 
ATOM     33  C   UNL A   1      42.202  22.559  28.133  1.00  0.00     0.010 A 
ATOM     34  C   UNL A   1      41.947  23.255  25.834  1.00  0.00     0.010 A 
ATOM     35  C   UNL A   1      42.254  23.578  27.166  1.00  0.00    -0.014 A 
BRANCH  35  36
ATOM     36  C   UNL A   1      42.727  24.950  27.519  1.00  0.00     0.031 A 
ATOM     37  C   UNL A   1      41.812  25.964  28.153  1.00  0.00     0.074 A 
ATOM     38  C   UNL A   1      43.980  25.317  27.176  1.00  0.00     0.049 A 
ATOM     39  N   UNL A   1      42.052  27.217  28.453  1.00  0.00    -0.248 NA
ATOM     40  C   UNL A   1      40.450  25.520  28.480  1.00  0.00     0.031 C 
ATOM     41  C   UNL A   1      44.956  24.457  26.506  1.00  0.00     0.029 A 
ATOM     42  N   UNL A   1      44.636  26.518  27.310  1.00  0.00    -0.354 N 
ATOM     43  C   UNL A   1      40.867  27.721  28.976  1.00  0.00     0.074 A 
ATOM     44  C   UNL A   1      39.904  26.640  28.939  1.00  0.00     0.031 C 
ATOM     45  C   UNL A   1      46.078  25.157  26.277  1.00  0.00     0.029 A 
ATOM     46  C   UNL A   1      45.892  26.527  26.747  1.00  0.00     0.049 A 
ATOM     47  H   UNL A   1      44.245  27.299  27.764  1.00  0.00     0.167 HD
ATOM     48  C   UNL A   1      40.608  28.963  29.458  1.00  0.00     0.034 A 
ATOM     49  C   UNL A   1      46.789  27.523  26.599  1.00  0.00     0.034 A 
ATOM     50  C   UNL A   1      41.568  30.035  29.513  1.00  0.00     0.049 A 
ATOM     51  C   UNL A   1      46.472  28.892  27.136  1.00  0.00     0.074 A 
ATOM     52  C   UNL A   1      41.413  31.300  30.060  1.00  0.00     0.029 A 
ATOM     53  N   UNL A   1      42.849  29.986  28.988  1.00  0.00    -0.354 N 
ATOM     54  N   UNL A   1      45.402  29.302  27.770  1.00  0.00    -0.248 NA
ATOM     55  C   UNL A   1      47.501  29.930  26.966  1.00  0.00     0.031 C 
ATOM     56  C   UNL A   1      42.586  32.026  29.830  1.00  0.00     0.029 A 
ATOM     57  C   UNL A   1      43.488  31.203  29.178  1.00  0.00     0.049 A 
ATOM     58  H   UNL A   1      43.248  29.203  28.546  1.00  0.00     0.167 HD
ATOM     59  C   UNL A   1      45.641  30.631  28.103  1.00  0.00     0.074 A 
ATOM     60  C   UNL A   1      46.967  30.952  27.621  1.00  0.00     0.031 C 
ATOM     61  C   UNL A   1      44.827  31.508  28.741  1.00  0.00     0.034 A 
BRANCH  48  62
ATOM     62  C   UNL A   1      39.226  29.232  30.004  1.00  0.00     0.023 A 
ATOM     63  C   UNL A   1      38.887  28.777  31.295  1.00  0.00     0.012 A 
ATOM     64  C   UNL A   1      38.294  30.001  29.277  1.00  0.00     0.148 A 
ATOM     65  C   UNL A   1      37.633  29.052  31.839  1.00  0.00     0.002 A 
ATOM     66  C   UNL A   1      37.062  30.308  29.844  1.00  0.00     0.091 A 
ATOM     67  F   UNL A   1      38.629  30.418  28.048  1.00  0.00    -0.205 F 
ATOM     68  C   UNL A   1      36.725  29.824  31.118  1.00  0.00     0.022 A 
BRANCH  66  69
ATOM     69  S   UNL A   1      35.854  31.362  29.033  1.00  0.00     0.127 S 
ATOM     70  O   UNL A   1      34.901  31.605  30.117  1.00  0.00    -0.237 OA
ATOM     71  O   UNL A   1      36.660  32.524  28.660  1.00  0.00    -0.237 OA
ATOM     72  O   UNL A   1      35.338  30.594  27.910  1.00  0.00    -0.744 OA
ENDBRANCH  66  69
ENDBRANCH  48  62
BRANCH  49  73
ATOM     73  C   UNL A   1      48.099  27.253  25.938  1.00  0.00     0.023 A 
ATOM     74  C   UNL A   1      49.175  26.766  26.706  1.00  0.00     0.012 A 
ATOM     75  C   UNL A   1      48.280  27.462  24.557  1.00  0.00     0.148 A 
ATOM     76  C   UNL A   1      50.416  26.523  26.117  1.00  0.00     0.002 A 
ATOM     77  C   UNL A   1      49.501  27.164  23.967  1.00  0.00     0.091 A 
ATOM     78  F   UNL A   1      47.247  27.938  23.847  1.00  0.00    -0.205 F 
ATOM     79  C   UNL A   1      50.577  26.713  24.747  1.00  0.00     0.022 A 
BRANCH  77  80
ATOM     80  S   UNL A   1      49.762  27.252  22.192  1.00  0.00     0.127 S 
ATOM     81  O   UNL A   1      51.161  26.848  22.074  1.00  0.00    -0.237 OA
ATOM     82  O   UNL A   1      48.794  26.273  21.698  1.00  0.00    -0.237 OA
ATOM     83  O   UNL A   1      49.469  28.629  21.818  1.00  0.00    -0.744 OA
ENDBRANCH  77  80
ENDBRANCH  49  73
BRANCH  61  84
ATOM     84  C   UNL A   1      45.350  32.899  28.997  1.00  0.00     0.023 A 
ATOM     85  C   UNL A   1      46.095  33.169  30.162  1.00  0.00     0.012 A 
ATOM     86  C   UNL A   1      45.170  33.921  28.043  1.00  0.00     0.148 A 
ATOM     87  C   UNL A   1      46.624  34.440  30.389  1.00  0.00     0.002 A 
ATOM     88  C   UNL A   1      45.743  35.171  28.252  1.00  0.00     0.091 A 
ATOM     89  F   UNL A   1      44.444  33.653  26.948  1.00  0.00    -0.205 F 
ATOM     90  C   UNL A   1      46.460  35.435  29.430  1.00  0.00     0.022 A 
BRANCH  88  91
ATOM     91  S   UNL A   1      45.668  36.487  27.031  1.00  0.00     0.127 S 
ATOM     92  O   UNL A   1      44.225  36.674  26.883  1.00  0.00    -0.237 OA
ATOM     93  O   UNL A   1      46.357  37.582  27.715  1.00  0.00    -0.237 OA
ATOM     94  O   UNL A   1      46.353  35.983  25.849  1.00  0.00    -0.744 OA
ENDBRANCH  88  91
ENDBRANCH  61  84
ENDBRANCH  35  36
ENDBRANCH  27  30
ENDBRANCH  25  26
ENDBRANCH  24  25
ENDBRANCH   1  24
TORSDOF 19
ENDMDL
MODEL 3
REMARK VINA RESULT:     -10.6      1.427      3.275
REMARK SMILES O=C(C[C@H](C(=O)OC[C@H]1CCCO1)[NH+]1CCOCC1)NCCCNC(=O)c1ccc(-c2c3nc(c(-c4cccc(S(=O)(=O)[O-])c4F)c4ccc([nH]4)c(-c4cccc(S(=O)(=O)[O-])c4F)c4nc(c(-c5cccc(S(=O)(=O)[O-])c5F)c5ccc2[nH]5)C=C4)C=C3)cc1
REMARK SMILES IDX 21 1 20 2 1 3 2 4 3 6 4 7 14 8 15 9 19 10 16 12 18 13 17 14
REMARK SMILES IDX 5 15 6 16 7 17 8 18 9 19 10 20 13 21 11 22 12 23 22 24 23 25
REMARK SMILES IDX 24 26 25 27 26 29 27 30 28 31 89 32 29 33 88 34 30 35 31 36
REMARK SMILES IDX 32 37 82 38 33 39 87 40 81 41 83 42 34 43 86 44 80 45 79 46
REMARK SMILES IDX 35 48 67 49 47 50 66 51 48 52 51 53 65 54 84 55 49 56 50 57
REMARK SMILES IDX 64 59 85 60 52 61 36 62 37 63 45 64 38 65 40 66 46 67 39 68
REMARK SMILES IDX 41 69 42 70 43 71 44 72 68 73 69 74 77 75 70 76 72 77 78 78
REMARK SMILES IDX 71 79 73 80 74 81 75 82 76 83 53 84 54 85 62 86 55 87 57 88
REMARK SMILES IDX 63 89 56 90 58 91 59 92 60 93 61 94
REMARK H PARENT 20 5 14 11 24 28 83 47 51 58
REMARK Flexibility Score: inf
ROOT
ATOM      1  C   UNL A   1      31.599  30.250  25.572  1.00  0.00     0.117 C 
ENDROOT
BRANCH   1   2
ATOM      2  N   UNL A   1      31.920  28.859  25.816  1.00  0.00    -0.356 N 
ATOM      3  O   UNL A   1      34.028  28.795  24.919  1.00  0.00    -0.275 OA
ATOM      4  C   UNL A   1      33.078  28.213  25.440  1.00  0.00     0.226 C 
ATOM      5  H   UNL A   1      31.247  28.323  26.295  1.00  0.00     0.163 HD
BRANCH   4   6
ATOM      6  C   UNL A   1      33.148  26.696  25.711  1.00  0.00     0.177 C 
BRANCH   6   7
ATOM      7  C   UNL A   1      31.803  25.948  25.713  1.00  0.00     0.304 C 
BRANCH   7   8
ATOM      8  N   UNL A   1      31.271  25.741  24.351  1.00  0.00    -0.319 N 
ATOM      9  C   UNL A   1      32.245  25.667  23.265  1.00  0.00     0.291 C 
ATOM     10  C   UNL A   1      29.994  26.375  23.995  1.00  0.00     0.291 C 
ATOM     11  H   UNL A   1      30.976  24.772  24.472  1.00  0.00     0.348 HD
ATOM     12  C   UNL A   1      32.191  26.809  22.244  1.00  0.00     0.221 C 
ATOM     13  C   UNL A   1      30.109  27.539  23.016  1.00  0.00     0.221 C 
ATOM     14  O   UNL A   1      30.850  27.129  21.863  1.00  0.00    -0.370 OA
ENDBRANCH   7   8
BRANCH   7  15
ATOM     15  C   UNL A   1      31.815  24.626  26.510  1.00  0.00     0.365 C 
ATOM     16  O   UNL A   1      30.891  24.177  27.169  1.00  0.00    -0.245 OA
BRANCH  15  17
ATOM     17  O   UNL A   1      33.069  24.088  26.450  1.00  0.00    -0.459 OA
BRANCH  17  18
ATOM     18  C   UNL A   1      33.234  22.664  26.641  1.00  0.00     0.265 C 
BRANCH  18  19
ATOM     19  C   UNL A   1      33.304  21.945  25.276  1.00  0.00     0.156 C 
ATOM     20  C   UNL A   1      34.281  22.545  24.279  1.00  0.00     0.038 C 
ATOM     21  O   UNL A   1      33.749  20.588  25.456  1.00  0.00    -0.375 OA
ATOM     22  C   UNL A   1      35.569  21.824  24.601  1.00  0.00     0.031 C 
ATOM     23  C   UNL A   1      35.090  20.443  24.984  1.00  0.00     0.161 C 
ENDBRANCH  18  19
ENDBRANCH  17  18
ENDBRANCH  15  17
ENDBRANCH   7  15
ENDBRANCH   6   7
ENDBRANCH   4   6
ENDBRANCH   1   2
BRANCH   1  24
ATOM     24  C   UNL A   1      31.695  31.145  26.818  1.00  0.00     0.042 C 
BRANCH  24  25
ATOM     25  C   UNL A   1      32.875  32.121  26.962  1.00  0.00     0.118 C 
BRANCH  25  26
ATOM     26  N   UNL A   1      32.543  33.462  27.415  1.00  0.00    -0.352 N 
ATOM     27  C   UNL A   1      33.186  34.247  28.347  1.00  0.00     0.251 C 
ATOM     28  H   UNL A   1      31.747  33.865  26.999  1.00  0.00     0.163 HD
ATOM     29  O   UNL A   1      32.731  35.352  28.630  1.00  0.00    -0.269 OA
BRANCH  27  30
ATOM     30  C   UNL A   1      34.406  33.763  29.039  1.00  0.00     0.039 A 
ATOM     31  C   UNL A   1      34.257  32.963  30.177  1.00  0.00     0.014 A 
ATOM     32  C   UNL A   1      35.686  34.119  28.604  1.00  0.00     0.014 A 
ATOM     33  C   UNL A   1      35.386  32.451  30.830  1.00  0.00     0.010 A 
ATOM     34  C   UNL A   1      36.812  33.585  29.244  1.00  0.00     0.010 A 
ATOM     35  C   UNL A   1      36.677  32.724  30.346  1.00  0.00    -0.014 A 
BRANCH  35  36
ATOM     36  C   UNL A   1      37.874  32.036  30.915  1.00  0.00     0.031 A 
ATOM     37  C   UNL A   1      38.595  30.949  30.163  1.00  0.00     0.074 A 
ATOM     38  C   UNL A   1      38.262  32.334  32.173  1.00  0.00     0.049 A 
ATOM     39  N   UNL A   1      39.604  30.208  30.550  1.00  0.00    -0.248 NA
ATOM     40  C   UNL A   1      38.114  30.646  28.808  1.00  0.00     0.031 C 
ATOM     41  C   UNL A   1      37.622  33.325  33.040  1.00  0.00     0.029 A 
ATOM     42  N   UNL A   1      39.264  31.810  32.956  1.00  0.00    -0.354 N 
ATOM     43  C   UNL A   1      39.862  29.331  29.503  1.00  0.00     0.074 A 
ATOM     44  C   UNL A   1      38.891  29.624  28.468  1.00  0.00     0.031 C 
ATOM     45  C   UNL A   1      38.234  33.329  34.234  1.00  0.00     0.029 A 
ATOM     46  C   UNL A   1      39.287  32.317  34.236  1.00  0.00     0.049 A 
ATOM     47  H   UNL A   1      39.903  31.134  32.634  1.00  0.00     0.167 HD
ATOM     48  C   UNL A   1      40.826  28.381  29.403  1.00  0.00     0.034 A 
ATOM     49  C   UNL A   1      40.046  31.995  35.302  1.00  0.00     0.034 A 
ATOM     50  C   UNL A   1      41.803  28.099  30.423  1.00  0.00     0.049 A 
ATOM     51  C   UNL A   1      41.103  30.932  35.166  1.00  0.00     0.074 A 
ATOM     52  C   UNL A   1      42.865  27.210  30.373  1.00  0.00     0.029 A 
ATOM     53  N   UNL A   1      41.832  28.677  31.683  1.00  0.00    -0.354 N 
ATOM     54  N   UNL A   1      41.432  30.226  34.113  1.00  0.00    -0.248 NA
ATOM     55  C   UNL A   1      41.916  30.644  36.358  1.00  0.00     0.031 C 
ATOM     56  C   UNL A   1      43.510  27.222  31.613  1.00  0.00     0.029 A 
ATOM     57  C   UNL A   1      42.878  28.149  32.424  1.00  0.00     0.049 A 
ATOM     58  H   UNL A   1      41.202  29.362  32.003  1.00  0.00     0.167 HD
ATOM     59  C   UNL A   1      42.508  29.437  34.503  1.00  0.00     0.074 A 
ATOM     60  C   UNL A   1      42.791  29.767  35.884  1.00  0.00     0.031 C 
ATOM     61  C   UNL A   1      43.190  28.512  33.784  1.00  0.00     0.034 A 
BRANCH  48  62
ATOM     62  C   UNL A   1      40.901  27.585  28.123  1.00  0.00     0.023 A 
ATOM     63  C   UNL A   1      41.563  28.128  27.004  1.00  0.00     0.012 A 
ATOM     64  C   UNL A   1      40.389  26.273  28.052  1.00  0.00     0.148 A 
ATOM     65  C   UNL A   1      41.684  27.394  25.824  1.00  0.00     0.002 A 
ATOM     66  C   UNL A   1      40.552  25.531  26.887  1.00  0.00     0.091 A 
ATOM     67  F   UNL A   1      39.754  25.775  29.122  1.00  0.00    -0.205 F 
ATOM     68  C   UNL A   1      41.188  26.095  25.769  1.00  0.00     0.022 A 
BRANCH  66  69
ATOM     69  S   UNL A   1      40.021  23.822  26.740  1.00  0.00     0.127 S 
ATOM     70  O   UNL A   1      40.091  23.371  28.130  1.00  0.00    -0.237 OA
ATOM     71  O   UNL A   1      38.662  23.965  26.215  1.00  0.00    -0.237 OA
ATOM     72  O   UNL A   1      40.960  23.184  25.829  1.00  0.00    -0.744 OA
ENDBRANCH  66  69
ENDBRANCH  48  62
BRANCH  49  73
ATOM     73  C   UNL A   1      39.860  32.716  36.595  1.00  0.00     0.023 A 
ATOM     74  C   UNL A   1      40.676  33.825  36.893  1.00  0.00     0.012 A 
ATOM     75  C   UNL A   1      38.874  32.320  37.519  1.00  0.00     0.148 A 
ATOM     76  C   UNL A   1      40.535  34.505  38.103  1.00  0.00     0.002 A 
ATOM     77  C   UNL A   1      38.701  33.038  38.696  1.00  0.00     0.091 A 
ATOM     78  F   UNL A   1      38.117  31.254  37.221  1.00  0.00    -0.205 F 
ATOM     79  C   UNL A   1      39.543  34.119  39.000  1.00  0.00     0.022 A 
BRANCH  77  80
ATOM     80  S   UNL A   1      37.366  32.694  39.848  1.00  0.00     0.127 S 
ATOM     81  O   UNL A   1      37.794  31.425  40.431  1.00  0.00    -0.237 OA
ATOM     82  O   UNL A   1      37.445  33.845  40.748  1.00  0.00    -0.237 OA
ATOM     83  O   UNL A   1      36.154  32.642  39.042  1.00  0.00    -0.744 OA
ENDBRANCH  77  80
ENDBRANCH  49  73
BRANCH  61  84
ATOM     84  C   UNL A   1      44.344  27.807  34.453  1.00  0.00     0.023 A 
ATOM     85  C   UNL A   1      45.632  28.376  34.423  1.00  0.00     0.012 A 
ATOM     86  C   UNL A   1      44.133  26.616  35.178  1.00  0.00     0.148 A 
ATOM     87  C   UNL A   1      46.698  27.757  35.077  1.00  0.00     0.002 A 
ATOM     88  C   UNL A   1      45.189  26.033  35.871  1.00  0.00     0.091 A 
ATOM     89  F   UNL A   1      42.905  26.078  35.183  1.00  0.00    -0.205 F 
ATOM     90  C   UNL A   1      46.474  26.595  35.811  1.00  0.00     0.022 A 
BRANCH  88  91
ATOM     91  S   UNL A   1      44.979  24.590  36.919  1.00  0.00     0.127 S 
ATOM     92  O   UNL A   1      44.466  23.603  35.970  1.00  0.00    -0.237 OA
ATOM     93  O   UNL A   1      46.347  24.340  37.378  1.00  0.00    -0.237 OA
ATOM     94  O   UNL A   1      44.049  24.983  37.969  1.00  0.00    -0.744 OA
ENDBRANCH  88  91
ENDBRANCH  61  84
ENDBRANCH  35  36
ENDBRANCH  27  30
ENDBRANCH  25  26
ENDBRANCH  24  25
ENDBRANCH   1  24
TORSDOF 19
ENDMDL
