MODEL 1
REMARK VINA RESULT:     -12.1      0.000      0.000
REMARK SMILES COC(=O)C[C@@H](NC(=O)c1ccccc1C(=O)NCCCNC(=O)c1ccc(-c2c3nc(c(-c4cccc(S(=O)(=O)[O-])c4F)c4ccc([nH]4)c(-c4cccc(S(=O)(=O)[O-])c4F)c4nc(c(-c5cccc(S(=O)(=O)[O-])c5F)c5ccc2[nH]5)C=C4)C=C3)cc1)c1cccc(C)c1C
REMARK SMILES IDX 19 1 18 2 16 3 17 4 15 6 10 7 11 8 12 9 14 10 13 11 8 12
REMARK SMILES IDX 7 13 9 15 6 16 5 17 3 18 4 19 2 20 1 21 88 22 89 23 94 24
REMARK SMILES IDX 90 25 92 26 95 27 91 28 93 29 20 30 21 31 22 32 23 33 24 35
REMARK SMILES IDX 25 36 26 37 87 38 27 39 86 40 28 41 29 42 30 43 80 44 31 45
REMARK SMILES IDX 85 46 79 47 81 48 32 49 84 50 78 51 77 52 33 54 65 55 45 56
REMARK SMILES IDX 64 57 46 58 49 59 63 60 82 61 47 62 48 63 62 65 83 66 50 67
REMARK SMILES IDX 34 68 35 69 43 70 36 71 38 72 44 73 37 74 39 75 40 76 41 77
REMARK SMILES IDX 42 78 66 79 67 80 75 81 68 82 70 83 76 84 69 85 71 86 72 87
REMARK SMILES IDX 73 88 74 89 51 90 52 91 60 92 53 93 55 94 61 95 54 96 56 97
REMARK SMILES IDX 57 98 58 99 59 100
REMARK H PARENT 18 5 7 14 22 34 81 53 49 64
REMARK Flexibility Score: inf
ROOT
ATOM      1  C   UNL A   1      35.549  21.913  26.338  1.00  0.00     0.118 C 
ENDROOT
BRANCH   1   2
ATOM      2  N   UNL A   1      34.506  21.943  27.334  1.00  0.00    -0.352 N 
ATOM      3  C   UNL A   1      33.177  22.240  27.211  1.00  0.00     0.252 C 
ATOM      4  O   UNL A   1      32.535  22.299  28.264  1.00  0.00    -0.269 OA
ATOM      5  H   UNL A   1      34.796  21.714  28.245  1.00  0.00     0.163 HD
BRANCH   3   6
ATOM      6  C   UNL A   1      32.485  22.564  25.928  1.00  0.00     0.052 A 
ATOM      7  C   UNL A   1      31.441  23.466  25.677  1.00  0.00     0.052 A 
ATOM      8  C   UNL A   1      30.876  23.523  24.379  1.00  0.00     0.014 A 
ATOM      9  C   UNL A   1      31.382  22.769  23.321  1.00  0.00     0.001 A 
ATOM     10  C   UNL A   1      32.999  21.831  24.827  1.00  0.00     0.014 A 
ATOM     11  C   UNL A   1      32.464  21.936  23.541  1.00  0.00     0.001 A 
BRANCH   7  12
ATOM     12  C   UNL A   1      30.751  24.388  26.608  1.00  0.00     0.252 C 
ATOM     13  N   UNL A   1      30.952  25.739  26.677  1.00  0.00    -0.345 N 
ATOM     14  H   UNL A   1      30.248  26.208  27.181  1.00  0.00     0.164 HD
ATOM     15  O   UNL A   1      29.853  23.921  27.314  1.00  0.00    -0.269 OA
BRANCH  13  16
ATOM     16  C   UNL A   1      31.990  26.642  26.164  1.00  0.00     0.124 C 
BRANCH  16  17
ATOM     17  C   UNL A   1      32.019  27.936  26.982  1.00  0.00     0.152 C 
BRANCH  17  18
ATOM     18  C   UNL A   1      33.321  28.665  26.791  1.00  0.00     0.307 C 
ATOM     19  O   UNL A   1      34.415  28.118  26.834  1.00  0.00    -0.252 OA
BRANCH  18  20
ATOM     20  O   UNL A   1      33.100  29.986  26.552  1.00  0.00    -0.469 OA
ATOM     21  C   UNL A   1      31.747  30.428  26.728  1.00  0.00     0.282 C 
ENDBRANCH  18  20
ENDBRANCH  17  18
ENDBRANCH  16  17
BRANCH  16  22
ATOM     22  C   UNL A   1      31.811  26.971  24.692  1.00  0.00    -0.022 A 
ATOM     23  C   UNL A   1      30.732  27.789  24.306  1.00  0.00     0.006 A 
ATOM     24  C   UNL A   1      32.648  26.406  23.697  1.00  0.00    -0.043 A 
ATOM     25  C   UNL A   1      30.371  27.907  22.971  1.00  0.00     0.001 A 
ATOM     26  C   UNL A   1      32.238  26.478  22.348  1.00  0.00    -0.048 A 
ATOM     27  C   UNL A   1      33.947  25.715  24.047  1.00  0.00     0.045 C 
ATOM     28  C   UNL A   1      31.094  27.217  22.005  1.00  0.00     0.004 A 
ATOM     29  C   UNL A   1      32.899  25.675  21.256  1.00  0.00     0.044 C 
ENDBRANCH  16  22
ENDBRANCH  13  16
ENDBRANCH   7  12
ENDBRANCH   3   6
ENDBRANCH   1   2
BRANCH   1  30
ATOM     30  C   UNL A   1      36.116  23.264  25.984  1.00  0.00     0.042 C 
BRANCH  30  31
ATOM     31  C   UNL A   1      37.369  23.211  25.132  1.00  0.00     0.118 C 
BRANCH  31  32
ATOM     32  N   UNL A   1      38.447  22.382  25.675  1.00  0.00    -0.352 N 
ATOM     33  C   UNL A   1      39.536  22.730  26.448  1.00  0.00     0.251 C 
ATOM     34  H   UNL A   1      38.385  21.425  25.452  1.00  0.00     0.163 HD
ATOM     35  O   UNL A   1      40.382  21.902  26.751  1.00  0.00    -0.269 OA
BRANCH  33  36
ATOM     36  C   UNL A   1      39.697  24.129  26.883  1.00  0.00     0.039 A 
ATOM     37  C   UNL A   1      39.451  24.470  28.216  1.00  0.00     0.014 A 
ATOM     38  C   UNL A   1      40.154  25.084  25.982  1.00  0.00     0.014 A 
ATOM     39  C   UNL A   1      39.764  25.754  28.659  1.00  0.00     0.010 A 
ATOM     40  C   UNL A   1      40.624  26.292  26.459  1.00  0.00     0.010 A 
ATOM     41  C   UNL A   1      40.399  26.657  27.793  1.00  0.00    -0.014 A 
BRANCH  41  42
ATOM     42  C   UNL A   1      40.780  28.023  28.215  1.00  0.00     0.031 A 
ATOM     43  C   UNL A   1      42.238  28.406  28.195  1.00  0.00     0.074 A 
ATOM     44  C   UNL A   1      39.849  28.858  28.712  1.00  0.00     0.049 A 
ATOM     45  N   UNL A   1      42.816  29.484  28.652  1.00  0.00    -0.248 NA
ATOM     46  C   UNL A   1      43.183  27.412  27.650  1.00  0.00     0.031 C 
ATOM     47  C   UNL A   1      38.425  28.548  28.876  1.00  0.00     0.029 A 
ATOM     48  N   UNL A   1      39.963  30.136  29.194  1.00  0.00    -0.354 N 
ATOM     49  C   UNL A   1      44.181  29.263  28.515  1.00  0.00     0.074 A 
ATOM     50  C   UNL A   1      44.350  27.928  27.995  1.00  0.00     0.031 C 
ATOM     51  C   UNL A   1      37.797  29.616  29.396  1.00  0.00     0.029 A 
ATOM     52  C   UNL A   1      38.774  30.673  29.627  1.00  0.00     0.049 A 
ATOM     53  H   UNL A   1      40.819  30.624  29.228  1.00  0.00     0.167 HD
ATOM     54  C   UNL A   1      45.204  30.116  28.750  1.00  0.00     0.034 A 
ATOM     55  C   UNL A   1      38.510  31.889  30.142  1.00  0.00     0.034 A 
ATOM     56  C   UNL A   1      45.006  31.476  29.162  1.00  0.00     0.049 A 
ATOM     57  C   UNL A   1      39.647  32.869  30.263  1.00  0.00     0.074 A 
ATOM     58  C   UNL A   1      45.947  32.473  29.332  1.00  0.00     0.029 A 
ATOM     59  N   UNL A   1      43.768  32.034  29.446  1.00  0.00    -0.354 N 
ATOM     60  N   UNL A   1      40.919  32.692  29.997  1.00  0.00    -0.248 NA
ATOM     61  C   UNL A   1      39.308  34.227  30.708  1.00  0.00     0.031 C 
ATOM     62  C   UNL A   1      45.275  33.638  29.719  1.00  0.00     0.029 A 
ATOM     63  C   UNL A   1      43.915  33.368  29.773  1.00  0.00     0.049 A 
ATOM     64  H   UNL A   1      42.911  31.551  29.418  1.00  0.00     0.167 HD
ATOM     65  C   UNL A   1      41.528  33.923  30.203  1.00  0.00     0.074 A 
ATOM     66  C   UNL A   1      40.478  34.843  30.595  1.00  0.00     0.031 C 
ATOM     67  C   UNL A   1      42.837  34.266  30.097  1.00  0.00     0.034 A 
BRANCH  54  68
ATOM     68  C   UNL A   1      46.603  29.620  28.488  1.00  0.00     0.023 A 
ATOM     69  C   UNL A   1      47.185  29.810  27.216  1.00  0.00     0.012 A 
ATOM     70  C   UNL A   1      47.346  28.976  29.495  1.00  0.00     0.148 A 
ATOM     71  C   UNL A   1      48.460  29.323  26.934  1.00  0.00     0.002 A 
ATOM     72  C   UNL A   1      48.639  28.540  29.222  1.00  0.00     0.091 A 
ATOM     73  F   UNL A   1      46.772  28.780  30.690  1.00  0.00    -0.205 F 
ATOM     74  C   UNL A   1      49.191  28.698  27.939  1.00  0.00     0.022 A 
BRANCH  72  75
ATOM     75  S   UNL A   1      49.696  27.797  30.470  1.00  0.00     0.127 S 
ATOM     76  O   UNL A   1      48.936  26.598  30.825  1.00  0.00    -0.237 OA
ATOM     77  O   UNL A   1      50.924  27.540  29.719  1.00  0.00    -0.237 OA
ATOM     78  O   UNL A   1      49.826  28.789  31.528  1.00  0.00    -0.744 OA
ENDBRANCH  72  75
ENDBRANCH  54  68
BRANCH  55  79
ATOM     79  C   UNL A   1      37.108  32.279  30.465  1.00  0.00     0.023 A 
ATOM     80  C   UNL A   1      36.616  32.061  31.767  1.00  0.00     0.012 A 
ATOM     81  C   UNL A   1      36.273  32.900  29.515  1.00  0.00     0.148 A 
ATOM     82  C   UNL A   1      35.312  32.420  32.109  1.00  0.00     0.002 A 
ATOM     83  C   UNL A   1      34.992  33.303  29.876  1.00  0.00     0.091 A 
ATOM     84  F   UNL A   1      36.753  33.095  28.278  1.00  0.00    -0.205 F 
ATOM     85  C   UNL A   1      34.503  33.049  31.167  1.00  0.00     0.022 A 
BRANCH  83  86
ATOM     86  S   UNL A   1      33.928  34.237  28.768  1.00  0.00     0.127 S 
ATOM     87  O   UNL A   1      33.583  33.231  27.766  1.00  0.00    -0.237 OA
ATOM     88  O   UNL A   1      32.830  34.625  29.655  1.00  0.00    -0.237 OA
ATOM     89  O   UNL A   1      34.739  35.352  28.298  1.00  0.00    -0.744 OA
ENDBRANCH  83  86
ENDBRANCH  55  79
BRANCH  67  90
ATOM     90  C   UNL A   1      43.197  35.700  30.365  1.00  0.00     0.023 A 
ATOM     91  C   UNL A   1      43.687  36.075  31.631  1.00  0.00     0.012 A 
ATOM     92  C   UNL A   1      43.118  36.658  29.337  1.00  0.00     0.148 A 
ATOM     93  C   UNL A   1      44.059  37.394  31.880  1.00  0.00     0.002 A 
ATOM     94  C   UNL A   1      43.537  37.960  29.578  1.00  0.00     0.091 A 
ATOM     95  F   UNL A   1      42.628  36.284  28.145  1.00  0.00    -0.205 F 
ATOM     96  C   UNL A   1      43.996  38.333  30.852  1.00  0.00     0.022 A 
BRANCH  94  97
ATOM     97  S   UNL A   1      43.585  39.198  28.278  1.00  0.00     0.127 S 
ATOM     98  O   UNL A   1      42.166  39.359  27.967  1.00  0.00    -0.237 OA
ATOM     99  O   UNL A   1      44.195  40.343  28.957  1.00  0.00    -0.237 OA
ATOM    100  O   UNL A   1      44.404  38.626  27.218  1.00  0.00    -0.744 OA
ENDBRANCH  94  97
ENDBRANCH  67  90
ENDBRANCH  41  42
ENDBRANCH  33  36
ENDBRANCH  31  32
ENDBRANCH  30  31
ENDBRANCH   1  30
TORSDOF 19
ENDMDL
MODEL 2
REMARK VINA RESULT:     -12.1      1.729      2.287
REMARK SMILES COC(=O)C[C@@H](NC(=O)c1ccccc1C(=O)NCCCNC(=O)c1ccc(-c2c3nc(c(-c4cccc(S(=O)(=O)[O-])c4F)c4ccc([nH]4)c(-c4cccc(S(=O)(=O)[O-])c4F)c4nc(c(-c5cccc(S(=O)(=O)[O-])c5F)c5ccc2[nH]5)C=C4)C=C3)cc1)c1cccc(C)c1C
REMARK SMILES IDX 19 1 18 2 16 3 17 4 15 6 10 7 11 8 12 9 14 10 13 11 8 12
REMARK SMILES IDX 7 13 9 15 6 16 5 17 3 18 4 19 2 20 1 21 88 22 89 23 94 24
REMARK SMILES IDX 90 25 92 26 95 27 91 28 93 29 20 30 21 31 22 32 23 33 24 35
REMARK SMILES IDX 25 36 26 37 87 38 27 39 86 40 28 41 29 42 30 43 80 44 31 45
REMARK SMILES IDX 85 46 79 47 81 48 32 49 84 50 78 51 77 52 33 54 65 55 45 56
REMARK SMILES IDX 64 57 46 58 49 59 63 60 82 61 47 62 48 63 62 65 83 66 50 67
REMARK SMILES IDX 34 68 35 69 43 70 36 71 38 72 44 73 37 74 39 75 40 76 41 77
REMARK SMILES IDX 42 78 66 79 67 80 75 81 68 82 70 83 76 84 69 85 71 86 72 87
REMARK SMILES IDX 73 88 74 89 51 90 52 91 60 92 53 93 55 94 61 95 54 96 56 97
REMARK SMILES IDX 57 98 58 99 59 100
REMARK H PARENT 18 5 7 14 22 34 81 53 49 64
REMARK Flexibility Score: inf
ROOT
ATOM      1  C   UNL A   1      35.342  21.409  26.166  1.00  0.00     0.118 C 
ENDROOT
BRANCH   1   2
ATOM      2  N   UNL A   1      34.382  21.678  27.208  1.00  0.00    -0.352 N 
ATOM      3  C   UNL A   1      33.118  22.194  27.131  1.00  0.00     0.252 C 
ATOM      4  O   UNL A   1      32.561  22.426  28.208  1.00  0.00    -0.269 OA
ATOM      5  H   UNL A   1      34.684  21.457  28.117  1.00  0.00     0.163 HD
BRANCH   3   6
ATOM      6  C   UNL A   1      32.414  22.556  25.865  1.00  0.00     0.052 A 
ATOM      7  C   UNL A   1      31.378  23.475  25.649  1.00  0.00     0.052 A 
ATOM      8  C   UNL A   1      30.797  23.569  24.359  1.00  0.00     0.014 A 
ATOM      9  C   UNL A   1      31.282  22.836  23.278  1.00  0.00     0.001 A 
ATOM     10  C   UNL A   1      32.906  21.844  24.740  1.00  0.00     0.014 A 
ATOM     11  C   UNL A   1      32.357  21.986  23.464  1.00  0.00     0.001 A 
BRANCH   7  12
ATOM     12  C   UNL A   1      30.709  24.381  26.610  1.00  0.00     0.252 C 
ATOM     13  N   UNL A   1      30.918  25.730  26.703  1.00  0.00    -0.345 N 
ATOM     14  H   UNL A   1      30.226  26.192  27.228  1.00  0.00     0.164 HD
ATOM     15  O   UNL A   1      29.820  23.905  27.321  1.00  0.00    -0.269 OA
BRANCH  13  16
ATOM     16  C   UNL A   1      31.953  26.637  26.190  1.00  0.00     0.124 C 
BRANCH  16  17
ATOM     17  C   UNL A   1      31.968  27.937  26.999  1.00  0.00     0.152 C 
BRANCH  17  18
ATOM     18  C   UNL A   1      33.238  28.706  26.762  1.00  0.00     0.307 C 
ATOM     19  O   UNL A   1      34.349  28.281  27.050  1.00  0.00    -0.252 OA
BRANCH  18  20
ATOM     20  O   UNL A   1      32.970  29.905  26.178  1.00  0.00    -0.469 OA
ATOM     21  C   UNL A   1      31.831  30.605  26.696  1.00  0.00     0.282 C 
ENDBRANCH  18  20
ENDBRANCH  17  18
ENDBRANCH  16  17
BRANCH  16  22
ATOM     22  C   UNL A   1      31.782  26.955  24.715  1.00  0.00    -0.022 A 
ATOM     23  C   UNL A   1      30.695  27.755  24.315  1.00  0.00     0.006 A 
ATOM     24  C   UNL A   1      32.634  26.394  23.730  1.00  0.00    -0.043 A 
ATOM     25  C   UNL A   1      30.344  27.860  22.977  1.00  0.00     0.001 A 
ATOM     26  C   UNL A   1      32.234  26.453  22.377  1.00  0.00    -0.048 A 
ATOM     27  C   UNL A   1      33.939  25.723  24.094  1.00  0.00     0.045 C 
ATOM     28  C   UNL A   1      31.083  27.174  22.021  1.00  0.00     0.004 A 
ATOM     29  C   UNL A   1      32.915  25.653  21.296  1.00  0.00     0.044 C 
ENDBRANCH  16  22
ENDBRANCH  13  16
ENDBRANCH   7  12
ENDBRANCH   3   6
ENDBRANCH   1   2
BRANCH   1  30
ATOM     30  C   UNL A   1      36.056  22.627  25.640  1.00  0.00     0.042 C 
BRANCH  30  31
ATOM     31  C   UNL A   1      37.250  22.321  24.758  1.00  0.00     0.118 C 
BRANCH  31  32
ATOM     32  N   UNL A   1      38.100  21.227  25.235  1.00  0.00    -0.352 N 
ATOM     33  C   UNL A   1      39.218  21.255  26.045  1.00  0.00     0.251 C 
ATOM     34  H   UNL A   1      37.833  20.331  24.927  1.00  0.00     0.163 HD
ATOM     35  O   UNL A   1      39.848  20.236  26.280  1.00  0.00    -0.269 OA
BRANCH  33  36
ATOM     36  C   UNL A   1      39.674  22.540  26.604  1.00  0.00     0.039 A 
ATOM     37  C   UNL A   1      40.666  22.551  27.588  1.00  0.00     0.014 A 
ATOM     38  C   UNL A   1      39.163  23.732  26.102  1.00  0.00     0.014 A 
ATOM     39  C   UNL A   1      41.212  23.769  27.991  1.00  0.00     0.010 A 
ATOM     40  C   UNL A   1      39.821  24.915  26.373  1.00  0.00     0.010 A 
ATOM     41  C   UNL A   1      40.825  24.955  27.349  1.00  0.00    -0.014 A 
BRANCH  41  42
ATOM     42  C   UNL A   1      41.389  26.273  27.715  1.00  0.00     0.031 A 
ATOM     43  C   UNL A   1      42.812  26.584  27.327  1.00  0.00     0.074 A 
ATOM     44  C   UNL A   1      40.674  27.123  28.476  1.00  0.00     0.049 A 
ATOM     45  N   UNL A   1      43.557  27.603  27.663  1.00  0.00    -0.248 NA
ATOM     46  C   UNL A   1      43.517  25.579  26.509  1.00  0.00     0.031 C 
ATOM     47  C   UNL A   1      39.326  26.874  28.997  1.00  0.00     0.029 A 
ATOM     48  N   UNL A   1      40.992  28.362  28.967  1.00  0.00    -0.354 N 
ATOM     49  C   UNL A   1      44.821  27.323  27.160  1.00  0.00     0.074 A 
ATOM     50  C   UNL A   1      44.764  26.015  26.555  1.00  0.00     0.031 C 
ATOM     51  C   UNL A   1      38.925  27.939  29.711  1.00  0.00     0.029 A 
ATOM     52  C   UNL A   1      39.993  28.931  29.722  1.00  0.00     0.049 A 
ATOM     53  H   UNL A   1      41.856  28.804  28.795  1.00  0.00     0.167 HD
ATOM     54  C   UNL A   1      45.922  28.110  27.154  1.00  0.00     0.034 A 
ATOM     55  C   UNL A   1      39.951  30.126  30.342  1.00  0.00     0.034 A 
ATOM     56  C   UNL A   1      45.926  29.451  27.664  1.00  0.00     0.049 A 
ATOM     57  C   UNL A   1      41.139  31.039  30.202  1.00  0.00     0.074 A 
ATOM     58  C   UNL A   1      46.940  30.388  27.623  1.00  0.00     0.029 A 
ATOM     59  N   UNL A   1      44.843  30.051  28.289  1.00  0.00    -0.354 N 
ATOM     60  N   UNL A   1      42.285  30.816  29.602  1.00  0.00    -0.248 NA
ATOM     61  C   UNL A   1      41.015  32.384  30.780  1.00  0.00     0.031 C 
ATOM     62  C   UNL A   1      46.467  31.560  28.225  1.00  0.00     0.029 A 
ATOM     63  C   UNL A   1      45.154  31.355  28.624  1.00  0.00     0.049 A 
ATOM     64  H   UNL A   1      43.979  29.614  28.467  1.00  0.00     0.167 HD
ATOM     65  C   UNL A   1      43.003  32.001  29.694  1.00  0.00     0.074 A 
ATOM     66  C   UNL A   1      42.151  32.946  30.389  1.00  0.00     0.031 C 
ATOM     67  C   UNL A   1      44.257  32.284  29.261  1.00  0.00     0.034 A 
BRANCH  54  68
ATOM     68  C   UNL A   1      47.170  27.561  26.510  1.00  0.00     0.023 A 
ATOM     69  C   UNL A   1      47.442  27.851  25.156  1.00  0.00     0.012 A 
ATOM     70  C   UNL A   1      48.077  26.770  27.240  1.00  0.00     0.148 A 
ATOM     71  C   UNL A   1      48.567  27.321  24.525  1.00  0.00     0.002 A 
ATOM     72  C   UNL A   1      49.225  26.289  26.617  1.00  0.00     0.091 A 
ATOM     73  F   UNL A   1      47.793  26.482  28.518  1.00  0.00    -0.205 F 
ATOM     74  C   UNL A   1      49.463  26.550  25.257  1.00  0.00     0.022 A 
BRANCH  72  75
ATOM     75  S   UNL A   1      50.484  25.355  27.494  1.00  0.00     0.127 S 
ATOM     76  O   UNL A   1      51.454  25.096  26.429  1.00  0.00    -0.237 OA
ATOM     77  O   UNL A   1      50.931  26.314  28.503  1.00  0.00    -0.237 OA
ATOM     78  O   UNL A   1      49.813  24.178  28.027  1.00  0.00    -0.744 OA
ENDBRANCH  72  75
ENDBRANCH  54  68
BRANCH  55  79
ATOM     79  C   UNL A   1      38.709  30.565  31.041  1.00  0.00     0.023 A 
ATOM     80  C   UNL A   1      38.601  30.378  32.433  1.00  0.00     0.012 A 
ATOM     81  C   UNL A   1      37.657  31.202  30.353  1.00  0.00     0.148 A 
ATOM     82  C   UNL A   1      37.457  30.782  33.123  1.00  0.00     0.002 A 
ATOM     83  C   UNL A   1      36.543  31.650  31.055  1.00  0.00     0.091 A 
ATOM     84  F   UNL A   1      37.772  31.368  29.028  1.00  0.00    -0.205 F 
ATOM     85  C   UNL A   1      36.433  31.427  32.436  1.00  0.00     0.022 A 
BRANCH  83  86
ATOM     86  S   UNL A   1      35.235  32.607  30.275  1.00  0.00     0.127 S 
ATOM     87  O   UNL A   1      34.303  32.799  31.382  1.00  0.00    -0.237 OA
ATOM     88  O   UNL A   1      35.950  33.813  29.854  1.00  0.00    -0.237 OA
ATOM     89  O   UNL A   1      34.755  31.783  29.174  1.00  0.00    -0.744 OA
ENDBRANCH  83  86
ENDBRANCH  55  79
BRANCH  67  90
ATOM     90  C   UNL A   1      44.765  33.680  29.487  1.00  0.00     0.023 A 
ATOM     91  C   UNL A   1      45.408  34.004  30.697  1.00  0.00     0.012 A 
ATOM     92  C   UNL A   1      44.667  34.647  28.469  1.00  0.00     0.148 A 
ATOM     93  C   UNL A   1      45.916  35.285  30.904  1.00  0.00     0.002 A 
ATOM     94  C   UNL A   1      45.220  35.906  28.663  1.00  0.00     0.091 A 
ATOM     95  F   UNL A   1      44.031  34.323  27.333  1.00  0.00    -0.205 F 
ATOM     96  C   UNL A   1      45.833  36.232  29.884  1.00  0.00     0.022 A 
BRANCH  94  97
ATOM     97  S   UNL A   1      45.245  37.143  27.361  1.00  0.00     0.127 S 
ATOM     98  O   UNL A   1      43.824  37.281  27.053  1.00  0.00    -0.237 OA
ATOM     99  O   UNL A   1      45.839  38.298  28.037  1.00  0.00    -0.237 OA
ATOM    100  O   UNL A   1      46.071  36.582  26.300  1.00  0.00    -0.744 OA
ENDBRANCH  94  97
ENDBRANCH  67  90
ENDBRANCH  41  42
ENDBRANCH  33  36
ENDBRANCH  31  32
ENDBRANCH  30  31
ENDBRANCH   1  30
TORSDOF 19
ENDMDL
MODEL 3
REMARK VINA RESULT:     -11.8      5.164      8.705
REMARK SMILES COC(=O)C[C@@H](NC(=O)c1ccccc1C(=O)NCCCNC(=O)c1ccc(-c2c3nc(c(-c4cccc(S(=O)(=O)[O-])c4F)c4ccc([nH]4)c(-c4cccc(S(=O)(=O)[O-])c4F)c4nc(c(-c5cccc(S(=O)(=O)[O-])c5F)c5ccc2[nH]5)C=C4)C=C3)cc1)c1cccc(C)c1C
REMARK SMILES IDX 19 1 18 2 16 3 17 4 15 6 10 7 11 8 12 9 14 10 13 11 8 12
REMARK SMILES IDX 7 13 9 15 6 16 5 17 3 18 4 19 2 20 1 21 88 22 89 23 94 24
REMARK SMILES IDX 90 25 92 26 95 27 91 28 93 29 20 30 21 31 22 32 23 33 24 35
REMARK SMILES IDX 25 36 26 37 87 38 27 39 86 40 28 41 29 42 30 43 80 44 31 45
REMARK SMILES IDX 85 46 79 47 81 48 32 49 84 50 78 51 77 52 33 54 65 55 45 56
REMARK SMILES IDX 64 57 46 58 49 59 63 60 82 61 47 62 48 63 62 65 83 66 50 67
REMARK SMILES IDX 34 68 35 69 43 70 36 71 38 72 44 73 37 74 39 75 40 76 41 77
REMARK SMILES IDX 42 78 66 79 67 80 75 81 68 82 70 83 76 84 69 85 71 86 72 87
REMARK SMILES IDX 73 88 74 89 51 90 52 91 60 92 53 93 55 94 61 95 54 96 56 97
REMARK SMILES IDX 57 98 58 99 59 100
REMARK H PARENT 18 5 7 14 22 34 81 53 49 64
REMARK Flexibility Score: inf
ROOT
ATOM      1  C   UNL A   1      31.802  30.479  26.780  1.00  0.00     0.118 C 
ENDROOT
BRANCH   1   2
ATOM      2  N   UNL A   1      32.706  30.108  25.719  1.00  0.00    -0.352 N 
ATOM      3  C   UNL A   1      32.526  29.256  24.665  1.00  0.00     0.252 C 
ATOM      4  O   UNL A   1      33.523  29.038  23.969  1.00  0.00    -0.269 OA
ATOM      5  H   UNL A   1      33.591  30.536  25.760  1.00  0.00     0.163 HD
BRANCH   3   6
ATOM      6  C   UNL A   1      31.259  28.532  24.353  1.00  0.00     0.052 A 
ATOM      7  C   UNL A   1      30.720  27.378  24.940  1.00  0.00     0.052 A 
ATOM      8  C   UNL A   1      29.538  26.815  24.396  1.00  0.00     0.014 A 
ATOM      9  C   UNL A   1      28.849  27.420  23.347  1.00  0.00     0.001 A 
ATOM     10  C   UNL A   1      30.521  29.142  23.306  1.00  0.00     0.014 A 
ATOM     11  C   UNL A   1      29.330  28.603  22.814  1.00  0.00     0.001 A 
BRANCH   7  12
ATOM     12  C   UNL A   1      31.235  26.568  26.067  1.00  0.00     0.252 C 
ATOM     13  N   UNL A   1      32.032  25.462  25.947  1.00  0.00    -0.345 N 
ATOM     14  H   UNL A   1      32.459  25.201  26.794  1.00  0.00     0.164 HD
ATOM     15  O   UNL A   1      31.012  26.972  27.212  1.00  0.00    -0.269 OA
BRANCH  13  16
ATOM     16  C   UNL A   1      32.387  24.580  24.828  1.00  0.00     0.124 C 
BRANCH  16  17
ATOM     17  C   UNL A   1      31.329  23.485  24.659  1.00  0.00     0.152 C 
BRANCH  17  18
ATOM     18  C   UNL A   1      31.286  22.587  25.864  1.00  0.00     0.307 C 
ATOM     19  O   UNL A   1      31.144  22.997  27.008  1.00  0.00    -0.252 OA
BRANCH  18  20
ATOM     20  O   UNL A   1      31.407  21.283  25.494  1.00  0.00    -0.469 OA
ATOM     21  C   UNL A   1      32.693  20.692  25.722  1.00  0.00     0.282 C 
ENDBRANCH  18  20
ENDBRANCH  17  18
ENDBRANCH  16  17
BRANCH  16  22
ATOM     22  C   UNL A   1      33.758  23.946  24.988  1.00  0.00    -0.022 A 
ATOM     23  C   UNL A   1      34.376  23.977  26.252  1.00  0.00     0.006 A 
ATOM     24  C   UNL A   1      34.460  23.406  23.881  1.00  0.00    -0.043 A 
ATOM     25  C   UNL A   1      35.718  23.651  26.395  1.00  0.00     0.001 A 
ATOM     26  C   UNL A   1      35.840  23.138  24.021  1.00  0.00    -0.048 A 
ATOM     27  C   UNL A   1      33.778  23.134  22.559  1.00  0.00     0.045 C 
ATOM     28  C   UNL A   1      36.453  23.279  25.276  1.00  0.00     0.004 A 
ATOM     29  C   UNL A   1      36.730  22.835  22.843  1.00  0.00     0.044 C 
ENDBRANCH  16  22
ENDBRANCH  13  16
ENDBRANCH   7  12
ENDBRANCH   3   6
ENDBRANCH   1   2
BRANCH   1  30
ATOM     30  C   UNL A   1      31.488  31.951  26.850  1.00  0.00     0.042 C 
BRANCH  30  31
ATOM     31  C   UNL A   1      32.704  32.844  26.994  1.00  0.00     0.118 C 
BRANCH  31  32
ATOM     32  N   UNL A   1      32.463  34.101  27.706  1.00  0.00    -0.352 N 
ATOM     33  C   UNL A   1      33.136  34.665  28.772  1.00  0.00     0.251 C 
ATOM     34  H   UNL A   1      31.699  34.625  27.374  1.00  0.00     0.163 HD
ATOM     35  O   UNL A   1      32.741  35.700  29.287  1.00  0.00    -0.269 OA
BRANCH  33  36
ATOM     36  C   UNL A   1      34.327  33.988  29.316  1.00  0.00     0.039 A 
ATOM     37  C   UNL A   1      35.596  34.516  29.063  1.00  0.00     0.014 A 
ATOM     38  C   UNL A   1      34.176  32.870  30.127  1.00  0.00     0.014 A 
ATOM     39  C   UNL A   1      36.702  33.972  29.714  1.00  0.00     0.010 A 
ATOM     40  C   UNL A   1      35.240  32.448  30.900  1.00  0.00     0.010 A 
ATOM     41  C   UNL A   1      36.522  32.966  30.675  1.00  0.00    -0.014 A 
BRANCH  41  42
ATOM     42  C   UNL A   1      37.654  32.369  31.418  1.00  0.00     0.031 A 
ATOM     43  C   UNL A   1      38.434  31.253  30.772  1.00  0.00     0.074 A 
ATOM     44  C   UNL A   1      37.899  32.745  32.687  1.00  0.00     0.049 A 
ATOM     45  N   UNL A   1      39.362  30.489  31.283  1.00  0.00    -0.248 NA
ATOM     46  C   UNL A   1      38.076  30.901  29.384  1.00  0.00     0.031 C 
ATOM     47  C   UNL A   1      37.135  33.740  33.445  1.00  0.00     0.029 A 
ATOM     48  N   UNL A   1      38.850  32.316  33.576  1.00  0.00    -0.354 N 
ATOM     49  C   UNL A   1      39.638  29.534  30.312  1.00  0.00     0.074 A 
ATOM     50  C   UNL A   1      38.739  29.771  29.209  1.00  0.00     0.031 C 
ATOM     51  C   UNL A   1      37.664  33.863  34.673  1.00  0.00     0.029 A 
ATOM     52  C   UNL A   1      38.784  32.938  34.800  1.00  0.00     0.049 A 
ATOM     53  H   UNL A   1      39.518  31.625  33.358  1.00  0.00     0.167 HD
ATOM     54  C   UNL A   1      40.594  28.577  30.314  1.00  0.00     0.034 A 
ATOM     55  C   UNL A   1      39.554  32.780  35.894  1.00  0.00     0.034 A 
ATOM     56  C   UNL A   1      41.549  28.430  31.374  1.00  0.00     0.049 A 
ATOM     57  C   UNL A   1      40.698  31.805  35.820  1.00  0.00     0.074 A 
ATOM     58  C   UNL A   1      42.630  27.574  31.451  1.00  0.00     0.029 A 
ATOM     59  N   UNL A   1      41.545  29.185  32.538  1.00  0.00    -0.354 N 
ATOM     60  N   UNL A   1      41.035  31.003  34.838  1.00  0.00    -0.248 NA
ATOM     61  C   UNL A   1      41.597  31.746  36.980  1.00  0.00     0.031 C 
ATOM     62  C   UNL A   1      43.282  27.813  32.666  1.00  0.00     0.029 A 
ATOM     63  C   UNL A   1      42.616  28.829  33.335  1.00  0.00     0.049 A 
ATOM     64  H   UNL A   1      40.878  29.873  32.763  1.00  0.00     0.167 HD
ATOM     65  C   UNL A   1      42.205  30.372  35.243  1.00  0.00     0.074 A 
ATOM     66  C   UNL A   1      42.528  30.905  36.552  1.00  0.00     0.031 C 
ATOM     67  C   UNL A   1      42.939  29.427  34.605  1.00  0.00     0.034 A 
BRANCH  54  68
ATOM     68  C   UNL A   1      40.690  27.683  29.104  1.00  0.00     0.023 A 
ATOM     69  C   UNL A   1      39.880  26.529  29.022  1.00  0.00     0.012 A 
ATOM     70  C   UNL A   1      41.569  27.983  28.046  1.00  0.00     0.148 A 
ATOM     71  C   UNL A   1      39.980  25.663  27.934  1.00  0.00     0.002 A 
ATOM     72  C   UNL A   1      41.624  27.142  26.939  1.00  0.00     0.091 A 
ATOM     73  F   UNL A   1      42.349  29.067  28.149  1.00  0.00    -0.205 F 
ATOM     74  C   UNL A   1      40.843  25.974  26.889  1.00  0.00     0.022 A 
BRANCH  72  75
ATOM     75  S   UNL A   1      42.642  27.496  25.502  1.00  0.00     0.127 S 
ATOM     76  O   UNL A   1      43.981  27.535  26.091  1.00  0.00    -0.237 OA
ATOM     77  O   UNL A   1      42.385  26.335  24.651  1.00  0.00    -0.237 OA
ATOM     78  O   UNL A   1      42.157  28.760  24.968  1.00  0.00    -0.744 OA
ENDBRANCH  72  75
ENDBRANCH  54  68
BRANCH  55  79
ATOM     79  C   UNL A   1      39.339  33.641  37.093  1.00  0.00     0.023 A 
ATOM     80  C   UNL A   1      39.759  34.985  37.057  1.00  0.00     0.012 A 
ATOM     81  C   UNL A   1      38.688  33.158  38.244  1.00  0.00     0.148 A 
ATOM     82  C   UNL A   1      39.568  35.824  38.157  1.00  0.00     0.002 A 
ATOM     83  C   UNL A   1      38.454  34.013  39.317  1.00  0.00     0.091 A 
ATOM     84  F   UNL A   1      38.300  31.875  38.265  1.00  0.00    -0.205 F 
ATOM     85  C   UNL A   1      38.907  35.340  39.282  1.00  0.00     0.022 A 
BRANCH  83  86
ATOM     86  S   UNL A   1      37.496  33.513  40.754  1.00  0.00     0.127 S 
ATOM     87  O   UNL A   1      37.346  34.778  41.469  1.00  0.00    -0.237 OA
ATOM     88  O   UNL A   1      36.269  33.004  40.139  1.00  0.00    -0.237 OA
ATOM     89  O   UNL A   1      38.297  32.495  41.420  1.00  0.00    -0.744 OA
ENDBRANCH  83  86
ENDBRANCH  55  79
BRANCH  67  90
ATOM     90  C   UNL A   1      44.185  28.943  35.291  1.00  0.00     0.023 A 
ATOM     91  C   UNL A   1      45.417  29.576  35.037  1.00  0.00     0.012 A 
ATOM     92  C   UNL A   1      44.118  27.906  36.242  1.00  0.00     0.148 A 
ATOM     93  C   UNL A   1      46.572  29.160  35.695  1.00  0.00     0.002 A 
ATOM     94  C   UNL A   1      45.264  27.531  36.930  1.00  0.00     0.091 A 
ATOM     95  F   UNL A   1      42.938  27.302  36.453  1.00  0.00    -0.205 F 
ATOM     96  C   UNL A   1      46.494  28.147  36.649  1.00  0.00     0.022 A 
BRANCH  94  97
ATOM     97  S   UNL A   1      45.224  26.309  38.246  1.00  0.00     0.127 S 
ATOM     98  O   UNL A   1      44.229  26.879  39.152  1.00  0.00    -0.237 OA
ATOM     99  O   UNL A   1      44.787  25.103  37.541  1.00  0.00    -0.237 OA
ATOM    100  O   UNL A   1      46.585  26.240  38.762  1.00  0.00    -0.744 OA
ENDBRANCH  94  97
ENDBRANCH  67  90
ENDBRANCH  41  42
ENDBRANCH  33  36
ENDBRANCH  31  32
ENDBRANCH  30  31
ENDBRANCH   1  30
TORSDOF 19
ENDMDL
