MODEL 1
REMARK VINA RESULT:      -9.5      0.000      0.000
REMARK SMILES C/C=C(\C)[C@H]1C(C)=C[C@H]2CC[C@@H](OS(=O)(=O)[O-])[C@@H](C)[C@H]2[C@H]1/C=C/C=C/C(=O)NCCCNC(=O)c1ccc(-c2c3nc(c(-c4cccc(S(=O)(=O)[O-])c4F)c4ccc([nH]4)c(-c4cccc(S(=O)(=O)[O-])c4F)c4nc(c(-c5cccc(S(=O)(=O)[O-])c5F)c5ccc2[nH]5)C=C4)C=C3)cc1
REMARK SMILES IDX 29 1 28 2 26 3 27 4 25 6 24 7 23 8 22 9 21 10 5 11 6 12 7 13
REMARK SMILES IDX 8 14 20 15 9 16 18 17 10 18 12 19 19 20 11 21 3 22 1 23 2 24
REMARK SMILES IDX 4 25 13 26 14 27 15 28 16 29 17 30 30 31 31 32 32 33 33 34
REMARK SMILES IDX 34 36 35 37 36 38 97 39 37 40 96 41 38 42 39 43 40 44 90 45
REMARK SMILES IDX 41 46 95 47 89 48 91 49 42 50 94 51 88 52 87 53 43 55 75 56
REMARK SMILES IDX 55 57 74 58 56 59 59 60 73 61 92 62 57 63 58 64 72 66 93 67
REMARK SMILES IDX 60 68 44 69 45 70 53 71 46 72 48 73 54 74 47 75 49 76 50 77
REMARK SMILES IDX 51 78 52 79 76 80 77 81 85 82 78 83 80 84 86 85 79 86 81 87
REMARK SMILES IDX 82 88 83 89 84 90 61 91 62 92 70 93 63 94 65 95 71 96 64 97
REMARK SMILES IDX 66 98 67 99 68 100 69 101
REMARK H PARENT 28 5 32 35 91 54 59 65
REMARK Flexibility Score: inf
ROOT
ATOM      1  C   UNL A   1      40.080  33.259  39.039  1.00  0.00     0.118 C 
ENDROOT
BRANCH   1   2
ATOM      2  N   UNL A   1      38.780  32.639  38.817  1.00  0.00    -0.352 N 
ATOM      3  C   UNL A   1      38.094  32.333  37.683  1.00  0.00     0.243 C 
ATOM      4  O   UNL A   1      37.049  31.690  37.775  1.00  0.00    -0.270 OA
ATOM      5  H   UNL A   1      38.310  32.395  39.646  1.00  0.00     0.163 HD
BRANCH   3   6
ATOM      6  C   UNL A   1      38.614  32.660  36.334  1.00  0.00     0.071 C 
ATOM      7  C   UNL A   1      38.560  31.840  35.280  1.00  0.00     0.005 C 
BRANCH   7   8
ATOM      8  C   UNL A   1      38.966  32.187  33.939  1.00  0.00    -0.004 C 
ATOM      9  C   UNL A   1      38.007  32.296  33.005  1.00  0.00    -0.022 C 
BRANCH   9  10
ATOM     10  C   UNL A   1      38.171  32.559  31.521  1.00  0.00     0.027 C 
ATOM     11  C   UNL A   1      38.345  31.257  30.589  1.00  0.00     0.047 C 
ATOM     12  C   UNL A   1      37.656  31.379  29.218  1.00  0.00    -0.069 C 
ATOM     13  C   UNL A   1      37.667  30.210  28.264  1.00  0.00     0.040 C 
ATOM     14  C   UNL A   1      37.151  32.545  28.768  1.00  0.00    -0.024 C 
ATOM     15  C   UNL A   1      37.102  33.593  31.060  1.00  0.00     0.009 C 
ATOM     16  C   UNL A   1      37.192  33.828  29.540  1.00  0.00     0.016 C 
ATOM     17  C   UNL A   1      35.645  33.383  31.591  1.00  0.00     0.021 C 
ATOM     18  C   UNL A   1      36.152  34.848  29.042  1.00  0.00     0.011 C 
ATOM     19  C   UNL A   1      34.739  34.523  31.082  1.00  0.00     0.141 C 
ATOM     20  C   UNL A   1      35.033  32.002  31.333  1.00  0.00     0.011 C 
ATOM     21  C   UNL A   1      34.742  34.590  29.557  1.00  0.00     0.034 C 
BRANCH  11  22
ATOM     22  C   UNL A   1      38.206  29.898  31.334  1.00  0.00    -0.070 C 
ATOM     23  C   UNL A   1      39.449  27.991  32.518  1.00  0.00     0.035 C 
ATOM     24  C   UNL A   1      39.329  29.219  31.670  1.00  0.00    -0.031 C 
ATOM     25  C   UNL A   1      36.850  29.366  31.718  1.00  0.00     0.040 C 
ENDBRANCH  11  22
BRANCH  19  26
ATOM     26  O   UNL A   1      33.414  34.328  31.554  1.00  0.00    -0.276 OA
BRANCH  26  27
ATOM     27  S   UNL A   1      32.624  35.593  32.190  1.00  0.00     0.217 S 
ATOM     28  O   UNL A   1      31.317  35.164  32.640  1.00  0.00    -0.213 OA
ATOM     29  O   UNL A   1      33.514  36.314  33.066  1.00  0.00    -0.213 OA
ATOM     30  O   UNL A   1      32.375  36.543  30.915  1.00  0.00    -0.726 OA
ENDBRANCH  26  27
ENDBRANCH  19  26
ENDBRANCH   9  10
ENDBRANCH   7   8
ENDBRANCH   3   6
ENDBRANCH   1   2
BRANCH   1  31
ATOM     31  C   UNL A   1      40.007  34.367  40.090  1.00  0.00     0.042 C 
BRANCH  31  32
ATOM     32  C   UNL A   1      39.320  35.640  39.598  1.00  0.00     0.118 C 
BRANCH  32  33
ATOM     33  N   UNL A   1      40.255  36.751  39.481  1.00  0.00    -0.352 N 
ATOM     34  C   UNL A   1      41.364  36.908  38.689  1.00  0.00     0.251 C 
ATOM     35  H   UNL A   1      40.059  37.515  40.069  1.00  0.00     0.163 HD
ATOM     36  O   UNL A   1      42.145  37.823  38.943  1.00  0.00    -0.269 OA
BRANCH  34  37
ATOM     37  C   UNL A   1      41.630  36.009  37.542  1.00  0.00     0.039 A 
ATOM     38  C   UNL A   1      42.856  35.339  37.491  1.00  0.00     0.014 A 
ATOM     39  C   UNL A   1      40.725  35.872  36.487  1.00  0.00     0.014 A 
ATOM     40  C   UNL A   1      43.155  34.511  36.408  1.00  0.00     0.010 A 
ATOM     41  C   UNL A   1      40.985  34.977  35.451  1.00  0.00     0.010 A 
ATOM     42  C   UNL A   1      42.211  34.300  35.389  1.00  0.00    -0.014 A 
BRANCH  42  43
ATOM     43  C   UNL A   1      42.499  33.361  34.272  1.00  0.00     0.031 A 
ATOM     44  C   UNL A   1      42.707  33.865  32.868  1.00  0.00     0.074 A 
ATOM     45  C   UNL A   1      42.528  32.037  34.520  1.00  0.00     0.049 A 
ATOM     46  N   UNL A   1      43.009  33.192  31.789  1.00  0.00    -0.248 NA
ATOM     47  C   UNL A   1      42.526  35.307  32.639  1.00  0.00     0.031 C 
ATOM     48  C   UNL A   1      42.256  31.417  35.819  1.00  0.00     0.029 A 
ATOM     49  N   UNL A   1      42.788  30.973  33.694  1.00  0.00    -0.354 N 
ATOM     50  C   UNL A   1      43.024  34.117  30.751  1.00  0.00     0.074 A 
ATOM     51  C   UNL A   1      42.659  35.393  31.324  1.00  0.00     0.031 C 
ATOM     52  C   UNL A   1      42.396  30.088  35.710  1.00  0.00     0.029 A 
ATOM     53  C   UNL A   1      42.733  29.756  34.331  1.00  0.00     0.049 A 
ATOM     54  H   UNL A   1      42.995  31.073  32.736  1.00  0.00     0.167 HD
ATOM     55  C   UNL A   1      43.339  33.928  29.446  1.00  0.00     0.034 A 
ATOM     56  C   UNL A   1      42.938  28.510  33.859  1.00  0.00     0.034 A 
ATOM     57  C   UNL A   1      43.723  32.659  28.888  1.00  0.00     0.049 A 
ATOM     58  C   UNL A   1      43.325  28.330  32.418  1.00  0.00     0.074 A 
ATOM     59  C   UNL A   1      44.146  32.376  27.601  1.00  0.00     0.029 A 
ATOM     60  N   UNL A   1      43.713  31.455  29.577  1.00  0.00    -0.354 N 
ATOM     61  N   UNL A   1      43.492  29.239  31.489  1.00  0.00    -0.248 NA
ATOM     62  C   UNL A   1      43.590  26.956  31.971  1.00  0.00     0.031 C 
ATOM     63  C   UNL A   1      44.350  30.995  27.501  1.00  0.00     0.029 A 
ATOM     64  C   UNL A   1      44.104  30.424  28.740  1.00  0.00     0.049 A 
ATOM     65  H   UNL A   1      43.463  31.349  30.523  1.00  0.00     0.167 HD
ATOM     66  C   UNL A   1      43.921  28.554  30.358  1.00  0.00     0.074 A 
ATOM     67  C   UNL A   1      44.003  27.155  30.727  1.00  0.00     0.031 C 
ATOM     68  C   UNL A   1      44.217  29.040  29.126  1.00  0.00     0.034 A 
BRANCH  55  69
ATOM     69  C   UNL A   1      43.309  35.135  28.539  1.00  0.00     0.023 A 
ATOM     70  C   UNL A   1      42.094  35.540  27.948  1.00  0.00     0.012 A 
ATOM     71  C   UNL A   1      44.475  35.888  28.297  1.00  0.00     0.148 A 
ATOM     72  C   UNL A   1      42.049  36.641  27.092  1.00  0.00     0.002 A 
ATOM     73  C   UNL A   1      44.412  37.014  27.484  1.00  0.00     0.091 A 
ATOM     74  F   UNL A   1      45.627  35.482  28.850  1.00  0.00    -0.205 F 
ATOM     75  C   UNL A   1      43.205  37.382  26.867  1.00  0.00     0.022 A 
BRANCH  73  76
ATOM     76  S   UNL A   1      45.827  38.085  27.203  1.00  0.00     0.127 S 
ATOM     77  O   UNL A   1      45.257  39.100  26.318  1.00  0.00    -0.237 OA
ATOM     78  O   UNL A   1      46.129  38.558  28.555  1.00  0.00    -0.237 OA
ATOM     79  O   UNL A   1      46.856  37.244  26.613  1.00  0.00    -0.744 OA
ENDBRANCH  73  76
ENDBRANCH  55  69
BRANCH  56  80
ATOM     80  C   UNL A   1      42.860  27.349  34.789  1.00  0.00     0.023 A 
ATOM     81  C   UNL A   1      41.649  26.640  34.913  1.00  0.00     0.012 A 
ATOM     82  C   UNL A   1      43.989  26.913  35.509  1.00  0.00     0.148 A 
ATOM     83  C   UNL A   1      41.556  25.533  35.757  1.00  0.00     0.002 A 
ATOM     84  C   UNL A   1      43.905  25.776  36.304  1.00  0.00     0.091 A 
ATOM     85  F   UNL A   1      45.129  27.605  35.379  1.00  0.00    -0.205 F 
ATOM     86  C   UNL A   1      42.685  25.096  36.444  1.00  0.00     0.022 A 
BRANCH  84  87
ATOM     87  S   UNL A   1      45.336  25.059  37.118  1.00  0.00     0.127 S 
ATOM     88  O   UNL A   1      46.067  24.489  35.990  1.00  0.00    -0.237 OA
ATOM     89  O   UNL A   1      45.956  26.238  37.725  1.00  0.00    -0.237 OA
ATOM     90  O   UNL A   1      44.806  24.097  38.075  1.00  0.00    -0.744 OA
ENDBRANCH  84  87
ENDBRANCH  56  80
BRANCH  68  91
ATOM     91  C   UNL A   1      44.705  28.059  28.091  1.00  0.00     0.023 A 
ATOM     92  C   UNL A   1      46.086  27.842  27.913  1.00  0.00     0.012 A 
ATOM     93  C   UNL A   1      43.784  27.309  27.332  1.00  0.00     0.148 A 
ATOM     94  C   UNL A   1      46.542  26.926  26.965  1.00  0.00     0.002 A 
ATOM     95  C   UNL A   1      44.246  26.358  26.431  1.00  0.00     0.091 A 
ATOM     96  F   UNL A   1      42.475  27.543  27.502  1.00  0.00    -0.205 F 
ATOM     97  C   UNL A   1      45.623  26.176  26.234  1.00  0.00     0.022 A 
BRANCH  95  98
ATOM     98  S   UNL A   1      43.136  25.277  25.522  1.00  0.00     0.127 S 
ATOM     99  O   UNL A   1      42.345  26.238  24.757  1.00  0.00    -0.237 OA
ATOM    100  O   UNL A   1      44.067  24.479  24.723  1.00  0.00    -0.237 OA
ATOM    101  O   UNL A   1      42.401  24.519  26.526  1.00  0.00    -0.744 OA
ENDBRANCH  95  98
ENDBRANCH  68  91
ENDBRANCH  42  43
ENDBRANCH  34  37
ENDBRANCH  32  33
ENDBRANCH  31  32
ENDBRANCH   1  31
TORSDOF 18
ENDMDL
MODEL 2
REMARK VINA RESULT:      -9.4      4.625     10.105
REMARK SMILES C/C=C(\C)[C@H]1C(C)=C[C@H]2CC[C@@H](OS(=O)(=O)[O-])[C@@H](C)[C@H]2[C@H]1/C=C/C=C/C(=O)NCCCNC(=O)c1ccc(-c2c3nc(c(-c4cccc(S(=O)(=O)[O-])c4F)c4ccc([nH]4)c(-c4cccc(S(=O)(=O)[O-])c4F)c4nc(c(-c5cccc(S(=O)(=O)[O-])c5F)c5ccc2[nH]5)C=C4)C=C3)cc1
REMARK SMILES IDX 29 1 28 2 26 3 27 4 25 6 24 7 23 8 22 9 21 10 5 11 6 12 7 13
REMARK SMILES IDX 8 14 20 15 9 16 18 17 10 18 12 19 19 20 11 21 3 22 1 23 2 24
REMARK SMILES IDX 4 25 13 26 14 27 15 28 16 29 17 30 30 31 31 32 32 33 33 34
REMARK SMILES IDX 34 36 35 37 36 38 97 39 37 40 96 41 38 42 39 43 40 44 90 45
REMARK SMILES IDX 41 46 95 47 89 48 91 49 42 50 94 51 88 52 87 53 43 55 75 56
REMARK SMILES IDX 55 57 74 58 56 59 59 60 73 61 92 62 57 63 58 64 72 66 93 67
REMARK SMILES IDX 60 68 44 69 45 70 53 71 46 72 48 73 54 74 47 75 49 76 50 77
REMARK SMILES IDX 51 78 52 79 76 80 77 81 85 82 78 83 80 84 86 85 79 86 81 87
REMARK SMILES IDX 82 88 83 89 84 90 61 91 62 92 70 93 63 94 65 95 71 96 64 97
REMARK SMILES IDX 66 98 67 99 68 100 69 101
REMARK H PARENT 28 5 32 35 91 54 59 65
REMARK Flexibility Score: inf
ROOT
ATOM      1  C   UNL A   1      34.666  34.248  27.564  1.00  0.00     0.118 C 
ENDROOT
BRANCH   1   2
ATOM      2  N   UNL A   1      35.775  33.318  27.732  1.00  0.00    -0.352 N 
ATOM      3  C   UNL A   1      35.821  31.968  27.900  1.00  0.00     0.243 C 
ATOM      4  O   UNL A   1      36.914  31.405  27.896  1.00  0.00    -0.270 OA
ATOM      5  H   UNL A   1      36.660  33.748  27.720  1.00  0.00     0.163 HD
BRANCH   3   6
ATOM      6  C   UNL A   1      34.593  31.143  27.988  1.00  0.00     0.071 C 
ATOM      7  C   UNL A   1      34.358  30.050  27.255  1.00  0.00     0.005 C 
BRANCH   7   8
ATOM      8  C   UNL A   1      33.217  29.179  27.406  1.00  0.00    -0.004 C 
ATOM      9  C   UNL A   1      33.159  28.084  26.631  1.00  0.00    -0.022 C 
BRANCH   9  10
ATOM     10  C   UNL A   1      32.040  27.067  26.531  1.00  0.00     0.027 C 
ATOM     11  C   UNL A   1      30.928  27.349  25.401  1.00  0.00     0.047 C 
ATOM     12  C   UNL A   1      30.402  26.075  24.715  1.00  0.00    -0.069 C 
ATOM     13  C   UNL A   1      29.412  26.185  23.583  1.00  0.00     0.040 C 
ATOM     14  C   UNL A   1      30.689  24.841  25.175  1.00  0.00    -0.024 C 
ATOM     15  C   UNL A   1      32.647  25.632  26.551  1.00  0.00     0.009 C 
ATOM     16  C   UNL A   1      31.542  24.572  26.376  1.00  0.00     0.016 C 
ATOM     17  C   UNL A   1      33.913  25.391  25.664  1.00  0.00     0.021 C 
ATOM     18  C   UNL A   1      32.100  23.137  26.393  1.00  0.00     0.011 C 
ATOM     19  C   UNL A   1      34.406  23.941  25.848  1.00  0.00     0.141 C 
ATOM     20  C   UNL A   1      33.774  25.768  24.185  1.00  0.00     0.011 C 
ATOM     21  C   UNL A   1      33.313  22.937  25.493  1.00  0.00     0.034 C 
BRANCH  11  22
ATOM     22  C   UNL A   1      31.220  28.576  24.490  1.00  0.00    -0.070 C 
ATOM     23  C   UNL A   1      32.202  29.375  22.258  1.00  0.00     0.035 C 
ATOM     24  C   UNL A   1      31.938  28.391  23.355  1.00  0.00    -0.031 C 
ATOM     25  C   UNL A   1      30.677  29.937  24.835  1.00  0.00     0.040 C 
ENDBRANCH  11  22
BRANCH  19  26
ATOM     26  O   UNL A   1      35.549  23.717  25.036  1.00  0.00    -0.276 OA
BRANCH  26  27
ATOM     27  S   UNL A   1      36.725  22.755  25.600  1.00  0.00     0.217 S 
ATOM     28  O   UNL A   1      37.721  23.561  26.274  1.00  0.00    -0.213 OA
ATOM     29  O   UNL A   1      36.131  21.611  26.247  1.00  0.00    -0.213 OA
ATOM     30  O   UNL A   1      37.420  22.206  24.257  1.00  0.00    -0.726 OA
ENDBRANCH  26  27
ENDBRANCH  19  26
ENDBRANCH   9  10
ENDBRANCH   7   8
ENDBRANCH   3   6
ENDBRANCH   1   2
BRANCH   1  31
ATOM     31  C   UNL A   1      34.398  35.046  28.840  1.00  0.00     0.042 C 
BRANCH  31  32
ATOM     32  C   UNL A   1      33.173  34.571  29.618  1.00  0.00     0.118 C 
BRANCH  32  33
ATOM     33  N   UNL A   1      32.907  35.412  30.778  1.00  0.00    -0.352 N 
ATOM     34  C   UNL A   1      33.434  35.384  32.044  1.00  0.00     0.251 C 
ATOM     35  H   UNL A   1      32.237  36.118  30.628  1.00  0.00     0.163 HD
ATOM     36  O   UNL A   1      32.875  36.028  32.930  1.00  0.00    -0.269 OA
BRANCH  34  37
ATOM     37  C   UNL A   1      34.654  34.605  32.357  1.00  0.00     0.039 A 
ATOM     38  C   UNL A   1      35.899  35.161  32.046  1.00  0.00     0.014 A 
ATOM     39  C   UNL A   1      34.588  33.313  32.886  1.00  0.00     0.014 A 
ATOM     40  C   UNL A   1      37.068  34.440  32.297  1.00  0.00     0.010 A 
ATOM     41  C   UNL A   1      35.758  32.631  33.218  1.00  0.00     0.010 A 
ATOM     42  C   UNL A   1      37.011  33.178  32.911  1.00  0.00    -0.014 A 
BRANCH  42  43
ATOM     43  C   UNL A   1      38.259  32.441  33.244  1.00  0.00     0.031 A 
ATOM     44  C   UNL A   1      39.037  32.757  34.494  1.00  0.00     0.074 A 
ATOM     45  C   UNL A   1      38.718  31.509  32.386  1.00  0.00     0.049 A 
ATOM     46  N   UNL A   1      40.117  32.183  34.957  1.00  0.00    -0.248 NA
ATOM     47  C   UNL A   1      38.558  33.878  35.318  1.00  0.00     0.031 C 
ATOM     48  C   UNL A   1      38.103  31.173  31.099  1.00  0.00     0.029 A 
ATOM     49  N   UNL A   1      39.809  30.681  32.458  1.00  0.00    -0.354 N 
ATOM     50  C   UNL A   1      40.464  32.889  36.103  1.00  0.00     0.074 A 
ATOM     51  C   UNL A   1      39.503  33.960  36.242  1.00  0.00     0.031 C 
ATOM     52  C   UNL A   1      38.806  30.189  30.520  1.00  0.00     0.029 A 
ATOM     53  C   UNL A   1      39.939  29.846  31.373  1.00  0.00     0.049 A 
ATOM     54  H   UNL A   1      40.440  30.685  33.215  1.00  0.00     0.167 HD
ATOM     55  C   UNL A   1      41.474  32.652  36.977  1.00  0.00     0.034 A 
ATOM     56  C   UNL A   1      40.862  28.904  31.097  1.00  0.00     0.034 A 
ATOM     57  C   UNL A   1      42.414  31.570  36.844  1.00  0.00     0.049 A 
ATOM     58  C   UNL A   1      41.949  28.632  32.099  1.00  0.00     0.074 A 
ATOM     59  C   UNL A   1      43.418  31.189  37.717  1.00  0.00     0.029 A 
ATOM     60  N   UNL A   1      42.479  30.707  35.760  1.00  0.00    -0.354 N 
ATOM     61  N   UNL A   1      42.164  29.205  33.258  1.00  0.00    -0.248 NA
ATOM     62  C   UNL A   1      42.896  27.558  31.773  1.00  0.00     0.031 C 
ATOM     63  C   UNL A   1      44.116  30.122  37.140  1.00  0.00     0.029 A 
ATOM     64  C   UNL A   1      43.516  29.805  35.932  1.00  0.00     0.049 A 
ATOM     65  H   UNL A   1      41.876  30.731  34.983  1.00  0.00     0.167 HD
ATOM     66  C   UNL A   1      43.245  28.536  33.820  1.00  0.00     0.074 A 
ATOM     67  C   UNL A   1      43.628  27.503  32.878  1.00  0.00     0.031 C 
ATOM     68  C   UNL A   1      43.866  28.758  35.006  1.00  0.00     0.034 A 
BRANCH  55  69
ATOM     69  C   UNL A   1      41.593  33.567  38.171  1.00  0.00     0.023 A 
ATOM     70  C   UNL A   1      42.565  34.590  38.180  1.00  0.00     0.012 A 
ATOM     71  C   UNL A   1      40.723  33.439  39.272  1.00  0.00     0.148 A 
ATOM     72  C   UNL A   1      42.704  35.433  39.282  1.00  0.00     0.002 A 
ATOM     73  C   UNL A   1      40.833  34.317  40.345  1.00  0.00     0.091 A 
ATOM     74  F   UNL A   1      39.816  32.452  39.260  1.00  0.00    -0.205 F 
ATOM     75  C   UNL A   1      41.833  35.303  40.359  1.00  0.00     0.022 A 
BRANCH  73  76
ATOM     76  S   UNL A   1      39.702  34.286  41.740  1.00  0.00     0.127 S 
ATOM     77  O   UNL A   1      40.165  35.434  42.519  1.00  0.00    -0.237 OA
ATOM     78  O   UNL A   1      38.405  34.476  41.090  1.00  0.00    -0.237 OA
ATOM     79  O   UNL A   1      39.879  32.987  42.372  1.00  0.00    -0.744 OA
ENDBRANCH  73  76
ENDBRANCH  55  69
BRANCH  56  80
ATOM     80  C   UNL A   1      40.741  28.096  29.852  1.00  0.00     0.023 A 
ATOM     81  C   UNL A   1      39.716  27.135  29.747  1.00  0.00     0.012 A 
ATOM     82  C   UNL A   1      41.598  28.309  28.756  1.00  0.00     0.148 A 
ATOM     83  C   UNL A   1      39.564  26.382  28.582  1.00  0.00     0.002 A 
ATOM     84  C   UNL A   1      41.405  27.597  27.578  1.00  0.00     0.091 A 
ATOM     85  F   UNL A   1      42.568  29.226  28.879  1.00  0.00    -0.205 F 
ATOM     86  C   UNL A   1      40.400  26.620  27.496  1.00  0.00     0.022 A 
BRANCH  84  87
ATOM     87  S   UNL A   1      42.343  27.929  26.084  1.00  0.00     0.127 S 
ATOM     88  O   UNL A   1      41.754  26.979  25.143  1.00  0.00    -0.237 OA
ATOM     89  O   UNL A   1      42.016  29.333  25.831  1.00  0.00    -0.237 OA
ATOM     90  O   UNL A   1      43.738  27.689  26.429  1.00  0.00    -0.744 OA
ENDBRANCH  84  87
ENDBRANCH  56  80
BRANCH  68  91
ATOM     91  C   UNL A   1      44.999  27.838  35.382  1.00  0.00     0.023 A 
ATOM     92  C   UNL A   1      46.332  28.204  35.110  1.00  0.00     0.012 A 
ATOM     93  C   UNL A   1      44.739  26.630  36.060  1.00  0.00     0.148 A 
ATOM     94  C   UNL A   1      47.385  27.362  35.468  1.00  0.00     0.002 A 
ATOM     95  C   UNL A   1      45.796  25.825  36.464  1.00  0.00     0.091 A 
ATOM     96  F   UNL A   1      43.463  26.289  36.293  1.00  0.00    -0.205 F 
ATOM     97  C   UNL A   1      47.118  26.180  36.154  1.00  0.00     0.022 A 
BRANCH  95  98
ATOM     98  S   UNL A   1      45.552  24.337  37.441  1.00  0.00     0.127 S 
ATOM     99  O   UNL A   1      44.821  23.484  36.507  1.00  0.00    -0.237 OA
ATOM    100  O   UNL A   1      46.927  23.913  37.708  1.00  0.00    -0.237 OA
ATOM    101  O   UNL A   1      44.809  24.750  38.624  1.00  0.00    -0.744 OA
ENDBRANCH  95  98
ENDBRANCH  68  91
ENDBRANCH  42  43
ENDBRANCH  34  37
ENDBRANCH  32  33
ENDBRANCH  31  32
ENDBRANCH   1  31
TORSDOF 18
ENDMDL
MODEL 3
REMARK VINA RESULT:      -9.3      1.132      7.287
REMARK SMILES C/C=C(\C)[C@H]1C(C)=C[C@H]2CC[C@@H](OS(=O)(=O)[O-])[C@@H](C)[C@H]2[C@H]1/C=C/C=C/C(=O)NCCCNC(=O)c1ccc(-c2c3nc(c(-c4cccc(S(=O)(=O)[O-])c4F)c4ccc([nH]4)c(-c4cccc(S(=O)(=O)[O-])c4F)c4nc(c(-c5cccc(S(=O)(=O)[O-])c5F)c5ccc2[nH]5)C=C4)C=C3)cc1
REMARK SMILES IDX 29 1 28 2 26 3 27 4 25 6 24 7 23 8 22 9 21 10 5 11 6 12 7 13
REMARK SMILES IDX 8 14 20 15 9 16 18 17 10 18 12 19 19 20 11 21 3 22 1 23 2 24
REMARK SMILES IDX 4 25 13 26 14 27 15 28 16 29 17 30 30 31 31 32 32 33 33 34
REMARK SMILES IDX 34 36 35 37 36 38 97 39 37 40 96 41 38 42 39 43 40 44 90 45
REMARK SMILES IDX 41 46 95 47 89 48 91 49 42 50 94 51 88 52 87 53 43 55 75 56
REMARK SMILES IDX 55 57 74 58 56 59 59 60 73 61 92 62 57 63 58 64 72 66 93 67
REMARK SMILES IDX 60 68 44 69 45 70 53 71 46 72 48 73 54 74 47 75 49 76 50 77
REMARK SMILES IDX 51 78 52 79 76 80 77 81 85 82 78 83 80 84 86 85 79 86 81 87
REMARK SMILES IDX 82 88 83 89 84 90 61 91 62 92 70 93 63 94 65 95 71 96 64 97
REMARK SMILES IDX 66 98 67 99 68 100 69 101
REMARK H PARENT 28 5 32 35 91 54 59 65
REMARK Flexibility Score: inf
ROOT
ATOM      1  C   UNL A   1      39.642  33.007  39.977  1.00  0.00     0.118 C 
ENDROOT
BRANCH   1   2
ATOM      2  N   UNL A   1      38.411  32.299  39.653  1.00  0.00    -0.352 N 
ATOM      3  C   UNL A   1      37.793  32.032  38.471  1.00  0.00     0.243 C 
ATOM      4  O   UNL A   1      36.806  31.296  38.468  1.00  0.00    -0.270 OA
ATOM      5  H   UNL A   1      37.936  31.946  40.440  1.00  0.00     0.163 HD
BRANCH   3   6
ATOM      6  C   UNL A   1      38.326  32.515  37.175  1.00  0.00     0.071 C 
ATOM      7  C   UNL A   1      38.138  31.905  36.001  1.00  0.00     0.005 C 
BRANCH   7   8
ATOM      8  C   UNL A   1      38.561  32.421  34.721  1.00  0.00    -0.004 C 
ATOM      9  C   UNL A   1      38.904  31.535  33.772  1.00  0.00    -0.022 C 
BRANCH   9  10
ATOM     10  C   UNL A   1      39.461  31.812  32.390  1.00  0.00     0.027 C 
ATOM     11  C   UNL A   1      39.789  30.519  31.488  1.00  0.00     0.047 C 
ATOM     12  C   UNL A   1      39.485  30.712  29.992  1.00  0.00    -0.069 C 
ATOM     13  C   UNL A   1      39.670  29.562  29.033  1.00  0.00     0.040 C 
ATOM     14  C   UNL A   1      39.185  31.917  29.469  1.00  0.00    -0.024 C 
ATOM     15  C   UNL A   1      38.611  32.925  31.708  1.00  0.00     0.009 C 
ATOM     16  C   UNL A   1      39.104  33.181  30.270  1.00  0.00     0.016 C 
ATOM     17  C   UNL A   1      37.057  32.804  31.841  1.00  0.00     0.021 C 
ATOM     18  C   UNL A   1      38.291  34.277  29.559  1.00  0.00     0.011 C 
ATOM     19  C   UNL A   1      36.383  34.012  31.156  1.00  0.00     0.141 C 
ATOM     20  C   UNL A   1      36.449  31.473  31.387  1.00  0.00     0.011 C 
ATOM     21  C   UNL A   1      36.783  34.107  29.687  1.00  0.00     0.034 C 
BRANCH  11  22
ATOM     22  C   UNL A   1      39.381  29.159  32.125  1.00  0.00    -0.070 C 
ATOM     23  C   UNL A   1      40.108  27.226  33.647  1.00  0.00     0.035 C 
ATOM     24  C   UNL A   1      40.308  28.459  32.823  1.00  0.00    -0.031 C 
ATOM     25  C   UNL A   1      37.968  28.649  32.010  1.00  0.00     0.040 C 
ENDBRANCH  11  22
BRANCH  19  26
ATOM     26  O   UNL A   1      34.972  33.899  31.267  1.00  0.00    -0.276 OA
BRANCH  26  27
ATOM     27  S   UNL A   1      34.224  34.682  32.473  1.00  0.00     0.217 S 
ATOM     28  O   UNL A   1      35.121  35.674  33.029  1.00  0.00    -0.213 OA
ATOM     29  O   UNL A   1      32.892  35.037  32.052  1.00  0.00    -0.213 OA
ATOM     30  O   UNL A   1      34.056  33.543  33.596  1.00  0.00    -0.726 OA
ENDBRANCH  26  27
ENDBRANCH  19  26
ENDBRANCH   9  10
ENDBRANCH   7   8
ENDBRANCH   3   6
ENDBRANCH   1   2
BRANCH   1  31
ATOM     31  C   UNL A   1      39.371  34.269  40.798  1.00  0.00     0.042 C 
BRANCH  31  32
ATOM     32  C   UNL A   1      38.535  35.314  40.062  1.00  0.00     0.118 C 
BRANCH  32  33
ATOM     33  N   UNL A   1      39.262  36.565  39.889  1.00  0.00    -0.352 N 
ATOM     34  C   UNL A   1      40.334  36.875  39.091  1.00  0.00     0.251 C 
ATOM     35  H   UNL A   1      38.928  37.313  40.435  1.00  0.00     0.163 HD
ATOM     36  O   UNL A   1      40.939  37.925  39.298  1.00  0.00    -0.269 OA
BRANCH  34  37
ATOM     37  C   UNL A   1      40.766  35.980  37.994  1.00  0.00     0.039 A 
ATOM     38  C   UNL A   1      42.015  35.359  38.092  1.00  0.00     0.014 A 
ATOM     39  C   UNL A   1      39.995  35.799  36.842  1.00  0.00     0.014 A 
ATOM     40  C   UNL A   1      42.469  34.535  37.060  1.00  0.00     0.010 A 
ATOM     41  C   UNL A   1      40.410  34.908  35.853  1.00  0.00     0.010 A 
ATOM     42  C   UNL A   1      41.660  34.280  35.942  1.00  0.00    -0.014 A 
BRANCH  42  43
ATOM     43  C   UNL A   1      42.112  33.346  34.876  1.00  0.00     0.031 A 
ATOM     44  C   UNL A   1      42.441  31.911  35.190  1.00  0.00     0.074 A 
ATOM     45  C   UNL A   1      42.272  33.812  33.622  1.00  0.00     0.049 A 
ATOM     46  N   UNL A   1      42.806  30.954  34.376  1.00  0.00    -0.248 NA
ATOM     47  C   UNL A   1      42.380  31.501  36.602  1.00  0.00     0.031 C 
ATOM     48  C   UNL A   1      42.070  35.203  33.208  1.00  0.00     0.029 A 
ATOM     49  N   UNL A   1      42.647  33.174  32.467  1.00  0.00    -0.354 N 
ATOM     50  C   UNL A   1      43.047  29.843  35.175  1.00  0.00     0.074 A 
ATOM     51  C   UNL A   1      42.827  30.256  36.543  1.00  0.00     0.031 C 
ATOM     52  C   UNL A   1      42.292  35.306  31.889  1.00  0.00     0.029 A 
ATOM     53  C   UNL A   1      42.683  34.000  31.369  1.00  0.00     0.049 A 
ATOM     54  H   UNL A   1      42.869  32.215  32.429  1.00  0.00     0.167 HD
ATOM     55  C   UNL A   1      43.393  28.585  34.804  1.00  0.00     0.034 A 
ATOM     56  C   UNL A   1      42.991  33.737  30.083  1.00  0.00     0.034 A 
ATOM     57  C   UNL A   1      43.588  28.176  33.439  1.00  0.00     0.049 A 
ATOM     58  C   UNL A   1      43.332  32.327  29.689  1.00  0.00     0.074 A 
ATOM     59  C   UNL A   1      43.853  26.909  32.949  1.00  0.00     0.029 A 
ATOM     60  N   UNL A   1      43.559  29.029  32.345  1.00  0.00    -0.354 N 
ATOM     61  N   UNL A   1      43.396  31.254  30.438  1.00  0.00    -0.248 NA
ATOM     62  C   UNL A   1      43.605  32.086  28.266  1.00  0.00     0.031 C 
ATOM     63  C   UNL A   1      44.026  27.004  31.563  1.00  0.00     0.029 A 
ATOM     64  C   UNL A   1      43.819  28.321  31.183  1.00  0.00     0.049 A 
ATOM     65  H   UNL A   1      43.381  29.995  32.388  1.00  0.00     0.167 HD
ATOM     66  C   UNL A   1      43.676  30.202  29.574  1.00  0.00     0.074 A 
ATOM     67  C   UNL A   1      43.752  30.768  28.242  1.00  0.00     0.031 C 
ATOM     68  C   UNL A   1      43.856  28.887  29.859  1.00  0.00     0.034 A 
BRANCH  55  69
ATOM     69  C   UNL A   1      43.552  27.554  35.896  1.00  0.00     0.023 A 
ATOM     70  C   UNL A   1      42.422  26.863  36.381  1.00  0.00     0.012 A 
ATOM     71  C   UNL A   1      44.823  27.243  36.419  1.00  0.00     0.148 A 
ATOM     72  C   UNL A   1      42.546  25.921  37.402  1.00  0.00     0.002 A 
ATOM     73  C   UNL A   1      44.945  26.266  37.400  1.00  0.00     0.091 A 
ATOM     74  F   UNL A   1      45.887  27.919  35.962  1.00  0.00    -0.205 F 
ATOM     75  C   UNL A   1      43.807  25.616  37.905  1.00  0.00     0.022 A 
BRANCH  73  76
ATOM     76  S   UNL A   1      46.536  25.740  38.049  1.00  0.00     0.127 S 
ATOM     77  O   UNL A   1      47.014  26.966  38.686  1.00  0.00    -0.237 OA
ATOM     78  O   UNL A   1      46.152  24.679  38.983  1.00  0.00    -0.237 OA
ATOM     79  O   UNL A   1      47.307  25.287  36.902  1.00  0.00    -0.744 OA
ENDBRANCH  73  76
ENDBRANCH  55  69
BRANCH  56  80
ATOM     80  C   UNL A   1      42.904  34.823  29.068  1.00  0.00     0.023 A 
ATOM     81  C   UNL A   1      41.649  35.169  28.528  1.00  0.00     0.012 A 
ATOM     82  C   UNL A   1      44.045  35.547  28.673  1.00  0.00     0.148 A 
ATOM     83  C   UNL A   1      41.537  36.200  27.595  1.00  0.00     0.002 A 
ATOM     84  C   UNL A   1      43.918  36.610  27.786  1.00  0.00     0.091 A 
ATOM     85  F   UNL A   1      45.229  35.199  29.197  1.00  0.00    -0.205 F 
ATOM     86  C   UNL A   1      42.667  36.926  27.233  1.00  0.00     0.022 A 
BRANCH  84  87
ATOM     87  S   UNL A   1      45.291  37.687  27.365  1.00  0.00     0.127 S 
ATOM     88  O   UNL A   1      44.627  38.727  26.584  1.00  0.00    -0.237 OA
ATOM     89  O   UNL A   1      45.756  38.109  28.687  1.00  0.00    -0.237 OA
ATOM     90  O   UNL A   1      46.236  36.855  26.631  1.00  0.00    -0.744 OA
ENDBRANCH  84  87
ENDBRANCH  56  80
BRANCH  68  91
ATOM     91  C   UNL A   1      44.108  27.953  28.702  1.00  0.00     0.023 A 
ATOM     92  C   UNL A   1      45.414  27.778  28.202  1.00  0.00     0.012 A 
ATOM     93  C   UNL A   1      43.050  27.204  28.150  1.00  0.00     0.148 A 
ATOM     94  C   UNL A   1      45.654  26.905  27.141  1.00  0.00     0.002 A 
ATOM     95  C   UNL A   1      43.307  26.294  27.133  1.00  0.00     0.091 A 
ATOM     96  F   UNL A   1      41.812  27.397  28.627  1.00  0.00    -0.205 F 
ATOM     97  C   UNL A   1      44.605  26.155  26.615  1.00  0.00     0.022 A 
BRANCH  95  98
ATOM     98  S   UNL A   1      42.037  25.214  26.466  1.00  0.00     0.127 S 
ATOM     99  O   UNL A   1      41.573  24.523  27.667  1.00  0.00    -0.237 OA
ATOM    100  O   UNL A   1      41.082  26.168  25.903  1.00  0.00    -0.237 OA
ATOM    101  O   UNL A   1      42.702  24.373  25.478  1.00  0.00    -0.744 OA
ENDBRANCH  95  98
ENDBRANCH  68  91
ENDBRANCH  42  43
ENDBRANCH  34  37
ENDBRANCH  32  33
ENDBRANCH  31  32
ENDBRANCH   1  31
TORSDOF 18
ENDMDL
