MODEL 1
REMARK VINA RESULT:     -10.4      0.000      0.000
REMARK SMILES CCC(C)(C)c1ccc(O[C@H](F)C(=O)NCCCNC(=O)c2ccc(-c3c4nc(c(-c5cccc(S(=O)(=O)[O-])c5F)c5ccc([nH]5)c(-c5cccc(S(=O)(=O)[O-])c5F)c5nc(c(-c6cccc(S(=O)(=O)[O-])c6F)c6ccc3[nH]6)C=C5)C=C4)cc2)cc1
REMARK SMILES IDX 16 1 15 2 13 3 14 4 11 6 12 7 10 8 9 9 6 10 7 11 86 12 8 13
REMARK SMILES IDX 85 14 3 15 4 16 5 17 2 18 1 19 17 20 18 21 19 22 20 23 21 25
REMARK SMILES IDX 22 26 23 27 84 28 24 29 83 30 25 31 26 32 27 33 77 34 28 35
REMARK SMILES IDX 82 36 76 37 78 38 29 39 81 40 75 41 74 42 30 44 62 45 42 46
REMARK SMILES IDX 61 47 43 48 46 49 60 50 79 51 44 52 45 53 59 55 80 56 47 57
REMARK SMILES IDX 31 58 32 59 40 60 33 61 35 62 41 63 34 64 36 65 37 66 38 67
REMARK SMILES IDX 39 68 63 69 64 70 72 71 65 72 67 73 73 74 66 75 68 76 69 77
REMARK SMILES IDX 70 78 71 79 48 80 49 81 57 82 50 83 52 84 58 85 51 86 53 87
REMARK SMILES IDX 54 88 55 89 56 90
REMARK H PARENT 15 5 19 24 78 43 46 54
REMARK Flexibility Score: inf
ROOT
ATOM      1  C   UNL A   1      42.472  20.374  27.766  1.00  0.00     0.118 C 
ENDROOT
BRANCH   1   2
ATOM      2  N   UNL A   1      42.198  19.153  27.028  1.00  0.00    -0.350 N 
ATOM      3  C   UNL A   1      42.964  18.576  26.044  1.00  0.00     0.294 C 
ATOM      4  O   UNL A   1      42.618  17.479  25.598  1.00  0.00    -0.267 OA
ATOM      5  H   UNL A   1      41.365  18.683  27.262  1.00  0.00     0.163 HD
BRANCH   3   6
ATOM      6  C   UNL A   1      44.200  19.325  25.512  1.00  0.00     0.440 C 
ATOM      7  F   UNL A   1      44.979  18.464  24.804  1.00  0.00    -0.191 F 
BRANCH   6   8
ATOM      8  O   UNL A   1      43.782  20.459  24.745  1.00  0.00    -0.452 OA
BRANCH   8   9
ATOM      9  C   UNL A   1      44.334  21.697  24.862  1.00  0.00     0.123 A 
ATOM     10  C   UNL A   1      45.733  24.145  25.307  1.00  0.00    -0.042 A 
ATOM     11  C   UNL A   1      44.455  24.116  24.736  1.00  0.00     0.008 A 
ATOM     12  C   UNL A   1      46.268  22.912  25.714  1.00  0.00     0.008 A 
ATOM     13  C   UNL A   1      43.779  22.914  24.492  1.00  0.00     0.047 A 
ATOM     14  C   UNL A   1      45.576  21.711  25.499  1.00  0.00     0.047 A 
BRANCH  10  15
ATOM     15  C   UNL A   1      46.525  25.453  25.493  1.00  0.00    -0.011 C 
ATOM     16  C   UNL A   1      46.919  25.618  26.979  1.00  0.00     0.016 C 
ATOM     17  C   UNL A   1      45.613  26.637  25.094  1.00  0.00     0.016 C 
BRANCH  15  18
ATOM     18  C   UNL A   1      47.819  25.566  24.620  1.00  0.00     0.008 C 
ATOM     19  C   UNL A   1      49.075  26.054  25.343  1.00  0.00     0.005 C 
ENDBRANCH  15  18
ENDBRANCH  10  15
ENDBRANCH   8   9
ENDBRANCH   6   8
ENDBRANCH   3   6
ENDBRANCH   1   2
BRANCH   1  20
ATOM     20  C   UNL A   1      41.356  21.402  27.680  1.00  0.00     0.042 C 
BRANCH  20  21
ATOM     21  C   UNL A   1      41.061  21.882  26.270  1.00  0.00     0.118 C 
BRANCH  21  22
ATOM     22  N   UNL A   1      39.634  21.984  25.991  1.00  0.00    -0.352 N 
ATOM     23  C   UNL A   1      38.749  22.994  26.269  1.00  0.00     0.251 C 
ATOM     24  H   UNL A   1      39.243  21.206  25.531  1.00  0.00     0.163 HD
ATOM     25  O   UNL A   1      37.545  22.806  26.083  1.00  0.00    -0.269 OA
BRANCH  23  26
ATOM     26  C   UNL A   1      39.222  24.291  26.798  1.00  0.00     0.039 A 
ATOM     27  C   UNL A   1      39.859  25.182  25.930  1.00  0.00     0.014 A 
ATOM     28  C   UNL A   1      39.070  24.623  28.146  1.00  0.00     0.014 A 
ATOM     29  C   UNL A   1      40.307  26.415  26.406  1.00  0.00     0.010 A 
ATOM     30  C   UNL A   1      39.419  25.892  28.593  1.00  0.00     0.010 A 
ATOM     31  C   UNL A   1      40.072  26.789  27.739  1.00  0.00    -0.014 A 
BRANCH  31  32
ATOM     32  C   UNL A   1      40.544  28.093  28.269  1.00  0.00     0.031 A 
ATOM     33  C   UNL A   1      42.019  28.383  28.361  1.00  0.00     0.074 A 
ATOM     34  C   UNL A   1      39.653  28.990  28.735  1.00  0.00     0.049 A 
ATOM     35  N   UNL A   1      42.626  29.443  28.829  1.00  0.00    -0.248 NA
ATOM     36  C   UNL A   1      42.935  27.327  27.897  1.00  0.00     0.031 C 
ATOM     37  C   UNL A   1      38.203  28.793  28.789  1.00  0.00     0.029 A 
ATOM     38  N   UNL A   1      39.840  30.236  29.278  1.00  0.00    -0.354 N 
ATOM     39  C   UNL A   1      43.986  29.168  28.750  1.00  0.00     0.074 A 
ATOM     40  C   UNL A   1      44.114  27.819  28.243  1.00  0.00     0.031 C 
ATOM     41  C   UNL A   1      37.632  29.879  29.332  1.00  0.00     0.029 A 
ATOM     42  C   UNL A   1      38.674  30.838  29.688  1.00  0.00     0.049 A 
ATOM     43  H   UNL A   1      40.724  30.659  29.365  1.00  0.00     0.167 HD
ATOM     44  C   UNL A   1      45.038  29.972  29.036  1.00  0.00     0.034 A 
ATOM     45  C   UNL A   1      38.467  32.025  30.290  1.00  0.00     0.034 A 
ATOM     46  C   UNL A   1      44.905  31.323  29.509  1.00  0.00     0.049 A 
ATOM     47  C   UNL A   1      39.641  32.928  30.548  1.00  0.00     0.074 A 
ATOM     48  C   UNL A   1      45.901  32.252  29.754  1.00  0.00     0.029 A 
ATOM     49  N   UNL A   1      43.701  31.938  29.816  1.00  0.00    -0.354 N 
ATOM     50  N   UNL A   1      40.914  32.709  30.325  1.00  0.00    -0.248 NA
ATOM     51  C   UNL A   1      39.347  34.260  31.097  1.00  0.00     0.031 C 
ATOM     52  C   UNL A   1      45.298  33.419  30.238  1.00  0.00     0.029 A 
ATOM     53  C   UNL A   1      43.926  33.233  30.253  1.00  0.00     0.049 A 
ATOM     54  H   UNL A   1      42.815  31.516  29.735  1.00  0.00     0.167 HD
ATOM     55  C   UNL A   1      41.570  33.887  30.669  1.00  0.00     0.074 A 
ATOM     56  C   UNL A   1      40.548  34.820  31.099  1.00  0.00     0.031 C 
ATOM     57  C   UNL A   1      42.897  34.167  30.637  1.00  0.00     0.034 A 
BRANCH  44  58
ATOM     58  C   UNL A   1      46.419  29.415  28.798  1.00  0.00     0.023 A 
ATOM     59  C   UNL A   1      47.071  29.665  27.571  1.00  0.00     0.012 A 
ATOM     60  C   UNL A   1      47.079  28.656  29.783  1.00  0.00     0.148 A 
ATOM     61  C   UNL A   1      48.327  29.122  27.306  1.00  0.00     0.002 A 
ATOM     62  C   UNL A   1      48.355  28.164  29.533  1.00  0.00     0.091 A 
ATOM     63  F   UNL A   1      46.442  28.409  30.936  1.00  0.00    -0.205 F 
ATOM     64  C   UNL A   1      48.972  28.380  28.290  1.00  0.00     0.022 A 
BRANCH  62  65
ATOM     65  S   UNL A   1      49.306  27.269  30.767  1.00  0.00     0.127 S 
ATOM     66  O   UNL A   1      50.534  26.969  30.033  1.00  0.00    -0.237 OA
ATOM     67  O   UNL A   1      49.457  28.270  31.824  1.00  0.00    -0.237 OA
ATOM     68  O   UNL A   1      48.496  26.117  31.137  1.00  0.00    -0.744 OA
ENDBRANCH  62  65
ENDBRANCH  44  58
BRANCH  45  69
ATOM     69  C   UNL A   1      37.077  32.446  30.623  1.00  0.00     0.023 A 
ATOM     70  C   UNL A   1      36.617  32.347  31.950  1.00  0.00     0.012 A 
ATOM     71  C   UNL A   1      36.232  32.997  29.640  1.00  0.00     0.148 A 
ATOM     72  C   UNL A   1      35.329  32.765  32.287  1.00  0.00     0.002 A 
ATOM     73  C   UNL A   1      34.973  33.464  29.995  1.00  0.00     0.091 A 
ATOM     74  F   UNL A   1      36.692  33.079  28.384  1.00  0.00    -0.205 F 
ATOM     75  C   UNL A   1      34.512  33.332  31.314  1.00  0.00     0.022 A 
BRANCH  73  76
ATOM     76  S   UNL A   1      33.905  34.333  28.841  1.00  0.00     0.127 S 
ATOM     77  O   UNL A   1      33.566  33.276  27.892  1.00  0.00    -0.237 OA
ATOM     78  O   UNL A   1      32.807  34.756  29.712  1.00  0.00    -0.237 OA
ATOM     79  O   UNL A   1      34.704  35.427  28.306  1.00  0.00    -0.744 OA
ENDBRANCH  73  76
ENDBRANCH  45  69
BRANCH  57  80
ATOM     80  C   UNL A   1      43.328  35.556  31.029  1.00  0.00     0.023 A 
ATOM     81  C   UNL A   1      43.583  36.526  30.039  1.00  0.00     0.012 A 
ATOM     82  C   UNL A   1      43.419  35.916  32.389  1.00  0.00     0.148 A 
ATOM     83  C   UNL A   1      43.961  37.821  30.397  1.00  0.00     0.002 A 
ATOM     84  C   UNL A   1      43.743  37.221  32.736  1.00  0.00     0.091 A 
ATOM     85  F   UNL A   1      43.192  34.975  33.316  1.00  0.00    -0.205 F 
ATOM     86  C   UNL A   1      44.030  38.170  31.742  1.00  0.00     0.022 A 
BRANCH  84  87
ATOM     87  S   UNL A   1      43.754  37.784  34.443  1.00  0.00     0.127 S 
ATOM     88  O   UNL A   1      44.020  39.213  34.283  1.00  0.00    -0.237 OA
ATOM     89  O   UNL A   1      42.397  37.462  34.884  1.00  0.00    -0.237 OA
ATOM     90  O   UNL A   1      44.801  37.023  35.110  1.00  0.00    -0.744 OA
ENDBRANCH  84  87
ENDBRANCH  57  80
ENDBRANCH  31  32
ENDBRANCH  23  26
ENDBRANCH  21  22
ENDBRANCH  20  21
ENDBRANCH   1  20
TORSDOF 17
ENDMDL
MODEL 2
REMARK VINA RESULT:     -10.3      5.720     11.734
REMARK SMILES CCC(C)(C)c1ccc(O[C@H](F)C(=O)NCCCNC(=O)c2ccc(-c3c4nc(c(-c5cccc(S(=O)(=O)[O-])c5F)c5ccc([nH]5)c(-c5cccc(S(=O)(=O)[O-])c5F)c5nc(c(-c6cccc(S(=O)(=O)[O-])c6F)c6ccc3[nH]6)C=C5)C=C4)cc2)cc1
REMARK SMILES IDX 16 1 15 2 13 3 14 4 11 6 12 7 10 8 9 9 6 10 7 11 86 12 8 13
REMARK SMILES IDX 85 14 3 15 4 16 5 17 2 18 1 19 17 20 18 21 19 22 20 23 21 25
REMARK SMILES IDX 22 26 23 27 84 28 24 29 83 30 25 31 26 32 27 33 77 34 28 35
REMARK SMILES IDX 82 36 76 37 78 38 29 39 81 40 75 41 74 42 30 44 62 45 42 46
REMARK SMILES IDX 61 47 43 48 46 49 60 50 79 51 44 52 45 53 59 55 80 56 47 57
REMARK SMILES IDX 31 58 32 59 40 60 33 61 35 62 41 63 34 64 36 65 37 66 38 67
REMARK SMILES IDX 39 68 63 69 64 70 72 71 65 72 67 73 73 74 66 75 68 76 69 77
REMARK SMILES IDX 70 78 71 79 48 80 49 81 57 82 50 83 52 84 58 85 51 86 53 87
REMARK SMILES IDX 54 88 55 89 56 90
REMARK H PARENT 15 5 19 24 78 43 46 54
REMARK Flexibility Score: inf
ROOT
ATOM      1  C   UNL A   1      32.791  26.397  26.334  1.00  0.00     0.118 C 
ENDROOT
BRANCH   1   2
ATOM      2  N   UNL A   1      31.699  25.597  26.861  1.00  0.00    -0.350 N 
ATOM      3  C   UNL A   1      31.167  24.446  26.330  1.00  0.00     0.294 C 
ATOM      4  O   UNL A   1      30.303  23.846  26.975  1.00  0.00    -0.267 OA
ATOM      5  H   UNL A   1      31.292  25.918  27.699  1.00  0.00     0.163 HD
BRANCH   3   6
ATOM      6  C   UNL A   1      31.641  23.962  24.947  1.00  0.00     0.440 C 
ATOM      7  F   UNL A   1      31.929  22.635  25.008  1.00  0.00    -0.191 F 
BRANCH   6   8
ATOM      8  O   UNL A   1      30.648  24.274  23.964  1.00  0.00    -0.452 OA
BRANCH   8   9
ATOM      9  C   UNL A   1      30.174  25.529  23.739  1.00  0.00     0.123 A 
ATOM     10  C   UNL A   1      29.508  28.257  23.225  1.00  0.00    -0.042 A 
ATOM     11  C   UNL A   1      28.572  27.350  23.735  1.00  0.00     0.008 A 
ATOM     12  C   UNL A   1      30.815  27.774  23.041  1.00  0.00     0.008 A 
ATOM     13  C   UNL A   1      28.890  26.005  23.962  1.00  0.00     0.047 A 
ATOM     14  C   UNL A   1      31.140  26.435  23.299  1.00  0.00     0.047 A 
BRANCH  10  15
ATOM     15  C   UNL A   1      29.146  29.714  22.881  1.00  0.00    -0.011 C 
ATOM     16  C   UNL A   1      29.643  30.054  21.458  1.00  0.00     0.016 C 
ATOM     17  C   UNL A   1      29.864  30.646  23.886  1.00  0.00     0.016 C 
BRANCH  15  18
ATOM     18  C   UNL A   1      27.620  30.048  22.967  1.00  0.00     0.008 C 
ATOM     19  C   UNL A   1      27.256  31.339  23.701  1.00  0.00     0.005 C 
ENDBRANCH  15  18
ENDBRANCH  10  15
ENDBRANCH   8   9
ENDBRANCH   6   8
ENDBRANCH   3   6
ENDBRANCH   1   2
BRANCH   1  20
ATOM     20  C   UNL A   1      32.693  27.871  26.688  1.00  0.00     0.042 C 
BRANCH  20  21
ATOM     21  C   UNL A   1      33.917  28.684  26.304  1.00  0.00     0.118 C 
BRANCH  21  22
ATOM     22  N   UNL A   1      33.811  30.087  26.687  1.00  0.00    -0.352 N 
ATOM     23  C   UNL A   1      34.610  30.842  27.507  1.00  0.00     0.251 C 
ATOM     24  H   UNL A   1      33.046  30.567  26.297  1.00  0.00     0.163 HD
ATOM     25  O   UNL A   1      34.246  31.977  27.820  1.00  0.00    -0.269 OA
BRANCH  23  26
ATOM     26  C   UNL A   1      35.887  30.305  28.023  1.00  0.00     0.039 A 
ATOM     27  C   UNL A   1      35.902  29.680  29.273  1.00  0.00     0.014 A 
ATOM     28  C   UNL A   1      37.074  30.439  27.299  1.00  0.00     0.014 A 
ATOM     29  C   UNL A   1      37.095  29.159  29.776  1.00  0.00     0.010 A 
ATOM     30  C   UNL A   1      38.237  29.827  27.751  1.00  0.00     0.010 A 
ATOM     31  C   UNL A   1      38.270  29.210  29.009  1.00  0.00    -0.014 A 
BRANCH  31  32
ATOM     32  C   UNL A   1      39.553  28.668  29.524  1.00  0.00     0.031 A 
ATOM     33  C   UNL A   1      40.268  29.363  30.653  1.00  0.00     0.074 A 
ATOM     34  C   UNL A   1      40.113  27.593  28.935  1.00  0.00     0.049 A 
ATOM     35  N   UNL A   1      41.412  29.067  31.213  1.00  0.00    -0.248 NA
ATOM     36  C   UNL A   1      39.631  30.573  31.201  1.00  0.00     0.031 C 
ATOM     37  C   UNL A   1      39.567  26.885  27.774  1.00  0.00     0.029 A 
ATOM     38  N   UNL A   1      41.278  26.927  29.214  1.00  0.00    -0.354 N 
ATOM     39  C   UNL A   1      41.647  30.068  32.149  1.00  0.00     0.074 A 
ATOM     40  C   UNL A   1      40.555  31.010  32.040  1.00  0.00     0.031 C 
ATOM     41  C   UNL A   1      40.396  25.882  27.443  1.00  0.00     0.029 A 
ATOM     42  C   UNL A   1      41.542  25.892  28.349  1.00  0.00     0.049 A 
ATOM     43  H   UNL A   1      41.870  27.166  29.963  1.00  0.00     0.167 HD
ATOM     44  C   UNL A   1      42.657  30.179  33.045  1.00  0.00     0.034 A 
ATOM     45  C   UNL A   1      42.591  25.050  28.285  1.00  0.00     0.034 A 
ATOM     46  C   UNL A   1      43.722  29.222  33.171  1.00  0.00     0.049 A 
ATOM     47  C   UNL A   1      43.674  25.152  29.323  1.00  0.00     0.074 A 
ATOM     48  C   UNL A   1      44.751  29.194  34.096  1.00  0.00     0.029 A 
ATOM     49  N   UNL A   1      43.901  28.125  32.341  1.00  0.00    -0.354 N 
ATOM     50  N   UNL A   1      43.801  26.018  30.299  1.00  0.00    -0.248 NA
ATOM     51  C   UNL A   1      44.734  24.135  29.280  1.00  0.00     0.031 C 
ATOM     52  C   UNL A   1      45.569  28.096  33.805  1.00  0.00     0.029 A 
ATOM     53  C   UNL A   1      45.026  27.415  32.728  1.00  0.00     0.049 A 
ATOM     54  H   UNL A   1      43.315  27.886  31.588  1.00  0.00     0.167 HD
ATOM     55  C   UNL A   1      44.931  25.628  31.011  1.00  0.00     0.074 A 
ATOM     56  C   UNL A   1      45.440  24.438  30.360  1.00  0.00     0.031 C 
ATOM     57  C   UNL A   1      45.498  26.207  32.099  1.00  0.00     0.034 A 
BRANCH  44  58
ATOM     58  C   UNL A   1      42.620  31.358  33.985  1.00  0.00     0.023 A 
ATOM     59  C   UNL A   1      43.339  32.530  33.664  1.00  0.00     0.012 A 
ATOM     60  C   UNL A   1      41.870  31.318  35.175  1.00  0.00     0.148 A 
ATOM     61  C   UNL A   1      43.361  33.616  34.537  1.00  0.00     0.002 A 
ATOM     62  C   UNL A   1      41.852  32.425  36.016  1.00  0.00     0.091 A 
ATOM     63  F   UNL A   1      41.208  30.192  35.479  1.00  0.00    -0.205 F 
ATOM     64  C   UNL A   1      42.611  33.567  35.708  1.00  0.00     0.022 A 
BRANCH  62  65
ATOM     65  S   UNL A   1      40.848  32.494  37.504  1.00  0.00     0.127 S 
ATOM     66  O   UNL A   1      40.679  33.936  37.679  1.00  0.00    -0.237 OA
ATOM     67  O   UNL A   1      39.637  31.784  37.091  1.00  0.00    -0.237 OA
ATOM     68  O   UNL A   1      41.621  31.822  38.538  1.00  0.00    -0.744 OA
ENDBRANCH  62  65
ENDBRANCH  44  58
BRANCH  45  69
ATOM     69  C   UNL A   1      42.621  23.994  27.235  1.00  0.00     0.023 A 
ATOM     70  C   UNL A   1      43.282  24.241  26.016  1.00  0.00     0.012 A 
ATOM     71  C   UNL A   1      42.048  22.728  27.463  1.00  0.00     0.148 A 
ATOM     72  C   UNL A   1      43.349  23.254  25.032  1.00  0.00     0.002 A 
ATOM     73  C   UNL A   1      42.168  21.732  26.502  1.00  0.00     0.091 A 
ATOM     74  F   UNL A   1      41.422  22.518  28.629  1.00  0.00    -0.205 F 
ATOM     75  C   UNL A   1      42.801  21.998  25.278  1.00  0.00     0.022 A 
BRANCH  73  76
ATOM     76  S   UNL A   1      41.617  20.046  26.785  1.00  0.00     0.127 S 
ATOM     77  O   UNL A   1      40.238  20.251  27.223  1.00  0.00    -0.237 OA
ATOM     78  O   UNL A   1      41.759  19.458  25.452  1.00  0.00    -0.237 OA
ATOM     79  O   UNL A   1      42.520  19.495  27.786  1.00  0.00    -0.744 OA
ENDBRANCH  73  76
ENDBRANCH  45  69
BRANCH  57  80
ATOM     80  C   UNL A   1      46.708  25.537  32.697  1.00  0.00     0.023 A 
ATOM     81  C   UNL A   1      48.002  25.908  32.281  1.00  0.00     0.012 A 
ATOM     82  C   UNL A   1      46.559  24.580  33.721  1.00  0.00     0.148 A 
ATOM     83  C   UNL A   1      49.127  25.307  32.847  1.00  0.00     0.002 A 
ATOM     84  C   UNL A   1      47.685  24.026  34.316  1.00  0.00     0.091 A 
ATOM     85  F   UNL A   1      45.320  24.224  34.088  1.00  0.00    -0.205 F 
ATOM     86  C   UNL A   1      48.969  24.377  33.870  1.00  0.00     0.022 A 
BRANCH  84  87
ATOM     87  S   UNL A   1      47.576  22.896  35.709  1.00  0.00     0.127 S 
ATOM     88  O   UNL A   1      47.062  21.686  35.072  1.00  0.00    -0.237 OA
ATOM     89  O   UNL A   1      48.969  22.811  36.149  1.00  0.00    -0.237 OA
ATOM     90  O   UNL A   1      46.680  23.528  36.668  1.00  0.00    -0.744 OA
ENDBRANCH  84  87
ENDBRANCH  57  80
ENDBRANCH  31  32
ENDBRANCH  23  26
ENDBRANCH  21  22
ENDBRANCH  20  21
ENDBRANCH   1  20
TORSDOF 17
ENDMDL
MODEL 3
REMARK VINA RESULT:     -10.3      4.174      7.479
REMARK SMILES CCC(C)(C)c1ccc(O[C@H](F)C(=O)NCCCNC(=O)c2ccc(-c3c4nc(c(-c5cccc(S(=O)(=O)[O-])c5F)c5ccc([nH]5)c(-c5cccc(S(=O)(=O)[O-])c5F)c5nc(c(-c6cccc(S(=O)(=O)[O-])c6F)c6ccc3[nH]6)C=C5)C=C4)cc2)cc1
REMARK SMILES IDX 16 1 15 2 13 3 14 4 11 6 12 7 10 8 9 9 6 10 7 11 86 12 8 13
REMARK SMILES IDX 85 14 3 15 4 16 5 17 2 18 1 19 17 20 18 21 19 22 20 23 21 25
REMARK SMILES IDX 22 26 23 27 84 28 24 29 83 30 25 31 26 32 27 33 77 34 28 35
REMARK SMILES IDX 82 36 76 37 78 38 29 39 81 40 75 41 74 42 30 44 62 45 42 46
REMARK SMILES IDX 61 47 43 48 46 49 60 50 79 51 44 52 45 53 59 55 80 56 47 57
REMARK SMILES IDX 31 58 32 59 40 60 33 61 35 62 41 63 34 64 36 65 37 66 38 67
REMARK SMILES IDX 39 68 63 69 64 70 72 71 65 72 67 73 73 74 66 75 68 76 69 77
REMARK SMILES IDX 70 78 71 79 48 80 49 81 57 82 50 83 52 84 58 85 51 86 53 87
REMARK SMILES IDX 54 88 55 89 56 90
REMARK H PARENT 15 5 19 24 78 43 46 54
REMARK Flexibility Score: inf
ROOT
ATOM      1  C   UNL A   1      34.362  23.597  24.851  1.00  0.00     0.118 C 
ENDROOT
BRANCH   1   2
ATOM      2  N   UNL A   1      34.034  24.016  23.500  1.00  0.00    -0.350 N 
ATOM      3  C   UNL A   1      33.860  25.299  23.036  1.00  0.00     0.294 C 
ATOM      4  O   UNL A   1      33.682  25.467  21.827  1.00  0.00    -0.267 OA
ATOM      5  H   UNL A   1      33.923  23.296  22.837  1.00  0.00     0.163 HD
BRANCH   3   6
ATOM      6  C   UNL A   1      33.864  26.471  24.035  1.00  0.00     0.440 C 
ATOM      7  F   UNL A   1      34.273  27.602  23.403  1.00  0.00    -0.191 F 
BRANCH   6   8
ATOM      8  O   UNL A   1      32.567  26.601  24.628  1.00  0.00    -0.452 OA
BRANCH   8   9
ATOM      9  C   UNL A   1      31.605  27.446  24.166  1.00  0.00     0.123 A 
ATOM     10  C   UNL A   1      29.696  29.440  23.441  1.00  0.00    -0.042 A 
ATOM     11  C   UNL A   1      29.618  28.129  22.956  1.00  0.00     0.008 A 
ATOM     12  C   UNL A   1      30.724  29.710  24.359  1.00  0.00     0.008 A 
ATOM     13  C   UNL A   1      30.570  27.157  23.289  1.00  0.00     0.047 A 
ATOM     14  C   UNL A   1      31.658  28.727  24.717  1.00  0.00     0.047 A 
BRANCH  10  15
ATOM     15  C   UNL A   1      28.711  30.541  23.007  1.00  0.00    -0.011 C 
ATOM     16  C   UNL A   1      27.258  30.045  23.189  1.00  0.00     0.016 C 
ATOM     17  C   UNL A   1      28.942  30.839  21.506  1.00  0.00     0.016 C 
BRANCH  15  18
ATOM     18  C   UNL A   1      28.870  31.900  23.766  1.00  0.00     0.008 C 
ATOM     19  C   UNL A   1      28.803  33.162  22.905  1.00  0.00     0.005 C 
ENDBRANCH  15  18
ENDBRANCH  10  15
ENDBRANCH   8   9
ENDBRANCH   6   8
ENDBRANCH   3   6
ENDBRANCH   1   2
BRANCH   1  20
ATOM     20  C   UNL A   1      35.601  22.722  24.934  1.00  0.00     0.042 C 
BRANCH  20  21
ATOM     21  C   UNL A   1      36.796  23.397  25.585  1.00  0.00     0.118 C 
BRANCH  21  22
ATOM     22  N   UNL A   1      37.825  22.453  26.002  1.00  0.00    -0.352 N 
ATOM     23  C   UNL A   1      39.065  22.678  26.543  1.00  0.00     0.251 C 
ATOM     24  H   UNL A   1      37.594  21.504  25.876  1.00  0.00     0.163 HD
ATOM     25  O   UNL A   1      39.842  21.731  26.679  1.00  0.00    -0.269 OA
BRANCH  23  26
ATOM     26  C   UNL A   1      39.477  24.038  26.950  1.00  0.00     0.039 A 
ATOM     27  C   UNL A   1      39.310  24.424  28.283  1.00  0.00     0.014 A 
ATOM     28  C   UNL A   1      39.999  24.944  26.024  1.00  0.00     0.014 A 
ATOM     29  C   UNL A   1      39.699  25.701  28.690  1.00  0.00     0.010 A 
ATOM     30  C   UNL A   1      40.485  26.174  26.453  1.00  0.00     0.010 A 
ATOM     31  C   UNL A   1      40.310  26.580  27.782  1.00  0.00    -0.014 A 
BRANCH  31  32
ATOM     32  C   UNL A   1      40.729  27.945  28.191  1.00  0.00     0.031 A 
ATOM     33  C   UNL A   1      42.188  28.318  28.195  1.00  0.00     0.074 A 
ATOM     34  C   UNL A   1      39.808  28.827  28.626  1.00  0.00     0.049 A 
ATOM     35  N   UNL A   1      42.752  29.442  28.554  1.00  0.00    -0.248 NA
ATOM     36  C   UNL A   1      43.143  27.280  27.774  1.00  0.00     0.031 C 
ATOM     37  C   UNL A   1      38.374  28.558  28.757  1.00  0.00     0.029 A 
ATOM     38  N   UNL A   1      39.946  30.119  29.064  1.00  0.00    -0.354 N 
ATOM     39  C   UNL A   1      44.121  29.235  28.438  1.00  0.00     0.074 A 
ATOM     40  C   UNL A   1      44.305  27.859  28.029  1.00  0.00     0.031 C 
ATOM     41  C   UNL A   1      37.765  29.652  29.240  1.00  0.00     0.029 A 
ATOM     42  C   UNL A   1      38.765  30.689  29.477  1.00  0.00     0.049 A 
ATOM     43  H   UNL A   1      40.807  30.595  29.080  1.00  0.00     0.167 HD
ATOM     44  C   UNL A   1      45.137  30.114  28.616  1.00  0.00     0.034 A 
ATOM     45  C   UNL A   1      38.515  31.907  29.996  1.00  0.00     0.034 A 
ATOM     46  C   UNL A   1      44.947  31.488  28.990  1.00  0.00     0.049 A 
ATOM     47  C   UNL A   1      39.646  32.888  30.133  1.00  0.00     0.074 A 
ATOM     48  C   UNL A   1      45.898  32.485  29.120  1.00  0.00     0.029 A 
ATOM     49  N   UNL A   1      43.723  32.060  29.302  1.00  0.00    -0.354 N 
ATOM     50  N   UNL A   1      40.920  32.721  29.872  1.00  0.00    -0.248 NA
ATOM     51  C   UNL A   1      39.300  34.242  30.591  1.00  0.00     0.031 C 
ATOM     52  C   UNL A   1      45.251  33.653  29.540  1.00  0.00     0.029 A 
ATOM     53  C   UNL A   1      43.892  33.396  29.629  1.00  0.00     0.049 A 
ATOM     54  H   UNL A   1      42.860  31.587  29.292  1.00  0.00     0.167 HD
ATOM     55  C   UNL A   1      41.522  33.955  30.096  1.00  0.00     0.074 A 
ATOM     56  C   UNL A   1      40.467  34.863  30.498  1.00  0.00     0.031 C 
ATOM     57  C   UNL A   1      42.828  34.301  29.985  1.00  0.00     0.034 A 
BRANCH  44  58
ATOM     58  C   UNL A   1      46.537  29.613  28.360  1.00  0.00     0.023 A 
ATOM     59  C   UNL A   1      47.104  29.750  27.074  1.00  0.00     0.012 A 
ATOM     60  C   UNL A   1      47.297  29.021  29.386  1.00  0.00     0.148 A 
ATOM     61  C   UNL A   1      48.376  29.253  26.798  1.00  0.00     0.002 A 
ATOM     62  C   UNL A   1      48.587  28.577  29.117  1.00  0.00     0.091 A 
ATOM     63  F   UNL A   1      46.741  28.879  30.597  1.00  0.00    -0.205 F 
ATOM     64  C   UNL A   1      49.121  28.675  27.822  1.00  0.00     0.022 A 
BRANCH  62  65
ATOM     65  S   UNL A   1      49.660  27.898  30.388  1.00  0.00     0.127 S 
ATOM     66  O   UNL A   1      49.706  28.996  31.353  1.00  0.00    -0.237 OA
ATOM     67  O   UNL A   1      48.906  26.726  30.835  1.00  0.00    -0.237 OA
ATOM     68  O   UNL A   1      50.919  27.590  29.725  1.00  0.00    -0.744 OA
ENDBRANCH  62  65
ENDBRANCH  44  58
BRANCH  45  69
ATOM     69  C   UNL A   1      37.118  32.278  30.356  1.00  0.00     0.023 A 
ATOM     70  C   UNL A   1      36.662  32.083  31.674  1.00  0.00     0.012 A 
ATOM     71  C   UNL A   1      36.261  32.877  29.412  1.00  0.00     0.148 A 
ATOM     72  C   UNL A   1      35.367  32.454  32.039  1.00  0.00     0.002 A 
ATOM     73  C   UNL A   1      34.994  33.295  29.797  1.00  0.00     0.091 A 
ATOM     74  F   UNL A   1      36.717  33.050  28.164  1.00  0.00    -0.205 F 
ATOM     75  C   UNL A   1      34.538  33.068  31.105  1.00  0.00     0.022 A 
BRANCH  73  76
ATOM     76  S   UNL A   1      33.908  34.218  28.703  1.00  0.00     0.127 S 
ATOM     77  O   UNL A   1      34.779  35.304  28.262  1.00  0.00    -0.237 OA
ATOM     78  O   UNL A   1      33.598  33.220  27.679  1.00  0.00    -0.237 OA
ATOM     79  O   UNL A   1      32.769  34.617  29.519  1.00  0.00    -0.744 OA
ENDBRANCH  73  76
ENDBRANCH  45  69
BRANCH  57  80
ATOM     80  C   UNL A   1      43.196  35.738  30.251  1.00  0.00     0.023 A 
ATOM     81  C   UNL A   1      43.706  36.119  31.509  1.00  0.00     0.012 A 
ATOM     82  C   UNL A   1      43.093  36.701  29.227  1.00  0.00     0.148 A 
ATOM     83  C   UNL A   1      44.069  37.444  31.754  1.00  0.00     0.002 A 
ATOM     84  C   UNL A   1      43.507  38.005  29.463  1.00  0.00     0.091 A 
ATOM     85  F   UNL A   1      42.587  36.324  28.044  1.00  0.00    -0.205 F 
ATOM     86  C   UNL A   1      43.980  38.382  30.729  1.00  0.00     0.022 A 
BRANCH  84  87
ATOM     87  S   UNL A   1      43.523  39.254  28.171  1.00  0.00     0.127 S 
ATOM     88  O   UNL A   1      43.876  40.457  28.923  1.00  0.00    -0.237 OA
ATOM     89  O   UNL A   1      44.575  38.763  27.278  1.00  0.00    -0.237 OA
ATOM     90  O   UNL A   1      42.188  39.248  27.589  1.00  0.00    -0.744 OA
ENDBRANCH  84  87
ENDBRANCH  57  80
ENDBRANCH  31  32
ENDBRANCH  23  26
ENDBRANCH  21  22
ENDBRANCH  20  21
ENDBRANCH   1  20
TORSDOF 17
ENDMDL
