MODEL 1
REMARK VINA RESULT:     -11.8      0.000      0.000
REMARK SMILES CCC[C@]1(C(=O)NCCCNC(=O)c2ccc(-c3c4nc(c(-c5cccc(S(=O)(=O)[O-])c5F)c5ccc([nH]5)c(-c5cccc(S(=O)(=O)[O-])c5F)c5nc(c(-c6cccc(S(=O)(=O)[O-])c6F)c6ccc3[nH]6)C=C5)C=C4)cc2)CCCN(C(=O)N[C@H]2CCOC2)C1
REMARK SMILES IDX 9 1 8 2 7 3 5 4 6 5 4 7 77 8 89 9 78 10 80 11 79 12 3 13
REMARK SMILES IDX 2 14 1 15 81 16 82 17 83 18 84 20 85 21 88 22 86 23 87 24
REMARK SMILES IDX 10 25 11 26 12 27 13 29 14 30 15 31 76 32 16 33 75 34 17 35
REMARK SMILES IDX 18 36 19 37 69 38 20 39 74 40 68 41 70 42 21 43 73 44 67 45
REMARK SMILES IDX 66 46 22 48 54 49 34 50 53 51 35 52 38 53 52 54 71 55 36 56
REMARK SMILES IDX 37 57 51 59 72 60 39 61 23 62 24 63 32 64 25 65 27 66 33 67
REMARK SMILES IDX 26 68 28 69 29 70 30 71 31 72 55 73 56 74 64 75 57 76 59 77
REMARK SMILES IDX 65 78 58 79 60 80 61 81 62 82 63 83 40 84 41 85 49 86 42 87
REMARK SMILES IDX 44 88 50 89 43 90 45 91 46 92 47 93 48 94
REMARK H PARENT 7 6 83 19 11 28 70 47 38 58
REMARK Flexibility Score: inf
ROOT
ATOM      1  C   UNL A   1      35.631  23.632  25.936  1.00  0.00     0.042 C 
ENDROOT
BRANCH   1   2
ATOM      2  C   UNL A   1      34.794  24.830  25.494  1.00  0.00     0.117 C 
BRANCH   2   3
ATOM      3  N   UNL A   1      33.423  24.791  25.981  1.00  0.00    -0.355 N 
ATOM      4  C   UNL A   1      32.459  25.740  26.155  1.00  0.00     0.228 C 
ATOM      5  O   UNL A   1      31.432  25.340  26.712  1.00  0.00    -0.274 OA
ATOM      6  H   UNL A   1      33.128  23.887  26.238  1.00  0.00     0.163 HD
BRANCH   4   7
ATOM      7  C   UNL A   1      32.649  27.224  25.759  1.00  0.00     0.067 C 
ATOM      8  C   UNL A   1      33.799  27.235  24.698  1.00  0.00     0.020 C 
ATOM      9  C   UNL A   1      31.324  27.840  25.231  1.00  0.00     0.138 C 
ATOM     10  C   UNL A   1      33.811  28.442  23.769  1.00  0.00     0.023 C 
ATOM     11  N   UNL A   1      31.555  29.039  24.409  1.00  0.00    -0.324 N 
ATOM     12  C   UNL A   1      32.413  28.769  23.277  1.00  0.00     0.121 C 
BRANCH   7  13
ATOM     13  C   UNL A   1      33.178  28.059  26.985  1.00  0.00     0.018 C 
BRANCH  13  14
ATOM     14  C   UNL A   1      34.572  28.710  26.934  1.00  0.00    -0.002 C 
ATOM     15  C   UNL A   1      34.674  30.134  27.450  1.00  0.00     0.004 C 
ENDBRANCH  13  14
ENDBRANCH   7  13
BRANCH  11  16
ATOM     16  C   UNL A   1      31.022  30.221  24.816  1.00  0.00     0.317 C 
ATOM     17  O   UNL A   1      31.505  30.853  25.765  1.00  0.00    -0.249 OA
ATOM     18  N   UNL A   1      29.971  30.833  24.258  1.00  0.00    -0.333 N 
ATOM     19  H   UNL A   1      29.866  31.721  24.670  1.00  0.00     0.165 HD
BRANCH  18  20
ATOM     20  C   UNL A   1      28.923  30.655  23.254  1.00  0.00     0.112 C 
ATOM     21  C   UNL A   1      28.145  31.872  22.810  1.00  0.00     0.056 C 
ATOM     22  C   UNL A   1      29.318  29.909  21.991  1.00  0.00     0.185 C 
ATOM     23  C   UNL A   1      28.107  31.783  21.296  1.00  0.00     0.162 C 
ATOM     24  O   UNL A   1      28.603  30.500  20.902  1.00  0.00    -0.379 OA
ENDBRANCH  18  20
ENDBRANCH  11  16
ENDBRANCH   4   7
ENDBRANCH   2   3
ENDBRANCH   1   2
BRANCH   1  25
ATOM     25  C   UNL A   1      36.945  23.471  25.192  1.00  0.00     0.118 C 
BRANCH  25  26
ATOM     26  N   UNL A   1      37.816  22.489  25.816  1.00  0.00    -0.352 N 
ATOM     27  C   UNL A   1      38.995  22.660  26.497  1.00  0.00     0.251 C 
ATOM     28  H   UNL A   1      37.513  21.555  25.738  1.00  0.00     0.163 HD
ATOM     29  O   UNL A   1      39.686  21.676  26.751  1.00  0.00    -0.269 OA
BRANCH  27  30
ATOM     30  C   UNL A   1      39.442  24.008  26.920  1.00  0.00     0.039 A 
ATOM     31  C   UNL A   1      39.245  24.400  28.247  1.00  0.00     0.014 A 
ATOM     32  C   UNL A   1      40.004  24.908  26.009  1.00  0.00     0.014 A 
ATOM     33  C   UNL A   1      39.639  25.675  28.665  1.00  0.00     0.010 A 
ATOM     34  C   UNL A   1      40.486  26.136  26.449  1.00  0.00     0.010 A 
ATOM     35  C   UNL A   1      40.280  26.548  27.773  1.00  0.00    -0.014 A 
BRANCH  35  36
ATOM     36  C   UNL A   1      40.689  27.917  28.180  1.00  0.00     0.031 A 
ATOM     37  C   UNL A   1      42.148  28.297  28.170  1.00  0.00     0.074 A 
ATOM     38  C   UNL A   1      39.767  28.789  28.634  1.00  0.00     0.049 A 
ATOM     39  N   UNL A   1      42.714  29.409  28.560  1.00  0.00    -0.248 NA
ATOM     40  C   UNL A   1      43.099  27.279  27.691  1.00  0.00     0.031 C 
ATOM     41  C   UNL A   1      38.334  28.516  28.767  1.00  0.00     0.029 A 
ATOM     42  N   UNL A   1      39.903  30.074  29.095  1.00  0.00    -0.354 N 
ATOM     43  C   UNL A   1      44.083  29.208  28.418  1.00  0.00     0.074 A 
ATOM     44  C   UNL A   1      44.266  27.855  27.945  1.00  0.00     0.031 C 
ATOM     45  C   UNL A   1      37.725  29.601  29.271  1.00  0.00     0.029 A 
ATOM     46  C   UNL A   1      38.723  30.636  29.521  1.00  0.00     0.049 A 
ATOM     47  H   UNL A   1      40.765  30.549  29.118  1.00  0.00     0.167 HD
ATOM     48  C   UNL A   1      45.097  30.079  28.629  1.00  0.00     0.034 A 
ATOM     49  C   UNL A   1      38.473  31.850  30.054  1.00  0.00     0.034 A 
ATOM     50  C   UNL A   1      44.908  31.445  29.034  1.00  0.00     0.049 A 
ATOM     51  C   UNL A   1      39.610  32.824  30.212  1.00  0.00     0.074 A 
ATOM     52  C   UNL A   1      45.860  32.438  29.185  1.00  0.00     0.029 A 
ATOM     53  N   UNL A   1      43.684  32.012  29.350  1.00  0.00    -0.354 N 
ATOM     54  N   UNL A   1      40.879  32.665  29.926  1.00  0.00    -0.248 NA
ATOM     55  C   UNL A   1      39.274  34.159  30.726  1.00  0.00     0.031 C 
ATOM     56  C   UNL A   1      45.210  33.604  29.604  1.00  0.00     0.029 A 
ATOM     57  C   UNL A   1      43.853  33.341  29.693  1.00  0.00     0.049 A 
ATOM     58  H   UNL A   1      42.820  31.538  29.332  1.00  0.00     0.167 HD
ATOM     59  C   UNL A   1      41.486  33.889  30.186  1.00  0.00     0.074 A 
ATOM     60  C   UNL A   1      40.440  34.785  30.636  1.00  0.00     0.031 C 
ATOM     61  C   UNL A   1      42.792  34.237  30.076  1.00  0.00     0.034 A 
BRANCH  48  62
ATOM     62  C   UNL A   1      46.501  29.599  28.361  1.00  0.00     0.023 A 
ATOM     63  C   UNL A   1      47.075  29.808  27.090  1.00  0.00     0.012 A 
ATOM     64  C   UNL A   1      47.268  28.991  29.374  1.00  0.00     0.148 A 
ATOM     65  C   UNL A   1      48.375  29.384  26.818  1.00  0.00     0.002 A 
ATOM     66  C   UNL A   1      48.580  28.614  29.109  1.00  0.00     0.091 A 
ATOM     67  F   UNL A   1      46.699  28.781  30.569  1.00  0.00    -0.205 F 
ATOM     68  C   UNL A   1      49.130  28.798  27.830  1.00  0.00     0.022 A 
BRANCH  66  69
ATOM     69  S   UNL A   1      49.662  27.924  30.367  1.00  0.00     0.127 S 
ATOM     70  O   UNL A   1      48.992  26.660  30.671  1.00  0.00    -0.237 OA
ATOM     71  O   UNL A   1      50.926  27.786  29.644  1.00  0.00    -0.237 OA
ATOM     72  O   UNL A   1      49.686  28.895  31.451  1.00  0.00    -0.744 OA
ENDBRANCH  66  69
ENDBRANCH  48  62
BRANCH  49  73
ATOM     73  C   UNL A   1      37.077  32.238  30.398  1.00  0.00     0.023 A 
ATOM     74  C   UNL A   1      36.593  31.988  31.698  1.00  0.00     0.012 A 
ATOM     75  C   UNL A   1      36.239  32.878  29.466  1.00  0.00     0.148 A 
ATOM     76  C   UNL A   1      35.290  32.336  32.052  1.00  0.00     0.002 A 
ATOM     77  C   UNL A   1      34.959  33.273  29.842  1.00  0.00     0.091 A 
ATOM     78  F   UNL A   1      36.713  33.099  28.231  1.00  0.00    -0.205 F 
ATOM     79  C   UNL A   1      34.477  32.988  31.128  1.00  0.00     0.022 A 
BRANCH  77  80
ATOM     80  S   UNL A   1      33.892  34.232  28.761  1.00  0.00     0.127 S 
ATOM     81  O   UNL A   1      33.427  33.217  27.821  1.00  0.00    -0.237 OA
ATOM     82  O   UNL A   1      32.876  34.721  29.693  1.00  0.00    -0.237 OA
ATOM     83  O   UNL A   1      34.740  35.277  28.200  1.00  0.00    -0.744 OA
ENDBRANCH  77  80
ENDBRANCH  49  73
BRANCH  61  84
ATOM     84  C   UNL A   1      43.168  35.658  30.402  1.00  0.00     0.023 A 
ATOM     85  C   UNL A   1      43.628  35.984  31.693  1.00  0.00     0.012 A 
ATOM     86  C   UNL A   1      43.144  36.651  29.403  1.00  0.00     0.148 A 
ATOM     87  C   UNL A   1      44.029  37.284  31.993  1.00  0.00     0.002 A 
ATOM     88  C   UNL A   1      43.592  37.933  29.696  1.00  0.00     0.091 A 
ATOM     89  F   UNL A   1      42.684  36.326  28.186  1.00  0.00    -0.205 F 
ATOM     90  C   UNL A   1      44.023  38.255  30.994  1.00  0.00     0.022 A 
BRANCH  88  91
ATOM     91  S   UNL A   1      43.710  39.217  28.445  1.00  0.00     0.127 S 
ATOM     92  O   UNL A   1      44.485  40.242  29.142  1.00  0.00    -0.237 OA
ATOM     93  O   UNL A   1      44.428  38.536  27.367  1.00  0.00    -0.237 OA
ATOM     94  O   UNL A   1      42.339  39.582  28.117  1.00  0.00    -0.744 OA
ENDBRANCH  88  91
ENDBRANCH  61  84
ENDBRANCH  35  36
ENDBRANCH  27  30
ENDBRANCH  25  26
ENDBRANCH   1  25
TORSDOF 17
ENDMDL
MODEL 2
REMARK VINA RESULT:     -11.6      4.658     10.031
REMARK SMILES CCC[C@]1(C(=O)NCCCNC(=O)c2ccc(-c3c4nc(c(-c5cccc(S(=O)(=O)[O-])c5F)c5ccc([nH]5)c(-c5cccc(S(=O)(=O)[O-])c5F)c5nc(c(-c6cccc(S(=O)(=O)[O-])c6F)c6ccc3[nH]6)C=C5)C=C4)cc2)CCCN(C(=O)N[C@H]2CCOC2)C1
REMARK SMILES IDX 9 1 8 2 7 3 5 4 6 5 4 7 77 8 89 9 78 10 80 11 79 12 3 13
REMARK SMILES IDX 2 14 1 15 81 16 82 17 83 18 84 20 85 21 88 22 86 23 87 24
REMARK SMILES IDX 10 25 11 26 12 27 13 29 14 30 15 31 76 32 16 33 75 34 17 35
REMARK SMILES IDX 18 36 19 37 69 38 20 39 74 40 68 41 70 42 21 43 73 44 67 45
REMARK SMILES IDX 66 46 22 48 54 49 34 50 53 51 35 52 38 53 52 54 71 55 36 56
REMARK SMILES IDX 37 57 51 59 72 60 39 61 23 62 24 63 32 64 25 65 27 66 33 67
REMARK SMILES IDX 26 68 28 69 29 70 30 71 31 72 55 73 56 74 64 75 57 76 59 77
REMARK SMILES IDX 65 78 58 79 60 80 61 81 62 82 63 83 40 84 41 85 49 86 42 87
REMARK SMILES IDX 44 88 50 89 43 90 45 91 46 92 47 93 48 94
REMARK H PARENT 7 6 83 19 11 28 70 47 38 58
REMARK Flexibility Score: inf
ROOT
ATOM      1  C   UNL A   1      33.811  27.677  26.054  1.00  0.00     0.042 C 
ENDROOT
BRANCH   1   2
ATOM      2  C   UNL A   1      32.742  26.775  25.445  1.00  0.00     0.117 C 
BRANCH   2   3
ATOM      3  N   UNL A   1      32.201  25.802  26.384  1.00  0.00    -0.355 N 
ATOM      4  C   UNL A   1      32.100  24.442  26.376  1.00  0.00     0.228 C 
ATOM      5  O   UNL A   1      31.461  23.963  27.318  1.00  0.00    -0.274 OA
ATOM      6  H   UNL A   1      31.829  26.213  27.198  1.00  0.00     0.163 HD
BRANCH   4   7
ATOM      7  C   UNL A   1      32.673  23.556  25.243  1.00  0.00     0.067 C 
ATOM      8  C   UNL A   1      34.211  23.844  25.217  1.00  0.00     0.020 C 
ATOM      9  C   UNL A   1      32.335  22.058  25.474  1.00  0.00     0.138 C 
ATOM     10  C   UNL A   1      35.065  22.743  24.601  1.00  0.00     0.023 C 
ATOM     11  N   UNL A   1      33.239  21.160  24.735  1.00  0.00    -0.324 N 
ATOM     12  C   UNL A   1      34.626  21.373  25.084  1.00  0.00     0.121 C 
BRANCH   7  13
ATOM     13  C   UNL A   1      32.118  24.022  23.845  1.00  0.00     0.018 C 
BRANCH  13  14
ATOM     14  C   UNL A   1      30.605  23.993  23.564  1.00  0.00    -0.002 C 
ATOM     15  C   UNL A   1      29.881  25.326  23.614  1.00  0.00     0.004 C 
ENDBRANCH  13  14
ENDBRANCH   7  13
BRANCH  11  16
ATOM     16  C   UNL A   1      32.708  20.323  23.805  1.00  0.00     0.317 C 
ATOM     17  O   UNL A   1      32.018  20.751  22.871  1.00  0.00    -0.249 OA
ATOM     18  N   UNL A   1      32.875  18.996  23.771  1.00  0.00    -0.333 N 
ATOM     19  H   UNL A   1      32.483  18.649  22.936  1.00  0.00     0.165 HD
BRANCH  18  20
ATOM     20  C   UNL A   1      33.430  17.875  24.529  1.00  0.00     0.112 C 
ATOM     21  C   UNL A   1      32.602  17.290  25.648  1.00  0.00     0.056 C 
ATOM     22  C   UNL A   1      33.949  16.702  23.714  1.00  0.00     0.185 C 
ATOM     23  C   UNL A   1      32.678  15.787  25.450  1.00  0.00     0.162 C 
ATOM     24  O   UNL A   1      33.666  15.510  24.452  1.00  0.00    -0.379 OA
ENDBRANCH  18  20
ENDBRANCH  11  16
ENDBRANCH   4   7
ENDBRANCH   2   3
ENDBRANCH   1   2
BRANCH   1  25
ATOM     25  C   UNL A   1      33.398  28.363  27.345  1.00  0.00     0.118 C 
BRANCH  25  26
ATOM     26  N   UNL A   1      33.453  29.812  27.242  1.00  0.00    -0.352 N 
ATOM     27  C   UNL A   1      34.403  30.694  27.694  1.00  0.00     0.251 C 
ATOM     28  H   UNL A   1      32.691  30.225  26.775  1.00  0.00     0.163 HD
ATOM     29  O   UNL A   1      34.147  31.895  27.699  1.00  0.00    -0.269 OA
BRANCH  27  30
ATOM     30  C   UNL A   1      35.719  30.215  28.178  1.00  0.00     0.039 A 
ATOM     31  C   UNL A   1      36.820  30.283  27.320  1.00  0.00     0.014 A 
ATOM     32  C   UNL A   1      35.867  29.651  29.448  1.00  0.00     0.014 A 
ATOM     33  C   UNL A   1      38.069  29.818  27.745  1.00  0.00     0.010 A 
ATOM     34  C   UNL A   1      37.127  29.281  29.906  1.00  0.00     0.010 A 
ATOM     35  C   UNL A   1      38.236  29.329  29.049  1.00  0.00    -0.014 A 
BRANCH  35  36
ATOM     36  C   UNL A   1      39.543  28.805  29.524  1.00  0.00     0.031 A 
ATOM     37  C   UNL A   1      40.265  29.502  30.649  1.00  0.00     0.074 A 
ATOM     38  C   UNL A   1      40.119  27.761  28.896  1.00  0.00     0.049 A 
ATOM     39  N   UNL A   1      41.444  29.250  31.155  1.00  0.00    -0.248 NA
ATOM     40  C   UNL A   1      39.587  30.656  31.265  1.00  0.00     0.031 C 
ATOM     41  C   UNL A   1      39.559  27.051  27.744  1.00  0.00     0.029 A 
ATOM     42  N   UNL A   1      41.318  27.134  29.122  1.00  0.00    -0.354 N 
ATOM     43  C   UNL A   1      41.666  30.237  32.109  1.00  0.00     0.074 A 
ATOM     44  C   UNL A   1      40.520  31.116  32.085  1.00  0.00     0.031 C 
ATOM     45  C   UNL A   1      40.411  26.083  27.368  1.00  0.00     0.029 A 
ATOM     46  C   UNL A   1      41.587  26.120  28.233  1.00  0.00     0.049 A 
ATOM     47  H   UNL A   1      41.929  27.385  29.852  1.00  0.00     0.167 HD
ATOM     48  C   UNL A   1      42.714  30.382  32.955  1.00  0.00     0.034 A 
ATOM     49  C   UNL A   1      42.661  25.312  28.125  1.00  0.00     0.034 A 
ATOM     50  C   UNL A   1      43.821  29.469  33.023  1.00  0.00     0.049 A 
ATOM     51  C   UNL A   1      43.780  25.450  29.122  1.00  0.00     0.074 A 
ATOM     52  C   UNL A   1      44.886  29.470  33.906  1.00  0.00     0.029 A 
ATOM     53  N   UNL A   1      44.003  28.386  32.177  1.00  0.00    -0.354 N 
ATOM     54  N   UNL A   1      43.899  26.296  30.117  1.00  0.00    -0.248 NA
ATOM     55  C   UNL A   1      44.893  24.497  29.009  1.00  0.00     0.031 C 
ATOM     56  C   UNL A   1      45.720  28.394  33.585  1.00  0.00     0.029 A 
ATOM     57  C   UNL A   1      45.162  27.711  32.516  1.00  0.00     0.049 A 
ATOM     58  H   UNL A   1      43.397  28.134  31.442  1.00  0.00     0.167 HD
ATOM     59  C   UNL A   1      45.076  25.951  30.772  1.00  0.00     0.074 A 
ATOM     60  C   UNL A   1      45.624  24.808  30.072  1.00  0.00     0.031 C 
ATOM     61  C   UNL A   1      45.659  26.536  31.849  1.00  0.00     0.034 A 
BRANCH  48  62
ATOM     62  C   UNL A   1      42.679  31.539  33.921  1.00  0.00     0.023 A 
ATOM     63  C   UNL A   1      43.191  32.791  33.523  1.00  0.00     0.012 A 
ATOM     64  C   UNL A   1      42.096  31.405  35.196  1.00  0.00     0.148 A 
ATOM     65  C   UNL A   1      43.162  33.881  34.393  1.00  0.00     0.002 A 
ATOM     66  C   UNL A   1      42.028  32.508  36.040  1.00  0.00     0.091 A 
ATOM     67  F   UNL A   1      41.633  30.202  35.566  1.00  0.00    -0.205 F 
ATOM     68  C   UNL A   1      42.572  33.742  35.645  1.00  0.00     0.022 A 
BRANCH  66  69
ATOM     69  S   UNL A   1      41.215  32.454  37.641  1.00  0.00     0.127 S 
ATOM     70  O   UNL A   1      42.079  31.533  38.379  1.00  0.00    -0.237 OA
ATOM     71  O   UNL A   1      41.298  33.848  38.077  1.00  0.00    -0.237 OA
ATOM     72  O   UNL A   1      39.863  31.977  37.388  1.00  0.00    -0.744 OA
ENDBRANCH  66  69
ENDBRANCH  48  62
BRANCH  49  73
ATOM     73  C   UNL A   1      42.691  24.248  27.083  1.00  0.00     0.023 A 
ATOM     74  C   UNL A   1      43.404  24.472  25.889  1.00  0.00     0.012 A 
ATOM     75  C   UNL A   1      42.048  23.010  27.276  1.00  0.00     0.148 A 
ATOM     76  C   UNL A   1      43.449  23.497  24.892  1.00  0.00     0.002 A 
ATOM     77  C   UNL A   1      42.142  22.022  26.302  1.00  0.00     0.091 A 
ATOM     78  F   UNL A   1      41.366  22.818  28.414  1.00  0.00    -0.205 F 
ATOM     79  C   UNL A   1      42.827  22.269  25.103  1.00  0.00     0.022 A 
BRANCH  77  80
ATOM     80  S   UNL A   1      41.485  20.367  26.543  1.00  0.00     0.127 S 
ATOM     81  O   UNL A   1      42.100  19.636  25.440  1.00  0.00    -0.237 OA
ATOM     82  O   UNL A   1      41.997  20.027  27.871  1.00  0.00    -0.237 OA
ATOM     83  O   UNL A   1      40.035  20.509  26.481  1.00  0.00    -0.744 OA
ENDBRANCH  77  80
ENDBRANCH  49  73
BRANCH  61  84
ATOM     84  C   UNL A   1      46.934  25.929  32.371  1.00  0.00     0.023 A 
ATOM     85  C   UNL A   1      46.893  25.045  33.467  1.00  0.00     0.012 A 
ATOM     86  C   UNL A   1      48.160  26.170  31.720  1.00  0.00     0.148 A 
ATOM     87  C   UNL A   1      48.058  24.435  33.927  1.00  0.00     0.002 A 
ATOM     88  C   UNL A   1      49.309  25.520  32.153  1.00  0.00     0.091 A 
ATOM     89  F   UNL A   1      48.181  27.029  30.691  1.00  0.00    -0.205 F 
ATOM     90  C   UNL A   1      49.263  24.661  33.264  1.00  0.00     0.022 A 
BRANCH  88  91
ATOM     91  S   UNL A   1      50.880  25.678  31.298  1.00  0.00     0.127 S 
ATOM     92  O   UNL A   1      50.539  25.207  29.957  1.00  0.00    -0.237 OA
ATOM     93  O   UNL A   1      51.144  27.115  31.392  1.00  0.00    -0.237 OA
ATOM     94  O   UNL A   1      51.822  24.846  32.035  1.00  0.00    -0.744 OA
ENDBRANCH  88  91
ENDBRANCH  61  84
ENDBRANCH  35  36
ENDBRANCH  27  30
ENDBRANCH  25  26
ENDBRANCH   1  25
TORSDOF 17
ENDMDL
MODEL 3
REMARK VINA RESULT:     -11.6      5.303      8.942
REMARK SMILES CCC[C@]1(C(=O)NCCCNC(=O)c2ccc(-c3c4nc(c(-c5cccc(S(=O)(=O)[O-])c5F)c5ccc([nH]5)c(-c5cccc(S(=O)(=O)[O-])c5F)c5nc(c(-c6cccc(S(=O)(=O)[O-])c6F)c6ccc3[nH]6)C=C5)C=C4)cc2)CCCN(C(=O)N[C@H]2CCOC2)C1
REMARK SMILES IDX 9 1 8 2 7 3 5 4 6 5 4 7 77 8 89 9 78 10 80 11 79 12 3 13
REMARK SMILES IDX 2 14 1 15 81 16 82 17 83 18 84 20 85 21 88 22 86 23 87 24
REMARK SMILES IDX 10 25 11 26 12 27 13 29 14 30 15 31 76 32 16 33 75 34 17 35
REMARK SMILES IDX 18 36 19 37 69 38 20 39 74 40 68 41 70 42 21 43 73 44 67 45
REMARK SMILES IDX 66 46 22 48 54 49 34 50 53 51 35 52 38 53 52 54 71 55 36 56
REMARK SMILES IDX 37 57 51 59 72 60 39 61 23 62 24 63 32 64 25 65 27 66 33 67
REMARK SMILES IDX 26 68 28 69 29 70 30 71 31 72 55 73 56 74 64 75 57 76 59 77
REMARK SMILES IDX 65 78 58 79 60 80 61 81 62 82 63 83 40 84 41 85 49 86 42 87
REMARK SMILES IDX 44 88 50 89 43 90 45 91 46 92 47 93 48 94
REMARK H PARENT 7 6 83 19 11 28 70 47 38 58
REMARK Flexibility Score: inf
ROOT
ATOM      1  C   UNL A   1      31.418  31.887  26.488  1.00  0.00     0.042 C 
ENDROOT
BRANCH   1   2
ATOM      2  C   UNL A   1      31.551  30.455  25.978  1.00  0.00     0.117 C 
BRANCH   2   3
ATOM      3  N   UNL A   1      30.902  30.234  24.694  1.00  0.00    -0.355 N 
ATOM      4  C   UNL A   1      30.855  29.178  23.833  1.00  0.00     0.228 C 
ATOM      5  O   UNL A   1      30.286  29.406  22.761  1.00  0.00    -0.274 OA
ATOM      6  H   UNL A   1      30.387  31.013  24.380  1.00  0.00     0.163 HD
BRANCH   4   7
ATOM      7  C   UNL A   1      31.524  27.813  24.128  1.00  0.00     0.067 C 
ATOM      8  C   UNL A   1      33.063  28.059  24.001  1.00  0.00     0.020 C 
ATOM      9  C   UNL A   1      31.103  27.270  25.521  1.00  0.00     0.138 C 
ATOM     10  C   UNL A   1      33.942  27.068  24.754  1.00  0.00     0.023 C 
ATOM     11  N   UNL A   1      32.053  26.272  26.042  1.00  0.00    -0.324 N 
ATOM     12  C   UNL A   1      33.397  26.798  26.144  1.00  0.00     0.121 C 
BRANCH   7  13
ATOM     13  C   UNL A   1      31.156  26.766  23.011  1.00  0.00     0.018 C 
BRANCH  13  14
ATOM     14  C   UNL A   1      32.161  26.444  21.891  1.00  0.00    -0.002 C 
ATOM     15  C   UNL A   1      32.760  25.049  21.898  1.00  0.00     0.004 C 
ENDBRANCH  13  14
ENDBRANCH   7  13
BRANCH  11  16
ATOM     16  C   UNL A   1      31.605  25.014  26.291  1.00  0.00     0.317 C 
ATOM     17  O   UNL A   1      30.476  24.812  26.757  1.00  0.00    -0.249 OA
ATOM     18  N   UNL A   1      32.287  23.887  26.055  1.00  0.00    -0.333 N 
ATOM     19  H   UNL A   1      31.692  23.118  26.217  1.00  0.00     0.165 HD
BRANCH  18  20
ATOM     20  C   UNL A   1      33.597  23.386  25.643  1.00  0.00     0.112 C 
ATOM     21  C   UNL A   1      34.518  22.834  26.705  1.00  0.00     0.056 C 
ATOM     22  C   UNL A   1      33.608  22.387  24.498  1.00  0.00     0.185 C 
ATOM     23  C   UNL A   1      35.042  21.531  26.132  1.00  0.00     0.162 C 
ATOM     24  O   UNL A   1      34.658  21.451  24.757  1.00  0.00    -0.379 OA
ENDBRANCH  18  20
ENDBRANCH  11  16
ENDBRANCH   4   7
ENDBRANCH   2   3
ENDBRANCH   1   2
BRANCH   1  25
ATOM     25  C   UNL A   1      32.678  32.452  27.120  1.00  0.00     0.118 C 
BRANCH  25  26
ATOM     26  N   UNL A   1      32.514  33.834  27.539  1.00  0.00    -0.352 N 
ATOM     27  C   UNL A   1      33.103  34.520  28.572  1.00  0.00     0.251 C 
ATOM     28  H   UNL A   1      31.881  34.361  26.998  1.00  0.00     0.163 HD
ATOM     29  O   UNL A   1      32.657  35.619  28.889  1.00  0.00    -0.269 OA
BRANCH  27  30
ATOM     30  C   UNL A   1      34.258  33.949  29.305  1.00  0.00     0.039 A 
ATOM     31  C   UNL A   1      35.550  34.329  28.931  1.00  0.00     0.014 A 
ATOM     32  C   UNL A   1      34.081  33.004  30.319  1.00  0.00     0.014 A 
ATOM     33  C   UNL A   1      36.657  33.789  29.594  1.00  0.00     0.010 A 
ATOM     34  C   UNL A   1      35.177  32.544  31.043  1.00  0.00     0.010 A 
ATOM     35  C   UNL A   1      36.478  32.904  30.667  1.00  0.00    -0.014 A 
BRANCH  35  36
ATOM     36  C   UNL A   1      37.633  32.294  31.376  1.00  0.00     0.031 A 
ATOM     37  C   UNL A   1      38.387  31.156  30.738  1.00  0.00     0.074 A 
ATOM     38  C   UNL A   1      37.953  32.704  32.619  1.00  0.00     0.049 A 
ATOM     39  N   UNL A   1      39.369  30.441  31.222  1.00  0.00    -0.248 NA
ATOM     40  C   UNL A   1      37.958  30.742  29.391  1.00  0.00     0.031 C 
ATOM     41  C   UNL A   1      37.252  33.742  33.377  1.00  0.00     0.029 A 
ATOM     42  N   UNL A   1      38.936  32.275  33.476  1.00  0.00    -0.354 N 
ATOM     43  C   UNL A   1      39.641  29.470  30.264  1.00  0.00     0.074 A 
ATOM     44  C   UNL A   1      38.696  29.661  29.188  1.00  0.00     0.031 C 
ATOM     45  C   UNL A   1      37.829  33.872  34.583  1.00  0.00     0.029 A 
ATOM     46  C   UNL A   1      38.923  32.911  34.695  1.00  0.00     0.049 A 
ATOM     47  H   UNL A   1      39.589  31.577  33.241  1.00  0.00     0.167 HD
ATOM     48  C   UNL A   1      40.611  28.526  30.261  1.00  0.00     0.034 A 
ATOM     49  C   UNL A   1      39.703  32.739  35.781  1.00  0.00     0.034 A 
ATOM     50  C   UNL A   1      41.593  28.383  31.302  1.00  0.00     0.049 A 
ATOM     51  C   UNL A   1      40.818  31.731  35.724  1.00  0.00     0.074 A 
ATOM     52  C   UNL A   1      42.675  27.522  31.352  1.00  0.00     0.029 A 
ATOM     53  N   UNL A   1      41.614  29.123  32.473  1.00  0.00    -0.354 N 
ATOM     54  N   UNL A   1      41.155  30.926  34.745  1.00  0.00    -0.248 NA
ATOM     55  C   UNL A   1      41.688  31.634  36.905  1.00  0.00     0.031 C 
ATOM     56  C   UNL A   1      43.344  27.734  32.562  1.00  0.00     0.029 A 
ATOM     57  C   UNL A   1      42.690  28.741  33.254  1.00  0.00     0.049 A 
ATOM     58  H   UNL A   1      40.959  29.818  32.714  1.00  0.00     0.167 HD
ATOM     59  C   UNL A   1      42.297  30.260  35.174  1.00  0.00     0.074 A 
ATOM     60  C   UNL A   1      42.605  30.767  36.495  1.00  0.00     0.031 C 
ATOM     61  C   UNL A   1      43.019  29.303  34.538  1.00  0.00     0.034 A 
BRANCH  48  62
ATOM     62  C   UNL A   1      40.699  27.615  29.064  1.00  0.00     0.023 A 
ATOM     63  C   UNL A   1      39.821  26.516  28.962  1.00  0.00     0.012 A 
ATOM     64  C   UNL A   1      41.608  27.872  28.019  1.00  0.00     0.148 A 
ATOM     65  C   UNL A   1      39.873  25.664  27.860  1.00  0.00     0.002 A 
ATOM     66  C   UNL A   1      41.621  27.045  26.901  1.00  0.00     0.091 A 
ATOM     67  F   UNL A   1      42.449  28.908  28.142  1.00  0.00    -0.205 F 
ATOM     68  C   UNL A   1      40.764  25.934  26.826  1.00  0.00     0.022 A 
BRANCH  66  69
ATOM     69  S   UNL A   1      42.676  27.355  25.479  1.00  0.00     0.127 S 
ATOM     70  O   UNL A   1      43.979  27.547  26.115  1.00  0.00    -0.237 OA
ATOM     71  O   UNL A   1      42.545  26.110  24.721  1.00  0.00    -0.237 OA
ATOM     72  O   UNL A   1      42.123  28.529  24.819  1.00  0.00    -0.744 OA
ENDBRANCH  66  69
ENDBRANCH  48  62
BRANCH  49  73
ATOM     73  C   UNL A   1      39.507  33.599  36.982  1.00  0.00     0.023 A 
ATOM     74  C   UNL A   1      39.983  34.925  36.964  1.00  0.00     0.012 A 
ATOM     75  C   UNL A   1      38.830  33.129  38.123  1.00  0.00     0.148 A 
ATOM     76  C   UNL A   1      39.819  35.755  38.073  1.00  0.00     0.002 A 
ATOM     77  C   UNL A   1      38.621  33.978  39.203  1.00  0.00     0.091 A 
ATOM     78  F   UNL A   1      38.393  31.861  38.125  1.00  0.00    -0.205 F 
ATOM     79  C   UNL A   1      39.129  35.286  39.188  1.00  0.00     0.022 A 
BRANCH  77  80
ATOM     80  S   UNL A   1      37.632  33.502  40.625  1.00  0.00     0.127 S 
ATOM     81  O   UNL A   1      36.415  33.004  39.992  1.00  0.00    -0.237 OA
ATOM     82  O   UNL A   1      38.468  32.475  41.247  1.00  0.00    -0.237 OA
ATOM     83  O   UNL A   1      37.483  34.714  41.422  1.00  0.00    -0.744 OA
ENDBRANCH  77  80
ENDBRANCH  49  73
BRANCH  61  84
ATOM     84  C   UNL A   1      44.242  28.769  35.236  1.00  0.00     0.023 A 
ATOM     85  C   UNL A   1      45.507  29.321  34.958  1.00  0.00     0.012 A 
ATOM     86  C   UNL A   1      44.122  27.777  36.230  1.00  0.00     0.148 A 
ATOM     87  C   UNL A   1      46.639  28.873  35.635  1.00  0.00     0.002 A 
ATOM     88  C   UNL A   1      45.248  27.370  36.935  1.00  0.00     0.091 A 
ATOM     89  F   UNL A   1      42.912  27.249  36.466  1.00  0.00    -0.205 F 
ATOM     90  C   UNL A   1      46.509  27.907  36.631  1.00  0.00     0.022 A 
BRANCH  88  91
ATOM     91  S   UNL A   1      45.155  26.204  38.299  1.00  0.00     0.127 S 
ATOM     92  O   UNL A   1      44.670  24.999  37.629  1.00  0.00    -0.237 OA
ATOM     93  O   UNL A   1      46.547  26.137  38.747  1.00  0.00    -0.237 OA
ATOM     94  O   UNL A   1      44.240  26.795  39.267  1.00  0.00    -0.744 OA
ENDBRANCH  88  91
ENDBRANCH  61  84
ENDBRANCH  35  36
ENDBRANCH  27  30
ENDBRANCH  25  26
ENDBRANCH   1  25
TORSDOF 17
ENDMDL
