MODEL 1
REMARK VINA RESULT:     -10.6      0.000      0.000
REMARK SMILES O=C(CCCCCn1cc(Cl)c(I)n1)NCCCNC(=O)c1ccc(-c2c3nc(c(-c4cccc(S(=O)(=O)[O-])c4F)c4ccc([nH]4)c(-c4cccc(S(=O)(=O)[O-])c4F)c4nc(c(-c5cccc(S(=O)(=O)[O-])c5F)c5ccc2[nH]5)C=C4)C=C3)cc1
REMARK SMILES IDX 16 1 15 2 1 3 2 4 3 6 4 7 5 8 6 9 7 10 8 11 9 12 14 13 10 14
REMARK SMILES IDX 12 15 11 16 13 17 17 18 18 19 19 20 20 21 21 23 22 24 23 25
REMARK SMILES IDX 84 26 24 27 83 28 25 29 26 30 27 31 77 32 28 33 82 34 76 35
REMARK SMILES IDX 78 36 29 37 81 38 75 39 74 40 30 42 62 43 42 44 61 45 43 46
REMARK SMILES IDX 46 47 60 48 79 49 44 50 45 51 59 53 80 54 47 55 31 56 32 57
REMARK SMILES IDX 40 58 33 59 35 60 41 61 34 62 36 63 37 64 38 65 39 66 63 67
REMARK SMILES IDX 64 68 72 69 65 70 67 71 73 72 66 73 68 74 69 75 70 76 71 77
REMARK SMILES IDX 48 78 49 79 57 80 50 81 52 82 58 83 51 84 53 85 54 86 55 87
REMARK SMILES IDX 56 88
REMARK H PARENT 15 5 19 22 78 41 46 52
REMARK Flexibility Score: inf
ROOT
ATOM      1  C   UNL A   1      33.333  35.479  28.971  1.00  0.00     0.117 C 
ENDROOT
BRANCH   1   2
ATOM      2  N   UNL A   1      33.825  36.248  30.102  1.00  0.00    -0.356 N 
ATOM      3  O   UNL A   1      31.808  36.430  31.187  1.00  0.00    -0.275 OA
ATOM      4  C   UNL A   1      33.025  36.584  31.172  1.00  0.00     0.219 C 
ATOM      5  H   UNL A   1      34.766  36.539  30.105  1.00  0.00     0.163 HD
BRANCH   4   6
ATOM      6  C   UNL A   1      33.791  37.090  32.382  1.00  0.00     0.100 C 
BRANCH   6   7
ATOM      7  C   UNL A   1      34.552  35.951  33.069  1.00  0.00     0.010 C 
BRANCH   7   8
ATOM      8  C   UNL A   1      33.777  34.633  33.219  1.00  0.00     0.002 C 
BRANCH   8   9
ATOM      9  C   UNL A   1      34.448  33.393  32.606  1.00  0.00     0.024 C 
BRANCH   9  10
ATOM     10  C   UNL A   1      35.784  33.645  31.894  1.00  0.00     0.144 C 
BRANCH  10  11
ATOM     11  N   UNL A   1      36.935  33.408  32.751  1.00  0.00    -0.270 N 
ATOM     12  C   UNL A   1      38.084  34.150  32.806  1.00  0.00     0.130 A 
ATOM     13  N   UNL A   1      36.912  32.405  33.650  1.00  0.00    -0.165 NA
ATOM     14  C   UNL A   1      38.828  33.629  33.837  1.00  0.00     0.092 A 
ATOM     15  C   UNL A   1      38.078  32.526  34.290  1.00  0.00     0.141 A 
ATOM     16  Cl  UNL A   1      40.312  34.223  34.405  1.00  0.00    -0.080 Cl
ATOM     17  I   UNL A   1      38.634  31.220  35.758  1.00  0.00    -0.018 I 
ENDBRANCH  10  11
ENDBRANCH   9  10
ENDBRANCH   8   9
ENDBRANCH   7   8
ENDBRANCH   6   7
ENDBRANCH   4   6
ENDBRANCH   1   2
BRANCH   1  18
ATOM     18  C   UNL A   1      34.397  35.186  27.910  1.00  0.00     0.042 C 
BRANCH  18  19
ATOM     19  C   UNL A   1      35.110  33.860  28.116  1.00  0.00     0.118 C 
BRANCH  19  20
ATOM     20  N   UNL A   1      34.256  32.670  27.997  1.00  0.00    -0.352 N 
ATOM     21  C   UNL A   1      34.650  31.346  27.800  1.00  0.00     0.251 C 
ATOM     22  H   UNL A   1      33.286  32.826  28.066  1.00  0.00     0.163 HD
ATOM     23  O   UNL A   1      33.867  30.518  27.367  1.00  0.00    -0.269 OA
BRANCH  21  24
ATOM     24  C   UNL A   1      36.039  30.967  28.147  1.00  0.00     0.039 A 
ATOM     25  C   UNL A   1      36.934  31.814  28.807  1.00  0.00     0.014 A 
ATOM     26  C   UNL A   1      36.427  29.682  27.802  1.00  0.00     0.014 A 
ATOM     27  C   UNL A   1      38.198  31.315  29.129  1.00  0.00     0.010 A 
ATOM     28  C   UNL A   1      37.493  29.108  28.418  1.00  0.00     0.010 A 
ATOM     29  C   UNL A   1      38.458  29.951  28.923  1.00  0.00    -0.014 A 
BRANCH  29  30
ATOM     30  C   UNL A   1      39.715  29.311  29.254  1.00  0.00     0.031 A 
ATOM     31  C   UNL A   1      40.009  29.309  30.699  1.00  0.00     0.074 A 
ATOM     32  C   UNL A   1      40.419  28.575  28.364  1.00  0.00     0.049 A 
ATOM     33  N   UNL A   1      40.812  30.107  31.313  1.00  0.00    -0.248 NA
ATOM     34  C   UNL A   1      39.180  28.488  31.593  1.00  0.00     0.031 C 
ATOM     35  C   UNL A   1      40.066  28.197  26.986  1.00  0.00     0.029 A 
ATOM     36  N   UNL A   1      41.576  27.894  28.564  1.00  0.00    -0.354 N 
ATOM     37  C   UNL A   1      40.796  29.698  32.640  1.00  0.00     0.074 A 
ATOM     38  C   UNL A   1      39.607  28.902  32.789  1.00  0.00     0.031 C 
ATOM     39  C   UNL A   1      40.862  27.183  26.576  1.00  0.00     0.029 A 
ATOM     40  C   UNL A   1      41.873  26.945  27.589  1.00  0.00     0.049 A 
ATOM     41  H   UNL A   1      42.160  28.057  29.339  1.00  0.00     0.167 HD
ATOM     42  C   UNL A   1      41.911  29.821  33.412  1.00  0.00     0.034 A 
ATOM     43  C   UNL A   1      42.853  26.008  27.656  1.00  0.00     0.034 A 
ATOM     44  C   UNL A   1      42.924  30.592  32.725  1.00  0.00     0.049 A 
ATOM     45  C   UNL A   1      43.846  26.499  28.643  1.00  0.00     0.074 A 
ATOM     46  C   UNL A   1      42.990  31.865  32.194  1.00  0.00     0.029 A 
ATOM     47  N   UNL A   1      43.934  29.875  32.124  1.00  0.00    -0.354 N 
ATOM     48  N   UNL A   1      44.568  27.568  28.452  1.00  0.00    -0.248 NA
ATOM     49  C   UNL A   1      43.689  26.091  30.030  1.00  0.00     0.031 C 
ATOM     50  C   UNL A   1      43.704  31.710  30.968  1.00  0.00     0.029 A 
ATOM     51  C   UNL A   1      44.113  30.379  30.864  1.00  0.00     0.049 A 
ATOM     52  H   UNL A   1      44.437  29.132  32.529  1.00  0.00     0.167 HD
ATOM     53  C   UNL A   1      44.532  28.226  29.673  1.00  0.00     0.074 A 
ATOM     54  C   UNL A   1      44.073  27.220  30.634  1.00  0.00     0.031 C 
ATOM     55  C   UNL A   1      44.571  29.590  29.741  1.00  0.00     0.034 A 
BRANCH  42  56
ATOM     56  C   UNL A   1      42.282  28.953  34.592  1.00  0.00     0.023 A 
ATOM     57  C   UNL A   1      42.811  29.621  35.721  1.00  0.00     0.012 A 
ATOM     58  C   UNL A   1      42.403  27.545  34.568  1.00  0.00     0.148 A 
ATOM     59  C   UNL A   1      43.496  28.939  36.728  1.00  0.00     0.002 A 
ATOM     60  C   UNL A   1      43.024  26.862  35.608  1.00  0.00     0.091 A 
ATOM     61  F   UNL A   1      42.034  26.856  33.488  1.00  0.00    -0.205 F 
ATOM     62  C   UNL A   1      43.604  27.557  36.671  1.00  0.00     0.022 A 
BRANCH  60  63
ATOM     63  S   UNL A   1      43.165  25.070  35.613  1.00  0.00     0.127 S 
ATOM     64  O   UNL A   1      41.762  24.666  35.599  1.00  0.00    -0.237 OA
ATOM     65  O   UNL A   1      43.894  24.827  34.368  1.00  0.00    -0.237 OA
ATOM     66  O   UNL A   1      43.911  24.733  36.819  1.00  0.00    -0.744 OA
ENDBRANCH  60  63
ENDBRANCH  42  56
BRANCH  43  67
ATOM     67  C   UNL A   1      42.857  24.604  27.174  1.00  0.00     0.023 A 
ATOM     68  C   UNL A   1      41.663  23.853  27.185  1.00  0.00     0.012 A 
ATOM     69  C   UNL A   1      43.943  24.108  26.420  1.00  0.00     0.148 A 
ATOM     70  C   UNL A   1      41.541  22.675  26.434  1.00  0.00     0.002 A 
ATOM     71  C   UNL A   1      43.819  22.937  25.677  1.00  0.00     0.091 A 
ATOM     72  F   UNL A   1      45.065  24.836  26.344  1.00  0.00    -0.205 F 
ATOM     73  C   UNL A   1      42.614  22.224  25.669  1.00  0.00     0.022 A 
BRANCH  71  74
ATOM     74  S   UNL A   1      45.160  22.333  24.643  1.00  0.00     0.127 S 
ATOM     75  O   UNL A   1      46.186  22.002  25.632  1.00  0.00    -0.237 OA
ATOM     76  O   UNL A   1      44.545  21.182  23.990  1.00  0.00    -0.237 OA
ATOM     77  O   UNL A   1      45.518  23.443  23.766  1.00  0.00    -0.744 OA
ENDBRANCH  71  74
ENDBRANCH  43  67
BRANCH  55  78
ATOM     78  C   UNL A   1      44.896  30.355  28.481  1.00  0.00     0.023 A 
ATOM     79  C   UNL A   1      43.904  30.858  27.611  1.00  0.00     0.012 A 
ATOM     80  C   UNL A   1      46.231  30.733  28.271  1.00  0.00     0.148 A 
ATOM     81  C   UNL A   1      44.240  31.702  26.548  1.00  0.00     0.002 A 
ATOM     82  C   UNL A   1      46.557  31.610  27.246  1.00  0.00     0.091 A 
ATOM     83  F   UNL A   1      47.164  30.249  29.107  1.00  0.00    -0.205 F 
ATOM     84  C   UNL A   1      45.566  32.091  26.375  1.00  0.00     0.022 A 
BRANCH  82  85
ATOM     85  S   UNL A   1      48.224  32.244  27.055  1.00  0.00     0.127 S 
ATOM     86  O   UNL A   1      48.495  32.792  28.382  1.00  0.00    -0.237 OA
ATOM     87  O   UNL A   1      48.983  31.038  26.723  1.00  0.00    -0.237 OA
ATOM     88  O   UNL A   1      48.159  33.221  25.974  1.00  0.00    -0.744 OA
ENDBRANCH  82  85
ENDBRANCH  55  78
ENDBRANCH  29  30
ENDBRANCH  21  24
ENDBRANCH  19  20
ENDBRANCH  18  19
ENDBRANCH   1  18
TORSDOF 18
ENDMDL
MODEL 2
REMARK VINA RESULT:     -10.5      2.778      3.933
REMARK SMILES O=C(CCCCCn1cc(Cl)c(I)n1)NCCCNC(=O)c1ccc(-c2c3nc(c(-c4cccc(S(=O)(=O)[O-])c4F)c4ccc([nH]4)c(-c4cccc(S(=O)(=O)[O-])c4F)c4nc(c(-c5cccc(S(=O)(=O)[O-])c5F)c5ccc2[nH]5)C=C4)C=C3)cc1
REMARK SMILES IDX 16 1 15 2 1 3 2 4 3 6 4 7 5 8 6 9 7 10 8 11 9 12 14 13 10 14
REMARK SMILES IDX 12 15 11 16 13 17 17 18 18 19 19 20 20 21 21 23 22 24 23 25
REMARK SMILES IDX 84 26 24 27 83 28 25 29 26 30 27 31 77 32 28 33 82 34 76 35
REMARK SMILES IDX 78 36 29 37 81 38 75 39 74 40 30 42 62 43 42 44 61 45 43 46
REMARK SMILES IDX 46 47 60 48 79 49 44 50 45 51 59 53 80 54 47 55 31 56 32 57
REMARK SMILES IDX 40 58 33 59 35 60 41 61 34 62 36 63 37 64 38 65 39 66 63 67
REMARK SMILES IDX 64 68 72 69 65 70 67 71 73 72 66 73 68 74 69 75 70 76 71 77
REMARK SMILES IDX 48 78 49 79 57 80 50 81 52 82 58 83 51 84 53 85 54 86 55 87
REMARK SMILES IDX 56 88
REMARK H PARENT 15 5 19 22 78 41 46 52
REMARK Flexibility Score: inf
ROOT
ATOM      1  C   UNL A   1      34.739  33.579  33.997  1.00  0.00     0.117 C 
ENDROOT
BRANCH   1   2
ATOM      2  N   UNL A   1      33.618  34.053  33.203  1.00  0.00    -0.356 N 
ATOM      3  O   UNL A   1      34.245  36.263  33.165  1.00  0.00    -0.275 OA
ATOM      4  C   UNL A   1      33.515  35.358  32.774  1.00  0.00     0.219 C 
ATOM      5  H   UNL A   1      32.906  33.417  32.961  1.00  0.00     0.163 HD
BRANCH   4   6
ATOM      6  C   UNL A   1      32.465  35.574  31.697  1.00  0.00     0.100 C 
BRANCH   6   7
ATOM      7  C   UNL A   1      32.920  36.630  30.685  1.00  0.00     0.010 C 
BRANCH   7   8
ATOM      8  C   UNL A   1      33.484  36.083  29.366  1.00  0.00     0.002 C 
BRANCH   8   9
ATOM      9  C   UNL A   1      33.462  34.554  29.216  1.00  0.00     0.024 C 
BRANCH   9  10
ATOM     10  C   UNL A   1      33.230  34.029  27.793  1.00  0.00     0.144 C 
BRANCH  10  11
ATOM     11  N   UNL A   1      33.530  32.612  27.656  1.00  0.00    -0.270 N 
ATOM     12  C   UNL A   1      34.748  32.012  27.822  1.00  0.00     0.130 A 
ATOM     13  N   UNL A   1      32.541  31.735  27.398  1.00  0.00    -0.165 NA
ATOM     14  C   UNL A   1      34.528  30.660  27.717  1.00  0.00     0.092 A 
ATOM     15  C   UNL A   1      33.158  30.550  27.408  1.00  0.00     0.141 A 
ATOM     16  Cl  UNL A   1      35.681  29.433  27.927  1.00  0.00    -0.080 Cl
ATOM     17  I   UNL A   1      32.151  28.816  27.017  1.00  0.00    -0.018 I 
ENDBRANCH  10  11
ENDBRANCH   9  10
ENDBRANCH   8   9
ENDBRANCH   7   8
ENDBRANCH   6   7
ENDBRANCH   4   6
ENDBRANCH   1   2
BRANCH   1  18
ATOM     18  C   UNL A   1      35.757  32.757  33.204  1.00  0.00     0.042 C 
BRANCH  18  19
ATOM     19  C   UNL A   1      36.862  33.595  32.582  1.00  0.00     0.118 C 
BRANCH  19  20
ATOM     20  N   UNL A   1      36.629  33.993  31.186  1.00  0.00    -0.352 N 
ATOM     21  C   UNL A   1      37.379  33.650  30.059  1.00  0.00     0.251 C 
ATOM     22  H   UNL A   1      35.848  34.571  31.026  1.00  0.00     0.163 HD
ATOM     23  O   UNL A   1      37.308  34.310  29.037  1.00  0.00    -0.269 OA
BRANCH  21  24
ATOM     24  C   UNL A   1      38.248  32.454  30.131  1.00  0.00     0.039 A 
ATOM     25  C   UNL A   1      37.802  31.152  29.885  1.00  0.00     0.014 A 
ATOM     26  C   UNL A   1      39.580  32.684  30.438  1.00  0.00     0.014 A 
ATOM     27  C   UNL A   1      38.738  30.116  29.927  1.00  0.00     0.010 A 
ATOM     28  C   UNL A   1      40.517  31.749  30.133  1.00  0.00     0.010 A 
ATOM     29  C   UNL A   1      40.098  30.439  30.055  1.00  0.00    -0.014 A 
BRANCH  29  30
ATOM     30  C   UNL A   1      41.162  29.456  30.071  1.00  0.00     0.031 A 
ATOM     31  C   UNL A   1      41.503  28.981  31.424  1.00  0.00     0.074 A 
ATOM     32  C   UNL A   1      41.620  28.855  28.948  1.00  0.00     0.049 A 
ATOM     33  N   UNL A   1      42.507  29.365  32.135  1.00  0.00    -0.248 NA
ATOM     34  C   UNL A   1      40.528  28.161  32.158  1.00  0.00     0.031 C 
ATOM     35  C   UNL A   1      41.128  28.971  27.566  1.00  0.00     0.029 A 
ATOM     36  N   UNL A   1      42.571  27.894  28.837  1.00  0.00    -0.354 N 
ATOM     37  C   UNL A   1      42.440  28.617  33.302  1.00  0.00     0.074 A 
ATOM     38  C   UNL A   1      41.094  28.113  33.367  1.00  0.00     0.031 C 
ATOM     39  C   UNL A   1      41.622  27.955  26.822  1.00  0.00     0.029 A 
ATOM     40  C   UNL A   1      42.578  27.213  27.623  1.00  0.00     0.049 A 
ATOM     41  H   UNL A   1      43.208  27.692  29.560  1.00  0.00     0.167 HD
ATOM     42  C   UNL A   1      43.578  28.255  33.955  1.00  0.00     0.034 A 
ATOM     43  C   UNL A   1      43.289  26.093  27.337  1.00  0.00     0.034 A 
ATOM     44  C   UNL A   1      44.727  28.928  33.388  1.00  0.00     0.049 A 
ATOM     45  C   UNL A   1      44.413  26.042  28.304  1.00  0.00     0.074 A 
ATOM     46  C   UNL A   1      45.094  30.246  33.202  1.00  0.00     0.029 A 
ATOM     47  N   UNL A   1      45.495  28.192  32.514  1.00  0.00    -0.354 N 
ATOM     48  N   UNL A   1      45.376  26.921  28.321  1.00  0.00    -0.248 NA
ATOM     49  C   UNL A   1      44.212  25.311  29.546  1.00  0.00     0.031 C 
ATOM     50  C   UNL A   1      45.696  30.278  31.909  1.00  0.00     0.029 A 
ATOM     51  C   UNL A   1      45.747  28.971  31.418  1.00  0.00     0.049 A 
ATOM     52  H   UNL A   1      45.809  27.269  32.655  1.00  0.00     0.167 HD
ATOM     53  C   UNL A   1      45.556  27.201  29.669  1.00  0.00     0.074 A 
ATOM     54  C   UNL A   1      44.895  26.103  30.377  1.00  0.00     0.031 C 
ATOM     55  C   UNL A   1      45.945  28.443  30.085  1.00  0.00     0.034 A 
BRANCH  42  56
ATOM     56  C   UNL A   1      43.763  27.030  34.820  1.00  0.00     0.023 A 
ATOM     57  C   UNL A   1      44.023  27.262  36.191  1.00  0.00     0.012 A 
ATOM     58  C   UNL A   1      43.967  25.715  34.346  1.00  0.00     0.148 A 
ATOM     59  C   UNL A   1      44.538  26.267  37.023  1.00  0.00     0.002 A 
ATOM     60  C   UNL A   1      44.413  24.708  35.195  1.00  0.00     0.091 A 
ATOM     61  F   UNL A   1      43.854  25.443  33.045  1.00  0.00    -0.205 F 
ATOM     62  C   UNL A   1      44.734  24.987  36.525  1.00  0.00     0.022 A 
BRANCH  60  63
ATOM     63  S   UNL A   1      44.652  23.021  34.621  1.00  0.00     0.127 S 
ATOM     64  O   UNL A   1      45.868  23.154  33.823  1.00  0.00    -0.237 OA
ATOM     65  O   UNL A   1      44.813  22.300  35.883  1.00  0.00    -0.237 OA
ATOM     66  O   UNL A   1      43.443  22.677  33.884  1.00  0.00    -0.744 OA
ENDBRANCH  60  63
ENDBRANCH  42  56
BRANCH  43  67
ATOM     67  C   UNL A   1      42.917  24.919  26.508  1.00  0.00     0.023 A 
ATOM     68  C   UNL A   1      43.794  24.461  25.503  1.00  0.00     0.012 A 
ATOM     69  C   UNL A   1      41.862  24.067  26.903  1.00  0.00     0.148 A 
ATOM     70  C   UNL A   1      43.655  23.181  24.947  1.00  0.00     0.002 A 
ATOM     71  C   UNL A   1      41.726  22.798  26.347  1.00  0.00     0.091 A 
ATOM     72  F   UNL A   1      41.054  24.455  27.899  1.00  0.00    -0.205 F 
ATOM     73  C   UNL A   1      42.629  22.344  25.378  1.00  0.00     0.022 A 
BRANCH  71  74
ATOM     74  S   UNL A   1      40.441  21.665  26.896  1.00  0.00     0.127 S 
ATOM     75  O   UNL A   1      40.710  20.477  26.085  1.00  0.00    -0.237 OA
ATOM     76  O   UNL A   1      40.749  21.522  28.315  1.00  0.00    -0.237 OA
ATOM     77  O   UNL A   1      39.174  22.320  26.585  1.00  0.00    -0.744 OA
ENDBRANCH  71  74
ENDBRANCH  43  67
BRANCH  55  78
ATOM     78  C   UNL A   1      46.403  29.432  29.040  1.00  0.00     0.023 A 
ATOM     79  C   UNL A   1      47.702  29.414  28.485  1.00  0.00     0.012 A 
ATOM     80  C   UNL A   1      45.439  30.280  28.474  1.00  0.00     0.148 A 
ATOM     81  C   UNL A   1      48.032  30.237  27.404  1.00  0.00     0.002 A 
ATOM     82  C   UNL A   1      45.755  31.059  27.370  1.00  0.00     0.091 A 
ATOM     83  F   UNL A   1      44.209  30.284  29.011  1.00  0.00    -0.205 F 
ATOM     84  C   UNL A   1      47.054  31.049  26.836  1.00  0.00     0.022 A 
BRANCH  82  85
ATOM     85  S   UNL A   1      44.504  32.024  26.522  1.00  0.00     0.127 S 
ATOM     86  O   UNL A   1      45.263  32.607  25.418  1.00  0.00    -0.237 OA
ATOM     87  O   UNL A   1      43.533  31.003  26.127  1.00  0.00    -0.237 OA
ATOM     88  O   UNL A   1      43.997  32.975  27.505  1.00  0.00    -0.744 OA
ENDBRANCH  82  85
ENDBRANCH  55  78
ENDBRANCH  29  30
ENDBRANCH  21  24
ENDBRANCH  19  20
ENDBRANCH  18  19
ENDBRANCH   1  18
TORSDOF 18
ENDMDL
MODEL 3
REMARK VINA RESULT:     -10.3      5.566     11.171
REMARK SMILES O=C(CCCCCn1cc(Cl)c(I)n1)NCCCNC(=O)c1ccc(-c2c3nc(c(-c4cccc(S(=O)(=O)[O-])c4F)c4ccc([nH]4)c(-c4cccc(S(=O)(=O)[O-])c4F)c4nc(c(-c5cccc(S(=O)(=O)[O-])c5F)c5ccc2[nH]5)C=C4)C=C3)cc1
REMARK SMILES IDX 16 1 15 2 1 3 2 4 3 6 4 7 5 8 6 9 7 10 8 11 9 12 14 13 10 14
REMARK SMILES IDX 12 15 11 16 13 17 17 18 18 19 19 20 20 21 21 23 22 24 23 25
REMARK SMILES IDX 84 26 24 27 83 28 25 29 26 30 27 31 77 32 28 33 82 34 76 35
REMARK SMILES IDX 78 36 29 37 81 38 75 39 74 40 30 42 62 43 42 44 61 45 43 46
REMARK SMILES IDX 46 47 60 48 79 49 44 50 45 51 59 53 80 54 47 55 31 56 32 57
REMARK SMILES IDX 40 58 33 59 35 60 41 61 34 62 36 63 37 64 38 65 39 66 63 67
REMARK SMILES IDX 64 68 72 69 65 70 67 71 73 72 66 73 68 74 69 75 70 76 71 77
REMARK SMILES IDX 48 78 49 79 57 80 50 81 52 82 58 83 51 84 53 85 54 86 55 87
REMARK SMILES IDX 56 88
REMARK H PARENT 15 5 19 22 78 41 46 52
REMARK Flexibility Score: inf
ROOT
ATOM      1  C   UNL A   1      39.747  21.338  26.169  1.00  0.00     0.117 C 
ENDROOT
BRANCH   1   2
ATOM      2  N   UNL A   1      38.927  22.251  25.390  1.00  0.00    -0.356 N 
ATOM      3  O   UNL A   1      36.974  21.052  25.561  1.00  0.00    -0.275 OA
ATOM      4  C   UNL A   1      37.570  22.071  25.227  1.00  0.00     0.219 C 
ATOM      5  H   UNL A   1      39.356  23.028  24.963  1.00  0.00     0.163 HD
BRANCH   4   6
ATOM      6  C   UNL A   1      36.848  23.286  24.671  1.00  0.00     0.100 C 
BRANCH   6   7
ATOM      7  C   UNL A   1      35.793  23.800  25.656  1.00  0.00     0.010 C 
BRANCH   7   8
ATOM      8  C   UNL A   1      34.335  23.497  25.282  1.00  0.00     0.002 C 
BRANCH   8   9
ATOM      9  C   UNL A   1      33.654  22.389  26.101  1.00  0.00     0.024 C 
BRANCH   9  10
ATOM     10  C   UNL A   1      32.291  21.917  25.576  1.00  0.00     0.144 C 
BRANCH  10  11
ATOM     11  N   UNL A   1      32.351  20.607  24.946  1.00  0.00    -0.270 N 
ATOM     12  C   UNL A   1      32.224  20.332  23.612  1.00  0.00     0.130 A 
ATOM     13  N   UNL A   1      32.614  19.513  25.687  1.00  0.00    -0.165 NA
ATOM     14  C   UNL A   1      32.470  18.987  23.471  1.00  0.00     0.092 A 
ATOM     15  C   UNL A   1      32.659  18.525  24.789  1.00  0.00     0.141 A 
ATOM     16  Cl  UNL A   1      32.531  18.123  22.013  1.00  0.00    -0.080 Cl
ATOM     17  I   UNL A   1      32.978  16.587  25.346  1.00  0.00    -0.018 I 
ENDBRANCH  10  11
ENDBRANCH   9  10
ENDBRANCH   8   9
ENDBRANCH   7   8
ENDBRANCH   6   7
ENDBRANCH   4   6
ENDBRANCH   1   2
BRANCH   1  18
ATOM     18  C   UNL A   1      40.236  21.923  27.497  1.00  0.00     0.042 C 
BRANCH  18  19
ATOM     19  C   UNL A   1      41.729  21.752  27.723  1.00  0.00     0.118 C 
BRANCH  19  20
ATOM     20  N   UNL A   1      42.558  21.875  26.515  1.00  0.00    -0.352 N 
ATOM     21  C   UNL A   1      42.729  22.996  25.701  1.00  0.00     0.251 C 
ATOM     22  H   UNL A   1      43.054  21.067  26.248  1.00  0.00     0.163 HD
ATOM     23  O   UNL A   1      43.140  22.883  24.559  1.00  0.00    -0.269 OA
BRANCH  21  24
ATOM     24  C   UNL A   1      42.416  24.328  26.267  1.00  0.00     0.039 A 
ATOM     25  C   UNL A   1      41.267  25.058  25.948  1.00  0.00     0.014 A 
ATOM     26  C   UNL A   1      43.328  24.834  27.180  1.00  0.00     0.014 A 
ATOM     27  C   UNL A   1      41.060  26.278  26.596  1.00  0.00     0.010 A 
ATOM     28  C   UNL A   1      42.951  25.816  28.040  1.00  0.00     0.010 A 
ATOM     29  C   UNL A   1      41.921  26.640  27.644  1.00  0.00    -0.014 A 
BRANCH  29  30
ATOM     30  C   UNL A   1      41.783  27.858  28.416  1.00  0.00     0.031 A 
ATOM     31  C   UNL A   1      42.689  28.936  27.978  1.00  0.00     0.074 A 
ATOM     32  C   UNL A   1      40.762  28.067  29.279  1.00  0.00     0.049 A 
ATOM     33  N   UNL A   1      43.795  29.278  28.544  1.00  0.00    -0.248 NA
ATOM     34  C   UNL A   1      42.469  29.562  26.666  1.00  0.00     0.031 C 
ATOM     35  C   UNL A   1      39.590  27.221  29.551  1.00  0.00     0.029 A 
ATOM     36  N   UNL A   1      40.500  29.173  30.019  1.00  0.00    -0.354 N 
ATOM     37  C   UNL A   1      44.268  30.357  27.810  1.00  0.00     0.074 A 
ATOM     38  C   UNL A   1      43.571  30.308  26.552  1.00  0.00     0.031 C 
ATOM     39  C   UNL A   1      38.650  27.945  30.202  1.00  0.00     0.029 A 
ATOM     40  C   UNL A   1      39.206  29.244  30.528  1.00  0.00     0.049 A 
ATOM     41  H   UNL A   1      41.172  29.873  30.183  1.00  0.00     0.167 HD
ATOM     42  C   UNL A   1      44.977  31.347  28.418  1.00  0.00     0.034 A 
ATOM     43  C   UNL A   1      38.638  30.323  31.126  1.00  0.00     0.034 A 
ATOM     44  C   UNL A   1      45.307  30.976  29.777  1.00  0.00     0.049 A 
ATOM     45  C   UNL A   1      39.751  31.177  31.609  1.00  0.00     0.074 A 
ATOM     46  C   UNL A   1      46.000  29.936  30.365  1.00  0.00     0.029 A 
ATOM     47  N   UNL A   1      44.515  31.514  30.766  1.00  0.00    -0.354 N 
ATOM     48  N   UNL A   1      40.575  30.806  32.550  1.00  0.00    -0.248 NA
ATOM     49  C   UNL A   1      40.242  32.223  30.725  1.00  0.00     0.031 C 
ATOM     50  C   UNL A   1      45.236  29.601  31.523  1.00  0.00     0.029 A 
ATOM     51  C   UNL A   1      44.179  30.506  31.629  1.00  0.00     0.049 A 
ATOM     52  H   UNL A   1      44.240  32.457  30.839  1.00  0.00     0.167 HD
ATOM     53  C   UNL A   1      41.822  31.193  32.081  1.00  0.00     0.074 A 
ATOM     54  C   UNL A   1      41.545  32.156  31.013  1.00  0.00     0.031 C 
ATOM     55  C   UNL A   1      42.943  30.472  32.381  1.00  0.00     0.034 A 
BRANCH  42  56
ATOM     56  C   UNL A   1      45.051  32.792  27.982  1.00  0.00     0.023 A 
ATOM     57  C   UNL A   1      46.335  33.283  27.651  1.00  0.00     0.012 A 
ATOM     58  C   UNL A   1      44.022  33.748  28.136  1.00  0.00     0.148 A 
ATOM     59  C   UNL A   1      46.603  34.650  27.561  1.00  0.00     0.002 A 
ATOM     60  C   UNL A   1      44.277  35.106  27.976  1.00  0.00     0.091 A 
ATOM     61  F   UNL A   1      42.814  33.376  28.559  1.00  0.00    -0.205 F 
ATOM     62  C   UNL A   1      45.572  35.564  27.725  1.00  0.00     0.022 A 
BRANCH  60  63
ATOM     63  S   UNL A   1      42.978  36.338  28.138  1.00  0.00     0.127 S 
ATOM     64  O   UNL A   1      43.009  36.610  29.573  1.00  0.00    -0.237 OA
ATOM     65  O   UNL A   1      43.486  37.417  27.291  1.00  0.00    -0.237 OA
ATOM     66  O   UNL A   1      41.764  35.705  27.638  1.00  0.00    -0.744 OA
ENDBRANCH  60  63
ENDBRANCH  42  56
BRANCH  43  67
ATOM     67  C   UNL A   1      37.243  30.823  31.052  1.00  0.00     0.023 A 
ATOM     68  C   UNL A   1      36.576  31.224  32.229  1.00  0.00     0.012 A 
ATOM     69  C   UNL A   1      36.681  31.201  29.812  1.00  0.00     0.148 A 
ATOM     70  C   UNL A   1      35.418  32.013  32.173  1.00  0.00     0.002 A 
ATOM     71  C   UNL A   1      35.530  31.983  29.761  1.00  0.00     0.091 A 
ATOM     72  F   UNL A   1      37.330  30.886  28.684  1.00  0.00    -0.205 F 
ATOM     73  C   UNL A   1      34.902  32.404  30.939  1.00  0.00     0.022 A 
BRANCH  71  74
ATOM     74  S   UNL A   1      34.845  32.545  28.196  1.00  0.00     0.127 S 
ATOM     75  O   UNL A   1      35.975  33.263  27.605  1.00  0.00    -0.237 OA
ATOM     76  O   UNL A   1      34.508  31.285  27.542  1.00  0.00    -0.237 OA
ATOM     77  O   UNL A   1      33.715  33.402  28.542  1.00  0.00    -0.744 OA
ENDBRANCH  71  74
ENDBRANCH  43  67
BRANCH  55  78
ATOM     78  C   UNL A   1      42.832  29.388  33.426  1.00  0.00     0.023 A 
ATOM     79  C   UNL A   1      42.365  28.087  33.134  1.00  0.00     0.012 A 
ATOM     80  C   UNL A   1      43.388  29.637  34.690  1.00  0.00     0.148 A 
ATOM     81  C   UNL A   1      42.436  27.068  34.089  1.00  0.00     0.002 A 
ATOM     82  C   UNL A   1      43.503  28.612  35.618  1.00  0.00     0.091 A 
ATOM     83  F   UNL A   1      43.830  30.878  34.951  1.00  0.00    -0.205 F 
ATOM     84  C   UNL A   1      43.019  27.327  35.326  1.00  0.00     0.022 A 
BRANCH  82  85
ATOM     85  S   UNL A   1      44.359  28.856  37.175  1.00  0.00     0.127 S 
ATOM     86  O   UNL A   1      43.621  29.974  37.757  1.00  0.00    -0.237 OA
ATOM     87  O   UNL A   1      44.160  27.573  37.849  1.00  0.00    -0.237 OA
ATOM     88  O   UNL A   1      45.748  29.135  36.828  1.00  0.00    -0.744 OA
ENDBRANCH  82  85
ENDBRANCH  55  78
ENDBRANCH  29  30
ENDBRANCH  21  24
ENDBRANCH  19  20
ENDBRANCH  18  19
ENDBRANCH   1  18
TORSDOF 18
ENDMDL
