MODEL 1
REMARK VINA RESULT:     -11.4      0.000      0.000
REMARK SMILES C=C(C)CN(CC)c1ccc(F)cc1C(=O)NCCCNC(=O)c1ccc(-c2c3nc(c(-c4cccc(S(=O)(=O)[O-])c4F)c4ccc([nH]4)c(-c4cccc(S(=O)(=O)[O-])c4F)c4nc(c(-c5cccc(S(=O)(=O)[O-])c5F)c5ccc2[nH]5)C=C4)C=C3)cc1
REMARK SMILES IDX 19 1 18 2 17 3 15 4 16 5 14 7 8 8 9 9 10 10 13 11 11 12
REMARK SMILES IDX 12 13 5 14 4 15 2 16 1 17 3 18 6 19 7 20 20 21 21 22 22 23
REMARK SMILES IDX 23 25 24 26 25 27 86 28 26 29 85 30 27 31 28 32 29 33 79 34
REMARK SMILES IDX 30 35 84 36 78 37 80 38 31 39 83 40 77 41 76 42 32 44 64 45
REMARK SMILES IDX 44 46 63 47 45 48 48 49 62 50 81 51 46 52 47 53 61 55 82 56
REMARK SMILES IDX 49 57 33 58 34 59 42 60 35 61 37 62 43 63 36 64 38 65 39 66
REMARK SMILES IDX 40 67 41 68 65 69 66 70 74 71 67 72 69 73 75 74 68 75 70 76
REMARK SMILES IDX 71 77 72 78 73 79 50 80 51 81 59 82 52 83 54 84 60 85 53 86
REMARK SMILES IDX 55 87 56 88 57 89 58 90
REMARK H PARENT 17 6 21 24 80 43 48 54
REMARK Flexibility Score: inf
ROOT
ATOM      1  C   UNL A   1      31.735  28.936  27.164  1.00  0.00     0.042 C 
ENDROOT
BRANCH   1   2
ATOM      2  C   UNL A   1      32.343  27.556  27.078  1.00  0.00     0.118 C 
BRANCH   2   3
ATOM      3  N   UNL A   1      31.418  26.458  27.110  1.00  0.00    -0.352 N 
ATOM      4  C   UNL A   1      30.947  25.745  26.038  1.00  0.00     0.253 C 
ATOM      5  O   UNL A   1      30.262  24.746  26.267  1.00  0.00    -0.269 OA
ATOM      6  H   UNL A   1      31.086  26.189  27.997  1.00  0.00     0.163 HD
BRANCH   4   7
ATOM      7  C   UNL A   1      31.122  26.186  24.622  1.00  0.00     0.066 A 
ATOM      8  C   UNL A   1      32.102  25.765  23.682  1.00  0.00     0.050 A 
ATOM      9  C   UNL A   1      31.983  26.277  22.369  1.00  0.00     0.030 A 
ATOM     10  C   UNL A   1      30.978  27.170  21.995  1.00  0.00     0.041 A 
ATOM     11  C   UNL A   1      30.100  27.077  24.226  1.00  0.00     0.055 A 
ATOM     12  C   UNL A   1      30.042  27.561  22.931  1.00  0.00     0.124 A 
ATOM     13  F   UNL A   1      29.060  28.400  22.578  1.00  0.00    -0.207 F 
BRANCH   8  14
ATOM     14  N   UNL A   1      33.131  24.859  23.931  1.00  0.00    -0.367 N 
BRANCH  14  15
ATOM     15  C   UNL A   1      34.306  25.277  24.729  1.00  0.00     0.146 C 
BRANCH  15  16
ATOM     16  C   UNL A   1      34.874  24.229  25.652  1.00  0.00    -0.061 C 
ATOM     17  C   UNL A   1      36.149  23.804  25.606  1.00  0.00     0.009 C 
ATOM     18  C   UNL A   1      33.869  23.597  26.580  1.00  0.00     0.041 C 
ENDBRANCH  15  16
ENDBRANCH  14  15
BRANCH  14  19
ATOM     19  C   UNL A   1      33.262  23.670  23.081  1.00  0.00     0.113 C 
ATOM     20  C   UNL A   1      32.253  22.578  23.401  1.00  0.00     0.027 C 
ENDBRANCH  14  19
ENDBRANCH   8  14
ENDBRANCH   4   7
ENDBRANCH   2   3
ENDBRANCH   1   2
BRANCH   1  21
ATOM     21  C   UNL A   1      32.340  29.932  26.185  1.00  0.00     0.118 C 
BRANCH  21  22
ATOM     22  N   UNL A   1      32.301  31.331  26.614  1.00  0.00    -0.352 N 
ATOM     23  C   UNL A   1      33.204  32.125  27.287  1.00  0.00     0.251 C 
ATOM     24  H   UNL A   1      31.466  31.797  26.375  1.00  0.00     0.163 HD
ATOM     25  O   UNL A   1      32.898  33.285  27.558  1.00  0.00    -0.269 OA
BRANCH  23  26
ATOM     26  C   UNL A   1      34.509  31.586  27.737  1.00  0.00     0.039 A 
ATOM     27  C   UNL A   1      35.568  32.462  28.000  1.00  0.00     0.014 A 
ATOM     28  C   UNL A   1      34.690  30.225  27.944  1.00  0.00     0.014 A 
ATOM     29  C   UNL A   1      36.745  31.977  28.586  1.00  0.00     0.010 A 
ATOM     30  C   UNL A   1      35.771  29.778  28.690  1.00  0.00     0.010 A 
ATOM     31  C   UNL A   1      36.829  30.639  29.004  1.00  0.00    -0.014 A 
BRANCH  31  32
ATOM     32  C   UNL A   1      38.001  30.093  29.744  1.00  0.00     0.031 A 
ATOM     33  C   UNL A   1      38.242  30.506  31.178  1.00  0.00     0.074 A 
ATOM     34  C   UNL A   1      38.920  29.339  29.107  1.00  0.00     0.049 A 
ATOM     35  N   UNL A   1      39.285  30.289  31.935  1.00  0.00    -0.248 NA
ATOM     36  C   UNL A   1      37.205  31.332  31.827  1.00  0.00     0.031 C 
ATOM     37  C   UNL A   1      38.875  28.956  27.693  1.00  0.00     0.029 A 
ATOM     38  N   UNL A   1      40.089  28.776  29.558  1.00  0.00    -0.354 N 
ATOM     39  C   UNL A   1      39.065  31.012  33.103  1.00  0.00     0.074 A 
ATOM     40  C   UNL A   1      37.818  31.720  32.934  1.00  0.00     0.031 C 
ATOM     41  C   UNL A   1      39.943  28.196  27.405  1.00  0.00     0.029 A 
ATOM     42  C   UNL A   1      40.773  28.066  28.598  1.00  0.00     0.049 A 
ATOM     43  H   UNL A   1      40.408  28.872  30.485  1.00  0.00     0.167 HD
ATOM     44  C   UNL A   1      39.799  31.041  34.238  1.00  0.00     0.034 A 
ATOM     45  C   UNL A   1      41.934  27.384  28.668  1.00  0.00     0.034 A 
ATOM     46  C   UNL A   1      40.953  30.218  34.458  1.00  0.00     0.049 A 
ATOM     47  C   UNL A   1      42.669  27.327  29.981  1.00  0.00     0.074 A 
ATOM     48  C   UNL A   1      41.670  30.045  35.627  1.00  0.00     0.029 A 
ATOM     49  N   UNL A   1      41.541  29.412  33.498  1.00  0.00    -0.354 N 
ATOM     50  N   UNL A   1      42.354  27.886  31.124  1.00  0.00    -0.248 NA
ATOM     51  C   UNL A   1      43.902  26.527  30.026  1.00  0.00     0.031 C 
ATOM     52  C   UNL A   1      42.695  29.132  35.373  1.00  0.00     0.029 A 
ATOM     53  C   UNL A   1      42.614  28.736  34.047  1.00  0.00     0.049 A 
ATOM     54  H   UNL A   1      41.240  29.332  32.564  1.00  0.00     0.167 HD
ATOM     55  C   UNL A   1      43.330  27.487  32.028  1.00  0.00     0.074 A 
ATOM     56  C   UNL A   1      44.240  26.622  31.307  1.00  0.00     0.031 C 
ATOM     57  C   UNL A   1      43.471  27.826  33.332  1.00  0.00     0.034 A 
BRANCH  44  58
ATOM     58  C   UNL A   1      39.315  31.902  35.376  1.00  0.00     0.023 A 
ATOM     59  C   UNL A   1      38.414  31.363  36.318  1.00  0.00     0.012 A 
ATOM     60  C   UNL A   1      39.804  33.211  35.558  1.00  0.00     0.148 A 
ATOM     61  C   UNL A   1      37.977  32.122  37.400  1.00  0.00     0.002 A 
ATOM     62  C   UNL A   1      39.399  33.945  36.667  1.00  0.00     0.091 A 
ATOM     63  F   UNL A   1      40.645  33.714  34.644  1.00  0.00    -0.205 F 
ATOM     64  C   UNL A   1      38.478  33.408  37.580  1.00  0.00     0.022 A 
BRANCH  62  65
ATOM     65  S   UNL A   1      40.049  35.578  37.042  1.00  0.00     0.127 S 
ATOM     66  O   UNL A   1      41.489  35.327  37.052  1.00  0.00    -0.237 OA
ATOM     67  O   UNL A   1      39.575  36.365  35.904  1.00  0.00    -0.237 OA
ATOM     68  O   UNL A   1      39.472  35.956  38.325  1.00  0.00    -0.744 OA
ENDBRANCH  62  65
ENDBRANCH  44  58
BRANCH  45  69
ATOM     69  C   UNL A   1      42.407  26.611  27.483  1.00  0.00     0.023 A 
ATOM     70  C   UNL A   1      43.250  27.246  26.551  1.00  0.00     0.012 A 
ATOM     71  C   UNL A   1      42.094  25.248  27.310  1.00  0.00     0.148 A 
ATOM     72  C   UNL A   1      43.759  26.544  25.457  1.00  0.00     0.002 A 
ATOM     73  C   UNL A   1      42.647  24.542  26.246  1.00  0.00     0.091 A 
ATOM     74  F   UNL A   1      41.283  24.665  28.202  1.00  0.00    -0.205 F 
ATOM     75  C   UNL A   1      43.469  25.192  25.311  1.00  0.00     0.022 A 
BRANCH  73  76
ATOM     76  S   UNL A   1      42.442  22.767  26.054  1.00  0.00     0.127 S 
ATOM     77  O   UNL A   1      43.050  22.534  24.747  1.00  0.00    -0.237 OA
ATOM     78  O   UNL A   1      43.206  22.250  27.190  1.00  0.00    -0.237 OA
ATOM     79  O   UNL A   1      41.007  22.526  26.138  1.00  0.00    -0.744 OA
ENDBRANCH  73  76
ENDBRANCH  45  69
BRANCH  57  80
ATOM     80  C   UNL A   1      44.639  27.268  34.097  1.00  0.00     0.023 A 
ATOM     81  C   UNL A   1      45.868  27.955  34.070  1.00  0.00     0.012 A 
ATOM     82  C   UNL A   1      44.470  26.176  34.972  1.00  0.00     0.148 A 
ATOM     83  C   UNL A   1      46.913  27.565  34.905  1.00  0.00     0.002 A 
ATOM     84  C   UNL A   1      45.500  25.821  35.833  1.00  0.00     0.091 A 
ATOM     85  F   UNL A   1      43.291  25.535  34.971  1.00  0.00    -0.205 F 
ATOM     86  C   UNL A   1      46.723  26.511  35.797  1.00  0.00     0.022 A 
BRANCH  84  87
ATOM     87  S   UNL A   1      45.319  24.550  37.090  1.00  0.00     0.127 S 
ATOM     88  O   UNL A   1      46.569  24.689  37.835  1.00  0.00    -0.237 OA
ATOM     89  O   UNL A   1      44.126  24.995  37.809  1.00  0.00    -0.237 OA
ATOM     90  O   UNL A   1      45.164  23.291  36.372  1.00  0.00    -0.744 OA
ENDBRANCH  84  87
ENDBRANCH  57  80
ENDBRANCH  31  32
ENDBRANCH  23  26
ENDBRANCH  21  22
ENDBRANCH   1  21
TORSDOF 17
ENDMDL
MODEL 2
REMARK VINA RESULT:     -11.3      1.692      2.600
REMARK SMILES C=C(C)CN(CC)c1ccc(F)cc1C(=O)NCCCNC(=O)c1ccc(-c2c3nc(c(-c4cccc(S(=O)(=O)[O-])c4F)c4ccc([nH]4)c(-c4cccc(S(=O)(=O)[O-])c4F)c4nc(c(-c5cccc(S(=O)(=O)[O-])c5F)c5ccc2[nH]5)C=C4)C=C3)cc1
REMARK SMILES IDX 19 1 18 2 17 3 15 4 16 5 14 7 8 8 9 9 10 10 13 11 11 12
REMARK SMILES IDX 12 13 5 14 4 15 2 16 1 17 3 18 6 19 7 20 20 21 21 22 22 23
REMARK SMILES IDX 23 25 24 26 25 27 86 28 26 29 85 30 27 31 28 32 29 33 79 34
REMARK SMILES IDX 30 35 84 36 78 37 80 38 31 39 83 40 77 41 76 42 32 44 64 45
REMARK SMILES IDX 44 46 63 47 45 48 48 49 62 50 81 51 46 52 47 53 61 55 82 56
REMARK SMILES IDX 49 57 33 58 34 59 42 60 35 61 37 62 43 63 36 64 38 65 39 66
REMARK SMILES IDX 40 67 41 68 65 69 66 70 74 71 67 72 69 73 75 74 68 75 70 76
REMARK SMILES IDX 71 77 72 78 73 79 50 80 51 81 59 82 52 83 54 84 60 85 53 86
REMARK SMILES IDX 55 87 56 88 57 89 58 90
REMARK H PARENT 17 6 21 24 80 43 48 54
REMARK Flexibility Score: inf
ROOT
ATOM      1  C   UNL A   1      31.902  29.272  27.157  1.00  0.00     0.042 C 
ENDROOT
BRANCH   1   2
ATOM      2  C   UNL A   1      32.415  27.858  27.016  1.00  0.00     0.118 C 
BRANCH   2   3
ATOM      3  N   UNL A   1      31.416  26.829  26.954  1.00  0.00    -0.352 N 
ATOM      4  C   UNL A   1      31.591  25.533  26.546  1.00  0.00     0.253 C 
ATOM      5  O   UNL A   1      30.649  24.751  26.689  1.00  0.00    -0.269 OA
ATOM      6  H   UNL A   1      30.507  27.082  27.235  1.00  0.00     0.163 HD
BRANCH   4   7
ATOM      7  C   UNL A   1      32.816  25.058  25.835  1.00  0.00     0.066 A 
ATOM      8  C   UNL A   1      33.336  25.494  24.586  1.00  0.00     0.050 A 
ATOM      9  C   UNL A   1      34.571  24.937  24.183  1.00  0.00     0.030 A 
ATOM     10  C   UNL A   1      35.255  23.987  24.944  1.00  0.00     0.041 A 
ATOM     11  C   UNL A   1      33.526  24.108  26.603  1.00  0.00     0.055 A 
ATOM     12  C   UNL A   1      34.724  23.582  26.152  1.00  0.00     0.124 A 
ATOM     13  F   UNL A   1      35.382  22.689  26.900  1.00  0.00    -0.207 F 
BRANCH   8  14
ATOM     14  N   UNL A   1      32.759  26.453  23.755  1.00  0.00    -0.367 N 
BRANCH  14  15
ATOM     15  C   UNL A   1      31.780  26.045  22.724  1.00  0.00     0.146 C 
BRANCH  15  16
ATOM     16  C   UNL A   1      30.558  25.323  23.233  1.00  0.00    -0.061 C 
ATOM     17  C   UNL A   1      30.409  23.988  23.198  1.00  0.00     0.009 C 
ATOM     18  C   UNL A   1      29.444  26.225  23.699  1.00  0.00     0.041 C 
ENDBRANCH  15  16
ENDBRANCH  14  15
BRANCH  14  19
ATOM     19  C   UNL A   1      33.409  27.761  23.610  1.00  0.00     0.113 C 
ATOM     20  C   UNL A   1      32.530  28.808  22.945  1.00  0.00     0.027 C 
ENDBRANCH  14  19
ENDBRANCH   8  14
ENDBRANCH   4   7
ENDBRANCH   2   3
ENDBRANCH   1   2
BRANCH   1  21
ATOM     21  C   UNL A   1      32.697  30.294  26.358  1.00  0.00     0.118 C 
BRANCH  21  22
ATOM     22  N   UNL A   1      32.706  31.649  26.912  1.00  0.00    -0.352 N 
ATOM     23  C   UNL A   1      33.637  32.349  27.647  1.00  0.00     0.251 C 
ATOM     24  H   UNL A   1      31.886  32.161  26.721  1.00  0.00     0.163 HD
ATOM     25  O   UNL A   1      33.370  33.489  28.024  1.00  0.00    -0.269 OA
BRANCH  23  26
ATOM     26  C   UNL A   1      34.926  31.730  28.038  1.00  0.00     0.039 A 
ATOM     27  C   UNL A   1      36.060  32.533  28.202  1.00  0.00     0.014 A 
ATOM     28  C   UNL A   1      35.020  30.367  28.287  1.00  0.00     0.014 A 
ATOM     29  C   UNL A   1      37.233  31.981  28.734  1.00  0.00     0.010 A 
ATOM     30  C   UNL A   1      36.111  29.867  28.983  1.00  0.00     0.010 A 
ATOM     31  C   UNL A   1      37.246  30.656  29.198  1.00  0.00    -0.014 A 
BRANCH  31  32
ATOM     32  C   UNL A   1      38.420  30.051  29.887  1.00  0.00     0.031 A 
ATOM     33  C   UNL A   1      38.772  30.482  31.292  1.00  0.00     0.074 A 
ATOM     34  C   UNL A   1      39.248  29.219  29.220  1.00  0.00     0.049 A 
ATOM     35  N   UNL A   1      39.840  30.213  31.995  1.00  0.00    -0.248 NA
ATOM     36  C   UNL A   1      37.833  31.393  31.974  1.00  0.00     0.031 C 
ATOM     37  C   UNL A   1      39.095  28.804  27.823  1.00  0.00     0.029 A 
ATOM     38  N   UNL A   1      40.401  28.589  29.622  1.00  0.00    -0.354 N 
ATOM     39  C   UNL A   1      39.737  30.979  33.152  1.00  0.00     0.074 A 
ATOM     40  C   UNL A   1      38.533  31.767  33.033  1.00  0.00     0.031 C 
ATOM     41  C   UNL A   1      40.091  27.966  27.498  1.00  0.00     0.029 A 
ATOM     42  C   UNL A   1      40.978  27.810  28.645  1.00  0.00     0.049 A 
ATOM     43  H   UNL A   1      40.780  28.687  30.525  1.00  0.00     0.167 HD
ATOM     44  C   UNL A   1      40.537  30.986  34.243  1.00  0.00     0.034 A 
ATOM     45  C   UNL A   1      42.094  27.051  28.670  1.00  0.00     0.034 A 
ATOM     46  C   UNL A   1      41.644  30.092  34.420  1.00  0.00     0.049 A 
ATOM     47  C   UNL A   1      42.898  26.977  29.940  1.00  0.00     0.074 A 
ATOM     48  C   UNL A   1      42.415  29.899  35.552  1.00  0.00     0.029 A 
ATOM     49  N   UNL A   1      42.119  29.223  33.453  1.00  0.00    -0.354 N 
ATOM     50  N   UNL A   1      42.688  27.585  31.082  1.00  0.00    -0.248 NA
ATOM     51  C   UNL A   1      44.076  26.096  29.939  1.00  0.00     0.031 C 
ATOM     52  C   UNL A   1      43.360  28.912  35.267  1.00  0.00     0.029 A 
ATOM     53  C   UNL A   1      43.175  28.489  33.960  1.00  0.00     0.049 A 
ATOM     54  H   UNL A   1      41.760  29.141  32.540  1.00  0.00     0.167 HD
ATOM     55  C   UNL A   1      43.687  27.143  31.941  1.00  0.00     0.074 A 
ATOM     56  C   UNL A   1      44.493  26.200  31.195  1.00  0.00     0.031 C 
ATOM     57  C   UNL A   1      43.926  27.505  33.224  1.00  0.00     0.034 A 
BRANCH  44  58
ATOM     58  C   UNL A   1      40.179  31.907  35.380  1.00  0.00     0.023 A 
ATOM     59  C   UNL A   1      40.832  33.152  35.495  1.00  0.00     0.012 A 
ATOM     60  C   UNL A   1      39.151  31.579  36.286  1.00  0.00     0.148 A 
ATOM     61  C   UNL A   1      40.497  34.039  36.515  1.00  0.00     0.002 A 
ATOM     62  C   UNL A   1      38.790  32.491  37.271  1.00  0.00     0.091 A 
ATOM     63  F   UNL A   1      38.554  30.384  36.173  1.00  0.00    -0.205 F 
ATOM     64  C   UNL A   1      39.469  33.714  37.394  1.00  0.00     0.022 A 
BRANCH  62  65
ATOM     65  S   UNL A   1      37.423  32.208  38.403  1.00  0.00     0.127 S 
ATOM     66  O   UNL A   1      37.948  32.771  39.646  1.00  0.00    -0.237 OA
ATOM     67  O   UNL A   1      36.349  32.986  37.787  1.00  0.00    -0.237 OA
ATOM     68  O   UNL A   1      37.202  30.768  38.414  1.00  0.00    -0.744 OA
ENDBRANCH  62  65
ENDBRANCH  44  58
BRANCH  45  69
ATOM     69  C   UNL A   1      42.443  26.218  27.483  1.00  0.00     0.023 A 
ATOM     70  C   UNL A   1      43.241  26.782  26.468  1.00  0.00     0.012 A 
ATOM     71  C   UNL A   1      42.061  24.866  27.383  1.00  0.00     0.148 A 
ATOM     72  C   UNL A   1      43.637  26.022  25.368  1.00  0.00     0.002 A 
ATOM     73  C   UNL A   1      42.503  24.100  26.309  1.00  0.00     0.091 A 
ATOM     74  F   UNL A   1      41.294  24.350  28.354  1.00  0.00    -0.205 F 
ATOM     75  C   UNL A   1      43.280  24.680  25.294  1.00  0.00     0.022 A 
BRANCH  73  76
ATOM     76  S   UNL A   1      42.209  22.330  26.198  1.00  0.00     0.127 S 
ATOM     77  O   UNL A   1      42.785  21.851  27.451  1.00  0.00    -0.237 OA
ATOM     78  O   UNL A   1      40.747  22.271  26.129  1.00  0.00    -0.237 OA
ATOM     79  O   UNL A   1      42.883  21.895  24.982  1.00  0.00    -0.744 OA
ENDBRANCH  73  76
ENDBRANCH  45  69
BRANCH  57  80
ATOM     80  C   UNL A   1      45.097  26.887  33.938  1.00  0.00     0.023 A 
ATOM     81  C   UNL A   1      46.336  27.555  33.928  1.00  0.00     0.012 A 
ATOM     82  C   UNL A   1      44.923  25.752  34.755  1.00  0.00     0.148 A 
ATOM     83  C   UNL A   1      47.387  27.104  34.723  1.00  0.00     0.002 A 
ATOM     84  C   UNL A   1      45.961  25.334  35.578  1.00  0.00     0.091 A 
ATOM     85  F   UNL A   1      43.734  25.130  34.739  1.00  0.00    -0.205 F 
ATOM     86  C   UNL A   1      47.195  26.005  35.559  1.00  0.00     0.022 A 
BRANCH  84  87
ATOM     87  S   UNL A   1      45.779  23.999  36.766  1.00  0.00     0.127 S 
ATOM     88  O   UNL A   1      47.114  23.946  37.361  1.00  0.00    -0.237 OA
ATOM     89  O   UNL A   1      44.735  24.515  37.652  1.00  0.00    -0.237 OA
ATOM     90  O   UNL A   1      45.397  22.822  35.997  1.00  0.00    -0.744 OA
ENDBRANCH  84  87
ENDBRANCH  57  80
ENDBRANCH  31  32
ENDBRANCH  23  26
ENDBRANCH  21  22
ENDBRANCH   1  21
TORSDOF 17
ENDMDL
MODEL 3
REMARK VINA RESULT:     -11.2      1.368      1.789
REMARK SMILES C=C(C)CN(CC)c1ccc(F)cc1C(=O)NCCCNC(=O)c1ccc(-c2c3nc(c(-c4cccc(S(=O)(=O)[O-])c4F)c4ccc([nH]4)c(-c4cccc(S(=O)(=O)[O-])c4F)c4nc(c(-c5cccc(S(=O)(=O)[O-])c5F)c5ccc2[nH]5)C=C4)C=C3)cc1
REMARK SMILES IDX 19 1 18 2 17 3 15 4 16 5 14 7 8 8 9 9 10 10 13 11 11 12
REMARK SMILES IDX 12 13 5 14 4 15 2 16 1 17 3 18 6 19 7 20 20 21 21 22 22 23
REMARK SMILES IDX 23 25 24 26 25 27 86 28 26 29 85 30 27 31 28 32 29 33 79 34
REMARK SMILES IDX 30 35 84 36 78 37 80 38 31 39 83 40 77 41 76 42 32 44 64 45
REMARK SMILES IDX 44 46 63 47 45 48 48 49 62 50 81 51 46 52 47 53 61 55 82 56
REMARK SMILES IDX 49 57 33 58 34 59 42 60 35 61 37 62 43 63 36 64 38 65 39 66
REMARK SMILES IDX 40 67 41 68 65 69 66 70 74 71 67 72 69 73 75 74 68 75 70 76
REMARK SMILES IDX 71 77 72 78 73 79 50 80 51 81 59 82 52 83 54 84 60 85 53 86
REMARK SMILES IDX 55 87 56 88 57 89 58 90
REMARK H PARENT 17 6 21 24 80 43 48 54
REMARK Flexibility Score: inf
ROOT
ATOM      1  C   UNL A   1      31.807  29.033  26.942  1.00  0.00     0.042 C 
ENDROOT
BRANCH   1   2
ATOM      2  C   UNL A   1      32.432  27.660  26.865  1.00  0.00     0.118 C 
BRANCH   2   3
ATOM      3  N   UNL A   1      31.528  26.551  26.982  1.00  0.00    -0.352 N 
ATOM      4  C   UNL A   1      31.418  25.484  26.128  1.00  0.00     0.253 C 
ATOM      5  O   UNL A   1      30.679  24.554  26.461  1.00  0.00    -0.269 OA
ATOM      6  H   UNL A   1      30.922  26.557  27.758  1.00  0.00     0.163 HD
BRANCH   4   7
ATOM      7  C   UNL A   1      32.049  25.450  24.776  1.00  0.00     0.066 A 
ATOM      8  C   UNL A   1      33.219  24.755  24.365  1.00  0.00     0.050 A 
ATOM      9  C   UNL A   1      33.548  24.820  22.992  1.00  0.00     0.030 A 
ATOM     10  C   UNL A   1      32.791  25.543  22.068  1.00  0.00     0.041 A 
ATOM     11  C   UNL A   1      31.283  26.164  23.827  1.00  0.00     0.055 A 
ATOM     12  C   UNL A   1      31.662  26.209  22.497  1.00  0.00     0.124 A 
ATOM     13  F   UNL A   1      30.917  26.888  21.616  1.00  0.00    -0.207 F 
BRANCH   8  14
ATOM     14  N   UNL A   1      34.035  23.979  25.188  1.00  0.00    -0.367 N 
BRANCH  14  15
ATOM     15  C   UNL A   1      35.483  24.268  25.275  1.00  0.00     0.146 C 
BRANCH  15  16
ATOM     16  C   UNL A   1      36.394  23.227  24.674  1.00  0.00    -0.061 C 
ATOM     17  C   UNL A   1      36.550  23.044  23.352  1.00  0.00     0.009 C 
ATOM     18  C   UNL A   1      37.052  22.314  25.676  1.00  0.00     0.041 C 
ENDBRANCH  15  16
ENDBRANCH  14  15
BRANCH  14  19
ATOM     19  C   UNL A   1      33.567  22.657  25.621  1.00  0.00     0.113 C 
ATOM     20  C   UNL A   1      33.086  21.776  24.479  1.00  0.00     0.027 C 
ENDBRANCH  14  19
ENDBRANCH   8  14
ENDBRANCH   4   7
ENDBRANCH   2   3
ENDBRANCH   1   2
BRANCH   1  21
ATOM     21  C   UNL A   1      32.571  30.097  26.167  1.00  0.00     0.118 C 
BRANCH  21  22
ATOM     22  N   UNL A   1      32.528  31.442  26.744  1.00  0.00    -0.352 N 
ATOM     23  C   UNL A   1      33.424  32.157  27.508  1.00  0.00     0.251 C 
ATOM     24  H   UNL A   1      31.696  31.932  26.547  1.00  0.00     0.163 HD
ATOM     25  O   UNL A   1      33.115  33.281  27.900  1.00  0.00    -0.269 OA
BRANCH  23  26
ATOM     26  C   UNL A   1      34.723  31.570  27.912  1.00  0.00     0.039 A 
ATOM     27  C   UNL A   1      35.841  32.397  28.064  1.00  0.00     0.014 A 
ATOM     28  C   UNL A   1      34.844  30.213  28.185  1.00  0.00     0.014 A 
ATOM     29  C   UNL A   1      37.024  31.878  28.608  1.00  0.00     0.010 A 
ATOM     30  C   UNL A   1      35.943  29.747  28.891  1.00  0.00     0.010 A 
ATOM     31  C   UNL A   1      37.062  30.562  29.094  1.00  0.00    -0.014 A 
BRANCH  31  32
ATOM     32  C   UNL A   1      38.246  29.991  29.796  1.00  0.00     0.031 A 
ATOM     33  C   UNL A   1      38.567  30.429  31.207  1.00  0.00     0.074 A 
ATOM     34  C   UNL A   1      39.108  29.189  29.137  1.00  0.00     0.049 A 
ATOM     35  N   UNL A   1      39.635  30.191  31.922  1.00  0.00    -0.248 NA
ATOM     36  C   UNL A   1      37.590  31.307  31.880  1.00  0.00     0.031 C 
ATOM     37  C   UNL A   1      38.986  28.775  27.736  1.00  0.00     0.029 A 
ATOM     38  N   UNL A   1      40.276  28.595  29.550  1.00  0.00    -0.354 N 
ATOM     39  C   UNL A   1      39.493  30.949  33.080  1.00  0.00     0.074 A 
ATOM     40  C   UNL A   1      38.265  31.698  32.949  1.00  0.00     0.031 C 
ATOM     41  C   UNL A   1      40.012  27.970  27.421  1.00  0.00     0.029 A 
ATOM     42  C   UNL A   1      40.890  27.838  28.578  1.00  0.00     0.049 A 
ATOM     43  H   UNL A   1      40.640  28.701  30.459  1.00  0.00     0.167 HD
ATOM     44  C   UNL A   1      40.278  30.978  34.181  1.00  0.00     0.034 A 
ATOM     45  C   UNL A   1      42.028  27.115  28.614  1.00  0.00     0.034 A 
ATOM     46  C   UNL A   1      41.411  30.118  34.369  1.00  0.00     0.049 A 
ATOM     47  C   UNL A   1      42.819  27.062  29.894  1.00  0.00     0.074 A 
ATOM     48  C   UNL A   1      42.174  29.946  35.510  1.00  0.00     0.029 A 
ATOM     49  N   UNL A   1      41.926  29.268  33.404  1.00  0.00    -0.354 N 
ATOM     50  N   UNL A   1      42.576  27.659  31.036  1.00  0.00    -0.248 NA
ATOM     51  C   UNL A   1      44.024  26.219  29.905  1.00  0.00     0.031 C 
ATOM     52  C   UNL A   1      43.153  28.991  35.233  1.00  0.00     0.029 A 
ATOM     53  C   UNL A   1      42.998  28.567  33.922  1.00  0.00     0.049 A 
ATOM     54  H   UNL A   1      41.580  29.179  32.487  1.00  0.00     0.167 HD
ATOM     55  C   UNL A   1      43.577  27.246  31.905  1.00  0.00     0.074 A 
ATOM     56  C   UNL A   1      44.422  26.332  31.166  1.00  0.00     0.031 C 
ATOM     57  C   UNL A   1      43.790  27.610  33.193  1.00  0.00     0.034 A 
BRANCH  44  58
ATOM     58  C   UNL A   1      39.877  31.882  35.317  1.00  0.00     0.023 A 
ATOM     59  C   UNL A   1      40.346  33.212  35.342  1.00  0.00     0.012 A 
ATOM     60  C   UNL A   1      38.982  31.446  36.313  1.00  0.00     0.148 A 
ATOM     61  C   UNL A   1      39.964  34.082  36.360  1.00  0.00     0.002 A 
ATOM     62  C   UNL A   1      38.566  32.335  37.298  1.00  0.00     0.091 A 
ATOM     63  F   UNL A   1      38.560  30.174  36.283  1.00  0.00    -0.205 F 
ATOM     64  C   UNL A   1      39.066  33.647  37.330  1.00  0.00     0.022 A 
BRANCH  62  65
ATOM     65  S   UNL A   1      37.347  31.904  38.545  1.00  0.00     0.127 S 
ATOM     66  O   UNL A   1      38.087  32.154  39.781  1.00  0.00    -0.237 OA
ATOM     67  O   UNL A   1      36.276  32.862  38.271  1.00  0.00    -0.237 OA
ATOM     68  O   UNL A   1      36.995  30.512  38.299  1.00  0.00    -0.744 OA
ENDBRANCH  62  65
ENDBRANCH  44  58
BRANCH  45  69
ATOM     69  C   UNL A   1      42.419  26.299  27.429  1.00  0.00     0.023 A 
ATOM     70  C   UNL A   1      43.229  26.885  26.437  1.00  0.00     0.012 A 
ATOM     71  C   UNL A   1      42.063  24.941  27.310  1.00  0.00     0.148 A 
ATOM     72  C   UNL A   1      43.663  26.141  25.340  1.00  0.00     0.002 A 
ATOM     73  C   UNL A   1      42.542  24.191  26.240  1.00  0.00     0.091 A 
ATOM     74  F   UNL A   1      41.284  24.404  28.259  1.00  0.00    -0.205 F 
ATOM     75  C   UNL A   1      43.331  24.793  25.247  1.00  0.00     0.022 A 
BRANCH  73  76
ATOM     76  S   UNL A   1      42.282  22.418  26.109  1.00  0.00     0.127 S 
ATOM     77  O   UNL A   1      42.840  21.938  27.370  1.00  0.00    -0.237 OA
ATOM     78  O   UNL A   1      40.824  22.333  26.008  1.00  0.00    -0.237 OA
ATOM     79  O   UNL A   1      42.990  22.005  24.904  1.00  0.00    -0.744 OA
ENDBRANCH  73  76
ENDBRANCH  45  69
BRANCH  57  80
ATOM     80  C   UNL A   1      44.970  27.027  33.919  1.00  0.00     0.023 A 
ATOM     81  C   UNL A   1      46.181  27.744  33.944  1.00  0.00     0.012 A 
ATOM     82  C   UNL A   1      44.827  25.873  34.714  1.00  0.00     0.148 A 
ATOM     83  C   UNL A   1      47.235  27.321  34.751  1.00  0.00     0.002 A 
ATOM     84  C   UNL A   1      45.865  25.483  35.550  1.00  0.00     0.091 A 
ATOM     85  F   UNL A   1      43.664  25.205  34.665  1.00  0.00    -0.205 F 
ATOM     86  C   UNL A   1      47.071  26.202  35.566  1.00  0.00     0.022 A 
BRANCH  84  87
ATOM     87  S   UNL A   1      45.714  24.121  36.713  1.00  0.00     0.127 S 
ATOM     88  O   UNL A   1      44.683  24.620  37.622  1.00  0.00    -0.237 OA
ATOM     89  O   UNL A   1      45.287  23.022  35.848  1.00  0.00    -0.237 OA
ATOM     90  O   UNL A   1      47.033  23.950  37.308  1.00  0.00    -0.744 OA
ENDBRANCH  84  87
ENDBRANCH  57  80
ENDBRANCH  31  32
ENDBRANCH  23  26
ENDBRANCH  21  22
ENDBRANCH   1  21
TORSDOF 17
ENDMDL
