MODEL 1
REMARK VINA RESULT:     -12.1      0.000      0.000
REMARK SMILES O=C(NCCCNC(=O)[C@@H]1C=C[C@H](NS(=O)(=O)c2ccc(Cl)cc2)C1)c1ccc(-c2c3nc(c(-c4cccc(S(=O)(=O)[O-])c4F)c4ccc([nH]4)c(-c4cccc(S(=O)(=O)[O-])c4F)c4nc(c(-c5cccc(S(=O)(=O)[O-])c5F)c5ccc2[nH]5)C=C4)C=C3)cc1
REMARK SMILES IDX 5 1 4 2 3 3 1 4 2 5 26 7 27 8 88 9 28 10 87 11 29 12 30 13
REMARK SMILES IDX 31 14 81 15 32 16 86 17 80 18 82 19 33 20 85 21 79 22 78 23
REMARK SMILES IDX 34 25 66 26 46 27 65 28 47 29 50 30 64 31 83 32 48 33 49 34
REMARK SMILES IDX 63 36 84 37 51 38 35 39 36 40 44 41 37 42 39 43 45 44 38 45
REMARK SMILES IDX 40 46 41 47 42 48 43 49 67 50 68 51 76 52 69 53 71 54 77 55
REMARK SMILES IDX 70 56 72 57 73 58 74 59 75 60 52 61 53 62 61 63 54 64 56 65
REMARK SMILES IDX 62 66 55 67 57 68 58 69 59 70 60 71 6 72 7 73 8 74 9 76
REMARK SMILES IDX 10 77 11 78 25 79 12 80 13 81 14 82 15 84 16 85 17 86 18 87
REMARK SMILES IDX 19 88 24 89 20 90 23 91 21 92 22 93
REMARK H PARENT 3 6 82 24 50 35 7 75 14 83
REMARK Flexibility Score: inf
ROOT
ATOM      1  C   UNL A   1      31.437  32.255  26.563  1.00  0.00     0.042 C 
ENDROOT
BRANCH   1   2
ATOM      2  C   UNL A   1      32.684  32.726  27.308  1.00  0.00     0.118 C 
BRANCH   2   3
ATOM      3  N   UNL A   1      32.564  34.104  27.756  1.00  0.00    -0.352 N 
ATOM      4  O   UNL A   1      32.719  35.844  29.154  1.00  0.00    -0.269 OA
ATOM      5  C   UNL A   1      33.169  34.757  28.800  1.00  0.00     0.251 C 
ATOM      6  H   UNL A   1      31.951  34.659  27.222  1.00  0.00     0.163 HD
BRANCH   5   7
ATOM      7  C   UNL A   1      34.334  34.170  29.502  1.00  0.00     0.039 A 
ATOM      8  C   UNL A   1      34.172  33.247  30.540  1.00  0.00     0.014 A 
ATOM      9  C   UNL A   1      35.619  34.490  29.054  1.00  0.00     0.014 A 
ATOM     10  C   UNL A   1      35.287  32.732  31.200  1.00  0.00     0.010 A 
ATOM     11  C   UNL A   1      36.736  33.922  29.671  1.00  0.00     0.010 A 
ATOM     12  C   UNL A   1      36.580  33.056  30.764  1.00  0.00    -0.014 A 
BRANCH  12  13
ATOM     13  C   UNL A   1      37.768  32.437  31.404  1.00  0.00     0.031 A 
ATOM     14  C   UNL A   1      38.477  31.284  30.753  1.00  0.00     0.074 A 
ATOM     15  C   UNL A   1      38.165  32.877  32.612  1.00  0.00     0.049 A 
ATOM     16  N   UNL A   1      39.481  30.576  31.202  1.00  0.00    -0.248 NA
ATOM     17  C   UNL A   1      37.990  30.861  29.430  1.00  0.00     0.031 C 
ATOM     18  C   UNL A   1      37.523  33.956  33.365  1.00  0.00     0.029 A 
ATOM     19  N   UNL A   1      39.179  32.454  33.435  1.00  0.00    -0.354 N 
ATOM     20  C   UNL A   1      39.719  29.600  30.243  1.00  0.00     0.074 A 
ATOM     21  C   UNL A   1      38.751  29.803  29.186  1.00  0.00     0.031 C 
ATOM     22  C   UNL A   1      38.145  34.099  34.544  1.00  0.00     0.029 A 
ATOM     23  C   UNL A   1      39.204  33.099  34.648  1.00  0.00     0.049 A 
ATOM     24  H   UNL A   1      39.826  31.756  33.180  1.00  0.00     0.167 HD
ATOM     25  C   UNL A   1      40.667  28.633  30.237  1.00  0.00     0.034 A 
ATOM     26  C   UNL A   1      39.970  32.894  35.737  1.00  0.00     0.034 A 
ATOM     27  C   UNL A   1      41.655  28.462  31.269  1.00  0.00     0.049 A 
ATOM     28  C   UNL A   1      41.035  31.838  35.694  1.00  0.00     0.074 A 
ATOM     29  C   UNL A   1      42.710  27.568  31.310  1.00  0.00     0.029 A 
ATOM     30  N   UNL A   1      41.704  29.194  32.446  1.00  0.00    -0.354 N 
ATOM     31  N   UNL A   1      41.341  31.020  34.715  1.00  0.00    -0.248 NA
ATOM     32  C   UNL A   1      41.883  31.692  36.886  1.00  0.00     0.031 C 
ATOM     33  C   UNL A   1      43.392  27.752  32.518  1.00  0.00     0.029 A 
ATOM     34  C   UNL A   1      42.765  28.767  33.225  1.00  0.00     0.049 A 
ATOM     35  H   UNL A   1      41.076  29.911  32.691  1.00  0.00     0.167 HD
ATOM     36  C   UNL A   1      42.430  30.282  35.161  1.00  0.00     0.074 A 
ATOM     37  C   UNL A   1      42.741  30.759  36.493  1.00  0.00     0.031 C 
ATOM     38  C   UNL A   1      43.100  29.289  34.525  1.00  0.00     0.034 A 
BRANCH  25  39
ATOM     39  C   UNL A   1      40.714  27.711  29.048  1.00  0.00     0.023 A 
ATOM     40  C   UNL A   1      39.797  26.644  28.962  1.00  0.00     0.012 A 
ATOM     41  C   UNL A   1      41.624  27.925  27.995  1.00  0.00     0.148 A 
ATOM     42  C   UNL A   1      39.806  25.786  27.863  1.00  0.00     0.002 A 
ATOM     43  C   UNL A   1      41.603  27.086  26.885  1.00  0.00     0.091 A 
ATOM     44  F   UNL A   1      42.509  28.927  28.102  1.00  0.00    -0.205 F 
ATOM     45  C   UNL A   1      40.701  26.013  26.821  1.00  0.00     0.022 A 
BRANCH  43  46
ATOM     46  S   UNL A   1      42.685  27.356  25.477  1.00  0.00     0.127 S 
ATOM     47  O   UNL A   1      42.538  26.100  24.744  1.00  0.00    -0.237 OA
ATOM     48  O   UNL A   1      42.074  28.515  24.823  1.00  0.00    -0.237 OA
ATOM     49  O   UNL A   1      44.001  27.616  26.044  1.00  0.00    -0.744 OA
ENDBRANCH  43  46
ENDBRANCH  25  39
BRANCH  26  50
ATOM     50  C   UNL A   1      39.767  33.757  36.934  1.00  0.00     0.023 A 
ATOM     51  C   UNL A   1      40.107  35.121  36.869  1.00  0.00     0.012 A 
ATOM     52  C   UNL A   1      39.145  33.255  38.094  1.00  0.00     0.148 A 
ATOM     53  C   UNL A   1      39.834  35.971  37.941  1.00  0.00     0.002 A 
ATOM     54  C   UNL A   1      38.826  34.118  39.136  1.00  0.00     0.091 A 
ATOM     55  F   UNL A   1      38.842  31.950  38.138  1.00  0.00    -0.205 F 
ATOM     56  C   UNL A   1      39.181  35.474  39.066  1.00  0.00     0.022 A 
BRANCH  54  57
ATOM     57  S   UNL A   1      37.856  33.598  40.556  1.00  0.00     0.127 S 
ATOM     58  O   UNL A   1      37.710  34.851  41.293  1.00  0.00    -0.237 OA
ATOM     59  O   UNL A   1      36.630  33.110  39.921  1.00  0.00    -0.237 OA
ATOM     60  O   UNL A   1      38.643  32.564  41.214  1.00  0.00    -0.744 OA
ENDBRANCH  54  57
ENDBRANCH  26  50
BRANCH  38  61
ATOM     61  C   UNL A   1      44.258  28.653  35.245  1.00  0.00     0.023 A 
ATOM     62  C   UNL A   1      45.558  29.159  35.051  1.00  0.00     0.012 A 
ATOM     63  C   UNL A   1      44.044  27.632  36.191  1.00  0.00     0.148 A 
ATOM     64  C   UNL A   1      46.630  28.648  35.780  1.00  0.00     0.002 A 
ATOM     65  C   UNL A   1      45.112  27.156  36.942  1.00  0.00     0.091 A 
ATOM     66  F   UNL A   1      42.801  27.152  36.344  1.00  0.00    -0.205 F 
ATOM     67  C   UNL A   1      46.407  27.658  36.733  1.00  0.00     0.022 A 
BRANCH  65  68
ATOM     68  S   UNL A   1      44.903  25.944  38.253  1.00  0.00     0.127 S 
ATOM     69  O   UNL A   1      43.984  26.636  39.155  1.00  0.00    -0.237 OA
ATOM     70  O   UNL A   1      44.317  24.809  37.538  1.00  0.00    -0.237 OA
ATOM     71  O   UNL A   1      46.236  25.696  38.787  1.00  0.00    -0.744 OA
ENDBRANCH  65  68
ENDBRANCH  38  61
ENDBRANCH  12  13
ENDBRANCH   5   7
ENDBRANCH   2   3
ENDBRANCH   1   2
BRANCH   1  72
ATOM     72  C   UNL A   1      31.350  30.740  26.403  1.00  0.00     0.117 C 
BRANCH  72  73
ATOM     73  N   UNL A   1      31.688  30.298  25.058  1.00  0.00    -0.356 N 
ATOM     74  C   UNL A   1      31.989  29.046  24.599  1.00  0.00     0.226 C 
ATOM     75  H   UNL A   1      31.703  31.009  24.377  1.00  0.00     0.163 HD
ATOM     76  O   UNL A   1      32.286  28.912  23.410  1.00  0.00    -0.274 OA
BRANCH  74  77
ATOM     77  C   UNL A   1      31.975  27.872  25.577  1.00  0.00     0.103 C 
ATOM     78  C   UNL A   1      33.370  27.601  26.046  1.00  0.00    -0.016 C 
ATOM     79  C   UNL A   1      31.561  26.549  24.905  1.00  0.00     0.042 C 
ATOM     80  C   UNL A   1      33.820  26.410  25.644  1.00  0.00    -0.011 C 
ATOM     81  C   UNL A   1      32.803  25.645  24.878  1.00  0.00     0.093 C 
BRANCH  81  82
ATOM     82  N   UNL A   1      33.246  25.462  23.510  1.00  0.00    -0.204 NA
ATOM     83  H   UNL A   1      34.247  25.658  23.497  1.00  0.00     0.142 HD
BRANCH  82  84
ATOM     84  S   UNL A   1      33.036  23.994  22.747  1.00  0.00     0.241 S 
ATOM     85  O   UNL A   1      31.799  23.433  23.241  1.00  0.00    -0.207 OA
ATOM     86  O   UNL A   1      33.283  24.183  21.335  1.00  0.00    -0.207 OA
BRANCH  84  87
ATOM     87  C   UNL A   1      34.345  22.965  23.376  1.00  0.00     0.082 A 
ATOM     88  C   UNL A   1      34.081  21.897  24.239  1.00  0.00     0.023 A 
ATOM     89  C   UNL A   1      35.664  23.303  23.047  1.00  0.00     0.023 A 
ATOM     90  C   UNL A   1      35.144  21.182  24.796  1.00  0.00     0.022 A 
ATOM     91  C   UNL A   1      36.722  22.572  23.591  1.00  0.00     0.022 A 
ATOM     92  C   UNL A   1      36.458  21.522  24.469  1.00  0.00     0.041 A 
ATOM     93  Cl  UNL A   1      37.764  20.641  25.164  1.00  0.00    -0.084 Cl
ENDBRANCH  84  87
ENDBRANCH  82  84
ENDBRANCH  81  82
ENDBRANCH  74  77
ENDBRANCH  72  73
ENDBRANCH   1  72
TORSDOF 16
ENDMDL
MODEL 2
REMARK VINA RESULT:     -12.0      4.664     10.869
REMARK SMILES O=C(NCCCNC(=O)[C@@H]1C=C[C@H](NS(=O)(=O)c2ccc(Cl)cc2)C1)c1ccc(-c2c3nc(c(-c4cccc(S(=O)(=O)[O-])c4F)c4ccc([nH]4)c(-c4cccc(S(=O)(=O)[O-])c4F)c4nc(c(-c5cccc(S(=O)(=O)[O-])c5F)c5ccc2[nH]5)C=C4)C=C3)cc1
REMARK SMILES IDX 5 1 4 2 3 3 1 4 2 5 26 7 27 8 88 9 28 10 87 11 29 12 30 13
REMARK SMILES IDX 31 14 81 15 32 16 86 17 80 18 82 19 33 20 85 21 79 22 78 23
REMARK SMILES IDX 34 25 66 26 46 27 65 28 47 29 50 30 64 31 83 32 48 33 49 34
REMARK SMILES IDX 63 36 84 37 51 38 35 39 36 40 44 41 37 42 39 43 45 44 38 45
REMARK SMILES IDX 40 46 41 47 42 48 43 49 67 50 68 51 76 52 69 53 71 54 77 55
REMARK SMILES IDX 70 56 72 57 73 58 74 59 75 60 52 61 53 62 61 63 54 64 56 65
REMARK SMILES IDX 62 66 55 67 57 68 58 69 59 70 60 71 6 72 7 73 8 74 9 76
REMARK SMILES IDX 10 77 11 78 25 79 12 80 13 81 14 82 15 84 16 85 17 86 18 87
REMARK SMILES IDX 19 88 24 89 20 90 23 91 21 92 22 93
REMARK H PARENT 3 6 82 24 50 35 7 75 14 83
REMARK Flexibility Score: inf
ROOT
ATOM      1  C   UNL A   1      34.411  34.446  28.000  1.00  0.00     0.042 C 
ENDROOT
BRANCH   1   2
ATOM      2  C   UNL A   1      34.992  33.113  28.466  1.00  0.00     0.118 C 
BRANCH   2   3
ATOM      3  N   UNL A   1      34.201  31.983  28.008  1.00  0.00    -0.352 N 
ATOM      4  O   UNL A   1      33.790  29.978  27.102  1.00  0.00    -0.269 OA
ATOM      5  C   UNL A   1      34.570  30.691  27.728  1.00  0.00     0.251 C 
ATOM      6  H   UNL A   1      33.244  32.175  27.880  1.00  0.00     0.163 HD
BRANCH   5   7
ATOM      7  C   UNL A   1      35.885  30.158  28.156  1.00  0.00     0.039 A 
ATOM      8  C   UNL A   1      37.015  30.259  27.340  1.00  0.00     0.014 A 
ATOM      9  C   UNL A   1      36.003  29.618  29.440  1.00  0.00     0.014 A 
ATOM     10  C   UNL A   1      38.232  29.724  27.758  1.00  0.00     0.010 A 
ATOM     11  C   UNL A   1      37.240  29.143  29.887  1.00  0.00     0.010 A 
ATOM     12  C   UNL A   1      38.359  29.171  29.041  1.00  0.00    -0.014 A 
BRANCH  12  13
ATOM     13  C   UNL A   1      39.675  28.686  29.526  1.00  0.00     0.031 A 
ATOM     14  C   UNL A   1      40.407  29.412  30.618  1.00  0.00     0.074 A 
ATOM     15  C   UNL A   1      40.242  27.622  28.926  1.00  0.00     0.049 A 
ATOM     16  N   UNL A   1      41.594  29.174  31.112  1.00  0.00    -0.248 NA
ATOM     17  C   UNL A   1      39.723  30.563  31.229  1.00  0.00     0.031 C 
ATOM     18  C   UNL A   1      39.649  26.867  27.821  1.00  0.00     0.029 A 
ATOM     19  N   UNL A   1      41.452  27.010  29.137  1.00  0.00    -0.354 N 
ATOM     20  C   UNL A   1      41.820  30.166  32.058  1.00  0.00     0.074 A 
ATOM     21  C   UNL A   1      40.646  31.013  32.068  1.00  0.00     0.031 C 
ATOM     22  C   UNL A   1      40.502  25.906  27.438  1.00  0.00     0.029 A 
ATOM     23  C   UNL A   1      41.716  25.999  28.244  1.00  0.00     0.049 A 
ATOM     24  H   UNL A   1      42.071  27.269  29.858  1.00  0.00     0.167 HD
ATOM     25  C   UNL A   1      42.899  30.344  32.856  1.00  0.00     0.034 A 
ATOM     26  C   UNL A   1      42.821  25.248  28.068  1.00  0.00     0.034 A 
ATOM     27  C   UNL A   1      44.044  29.473  32.875  1.00  0.00     0.049 A 
ATOM     28  C   UNL A   1      43.992  25.444  28.987  1.00  0.00     0.074 A 
ATOM     29  C   UNL A   1      45.148  29.521  33.709  1.00  0.00     0.029 A 
ATOM     30  N   UNL A   1      44.239  28.404  32.013  1.00  0.00    -0.354 N 
ATOM     31  N   UNL A   1      44.127  26.294  29.976  1.00  0.00    -0.248 NA
ATOM     32  C   UNL A   1      45.151  24.561  28.791  1.00  0.00     0.031 C 
ATOM     33  C   UNL A   1      46.015  28.485  33.344  1.00  0.00     0.029 A 
ATOM     34  C   UNL A   1      45.447  27.788  32.288  1.00  0.00     0.049 A 
ATOM     35  H   UNL A   1      43.610  28.124  31.310  1.00  0.00     0.167 HD
ATOM     36  C   UNL A   1      45.370  26.033  30.537  1.00  0.00     0.074 A 
ATOM     37  C   UNL A   1      45.945  24.935  29.787  1.00  0.00     0.031 C 
ATOM     38  C   UNL A   1      45.983  26.659  31.572  1.00  0.00     0.034 A 
BRANCH  25  39
ATOM     39  C   UNL A   1      42.870  31.502  33.817  1.00  0.00     0.023 A 
ATOM     40  C   UNL A   1      43.355  32.759  33.401  1.00  0.00     0.012 A 
ATOM     41  C   UNL A   1      42.323  31.366  35.107  1.00  0.00     0.148 A 
ATOM     42  C   UNL A   1      43.323  33.853  34.264  1.00  0.00     0.002 A 
ATOM     43  C   UNL A   1      42.263  32.472  35.950  1.00  0.00     0.091 A 
ATOM     44  F   UNL A   1      41.892  30.158  35.500  1.00  0.00    -0.205 F 
ATOM     45  C   UNL A   1      42.769  33.713  35.533  1.00  0.00     0.022 A 
BRANCH  43  46
ATOM     46  S   UNL A   1      41.504  32.379  37.576  1.00  0.00     0.127 S 
ATOM     47  O   UNL A   1      42.301  31.334  38.217  1.00  0.00    -0.237 OA
ATOM     48  O   UNL A   1      41.726  33.724  38.109  1.00  0.00    -0.237 OA
ATOM     49  O   UNL A   1      40.105  32.056  37.331  1.00  0.00    -0.744 OA
ENDBRANCH  43  46
ENDBRANCH  25  39
BRANCH  26  50
ATOM     50  C   UNL A   1      42.826  24.213  26.997  1.00  0.00     0.023 A 
ATOM     51  C   UNL A   1      43.574  24.434  25.825  1.00  0.00     0.012 A 
ATOM     52  C   UNL A   1      42.182  22.974  27.183  1.00  0.00     0.148 A 
ATOM     53  C   UNL A   1      43.675  23.438  24.853  1.00  0.00     0.002 A 
ATOM     54  C   UNL A   1      42.334  21.967  26.236  1.00  0.00     0.091 A 
ATOM     55  F   UNL A   1      41.467  22.791  28.301  1.00  0.00    -0.205 F 
ATOM     56  C   UNL A   1      43.070  22.203  25.064  1.00  0.00     0.022 A 
BRANCH  54  57
ATOM     57  S   UNL A   1      41.715  20.301  26.494  1.00  0.00     0.127 S 
ATOM     58  O   UNL A   1      42.317  19.954  27.780  1.00  0.00    -0.237 OA
ATOM     59  O   UNL A   1      40.268  20.517  26.527  1.00  0.00    -0.237 OA
ATOM     60  O   UNL A   1      42.180  19.527  25.350  1.00  0.00    -0.744 OA
ENDBRANCH  54  57
ENDBRANCH  26  50
BRANCH  38  61
ATOM     61  C   UNL A   1      47.344  26.167  31.982  1.00  0.00     0.023 A 
ATOM     62  C   UNL A   1      47.461  25.263  33.056  1.00  0.00     0.012 A 
ATOM     63  C   UNL A   1      48.489  26.512  31.237  1.00  0.00     0.148 A 
ATOM     64  C   UNL A   1      48.700  24.720  33.391  1.00  0.00     0.002 A 
ATOM     65  C   UNL A   1      49.714  25.935  31.552  1.00  0.00     0.091 A 
ATOM     66  F   UNL A   1      48.357  27.389  30.232  1.00  0.00    -0.205 F 
ATOM     67  C   UNL A   1      49.822  25.044  32.633  1.00  0.00     0.022 A 
BRANCH  65  68
ATOM     68  S   UNL A   1      51.195  26.228  30.577  1.00  0.00     0.127 S 
ATOM     69  O   UNL A   1      51.339  27.679  30.681  1.00  0.00    -0.237 OA
ATOM     70  O   UNL A   1      52.205  25.461  31.308  1.00  0.00    -0.237 OA
ATOM     71  O   UNL A   1      50.903  25.722  29.243  1.00  0.00    -0.744 OA
ENDBRANCH  65  68
ENDBRANCH  38  61
ENDBRANCH  12  13
ENDBRANCH   5   7
ENDBRANCH   2   3
ENDBRANCH   1   2
BRANCH   1  72
ATOM     72  C   UNL A   1      33.181  34.891  28.785  1.00  0.00     0.117 C 
BRANCH  72  73
ATOM     73  N   UNL A   1      33.273  36.273  29.235  1.00  0.00    -0.356 N 
ATOM     74  C   UNL A   1      33.150  36.792  30.494  1.00  0.00     0.226 C 
ATOM     75  H   UNL A   1      33.451  36.931  28.526  1.00  0.00     0.163 HD
ATOM     76  O   UNL A   1      33.229  38.013  30.635  1.00  0.00    -0.274 OA
BRANCH  74  77
ATOM     77  C   UNL A   1      32.892  35.846  31.667  1.00  0.00     0.103 C 
ATOM     78  C   UNL A   1      33.131  36.575  32.952  1.00  0.00    -0.016 C 
ATOM     79  C   UNL A   1      33.902  34.685  31.722  1.00  0.00     0.042 C 
ATOM     80  C   UNL A   1      34.167  36.079  33.633  1.00  0.00    -0.011 C 
ATOM     81  C   UNL A   1      34.782  34.906  32.962  1.00  0.00     0.093 C 
BRANCH  81  82
ATOM     82  N   UNL A   1      36.136  35.222  32.551  1.00  0.00    -0.204 NA
ATOM     83  H   UNL A   1      36.303  36.194  32.811  1.00  0.00     0.142 HD
BRANCH  82  84
ATOM     84  S   UNL A   1      37.422  34.340  33.143  1.00  0.00     0.241 S 
ATOM     85  O   UNL A   1      37.910  35.035  34.313  1.00  0.00    -0.207 OA
ATOM     86  O   UNL A   1      37.031  32.949  33.183  1.00  0.00    -0.207 OA
BRANCH  84  87
ATOM     87  C   UNL A   1      38.686  34.495  31.899  1.00  0.00     0.082 A 
ATOM     88  C   UNL A   1      38.368  34.527  30.538  1.00  0.00     0.023 A 
ATOM     89  C   UNL A   1      40.023  34.502  32.316  1.00  0.00     0.023 A 
ATOM     90  C   UNL A   1      39.395  34.541  29.591  1.00  0.00     0.022 A 
ATOM     91  C   UNL A   1      41.045  34.536  31.365  1.00  0.00     0.022 A 
ATOM     92  C   UNL A   1      40.727  34.546  30.007  1.00  0.00     0.041 A 
ATOM     93  Cl  UNL A   1      41.986  34.555  28.835  1.00  0.00    -0.084 Cl
ENDBRANCH  84  87
ENDBRANCH  82  84
ENDBRANCH  81  82
ENDBRANCH  74  77
ENDBRANCH  72  73
ENDBRANCH   1  72
TORSDOF 16
ENDMDL
MODEL 3
REMARK VINA RESULT:     -12.0      6.452     11.644
REMARK SMILES O=C(NCCCNC(=O)[C@@H]1C=C[C@H](NS(=O)(=O)c2ccc(Cl)cc2)C1)c1ccc(-c2c3nc(c(-c4cccc(S(=O)(=O)[O-])c4F)c4ccc([nH]4)c(-c4cccc(S(=O)(=O)[O-])c4F)c4nc(c(-c5cccc(S(=O)(=O)[O-])c5F)c5ccc2[nH]5)C=C4)C=C3)cc1
REMARK SMILES IDX 5 1 4 2 3 3 1 4 2 5 26 7 27 8 88 9 28 10 87 11 29 12 30 13
REMARK SMILES IDX 31 14 81 15 32 16 86 17 80 18 82 19 33 20 85 21 79 22 78 23
REMARK SMILES IDX 34 25 66 26 46 27 65 28 47 29 50 30 64 31 83 32 48 33 49 34
REMARK SMILES IDX 63 36 84 37 51 38 35 39 36 40 44 41 37 42 39 43 45 44 38 45
REMARK SMILES IDX 40 46 41 47 42 48 43 49 67 50 68 51 76 52 69 53 71 54 77 55
REMARK SMILES IDX 70 56 72 57 73 58 74 59 75 60 52 61 53 62 61 63 54 64 56 65
REMARK SMILES IDX 62 66 55 67 57 68 58 69 59 70 60 71 6 72 7 73 8 74 9 76
REMARK SMILES IDX 10 77 11 78 25 79 12 80 13 81 14 82 15 84 16 85 17 86 18 87
REMARK SMILES IDX 19 88 24 89 20 90 23 91 21 92 22 93
REMARK H PARENT 3 6 82 24 50 35 7 75 14 83
REMARK Flexibility Score: inf
ROOT
ATOM      1  C   UNL A   1      38.122  19.477  25.034  1.00  0.00     0.042 C 
ENDROOT
BRANCH   1   2
ATOM      2  C   UNL A   1      39.112  19.942  26.098  1.00  0.00     0.118 C 
BRANCH   2   3
ATOM      3  N   UNL A   1      40.357  19.192  26.052  1.00  0.00    -0.352 N 
ATOM      4  O   UNL A   1      42.546  18.836  25.756  1.00  0.00    -0.269 OA
ATOM      5  C   UNL A   1      41.659  19.624  26.073  1.00  0.00     0.251 C 
ATOM      6  H   UNL A   1      40.247  18.215  25.998  1.00  0.00     0.163 HD
BRANCH   5   7
ATOM      7  C   UNL A   1      42.002  21.013  26.458  1.00  0.00     0.039 A 
ATOM      8  C   UNL A   1      42.227  21.367  27.792  1.00  0.00     0.014 A 
ATOM      9  C   UNL A   1      42.180  21.964  25.448  1.00  0.00     0.014 A 
ATOM     10  C   UNL A   1      42.521  22.689  28.126  1.00  0.00     0.010 A 
ATOM     11  C   UNL A   1      42.541  23.273  25.778  1.00  0.00     0.010 A 
ATOM     12  C   UNL A   1      42.692  23.652  27.121  1.00  0.00    -0.014 A 
BRANCH  12  13
ATOM     13  C   UNL A   1      43.097  25.037  27.467  1.00  0.00     0.031 A 
ATOM     14  C   UNL A   1      42.117  25.992  28.087  1.00  0.00     0.074 A 
ATOM     15  C   UNL A   1      44.339  25.453  27.156  1.00  0.00     0.049 A 
ATOM     16  N   UNL A   1      42.276  27.255  28.385  1.00  0.00    -0.248 NA
ATOM     17  C   UNL A   1      40.780  25.465  28.402  1.00  0.00     0.031 C 
ATOM     18  C   UNL A   1      45.362  24.631  26.506  1.00  0.00     0.029 A 
ATOM     19  N   UNL A   1      44.944  26.675  27.313  1.00  0.00    -0.354 N 
ATOM     20  C   UNL A   1      41.052  27.687  28.882  1.00  0.00     0.074 A 
ATOM     21  C   UNL A   1      40.157  26.550  28.842  1.00  0.00     0.031 C 
ATOM     22  C   UNL A   1      46.459  25.374  26.304  1.00  0.00     0.029 A 
ATOM     23  C   UNL A   1      46.206  26.733  26.774  1.00  0.00     0.049 A 
ATOM     24  H   UNL A   1      44.515  27.436  27.769  1.00  0.00     0.167 HD
ATOM     25  C   UNL A   1      40.712  28.913  29.344  1.00  0.00     0.034 A 
ATOM     26  C   UNL A   1      47.059  27.768  26.641  1.00  0.00     0.034 A 
ATOM     27  C   UNL A   1      41.617  30.028  29.422  1.00  0.00     0.049 A 
ATOM     28  C   UNL A   1      46.670  29.111  27.190  1.00  0.00     0.074 A 
ATOM     29  C   UNL A   1      41.390  31.285  29.955  1.00  0.00     0.029 A 
ATOM     30  N   UNL A   1      42.920  30.025  28.945  1.00  0.00    -0.354 N 
ATOM     31  N   UNL A   1      45.559  29.461  27.792  1.00  0.00    -0.248 NA
ATOM     32  C   UNL A   1      47.658  30.193  27.073  1.00  0.00     0.031 C 
ATOM     33  C   UNL A   1      42.554  32.046  29.791  1.00  0.00     0.029 A 
ATOM     34  C   UNL A   1      43.507  31.259  29.163  1.00  0.00     0.049 A 
ATOM     35  H   UNL A   1      43.361  29.258  28.515  1.00  0.00     0.167 HD
ATOM     36  C   UNL A   1      45.723  30.793  28.149  1.00  0.00     0.074 A 
ATOM     37  C   UNL A   1      47.046  31.185  27.709  1.00  0.00     0.031 C 
ATOM     38  C   UNL A   1      44.846  31.619  28.772  1.00  0.00     0.034 A 
BRANCH  25  39
ATOM     39  C   UNL A   1      39.307  29.101  29.849  1.00  0.00     0.023 A 
ATOM     40  C   UNL A   1      38.979  28.688  31.156  1.00  0.00     0.012 A 
ATOM     41  C   UNL A   1      38.325  29.728  29.057  1.00  0.00     0.148 A 
ATOM     42  C   UNL A   1      37.690  28.867  31.656  1.00  0.00     0.002 A 
ATOM     43  C   UNL A   1      37.051  29.935  29.576  1.00  0.00     0.091 A 
ATOM     44  F   UNL A   1      38.643  30.091  27.806  1.00  0.00    -0.205 F 
ATOM     45  C   UNL A   1      36.730  29.499  30.871  1.00  0.00     0.022 A 
BRANCH  43  46
ATOM     46  S   UNL A   1      35.782  30.800  28.644  1.00  0.00     0.127 S 
ATOM     47  O   UNL A   1      35.155  29.704  27.908  1.00  0.00    -0.237 OA
ATOM     48  O   UNL A   1      34.947  31.377  29.700  1.00  0.00    -0.237 OA
ATOM     49  O   UNL A   1      36.494  31.785  27.842  1.00  0.00    -0.744 OA
ENDBRANCH  43  46
ENDBRANCH  25  39
BRANCH  26  50
ATOM     50  C   UNL A   1      48.382  27.535  25.998  1.00  0.00     0.023 A 
ATOM     51  C   UNL A   1      49.452  27.050  26.773  1.00  0.00     0.012 A 
ATOM     52  C   UNL A   1      48.551  27.691  24.608  1.00  0.00     0.148 A 
ATOM     53  C   UNL A   1      50.671  26.729  26.175  1.00  0.00     0.002 A 
ATOM     54  C   UNL A   1      49.749  27.317  24.011  1.00  0.00     0.091 A 
ATOM     55  F   UNL A   1      47.522  28.166  23.893  1.00  0.00    -0.205 F 
ATOM     56  C   UNL A   1      50.815  26.848  24.795  1.00  0.00     0.022 A 
BRANCH  54  57
ATOM     57  S   UNL A   1      49.972  27.295  22.229  1.00  0.00     0.127 S 
ATOM     58  O   UNL A   1      51.332  26.776  22.104  1.00  0.00    -0.237 OA
ATOM     59  O   UNL A   1      48.918  26.373  21.804  1.00  0.00    -0.237 OA
ATOM     60  O   UNL A   1      49.778  28.671  21.791  1.00  0.00    -0.744 OA
ENDBRANCH  54  57
ENDBRANCH  26  50
BRANCH  38  61
ATOM     61  C   UNL A   1      45.286  33.032  29.043  1.00  0.00     0.023 A 
ATOM     62  C   UNL A   1      45.981  33.327  30.232  1.00  0.00     0.012 A 
ATOM     63  C   UNL A   1      45.107  34.040  28.075  1.00  0.00     0.148 A 
ATOM     64  C   UNL A   1      46.482  34.607  30.459  1.00  0.00     0.002 A 
ATOM     65  C   UNL A   1      45.643  35.304  28.291  1.00  0.00     0.091 A 
ATOM     66  F   UNL A   1      44.424  33.741  26.960  1.00  0.00    -0.205 F 
ATOM     67  C   UNL A   1      46.326  35.591  29.485  1.00  0.00     0.022 A 
BRANCH  65  68
ATOM     68  S   UNL A   1      45.566  36.606  27.056  1.00  0.00     0.127 S 
ATOM     69  O   UNL A   1      46.208  35.967  25.908  1.00  0.00    -0.237 OA
ATOM     70  O   UNL A   1      44.124  36.813  26.911  1.00  0.00    -0.237 OA
ATOM     71  O   UNL A   1      46.284  37.740  27.622  1.00  0.00    -0.744 OA
ENDBRANCH  65  68
ENDBRANCH  38  61
ENDBRANCH  12  13
ENDBRANCH   5   7
ENDBRANCH   2   3
ENDBRANCH   1   2
BRANCH   1  72
ATOM     72  C   UNL A   1      37.136  20.555  24.595  1.00  0.00     0.117 C 
BRANCH  72  73
ATOM     73  N   UNL A   1      35.894  20.522  25.354  1.00  0.00    -0.356 N 
ATOM     74  C   UNL A   1      34.850  21.404  25.360  1.00  0.00     0.226 C 
ATOM     75  H   UNL A   1      35.792  19.748  25.953  1.00  0.00     0.163 HD
ATOM     76  O   UNL A   1      33.906  21.191  26.122  1.00  0.00    -0.274 OA
BRANCH  74  77
ATOM     77  C   UNL A   1      34.906  22.630  24.449  1.00  0.00     0.103 C 
ATOM     78  C   UNL A   1      35.512  23.777  25.198  1.00  0.00    -0.016 C 
ATOM     79  C   UNL A   1      33.506  23.150  24.073  1.00  0.00     0.042 C 
ATOM     80  C   UNL A   1      34.644  24.774  25.390  1.00  0.00    -0.011 C 
ATOM     81  C   UNL A   1      33.322  24.507  24.770  1.00  0.00     0.093 C 
BRANCH  81  82
ATOM     82  N   UNL A   1      32.306  24.396  25.798  1.00  0.00    -0.204 NA
ATOM     83  H   UNL A   1      32.707  24.784  26.651  1.00  0.00     0.142 HD
BRANCH  82  84
ATOM     84  S   UNL A   1      30.819  25.124  25.593  1.00  0.00     0.241 S 
ATOM     85  O   UNL A   1      30.474  24.998  24.195  1.00  0.00    -0.207 OA
ATOM     86  O   UNL A   1      29.943  24.659  26.645  1.00  0.00    -0.207 OA
BRANCH  84  87
ATOM     87  C   UNL A   1      31.119  26.854  25.886  1.00  0.00     0.082 A 
ATOM     88  C   UNL A   1      31.099  27.784  24.841  1.00  0.00     0.023 A 
ATOM     89  C   UNL A   1      31.457  27.253  27.185  1.00  0.00     0.023 A 
ATOM     90  C   UNL A   1      31.446  29.113  25.095  1.00  0.00     0.022 A 
ATOM     91  C   UNL A   1      31.783  28.587  27.436  1.00  0.00     0.022 A 
ATOM     92  C   UNL A   1      31.785  29.508  26.390  1.00  0.00     0.041 A 
ATOM     93  Cl  UNL A   1      32.218  31.146  26.695  1.00  0.00    -0.084 Cl
ENDBRANCH  84  87
ENDBRANCH  82  84
ENDBRANCH  81  82
ENDBRANCH  74  77
ENDBRANCH  72  73
ENDBRANCH   1  72
TORSDOF 16
ENDMDL
