MODEL 1
REMARK VINA RESULT:     -10.0      0.000      0.000
REMARK SMILES O=C(Cn1c(=O)c2c3c(sc2n(Cc2ccc(Cl)cc2Cl)c1=O)CCCC3)NCCCNC(=O)c1ccc(-c2c3nc(c(-c4cccc(S(=O)(=O)[O-])c4F)c4ccc([nH]4)c(-c4cccc(S(=O)(=O)[O-])c4F)c4nc(c(-c5cccc(S(=O)(=O)[O-])c5F)c5ccc2[nH]5)C=C4)C=C3)cc1
REMARK SMILES IDX 30 1 29 2 28 3 1 4 2 5 3 7 4 8 5 9 22 10 6 11 7 12 12 13
REMARK SMILES IDX 23 14 8 15 11 16 9 17 27 18 10 19 24 20 26 21 25 22 13 23
REMARK SMILES IDX 14 24 15 25 20 26 16 27 19 28 21 29 17 30 18 31 31 32 32 33
REMARK SMILES IDX 33 34 34 36 35 37 36 38 97 39 37 40 96 41 38 42 39 43 40 44
REMARK SMILES IDX 90 45 41 46 95 47 89 48 91 49 42 50 94 51 88 52 87 53 43 55
REMARK SMILES IDX 75 56 55 57 74 58 56 59 59 60 73 61 92 62 57 63 58 64 72 66
REMARK SMILES IDX 93 67 60 68 44 69 45 70 53 71 46 72 48 73 54 74 47 75 49 76
REMARK SMILES IDX 50 77 51 78 52 79 76 80 77 81 85 82 78 83 80 84 86 85 79 86
REMARK SMILES IDX 81 87 82 88 83 89 84 90 61 91 62 92 70 93 63 94 65 95 71 96
REMARK SMILES IDX 64 97 66 98 67 99 68 100 69 101
REMARK H PARENT 28 6 32 35 91 54 59 65
REMARK Flexibility Score: inf
ROOT
ATOM      1  C   UNL A   1      41.461  25.832  36.051  1.00  0.00     0.042 C 
ENDROOT
BRANCH   1   2
ATOM      2  C   UNL A   1      41.657  26.815  34.894  1.00  0.00     0.117 C 
BRANCH   2   3
ATOM      3  N   UNL A   1      42.292  28.068  35.261  1.00  0.00    -0.354 N 
ATOM      4  O   UNL A   1      40.334  29.094  35.854  1.00  0.00    -0.273 OA
ATOM      5  C   UNL A   1      41.567  29.067  35.874  1.00  0.00     0.240 C 
ATOM      6  H   UNL A   1      43.248  28.204  35.070  1.00  0.00     0.163 HD
BRANCH   5   7
ATOM      7  C   UNL A   1      42.355  30.246  36.454  1.00  0.00     0.230 C 
BRANCH   7   8
ATOM      8  N   UNL A   1      42.952  31.234  35.550  1.00  0.00    -0.250 N 
ATOM      9  C   UNL A   1      44.192  30.869  34.993  1.00  0.00     0.265 A 
ATOM     10  C   UNL A   1      42.125  32.276  35.093  1.00  0.00     0.332 A 
ATOM     11  O   UNL A   1      44.856  29.920  35.369  1.00  0.00    -0.268 OA
ATOM     12  C   UNL A   1      44.594  31.672  33.855  1.00  0.00     0.079 A 
ATOM     13  N   UNL A   1      42.602  33.092  34.059  1.00  0.00    -0.280 N 
ATOM     14  O   UNL A   1      41.009  32.469  35.582  1.00  0.00    -0.247 OA
ATOM     15  C   UNL A   1      45.785  31.601  33.040  1.00  0.00    -0.019 A 
ATOM     16  C   UNL A   1      43.774  32.686  33.442  1.00  0.00     0.113 A 
ATOM     17  C   UNL A   1      45.770  32.589  32.070  1.00  0.00     0.011 A 
ATOM     18  C   UNL A   1      46.968  30.689  33.191  1.00  0.00     0.037 C 
ATOM     19  S   UNL A   1      44.287  33.383  31.996  1.00  0.00    -0.122 S 
ATOM     20  C   UNL A   1      46.878  32.935  31.132  1.00  0.00     0.047 C 
ATOM     21  C   UNL A   1      47.915  30.785  31.976  1.00  0.00     0.005 C 
ATOM     22  C   UNL A   1      48.174  32.243  31.568  1.00  0.00     0.006 C 
BRANCH  13  23
ATOM     23  C   UNL A   1      41.840  34.312  33.688  1.00  0.00     0.165 C 
BRANCH  23  24
ATOM     24  C   UNL A   1      40.601  34.013  32.851  1.00  0.00    -0.009 A 
ATOM     25  C   UNL A   1      40.779  33.578  31.523  1.00  0.00     0.008 A 
ATOM     26  C   UNL A   1      39.277  34.125  33.323  1.00  0.00     0.047 A 
ATOM     27  C   UNL A   1      39.687  33.206  30.729  1.00  0.00     0.021 A 
ATOM     28  C   UNL A   1      38.197  33.659  32.565  1.00  0.00     0.041 A 
ATOM     29  Cl  UNL A   1      38.854  34.983  34.765  1.00  0.00    -0.084 Cl
ATOM     30  C   UNL A   1      38.406  33.208  31.269  1.00  0.00     0.042 A 
ATOM     31  Cl  UNL A   1      37.062  32.715  30.316  1.00  0.00    -0.084 Cl
ENDBRANCH  23  24
ENDBRANCH  13  23
ENDBRANCH   7   8
ENDBRANCH   5   7
ENDBRANCH   2   3
ENDBRANCH   1   2
BRANCH   1  32
ATOM     32  C   UNL A   1      41.809  24.370  35.730  1.00  0.00     0.118 C 
BRANCH  32  33
ATOM     33  N   UNL A   1      43.146  24.035  36.200  1.00  0.00    -0.352 N 
ATOM     34  C   UNL A   1      44.375  24.113  35.606  1.00  0.00     0.251 C 
ATOM     35  H   UNL A   1      43.169  23.686  37.121  1.00  0.00     0.163 HD
ATOM     36  O   UNL A   1      45.292  23.470  36.120  1.00  0.00    -0.269 OA
BRANCH  34  37
ATOM     37  C   UNL A   1      44.648  24.926  34.398  1.00  0.00     0.039 A 
ATOM     38  C   UNL A   1      44.346  24.348  33.157  1.00  0.00     0.014 A 
ATOM     39  C   UNL A   1      45.324  26.148  34.440  1.00  0.00     0.014 A 
ATOM     40  C   UNL A   1      44.687  24.996  31.970  1.00  0.00     0.010 A 
ATOM     41  C   UNL A   1      45.664  26.801  33.246  1.00  0.00     0.010 A 
ATOM     42  C   UNL A   1      45.337  26.237  32.004  1.00  0.00    -0.014 A 
BRANCH  42  43
ATOM     43  C   UNL A   1      45.517  26.949  30.718  1.00  0.00     0.031 A 
ATOM     44  C   UNL A   1      45.562  26.074  29.503  1.00  0.00     0.074 A 
ATOM     45  C   UNL A   1      45.165  28.244  30.560  1.00  0.00     0.049 A 
ATOM     46  N   UNL A   1      44.495  25.631  28.905  1.00  0.00    -0.248 NA
ATOM     47  C   UNL A   1      46.798  25.440  29.044  1.00  0.00     0.031 C 
ATOM     48  C   UNL A   1      43.949  28.823  31.144  1.00  0.00     0.029 A 
ATOM     49  N   UNL A   1      45.608  29.203  29.673  1.00  0.00    -0.354 N 
ATOM     50  C   UNL A   1      44.892  24.633  28.030  1.00  0.00     0.074 A 
ATOM     51  C   UNL A   1      46.332  24.556  28.147  1.00  0.00     0.031 C 
ATOM     52  C   UNL A   1      43.649  29.959  30.478  1.00  0.00     0.029 A 
ATOM     53  C   UNL A   1      44.719  30.269  29.530  1.00  0.00     0.049 A 
ATOM     54  H   UNL A   1      46.465  29.143  29.192  1.00  0.00     0.167 HD
ATOM     55  C   UNL A   1      44.015  23.937  27.255  1.00  0.00     0.034 A 
ATOM     56  C   UNL A   1      44.567  30.999  28.386  1.00  0.00     0.034 A 
ATOM     57  C   UNL A   1      42.645  24.351  27.372  1.00  0.00     0.049 A 
ATOM     58  C   UNL A   1      43.803  30.020  27.530  1.00  0.00     0.074 A 
ATOM     59  C   UNL A   1      41.520  23.956  28.064  1.00  0.00     0.029 A 
ATOM     60  N   UNL A   1      42.256  25.490  26.706  1.00  0.00    -0.354 N 
ATOM     61  N   UNL A   1      42.529  29.744  27.639  1.00  0.00    -0.248 NA
ATOM     62  C   UNL A   1      44.583  29.019  26.801  1.00  0.00     0.031 C 
ATOM     63  C   UNL A   1      40.688  25.119  28.138  1.00  0.00     0.029 A 
ATOM     64  C   UNL A   1      41.375  26.161  27.516  1.00  0.00     0.049 A 
ATOM     65  H   UNL A   1      42.554  25.771  25.811  1.00  0.00     0.167 HD
ATOM     66  C   UNL A   1      42.414  28.397  27.286  1.00  0.00     0.074 A 
ATOM     67  C   UNL A   1      43.711  28.022  26.756  1.00  0.00     0.031 C 
ATOM     68  C   UNL A   1      41.344  27.608  27.605  1.00  0.00     0.034 A 
BRANCH  55  69
ATOM     69  C   UNL A   1      44.387  22.965  26.197  1.00  0.00     0.023 A 
ATOM     70  C   UNL A   1      44.960  23.506  25.028  1.00  0.00     0.012 A 
ATOM     71  C   UNL A   1      44.009  21.611  26.215  1.00  0.00     0.148 A 
ATOM     72  C   UNL A   1      45.104  22.739  23.876  1.00  0.00     0.002 A 
ATOM     73  C   UNL A   1      44.168  20.843  25.060  1.00  0.00     0.091 A 
ATOM     74  F   UNL A   1      43.458  21.112  27.331  1.00  0.00    -0.205 F 
ATOM     75  C   UNL A   1      44.699  21.411  23.889  1.00  0.00     0.022 A 
BRANCH  73  76
ATOM     76  S   UNL A   1      43.689  19.114  24.945  1.00  0.00     0.127 S 
ATOM     77  O   UNL A   1      42.261  19.171  25.251  1.00  0.00    -0.237 OA
ATOM     78  O   UNL A   1      44.002  18.806  23.549  1.00  0.00    -0.237 OA
ATOM     79  O   UNL A   1      44.509  18.406  25.920  1.00  0.00    -0.744 OA
ENDBRANCH  73  76
ENDBRANCH  55  69
BRANCH  56  80
ATOM     80  C   UNL A   1      45.790  31.752  27.942  1.00  0.00     0.023 A 
ATOM     81  C   UNL A   1      47.038  31.165  28.267  1.00  0.00     0.012 A 
ATOM     82  C   UNL A   1      45.819  32.963  27.225  1.00  0.00     0.148 A 
ATOM     83  C   UNL A   1      48.247  31.685  27.798  1.00  0.00     0.002 A 
ATOM     84  C   UNL A   1      47.019  33.441  26.696  1.00  0.00     0.091 A 
ATOM     85  F   UNL A   1      44.685  33.653  27.061  1.00  0.00    -0.205 F 
ATOM     86  C   UNL A   1      48.234  32.803  26.978  1.00  0.00     0.022 A 
BRANCH  84  87
ATOM     87  S   UNL A   1      47.088  34.818  25.540  1.00  0.00     0.127 S 
ATOM     88  O   UNL A   1      46.878  35.967  26.419  1.00  0.00    -0.237 OA
ATOM     89  O   UNL A   1      48.446  34.683  25.013  1.00  0.00    -0.237 OA
ATOM     90  O   UNL A   1      46.026  34.577  24.573  1.00  0.00    -0.744 OA
ENDBRANCH  84  87
ENDBRANCH  56  80
BRANCH  68  91
ATOM     91  C   UNL A   1      40.166  28.289  28.240  1.00  0.00     0.023 A 
ATOM     92  C   UNL A   1      39.193  28.869  27.404  1.00  0.00     0.012 A 
ATOM     93  C   UNL A   1      39.961  28.297  29.636  1.00  0.00     0.148 A 
ATOM     94  C   UNL A   1      38.028  29.419  27.938  1.00  0.00     0.002 A 
ATOM     95  C   UNL A   1      38.775  28.800  30.158  1.00  0.00     0.091 A 
ATOM     96  F   UNL A   1      40.918  27.802  30.435  1.00  0.00    -0.205 F 
ATOM     97  C   UNL A   1      37.810  29.367  29.311  1.00  0.00     0.022 A 
BRANCH  95  98
ATOM     98  S   UNL A   1      38.354  28.704  31.904  1.00  0.00     0.127 S 
ATOM     99  O   UNL A   1      39.283  29.665  32.497  1.00  0.00    -0.237 OA
ATOM    100  O   UNL A   1      36.955  29.136  31.899  1.00  0.00    -0.237 OA
ATOM    101  O   UNL A   1      38.563  27.319  32.302  1.00  0.00    -0.744 OA
ENDBRANCH  95  98
ENDBRANCH  68  91
ENDBRANCH  42  43
ENDBRANCH  34  37
ENDBRANCH  32  33
ENDBRANCH   1  32
TORSDOF 16
ENDMDL
MODEL 2
REMARK VINA RESULT:      -9.4      6.748     10.502
REMARK SMILES O=C(Cn1c(=O)c2c3c(sc2n(Cc2ccc(Cl)cc2Cl)c1=O)CCCC3)NCCCNC(=O)c1ccc(-c2c3nc(c(-c4cccc(S(=O)(=O)[O-])c4F)c4ccc([nH]4)c(-c4cccc(S(=O)(=O)[O-])c4F)c4nc(c(-c5cccc(S(=O)(=O)[O-])c5F)c5ccc2[nH]5)C=C4)C=C3)cc1
REMARK SMILES IDX 30 1 29 2 28 3 1 4 2 5 3 7 4 8 5 9 22 10 6 11 7 12 12 13
REMARK SMILES IDX 23 14 8 15 11 16 9 17 27 18 10 19 24 20 26 21 25 22 13 23
REMARK SMILES IDX 14 24 15 25 20 26 16 27 19 28 21 29 17 30 18 31 31 32 32 33
REMARK SMILES IDX 33 34 34 36 35 37 36 38 97 39 37 40 96 41 38 42 39 43 40 44
REMARK SMILES IDX 90 45 41 46 95 47 89 48 91 49 42 50 94 51 88 52 87 53 43 55
REMARK SMILES IDX 75 56 55 57 74 58 56 59 59 60 73 61 92 62 57 63 58 64 72 66
REMARK SMILES IDX 93 67 60 68 44 69 45 70 53 71 46 72 48 73 54 74 47 75 49 76
REMARK SMILES IDX 50 77 51 78 52 79 76 80 77 81 85 82 78 83 80 84 86 85 79 86
REMARK SMILES IDX 81 87 82 88 83 89 84 90 61 91 62 92 70 93 63 94 65 95 71 96
REMARK SMILES IDX 64 97 66 98 67 99 68 100 69 101
REMARK H PARENT 28 6 32 35 91 54 59 65
REMARK Flexibility Score: inf
ROOT
ATOM      1  C   UNL A   1      47.234  22.960  37.098  1.00  0.00     0.042 C 
ENDROOT
BRANCH   1   2
ATOM      2  C   UNL A   1      46.594  22.699  38.463  1.00  0.00     0.117 C 
BRANCH   2   3
ATOM      3  N   UNL A   1      47.009  21.464  39.105  1.00  0.00    -0.354 N 
ATOM      4  O   UNL A   1      45.333  21.499  40.662  1.00  0.00    -0.273 OA
ATOM      5  C   UNL A   1      46.223  20.880  40.074  1.00  0.00     0.240 C 
ATOM      6  H   UNL A   1      47.859  21.041  38.844  1.00  0.00     0.163 HD
BRANCH   5   7
ATOM      7  C   UNL A   1      46.598  19.463  40.517  1.00  0.00     0.230 C 
BRANCH   7   8
ATOM      8  N   UNL A   1      45.685  18.708  41.382  1.00  0.00    -0.250 N 
ATOM      9  C   UNL A   1      44.866  17.772  40.722  1.00  0.00     0.265 A 
ATOM     10  C   UNL A   1      45.917  18.758  42.769  1.00  0.00     0.332 A 
ATOM     11  O   UNL A   1      44.735  17.712  39.513  1.00  0.00    -0.268 OA
ATOM     12  C   UNL A   1      44.238  16.805  41.601  1.00  0.00     0.079 A 
ATOM     13  N   UNL A   1      45.207  17.872  43.588  1.00  0.00    -0.280 N 
ATOM     14  O   UNL A   1      46.723  19.555  43.255  1.00  0.00    -0.247 OA
ATOM     15  C   UNL A   1      43.341  15.715  41.295  1.00  0.00    -0.019 A 
ATOM     16  C   UNL A   1      44.474  16.887  42.946  1.00  0.00     0.113 A 
ATOM     17  C   UNL A   1      42.959  15.060  42.454  1.00  0.00     0.011 A 
ATOM     18  C   UNL A   1      42.771  15.317  39.964  1.00  0.00     0.037 C 
ATOM     19  S   UNL A   1      43.837  15.578  43.794  1.00  0.00    -0.122 S 
ATOM     20  C   UNL A   1      41.936  13.980  42.572  1.00  0.00     0.047 C 
ATOM     21  C   UNL A   1      42.042  13.960  40.043  1.00  0.00     0.005 C 
ATOM     22  C   UNL A   1      41.128  13.874  41.275  1.00  0.00     0.006 C 
BRANCH  13  23
ATOM     23  C   UNL A   1      45.284  18.029  45.063  1.00  0.00     0.165 C 
BRANCH  23  24
ATOM     24  C   UNL A   1      46.166  16.980  45.733  1.00  0.00    -0.009 A 
ATOM     25  C   UNL A   1      47.417  16.691  45.154  1.00  0.00     0.008 A 
ATOM     26  C   UNL A   1      45.821  16.285  46.910  1.00  0.00     0.047 A 
ATOM     27  C   UNL A   1      48.310  15.801  45.765  1.00  0.00     0.021 A 
ATOM     28  C   UNL A   1      46.751  15.476  47.571  1.00  0.00     0.041 A 
ATOM     29  Cl  UNL A   1      44.210  16.228  47.540  1.00  0.00    -0.084 Cl
ATOM     30  C   UNL A   1      47.989  15.232  46.992  1.00  0.00     0.042 A 
ATOM     31  Cl  UNL A   1      49.094  14.169  47.770  1.00  0.00    -0.084 Cl
ENDBRANCH  23  24
ENDBRANCH  13  23
ENDBRANCH   7   8
ENDBRANCH   5   7
ENDBRANCH   2   3
ENDBRANCH   1   2
BRANCH   1  32
ATOM     32  C   UNL A   1      46.350  22.623  35.888  1.00  0.00     0.118 C 
BRANCH  32  33
ATOM     33  N   UNL A   1      44.954  22.933  36.157  1.00  0.00    -0.352 N 
ATOM     34  C   UNL A   1      44.135  23.938  35.721  1.00  0.00     0.251 C 
ATOM     35  H   UNL A   1      44.514  22.298  36.768  1.00  0.00     0.163 HD
ATOM     36  O   UNL A   1      43.095  24.134  36.353  1.00  0.00    -0.269 OA
BRANCH  34  37
ATOM     37  C   UNL A   1      44.436  24.782  34.541  1.00  0.00     0.039 A 
ATOM     38  C   UNL A   1      44.137  24.248  33.281  1.00  0.00     0.014 A 
ATOM     39  C   UNL A   1      45.134  25.990  34.628  1.00  0.00     0.014 A 
ATOM     40  C   UNL A   1      44.503  24.926  32.118  1.00  0.00     0.010 A 
ATOM     41  C   UNL A   1      45.499  26.672  33.458  1.00  0.00     0.010 A 
ATOM     42  C   UNL A   1      45.175  26.153  32.195  1.00  0.00    -0.014 A 
BRANCH  42  43
ATOM     43  C   UNL A   1      45.382  26.900  30.934  1.00  0.00     0.031 A 
ATOM     44  C   UNL A   1      45.468  26.058  29.698  1.00  0.00     0.074 A 
ATOM     45  C   UNL A   1      45.023  28.195  30.801  1.00  0.00     0.049 A 
ATOM     46  N   UNL A   1      44.422  25.621  29.061  1.00  0.00    -0.248 NA
ATOM     47  C   UNL A   1      46.721  25.447  29.256  1.00  0.00     0.031 C 
ATOM     48  C   UNL A   1      43.786  28.748  31.367  1.00  0.00     0.029 A 
ATOM     49  N   UNL A   1      45.480  29.181  29.952  1.00  0.00    -0.354 N 
ATOM     50  C   UNL A   1      44.850  24.650  28.171  1.00  0.00     0.074 A 
ATOM     51  C   UNL A   1      46.288  24.583  28.324  1.00  0.00     0.031 C 
ATOM     52  C   UNL A   1      43.493  29.898  30.723  1.00  0.00     0.029 A 
ATOM     53  C   UNL A   1      44.585  30.243  29.812  1.00  0.00     0.049 A 
ATOM     54  H   UNL A   1      46.350  29.141  29.492  1.00  0.00     0.167 HD
ATOM     55  C   UNL A   1      44.001  23.967  27.355  1.00  0.00     0.034 A 
ATOM     56  C   UNL A   1      44.456  31.001  28.685  1.00  0.00     0.034 A 
ATOM     57  C   UNL A   1      42.624  24.366  27.446  1.00  0.00     0.049 A 
ATOM     58  C   UNL A   1      43.725  30.039  27.783  1.00  0.00     0.074 A 
ATOM     59  C   UNL A   1      41.486  23.944  28.097  1.00  0.00     0.029 A 
ATOM     60  N   UNL A   1      42.242  25.519  26.800  1.00  0.00    -0.354 N 
ATOM     61  N   UNL A   1      42.451  29.749  27.851  1.00  0.00    -0.248 NA
ATOM     62  C   UNL A   1      44.533  29.065  27.049  1.00  0.00     0.031 C 
ATOM     63  C   UNL A   1      40.641  25.097  28.179  1.00  0.00     0.029 A 
ATOM     64  C   UNL A   1      41.334  26.161  27.603  1.00  0.00     0.049 A 
ATOM     65  H   UNL A   1      42.562  25.826  25.921  1.00  0.00     0.167 HD
ATOM     66  C   UNL A   1      42.358  28.410  27.460  1.00  0.00     0.074 A 
ATOM     67  C   UNL A   1      43.671  28.062  26.955  1.00  0.00     0.031 C 
ATOM     68  C   UNL A   1      41.287  27.604  27.729  1.00  0.00     0.034 A 
BRANCH  55  69
ATOM     69  C   UNL A   1      44.411  23.027  26.282  1.00  0.00     0.023 A 
ATOM     70  C   UNL A   1      44.992  23.605  25.135  1.00  0.00     0.012 A 
ATOM     71  C   UNL A   1      44.059  21.665  26.263  1.00  0.00     0.148 A 
ATOM     72  C   UNL A   1      45.170  22.867  23.969  1.00  0.00     0.002 A 
ATOM     73  C   UNL A   1      44.253  20.927  25.095  1.00  0.00     0.091 A 
ATOM     74  F   UNL A   1      43.500  21.131  27.359  1.00  0.00    -0.205 F 
ATOM     75  C   UNL A   1      44.792  21.531  23.946  1.00  0.00     0.022 A 
BRANCH  73  76
ATOM     76  S   UNL A   1      43.811  19.192  24.934  1.00  0.00     0.127 S 
ATOM     77  O   UNL A   1      42.380  19.211  25.232  1.00  0.00    -0.237 OA
ATOM     78  O   UNL A   1      44.138  18.926  23.532  1.00  0.00    -0.237 OA
ATOM     79  O   UNL A   1      44.639  18.477  25.895  1.00  0.00    -0.744 OA
ENDBRANCH  73  76
ENDBRANCH  55  69
BRANCH  56  80
ATOM     80  C   UNL A   1      45.684  31.777  28.293  1.00  0.00     0.023 A 
ATOM     81  C   UNL A   1      46.916  31.292  28.796  1.00  0.00     0.012 A 
ATOM     82  C   UNL A   1      45.732  32.916  27.469  1.00  0.00     0.148 A 
ATOM     83  C   UNL A   1      48.143  31.832  28.401  1.00  0.00     0.002 A 
ATOM     84  C   UNL A   1      46.958  33.409  27.018  1.00  0.00     0.091 A 
ATOM     85  F   UNL A   1      44.591  33.526  27.127  1.00  0.00    -0.205 F 
ATOM     86  C   UNL A   1      48.164  32.867  27.479  1.00  0.00     0.022 A 
BRANCH  84  87
ATOM     87  S   UNL A   1      47.084  34.677  25.746  1.00  0.00     0.127 S 
ATOM     88  O   UNL A   1      46.954  35.906  26.526  1.00  0.00    -0.237 OA
ATOM     89  O   UNL A   1      48.422  34.419  25.216  1.00  0.00    -0.237 OA
ATOM     90  O   UNL A   1      45.992  34.416  24.818  1.00  0.00    -0.744 OA
ENDBRANCH  84  87
ENDBRANCH  56  80
BRANCH  68  91
ATOM     91  C   UNL A   1      40.087  28.258  28.350  1.00  0.00     0.023 A 
ATOM     92  C   UNL A   1      39.108  28.811  27.503  1.00  0.00     0.012 A 
ATOM     93  C   UNL A   1      39.868  28.265  29.744  1.00  0.00     0.148 A 
ATOM     94  C   UNL A   1      37.925  29.333  28.023  1.00  0.00     0.002 A 
ATOM     95  C   UNL A   1      38.664  28.741  30.253  1.00  0.00     0.091 A 
ATOM     96  F   UNL A   1      40.828  27.796  30.554  1.00  0.00    -0.205 F 
ATOM     97  C   UNL A   1      37.694  29.281  29.394  1.00  0.00     0.022 A 
BRANCH  95  98
ATOM     98  S   UNL A   1      38.228  28.640  31.995  1.00  0.00     0.127 S 
ATOM     99  O   UNL A   1      36.851  29.134  31.996  1.00  0.00    -0.237 OA
ATOM    100  O   UNL A   1      38.358  27.205  32.253  1.00  0.00    -0.237 OA
ATOM    101  O   UNL A   1      39.183  29.477  32.707  1.00  0.00    -0.744 OA
ENDBRANCH  95  98
ENDBRANCH  68  91
ENDBRANCH  42  43
ENDBRANCH  34  37
ENDBRANCH  32  33
ENDBRANCH   1  32
TORSDOF 16
ENDMDL
MODEL 3
REMARK VINA RESULT:      -9.2      8.140     13.799
REMARK SMILES O=C(Cn1c(=O)c2c3c(sc2n(Cc2ccc(Cl)cc2Cl)c1=O)CCCC3)NCCCNC(=O)c1ccc(-c2c3nc(c(-c4cccc(S(=O)(=O)[O-])c4F)c4ccc([nH]4)c(-c4cccc(S(=O)(=O)[O-])c4F)c4nc(c(-c5cccc(S(=O)(=O)[O-])c5F)c5ccc2[nH]5)C=C4)C=C3)cc1
REMARK SMILES IDX 30 1 29 2 28 3 1 4 2 5 3 7 4 8 5 9 22 10 6 11 7 12 12 13
REMARK SMILES IDX 23 14 8 15 11 16 9 17 27 18 10 19 24 20 26 21 25 22 13 23
REMARK SMILES IDX 14 24 15 25 20 26 16 27 19 28 21 29 17 30 18 31 31 32 32 33
REMARK SMILES IDX 33 34 34 36 35 37 36 38 97 39 37 40 96 41 38 42 39 43 40 44
REMARK SMILES IDX 90 45 41 46 95 47 89 48 91 49 42 50 94 51 88 52 87 53 43 55
REMARK SMILES IDX 75 56 55 57 74 58 56 59 59 60 73 61 92 62 57 63 58 64 72 66
REMARK SMILES IDX 93 67 60 68 44 69 45 70 53 71 46 72 48 73 54 74 47 75 49 76
REMARK SMILES IDX 50 77 51 78 52 79 76 80 77 81 85 82 78 83 80 84 86 85 79 86
REMARK SMILES IDX 81 87 82 88 83 89 84 90 61 91 62 92 70 93 63 94 65 95 71 96
REMARK SMILES IDX 64 97 66 98 67 99 68 100 69 101
REMARK H PARENT 28 6 32 35 91 54 59 65
REMARK Flexibility Score: inf
ROOT
ATOM      1  C   UNL A   1      42.256  39.882  26.487  1.00  0.00     0.042 C 
ENDROOT
BRANCH   1   2
ATOM      2  C   UNL A   1      43.157  41.115  26.591  1.00  0.00     0.117 C 
BRANCH   2   3
ATOM      3  N   UNL A   1      44.281  41.127  25.673  1.00  0.00    -0.354 N 
ATOM      4  O   UNL A   1      43.839  43.226  24.876  1.00  0.00    -0.273 OA
ATOM      5  C   UNL A   1      44.619  42.278  24.995  1.00  0.00     0.240 C 
ATOM      6  H   UNL A   1      44.806  40.305  25.534  1.00  0.00     0.163 HD
BRANCH   5   7
ATOM      7  C   UNL A   1      45.956  42.281  24.248  1.00  0.00     0.230 C 
BRANCH   7   8
ATOM      8  N   UNL A   1      46.184  43.254  23.174  1.00  0.00    -0.250 N 
ATOM      9  C   UNL A   1      47.008  44.344  23.515  1.00  0.00     0.265 A 
ATOM     10  C   UNL A   1      45.833  42.871  21.867  1.00  0.00     0.332 A 
ATOM     11  O   UNL A   1      47.349  44.613  24.653  1.00  0.00    -0.268 OA
ATOM     12  C   UNL A   1      47.505  45.093  22.378  1.00  0.00     0.079 A 
ATOM     13  N   UNL A   1      46.249  43.686  20.807  1.00  0.00    -0.280 N 
ATOM     14  O   UNL A   1      45.180  41.847  21.654  1.00  0.00    -0.247 OA
ATOM     15  C   UNL A   1      48.358  46.258  22.332  1.00  0.00    -0.019 A 
ATOM     16  C   UNL A   1      47.136  44.703  21.119  1.00  0.00     0.113 A 
ATOM     17  C   UNL A   1      48.558  46.664  21.024  1.00  0.00     0.011 A 
ATOM     18  C   UNL A   1      48.927  47.047  23.477  1.00  0.00     0.037 C 
ATOM     19  S   UNL A   1      47.957  45.548  19.915  1.00  0.00    -0.122 S 
ATOM     20  C   UNL A   1      49.255  47.903  20.570  1.00  0.00     0.047 C 
ATOM     21  C   UNL A   1      49.970  48.076  22.992  1.00  0.00     0.005 C 
ATOM     22  C   UNL A   1      49.481  48.845  21.757  1.00  0.00     0.006 C 
BRANCH  13  23
ATOM     23  C   UNL A   1      45.734  43.416  19.440  1.00  0.00     0.165 C 
BRANCH  23  24
ATOM     24  C   UNL A   1      44.676  44.418  18.990  1.00  0.00    -0.009 A 
ATOM     25  C   UNL A   1      45.104  45.619  18.389  1.00  0.00     0.008 A 
ATOM     26  C   UNL A   1      43.286  44.219  19.118  1.00  0.00     0.047 A 
ATOM     27  C   UNL A   1      44.184  46.541  17.878  1.00  0.00     0.021 A 
ATOM     28  C   UNL A   1      42.372  45.091  18.518  1.00  0.00     0.041 A 
ATOM     29  Cl  UNL A   1      42.593  43.010  20.144  1.00  0.00    -0.084 Cl
ATOM     30  C   UNL A   1      42.824  46.252  17.907  1.00  0.00     0.042 A 
ATOM     31  Cl  UNL A   1      41.687  47.360  17.246  1.00  0.00    -0.084 Cl
ENDBRANCH  23  24
ENDBRANCH  13  23
ENDBRANCH   7   8
ENDBRANCH   5   7
ENDBRANCH   2   3
ENDBRANCH   1   2
BRANCH   1  32
ATOM     32  C   UNL A   1      42.658  38.703  27.385  1.00  0.00     0.118 C 
BRANCH  32  33
ATOM     33  N   UNL A   1      43.718  37.915  26.772  1.00  0.00    -0.352 N 
ATOM     34  C   UNL A   1      44.343  36.760  27.153  1.00  0.00     0.251 C 
ATOM     35  H   UNL A   1      44.048  38.284  25.920  1.00  0.00     0.163 HD
ATOM     36  O   UNL A   1      45.414  36.490  26.606  1.00  0.00    -0.269 OA
BRANCH  34  37
ATOM     37  C   UNL A   1      43.795  35.834  28.172  1.00  0.00     0.039 A 
ATOM     38  C   UNL A   1      44.692  35.326  29.121  1.00  0.00     0.014 A 
ATOM     39  C   UNL A   1      42.490  35.337  28.125  1.00  0.00     0.014 A 
ATOM     40  C   UNL A   1      44.283  34.355  30.035  1.00  0.00     0.010 A 
ATOM     41  C   UNL A   1      42.079  34.363  29.046  1.00  0.00     0.010 A 
ATOM     42  C   UNL A   1      42.967  33.874  30.016  1.00  0.00    -0.014 A 
BRANCH  42  43
ATOM     43  C   UNL A   1      42.553  32.974  31.116  1.00  0.00     0.031 A 
ATOM     44  C   UNL A   1      41.158  33.181  31.621  1.00  0.00     0.074 A 
ATOM     45  C   UNL A   1      43.131  31.769  31.313  1.00  0.00     0.049 A 
ATOM     46  N   UNL A   1      40.109  32.670  31.046  1.00  0.00    -0.248 NA
ATOM     47  C   UNL A   1      40.839  34.177  32.644  1.00  0.00     0.031 C 
ATOM     48  C   UNL A   1      43.512  30.871  30.215  1.00  0.00     0.029 A 
ATOM     49  N   UNL A   1      43.241  30.990  32.446  1.00  0.00    -0.354 N 
ATOM     50  C   UNL A   1      38.994  33.296  31.579  1.00  0.00     0.074 A 
ATOM     51  C   UNL A   1      39.499  34.218  32.573  1.00  0.00     0.031 C 
ATOM     52  C   UNL A   1      43.646  29.621  30.708  1.00  0.00     0.029 A 
ATOM     53  C   UNL A   1      43.512  29.650  32.164  1.00  0.00     0.049 A 
ATOM     54  H   UNL A   1      43.139  31.342  33.359  1.00  0.00     0.167 HD
ATOM     55  C   UNL A   1      37.724  33.011  31.179  1.00  0.00     0.034 A 
ATOM     56  C   UNL A   1      43.102  28.600  32.935  1.00  0.00     0.034 A 
ATOM     57  C   UNL A   1      37.620  31.969  30.196  1.00  0.00     0.049 A 
ATOM     58  C   UNL A   1      41.636  28.556  32.589  1.00  0.00     0.074 A 
ATOM     59  C   UNL A   1      37.501  31.875  28.826  1.00  0.00     0.029 A 
ATOM     60  N   UNL A   1      37.727  30.666  30.622  1.00  0.00    -0.354 N 
ATOM     61  N   UNL A   1      41.127  28.070  31.485  1.00  0.00    -0.248 NA
ATOM     62  C   UNL A   1      40.747  29.457  33.324  1.00  0.00     0.031 C 
ATOM     63  C   UNL A   1      38.006  30.579  28.486  1.00  0.00     0.029 A 
ATOM     64  C   UNL A   1      38.435  29.978  29.669  1.00  0.00     0.049 A 
ATOM     65  H   UNL A   1      37.362  30.295  31.457  1.00  0.00     0.167 HD
ATOM     66  C   UNL A   1      40.000  28.855  31.225  1.00  0.00     0.074 A 
ATOM     67  C   UNL A   1      39.811  29.669  32.409  1.00  0.00     0.031 C 
ATOM     68  C   UNL A   1      39.388  28.938  30.005  1.00  0.00     0.034 A 
BRANCH  55  69
ATOM     69  C   UNL A   1      36.487  33.535  31.811  1.00  0.00     0.023 A 
ATOM     70  C   UNL A   1      36.182  33.034  33.093  1.00  0.00     0.012 A 
ATOM     71  C   UNL A   1      35.531  34.306  31.128  1.00  0.00     0.148 A 
ATOM     72  C   UNL A   1      34.932  33.243  33.668  1.00  0.00     0.002 A 
ATOM     73  C   UNL A   1      34.283  34.522  31.716  1.00  0.00     0.091 A 
ATOM     74  F   UNL A   1      35.832  34.769  29.906  1.00  0.00    -0.205 F 
ATOM     75  C   UNL A   1      33.980  33.978  32.975  1.00  0.00     0.022 A 
BRANCH  73  76
ATOM     76  S   UNL A   1      32.966  35.458  30.928  1.00  0.00     0.127 S 
ATOM     77  O   UNL A   1      33.603  36.754  30.704  1.00  0.00    -0.237 OA
ATOM     78  O   UNL A   1      32.725  34.678  29.713  1.00  0.00    -0.237 OA
ATOM     79  O   UNL A   1      31.857  35.463  31.874  1.00  0.00    -0.744 OA
ENDBRANCH  73  76
ENDBRANCH  55  69
BRANCH  56  80
ATOM     80  C   UNL A   1      43.653  28.583  34.334  1.00  0.00     0.023 A 
ATOM     81  C   UNL A   1      44.077  29.831  34.855  1.00  0.00     0.012 A 
ATOM     82  C   UNL A   1      43.771  27.463  35.178  1.00  0.00     0.148 A 
ATOM     83  C   UNL A   1      44.479  29.982  36.185  1.00  0.00     0.002 A 
ATOM     84  C   UNL A   1      44.102  27.627  36.525  1.00  0.00     0.091 A 
ATOM     85  F   UNL A   1      43.567  26.240  34.676  1.00  0.00    -0.205 F 
ATOM     86  C   UNL A   1      44.453  28.884  37.031  1.00  0.00     0.022 A 
BRANCH  84  87
ATOM     87  S   UNL A   1      43.994  26.285  37.719  1.00  0.00     0.127 S 
ATOM     88  O   UNL A   1      42.644  25.777  37.489  1.00  0.00    -0.237 OA
ATOM     89  O   UNL A   1      45.071  25.407  37.263  1.00  0.00    -0.237 OA
ATOM     90  O   UNL A   1      44.209  26.898  39.023  1.00  0.00    -0.744 OA
ENDBRANCH  84  87
ENDBRANCH  56  80
BRANCH  68  91
ATOM     91  C   UNL A   1      39.881  28.007  28.935  1.00  0.00     0.023 A 
ATOM     92  C   UNL A   1      39.240  26.763  28.778  1.00  0.00     0.012 A 
ATOM     93  C   UNL A   1      40.905  28.368  28.034  1.00  0.00     0.148 A 
ATOM     94  C   UNL A   1      39.587  25.908  27.734  1.00  0.00     0.002 A 
ATOM     95  C   UNL A   1      41.211  27.533  26.964  1.00  0.00     0.091 A 
ATOM     96  F   UNL A   1      41.558  29.524  28.222  1.00  0.00    -0.205 F 
ATOM     97  C   UNL A   1      40.557  26.300  26.816  1.00  0.00     0.022 A 
BRANCH  95  98
ATOM     98  S   UNL A   1      42.381  27.982  25.675  1.00  0.00     0.127 S 
ATOM     99  O   UNL A   1      42.362  26.797  24.818  1.00  0.00    -0.237 OA
ATOM    100  O   UNL A   1      41.745  29.164  25.091  1.00  0.00    -0.237 OA
ATOM    101  O   UNL A   1      43.650  28.238  26.342  1.00  0.00    -0.744 OA
ENDBRANCH  95  98
ENDBRANCH  68  91
ENDBRANCH  42  43
ENDBRANCH  34  37
ENDBRANCH  32  33
ENDBRANCH   1  32
TORSDOF 16
ENDMDL
