MODEL 1
REMARK VINA RESULT:     -12.4      0.000      0.000
REMARK SMILES O=C(C[NH+]1CCN(c2ncc(C(F)(F)F)cc2Cl)CC1)NCCCNC(=O)c1ccc(-c2c3nc(c(-c4cccc(S(=O)(=O)[O-])c4F)c4ccc([nH]4)c(-c4cccc(S(=O)(=O)[O-])c4F)c4nc(c(-c5cccc(S(=O)(=O)[O-])c5F)c5ccc2[nH]5)C=C4)C=C3)cc1
REMARK SMILES IDX 23 1 22 2 21 3 1 4 2 5 3 7 4 8 5 9 20 10 6 12 19 13 7 14
REMARK SMILES IDX 8 15 9 16 17 17 10 18 16 19 18 20 11 21 12 22 13 23 14 24
REMARK SMILES IDX 15 25 24 26 25 27 26 28 27 30 28 31 29 32 90 33 30 34 89 35
REMARK SMILES IDX 31 36 32 37 33 38 83 39 34 40 88 41 82 42 84 43 35 44 87 45
REMARK SMILES IDX 81 46 80 47 36 49 68 50 48 51 67 52 49 53 52 54 66 55 85 56
REMARK SMILES IDX 50 57 51 58 65 60 86 61 53 62 37 63 38 64 46 65 39 66 41 67
REMARK SMILES IDX 47 68 40 69 42 70 43 71 44 72 45 73 69 74 70 75 78 76 71 77
REMARK SMILES IDX 73 78 79 79 72 80 74 81 75 82 76 83 77 84 54 85 55 86 63 87
REMARK SMILES IDX 56 88 58 89 64 90 57 91 59 92 60 93 61 94 62 95
REMARK H PARENT 21 6 4 11 25 29 84 48 52 59
REMARK Flexibility Score: inf
ROOT
ATOM      1  C   UNL A   1      31.543  30.078  25.361  1.00  0.00     0.042 C 
ENDROOT
BRANCH   1   2
ATOM      2  C   UNL A   1      32.358  28.999  24.665  1.00  0.00     0.118 C 
BRANCH   2   3
ATOM      3  N   UNL A   1      32.428  27.755  25.405  1.00  0.00    -0.351 N 
ATOM      4  O   UNL A   1      30.478  26.901  24.539  1.00  0.00    -0.269 OA
ATOM      5  C   UNL A   1      31.491  26.761  25.224  1.00  0.00     0.275 C 
ATOM      6  H   UNL A   1      33.158  27.618  26.050  1.00  0.00     0.163 HD
BRANCH   5   7
ATOM      7  C   UNL A   1      31.774  25.445  25.948  1.00  0.00     0.363 C 
BRANCH   7   8
ATOM      8  N   UNL A   1      32.994  24.741  25.493  1.00  0.00    -0.324 N 
ATOM      9  C   UNL A   1      33.359  23.696  26.500  1.00  0.00     0.284 C 
ATOM     10  C   UNL A   1      32.911  24.113  24.148  1.00  0.00     0.284 C 
ATOM     11  H   UNL A   1      33.710  25.464  25.409  1.00  0.00     0.348 HD
ATOM     12  C   UNL A   1      32.540  22.373  26.431  1.00  0.00     0.179 C 
ATOM     13  C   UNL A   1      32.175  22.759  24.025  1.00  0.00     0.179 C 
ATOM     14  N   UNL A   1      32.623  21.855  25.074  1.00  0.00    -0.344 N 
BRANCH  14  15
ATOM     15  C   UNL A   1      33.078  20.582  24.849  1.00  0.00     0.147 A 
ATOM     16  N   UNL A   1      32.129  19.627  24.676  1.00  0.00    -0.237 NA
ATOM     17  C   UNL A   1      34.439  20.231  24.837  1.00  0.00     0.084 A 
ATOM     18  C   UNL A   1      32.517  18.346  24.458  1.00  0.00     0.126 A 
ATOM     19  C   UNL A   1      34.812  18.899  24.636  1.00  0.00     0.039 A 
ATOM     20  Cl  UNL A   1      35.717  21.345  25.167  1.00  0.00    -0.080 Cl
ATOM     21  C   UNL A   1      33.835  17.926  24.436  1.00  0.00     0.075 A 
BRANCH  21  22
ATOM     22  C   UNL A   1      34.167  16.487  24.208  1.00  0.00     0.417 C 
ATOM     23  F   UNL A   1      34.400  16.202  22.897  1.00  0.00    -0.166 F 
ATOM     24  F   UNL A   1      35.285  16.097  24.879  1.00  0.00    -0.166 F 
ATOM     25  F   UNL A   1      33.181  15.633  24.602  1.00  0.00    -0.166 F 
ENDBRANCH  21  22
ENDBRANCH  14  15
ENDBRANCH   7   8
ENDBRANCH   5   7
ENDBRANCH   2   3
ENDBRANCH   1   2
BRANCH   1  26
ATOM     26  C   UNL A   1      32.096  30.522  26.710  1.00  0.00     0.118 C 
BRANCH  26  27
ATOM     27  N   UNL A   1      32.206  31.972  26.840  1.00  0.00    -0.352 N 
ATOM     28  C   UNL A   1      33.170  32.725  27.468  1.00  0.00     0.251 C 
ATOM     29  H   UNL A   1      31.483  32.487  26.415  1.00  0.00     0.163 HD
ATOM     30  O   UNL A   1      33.018  33.940  27.578  1.00  0.00    -0.269 OA
BRANCH  28  31
ATOM     31  C   UNL A   1      34.375  32.076  28.034  1.00  0.00     0.039 A 
ATOM     32  C   UNL A   1      35.528  32.842  28.235  1.00  0.00     0.014 A 
ATOM     33  C   UNL A   1      34.369  30.722  28.374  1.00  0.00     0.014 A 
ATOM     34  C   UNL A   1      36.648  32.268  28.845  1.00  0.00     0.010 A 
ATOM     35  C   UNL A   1      35.454  30.175  29.052  1.00  0.00     0.010 A 
ATOM     36  C   UNL A   1      36.605  30.939  29.295  1.00  0.00    -0.014 A 
BRANCH  36  37
ATOM     37  C   UNL A   1      37.740  30.318  30.029  1.00  0.00     0.031 A 
ATOM     38  C   UNL A   1      38.054  30.754  31.436  1.00  0.00     0.074 A 
ATOM     39  C   UNL A   1      38.558  29.455  29.394  1.00  0.00     0.049 A 
ATOM     40  N   UNL A   1      39.078  30.445  32.188  1.00  0.00    -0.248 NA
ATOM     41  C   UNL A   1      37.107  31.689  32.067  1.00  0.00     0.031 C 
ATOM     42  C   UNL A   1      38.402  29.000  28.011  1.00  0.00     0.029 A 
ATOM     43  N   UNL A   1      39.709  28.836  29.818  1.00  0.00    -0.354 N 
ATOM     44  C   UNL A   1      38.926  31.179  33.358  1.00  0.00     0.074 A 
ATOM     45  C   UNL A   1      37.724  31.971  33.206  1.00  0.00     0.031 C 
ATOM     46  C   UNL A   1      39.421  28.184  27.698  1.00  0.00     0.029 A 
ATOM     47  C   UNL A   1      40.323  28.086  28.841  1.00  0.00     0.049 A 
ATOM     48  H   UNL A   1      40.061  28.921  30.733  1.00  0.00     0.167 HD
ATOM     49  C   UNL A   1      39.701  31.179  34.469  1.00  0.00     0.034 A 
ATOM     50  C   UNL A   1      41.491  27.412  28.855  1.00  0.00     0.034 A 
ATOM     51  C   UNL A   1      40.866  30.354  34.636  1.00  0.00     0.049 A 
ATOM     52  C   UNL A   1      42.314  27.399  30.115  1.00  0.00     0.074 A 
ATOM     53  C   UNL A   1      41.669  30.219  35.755  1.00  0.00     0.029 A 
ATOM     54  N   UNL A   1      41.400  29.529  33.659  1.00  0.00    -0.354 N 
ATOM     55  N   UNL A   1      42.079  27.989  31.261  1.00  0.00    -0.248 NA
ATOM     56  C   UNL A   1      43.548  26.599  30.096  1.00  0.00     0.031 C 
ATOM     57  C   UNL A   1      42.701  29.327  35.446  1.00  0.00     0.029 A 
ATOM     58  C   UNL A   1      42.524  28.884  34.146  1.00  0.00     0.049 A 
ATOM     59  H   UNL A   1      41.034  29.418  32.752  1.00  0.00     0.167 HD
ATOM     60  C   UNL A   1      43.107  27.597  32.111  1.00  0.00     0.074 A 
ATOM     61  C   UNL A   1      43.960  26.708  31.352  1.00  0.00     0.031 C 
ATOM     62  C   UNL A   1      43.329  27.950  33.402  1.00  0.00     0.034 A 
BRANCH  49  63
ATOM     63  C   UNL A   1      39.284  32.064  35.614  1.00  0.00     0.023 A 
ATOM     64  C   UNL A   1      38.467  31.542  36.638  1.00  0.00     0.012 A 
ATOM     65  C   UNL A   1      39.747  33.392  35.710  1.00  0.00     0.148 A 
ATOM     66  C   UNL A   1      38.085  32.336  37.718  1.00  0.00     0.002 A 
ATOM     67  C   UNL A   1      39.400  34.163  36.814  1.00  0.00     0.091 A 
ATOM     68  F   UNL A   1      40.506  33.877  34.718  1.00  0.00    -0.205 F 
ATOM     69  C   UNL A   1      38.560  33.641  37.811  1.00  0.00     0.022 A 
BRANCH  67  70
ATOM     70  S   UNL A   1      40.027  35.827  37.068  1.00  0.00     0.127 S 
ATOM     71  O   UNL A   1      39.334  36.218  38.295  1.00  0.00    -0.237 OA
ATOM     72  O   UNL A   1      41.463  35.596  37.225  1.00  0.00    -0.237 OA
ATOM     73  O   UNL A   1      39.661  36.581  35.877  1.00  0.00    -0.744 OA
ENDBRANCH  67  70
ENDBRANCH  49  63
BRANCH  50  74
ATOM     74  C   UNL A   1      41.923  26.642  27.654  1.00  0.00     0.023 A 
ATOM     75  C   UNL A   1      42.577  27.315  26.604  1.00  0.00     0.012 A 
ATOM     76  C   UNL A   1      41.710  25.254  27.553  1.00  0.00     0.148 A 
ATOM     77  C   UNL A   1      42.980  26.626  25.459  1.00  0.00     0.002 A 
ATOM     78  C   UNL A   1      42.164  24.564  26.434  1.00  0.00     0.091 A 
ATOM     79  F   UNL A   1      41.077  24.634  28.559  1.00  0.00    -0.205 F 
ATOM     80  C   UNL A   1      42.783  25.250  25.378  1.00  0.00     0.022 A 
BRANCH  78  81
ATOM     81  S   UNL A   1      42.068  22.775  26.300  1.00  0.00     0.127 S 
ATOM     82  O   UNL A   1      40.625  22.550  26.336  1.00  0.00    -0.237 OA
ATOM     83  O   UNL A   1      42.697  22.536  25.001  1.00  0.00    -0.237 OA
ATOM     84  O   UNL A   1      42.818  22.255  27.435  1.00  0.00    -0.744 OA
ENDBRANCH  78  81
ENDBRANCH  50  74
BRANCH  62  85
ATOM     85  C   UNL A   1      44.509  27.335  34.108  1.00  0.00     0.023 A 
ATOM     86  C   UNL A   1      45.741  28.016  34.147  1.00  0.00     0.012 A 
ATOM     87  C   UNL A   1      44.365  26.121  34.808  1.00  0.00     0.148 A 
ATOM     88  C   UNL A   1      46.821  27.482  34.850  1.00  0.00     0.002 A 
ATOM     89  C   UNL A   1      45.430  25.621  35.547  1.00  0.00     0.091 A 
ATOM     90  F   UNL A   1      43.188  25.479  34.742  1.00  0.00    -0.205 F 
ATOM     91  C   UNL A   1      46.663  26.294  35.559  1.00  0.00     0.022 A 
BRANCH  89  92
ATOM     92  S   UNL A   1      45.286  24.152  36.572  1.00  0.00     0.127 S 
ATOM     93  O   UNL A   1      46.679  23.720  36.671  1.00  0.00    -0.237 OA
ATOM     94  O   UNL A   1      44.725  24.693  37.811  1.00  0.00    -0.237 OA
ATOM     95  O   UNL A   1      44.401  23.246  35.854  1.00  0.00    -0.744 OA
ENDBRANCH  89  92
ENDBRANCH  62  85
ENDBRANCH  36  37
ENDBRANCH  28  31
ENDBRANCH  26  27
ENDBRANCH   1  26
TORSDOF 16
ENDMDL
MODEL 2
REMARK VINA RESULT:     -12.3      0.728      7.751
REMARK SMILES O=C(C[NH+]1CCN(c2ncc(C(F)(F)F)cc2Cl)CC1)NCCCNC(=O)c1ccc(-c2c3nc(c(-c4cccc(S(=O)(=O)[O-])c4F)c4ccc([nH]4)c(-c4cccc(S(=O)(=O)[O-])c4F)c4nc(c(-c5cccc(S(=O)(=O)[O-])c5F)c5ccc2[nH]5)C=C4)C=C3)cc1
REMARK SMILES IDX 23 1 22 2 21 3 1 4 2 5 3 7 4 8 5 9 20 10 6 12 19 13 7 14
REMARK SMILES IDX 8 15 9 16 17 17 10 18 16 19 18 20 11 21 12 22 13 23 14 24
REMARK SMILES IDX 15 25 24 26 25 27 26 28 27 30 28 31 29 32 90 33 30 34 89 35
REMARK SMILES IDX 31 36 32 37 33 38 83 39 34 40 88 41 82 42 84 43 35 44 87 45
REMARK SMILES IDX 81 46 80 47 36 49 68 50 48 51 67 52 49 53 52 54 66 55 85 56
REMARK SMILES IDX 50 57 51 58 65 60 86 61 53 62 37 63 38 64 46 65 39 66 41 67
REMARK SMILES IDX 47 68 40 69 42 70 43 71 44 72 45 73 69 74 70 75 78 76 71 77
REMARK SMILES IDX 73 78 79 79 72 80 74 81 75 82 76 83 77 84 54 85 55 86 63 87
REMARK SMILES IDX 56 88 58 89 64 90 57 91 59 92 60 93 61 94 62 95
REMARK H PARENT 21 6 4 11 25 29 84 48 52 59
REMARK Flexibility Score: inf
ROOT
ATOM      1  C   UNL A   1      32.291  29.951  25.226  1.00  0.00     0.042 C 
ENDROOT
BRANCH   1   2
ATOM      2  C   UNL A   1      31.556  28.655  24.924  1.00  0.00     0.118 C 
BRANCH   2   3
ATOM      3  N   UNL A   1      32.289  27.468  25.315  1.00  0.00    -0.351 N 
ATOM      4  O   UNL A   1      30.790  26.836  26.938  1.00  0.00    -0.269 OA
ATOM      5  C   UNL A   1      31.796  26.603  26.269  1.00  0.00     0.275 C 
ATOM      6  H   UNL A   1      33.157  27.275  24.892  1.00  0.00     0.163 HD
BRANCH   5   7
ATOM      7  C   UNL A   1      32.592  25.313  26.468  1.00  0.00     0.363 C 
BRANCH   7   8
ATOM      8  N   UNL A   1      31.819  24.071  26.243  1.00  0.00    -0.324 N 
ATOM      9  C   UNL A   1      32.117  23.553  24.871  1.00  0.00     0.284 C 
ATOM     10  C   UNL A   1      32.044  22.985  27.233  1.00  0.00     0.284 C 
ATOM     11  H   UNL A   1      30.840  24.336  26.352  1.00  0.00     0.348 HD
ATOM     12  C   UNL A   1      33.458  22.777  24.716  1.00  0.00     0.179 C 
ATOM     13  C   UNL A   1      33.322  22.127  27.089  1.00  0.00     0.179 C 
ATOM     14  N   UNL A   1      33.485  21.709  25.704  1.00  0.00    -0.344 N 
BRANCH  14  15
ATOM     15  C   UNL A   1      33.677  20.411  25.311  1.00  0.00     0.147 A 
ATOM     16  N   UNL A   1      32.582  19.608  25.335  1.00  0.00    -0.237 NA
ATOM     17  C   UNL A   1      34.927  19.884  24.942  1.00  0.00     0.084 A 
ATOM     18  C   UNL A   1      32.710  18.310  24.965  1.00  0.00     0.126 A 
ATOM     19  C   UNL A   1      35.036  18.536  24.589  1.00  0.00     0.039 A 
ATOM     20  Cl  UNL A   1      36.399  20.786  24.995  1.00  0.00    -0.080 Cl
ATOM     21  C   UNL A   1      33.907  17.722  24.593  1.00  0.00     0.075 A 
BRANCH  21  22
ATOM     22  C   UNL A   1      33.955  16.275  24.220  1.00  0.00     0.417 C 
ATOM     23  F   UNL A   1      34.151  16.083  22.887  1.00  0.00    -0.166 F 
ATOM     24  F   UNL A   1      34.962  15.609  24.846  1.00  0.00    -0.166 F 
ATOM     25  F   UNL A   1      32.813  15.597  24.527  1.00  0.00    -0.166 F 
ENDBRANCH  21  22
ENDBRANCH  14  15
ENDBRANCH   7   8
ENDBRANCH   5   7
ENDBRANCH   2   3
ENDBRANCH   1   2
BRANCH   1  26
ATOM     26  C   UNL A   1      32.220  30.399  26.681  1.00  0.00     0.118 C 
BRANCH  26  27
ATOM     27  N   UNL A   1      32.113  31.847  26.836  1.00  0.00    -0.352 N 
ATOM     28  C   UNL A   1      32.958  32.725  27.472  1.00  0.00     0.251 C 
ATOM     29  H   UNL A   1      31.318  32.254  26.424  1.00  0.00     0.163 HD
ATOM     30  O   UNL A   1      32.627  33.902  27.604  1.00  0.00    -0.269 OA
BRANCH  28  31
ATOM     31  C   UNL A   1      34.250  32.255  28.022  1.00  0.00     0.039 A 
ATOM     32  C   UNL A   1      35.335  33.137  28.055  1.00  0.00     0.014 A 
ATOM     33  C   UNL A   1      34.393  30.954  28.509  1.00  0.00     0.014 A 
ATOM     34  C   UNL A   1      36.539  32.738  28.646  1.00  0.00     0.010 A 
ATOM     35  C   UNL A   1      35.563  30.587  29.166  1.00  0.00     0.010 A 
ATOM     36  C   UNL A   1      36.649  31.473  29.243  1.00  0.00    -0.014 A 
BRANCH  36  37
ATOM     37  C   UNL A   1      37.879  31.043  29.959  1.00  0.00     0.031 A 
ATOM     38  C   UNL A   1      38.818  30.057  29.316  1.00  0.00     0.074 A 
ATOM     39  C   UNL A   1      38.091  31.443  31.229  1.00  0.00     0.049 A 
ATOM     40  N   UNL A   1      39.857  29.450  29.827  1.00  0.00    -0.248 NA
ATOM     41  C   UNL A   1      38.528  29.679  27.922  1.00  0.00     0.031 C 
ATOM     42  C   UNL A   1      37.224  32.345  31.990  1.00  0.00     0.029 A 
ATOM     43  N   UNL A   1      39.082  31.108  32.120  1.00  0.00    -0.354 N 
ATOM     44  C   UNL A   1      40.317  28.587  28.841  1.00  0.00     0.074 A 
ATOM     45  C   UNL A   1      39.426  28.728  27.708  1.00  0.00     0.031 C 
ATOM     46  C   UNL A   1      37.715  32.485  33.232  1.00  0.00     0.029 A 
ATOM     47  C   UNL A   1      38.908  31.655  33.370  1.00  0.00     0.049 A 
ATOM     48  H   UNL A   1      39.845  30.531  31.886  1.00  0.00     0.167 HD
ATOM     49  C   UNL A   1      41.395  27.767  28.863  1.00  0.00     0.034 A 
ATOM     50  C   UNL A   1      39.615  31.493  34.507  1.00  0.00     0.034 A 
ATOM     51  C   UNL A   1      42.305  27.665  29.970  1.00  0.00     0.049 A 
ATOM     52  C   UNL A   1      40.830  30.604  34.493  1.00  0.00     0.074 A 
ATOM     53  C   UNL A   1      43.473  26.929  30.057  1.00  0.00     0.029 A 
ATOM     54  N   UNL A   1      42.151  28.315  31.184  1.00  0.00    -0.354 N 
ATOM     55  N   UNL A   1      41.329  29.903  33.505  1.00  0.00    -0.248 NA
ATOM     56  C   UNL A   1      41.600  30.509  35.742  1.00  0.00     0.031 C 
ATOM     57  C   UNL A   1      44.014  27.116  31.333  1.00  0.00     0.029 A 
ATOM     58  C   UNL A   1      43.199  27.993  32.030  1.00  0.00     0.049 A 
ATOM     59  H   UNL A   1      41.406  28.916  31.413  1.00  0.00     0.167 HD
ATOM     60  C   UNL A   1      42.492  29.322  33.997  1.00  0.00     0.074 A 
ATOM     61  C   UNL A   1      42.631  29.764  35.369  1.00  0.00     0.031 C 
ATOM     62  C   UNL A   1      43.362  28.490  33.372  1.00  0.00     0.034 A 
BRANCH  49  63
ATOM     63  C   UNL A   1      41.678  26.948  27.630  1.00  0.00     0.023 A 
ATOM     64  C   UNL A   1      42.208  27.575  26.483  1.00  0.00     0.012 A 
ATOM     65  C   UNL A   1      41.477  25.554  27.624  1.00  0.00     0.148 A 
ATOM     66  C   UNL A   1      42.497  26.835  25.338  1.00  0.00     0.002 A 
ATOM     67  C   UNL A   1      41.813  24.815  26.494  1.00  0.00     0.091 A 
ATOM     68  F   UNL A   1      40.955  24.978  28.716  1.00  0.00    -0.205 F 
ATOM     69  C   UNL A   1      42.310  25.456  25.348  1.00  0.00     0.022 A 
BRANCH  67  70
ATOM     70  S   UNL A   1      41.686  23.025  26.434  1.00  0.00     0.127 S 
ATOM     71  O   UNL A   1      42.344  22.725  25.163  1.00  0.00    -0.237 OA
ATOM     72  O   UNL A   1      42.440  22.622  27.622  1.00  0.00    -0.237 OA
ATOM     73  O   UNL A   1      40.263  22.720  26.488  1.00  0.00    -0.744 OA
ENDBRANCH  67  70
ENDBRANCH  49  63
BRANCH  50  74
ATOM     74  C   UNL A   1      39.227  32.235  35.740  1.00  0.00     0.023 A 
ATOM     75  C   UNL A   1      38.275  31.672  36.612  1.00  0.00     0.012 A 
ATOM     76  C   UNL A   1      39.805  33.477  36.064  1.00  0.00     0.148 A 
ATOM     77  C   UNL A   1      37.878  32.348  37.766  1.00  0.00     0.002 A 
ATOM     78  C   UNL A   1      39.446  34.119  37.244  1.00  0.00     0.091 A 
ATOM     79  F   UNL A   1      40.702  34.001  35.217  1.00  0.00    -0.205 F 
ATOM     80  C   UNL A   1      38.471  33.566  38.087  1.00  0.00     0.022 A 
BRANCH  78  81
ATOM     81  S   UNL A   1      40.248  35.627  37.803  1.00  0.00     0.127 S 
ATOM     82  O   UNL A   1      39.778  36.598  36.818  1.00  0.00    -0.237 OA
ATOM     83  O   UNL A   1      39.687  35.787  39.144  1.00  0.00    -0.237 OA
ATOM     84  O   UNL A   1      41.677  35.344  37.781  1.00  0.00    -0.744 OA
ENDBRANCH  78  81
ENDBRANCH  50  74
BRANCH  62  85
ATOM     85  C   UNL A   1      44.580  28.040  34.136  1.00  0.00     0.023 A 
ATOM     86  C   UNL A   1      45.745  28.830  34.134  1.00  0.00     0.012 A 
ATOM     87  C   UNL A   1      44.533  26.876  34.927  1.00  0.00     0.148 A 
ATOM     88  C   UNL A   1      46.857  28.452  34.886  1.00  0.00     0.002 A 
ATOM     89  C   UNL A   1      45.626  26.532  35.713  1.00  0.00     0.091 A 
ATOM     90  F   UNL A   1      43.420  26.127  34.899  1.00  0.00    -0.205 F 
ATOM     91  C   UNL A   1      46.793  27.313  35.685  1.00  0.00     0.022 A 
BRANCH  89  92
ATOM     92  S   UNL A   1      45.596  25.139  36.848  1.00  0.00     0.127 S 
ATOM     93  O   UNL A   1      46.920  25.228  37.463  1.00  0.00    -0.237 OA
ATOM     94  O   UNL A   1      44.487  25.487  37.736  1.00  0.00    -0.237 OA
ATOM     95  O   UNL A   1      45.366  23.958  36.029  1.00  0.00    -0.744 OA
ENDBRANCH  89  92
ENDBRANCH  62  85
ENDBRANCH  36  37
ENDBRANCH  28  31
ENDBRANCH  26  27
ENDBRANCH   1  26
TORSDOF 16
ENDMDL
MODEL 3
REMARK VINA RESULT:     -12.3      2.374      7.958
REMARK SMILES O=C(C[NH+]1CCN(c2ncc(C(F)(F)F)cc2Cl)CC1)NCCCNC(=O)c1ccc(-c2c3nc(c(-c4cccc(S(=O)(=O)[O-])c4F)c4ccc([nH]4)c(-c4cccc(S(=O)(=O)[O-])c4F)c4nc(c(-c5cccc(S(=O)(=O)[O-])c5F)c5ccc2[nH]5)C=C4)C=C3)cc1
REMARK SMILES IDX 23 1 22 2 21 3 1 4 2 5 3 7 4 8 5 9 20 10 6 12 19 13 7 14
REMARK SMILES IDX 8 15 9 16 17 17 10 18 16 19 18 20 11 21 12 22 13 23 14 24
REMARK SMILES IDX 15 25 24 26 25 27 26 28 27 30 28 31 29 32 90 33 30 34 89 35
REMARK SMILES IDX 31 36 32 37 33 38 83 39 34 40 88 41 82 42 84 43 35 44 87 45
REMARK SMILES IDX 81 46 80 47 36 49 68 50 48 51 67 52 49 53 52 54 66 55 85 56
REMARK SMILES IDX 50 57 51 58 65 60 86 61 53 62 37 63 38 64 46 65 39 66 41 67
REMARK SMILES IDX 47 68 40 69 42 70 43 71 44 72 45 73 69 74 70 75 78 76 71 77
REMARK SMILES IDX 73 78 79 79 72 80 74 81 75 82 76 83 77 84 54 85 55 86 63 87
REMARK SMILES IDX 56 88 58 89 64 90 57 91 59 92 60 93 61 94 62 95
REMARK H PARENT 21 6 4 11 25 29 84 48 52 59
REMARK Flexibility Score: inf
ROOT
ATOM      1  C   UNL A   1      31.763  31.696  26.505  1.00  0.00     0.042 C 
ENDROOT
BRANCH   1   2
ATOM      2  C   UNL A   1      31.955  30.194  26.362  1.00  0.00     0.118 C 
BRANCH   2   3
ATOM      3  N   UNL A   1      31.715  29.704  25.019  1.00  0.00    -0.351 N 
ATOM      4  O   UNL A   1      33.831  28.853  24.739  1.00  0.00    -0.269 OA
ATOM      5  C   UNL A   1      32.680  28.999  24.331  1.00  0.00     0.275 C 
ATOM      6  H   UNL A   1      30.846  29.877  24.590  1.00  0.00     0.163 HD
BRANCH   5   7
ATOM      7  C   UNL A   1      32.239  28.406  22.993  1.00  0.00     0.363 C 
BRANCH   7   8
ATOM      8  N   UNL A   1      31.444  27.162  23.102  1.00  0.00    -0.324 N 
ATOM      9  C   UNL A   1      31.939  26.177  22.091  1.00  0.00     0.284 C 
ATOM     10  C   UNL A   1      31.435  26.521  24.444  1.00  0.00     0.284 C 
ATOM     11  H   UNL A   1      30.477  27.440  22.930  1.00  0.00     0.348 HD
ATOM     12  C   UNL A   1      33.240  25.409  22.472  1.00  0.00     0.179 C 
ATOM     13  C   UNL A   1      32.667  25.681  24.853  1.00  0.00     0.179 C 
ATOM     14  N   UNL A   1      33.037  24.783  23.769  1.00  0.00    -0.344 N 
BRANCH  14  15
ATOM     15  C   UNL A   1      33.217  23.432  23.918  1.00  0.00     0.147 A 
ATOM     16  N   UNL A   1      32.165  22.646  23.575  1.00  0.00    -0.237 NA
ATOM     17  C   UNL A   1      34.388  22.854  24.437  1.00  0.00     0.084 A 
ATOM     18  C   UNL A   1      32.279  21.301  23.708  1.00  0.00     0.126 A 
ATOM     19  C   UNL A   1      34.470  21.466  24.587  1.00  0.00     0.039 A 
ATOM     20  Cl  UNL A   1      35.733  23.770  25.015  1.00  0.00    -0.080 Cl
ATOM     21  C   UNL A   1      33.397  20.661  24.213  1.00  0.00     0.075 A 
BRANCH  21  22
ATOM     22  C   UNL A   1      33.424  19.173  24.342  1.00  0.00     0.417 C 
ATOM     23  F   UNL A   1      32.962  18.541  23.228  1.00  0.00    -0.166 F 
ATOM     24  F   UNL A   1      34.679  18.690  24.552  1.00  0.00    -0.166 F 
ATOM     25  F   UNL A   1      32.668  18.703  25.374  1.00  0.00    -0.166 F 
ENDBRANCH  21  22
ENDBRANCH  14  15
ENDBRANCH   7   8
ENDBRANCH   5   7
ENDBRANCH   2   3
ENDBRANCH   1   2
BRANCH   1  26
ATOM     26  C   UNL A   1      32.841  32.401  27.320  1.00  0.00     0.118 C 
BRANCH  26  27
ATOM     27  N   UNL A   1      32.511  33.786  27.641  1.00  0.00    -0.352 N 
ATOM     28  C   UNL A   1      33.068  34.625  28.575  1.00  0.00     0.251 C 
ATOM     29  H   UNL A   1      31.780  34.176  27.108  1.00  0.00     0.163 HD
ATOM     30  O   UNL A   1      32.563  35.727  28.783  1.00  0.00    -0.269 OA
BRANCH  28  31
ATOM     31  C   UNL A   1      34.256  34.200  29.350  1.00  0.00     0.039 A 
ATOM     32  C   UNL A   1      34.073  33.590  30.595  1.00  0.00     0.014 A 
ATOM     33  C   UNL A   1      35.546  34.394  28.851  1.00  0.00     0.014 A 
ATOM     34  C   UNL A   1      35.178  33.106  31.303  1.00  0.00     0.010 A 
ATOM     35  C   UNL A   1      36.636  33.843  29.518  1.00  0.00     0.010 A 
ATOM     36  C   UNL A   1      36.465  33.193  30.751  1.00  0.00    -0.014 A 
BRANCH  36  37
ATOM     37  C   UNL A   1      37.655  32.613  31.428  1.00  0.00     0.031 A 
ATOM     38  C   UNL A   1      38.394  31.463  30.795  1.00  0.00     0.074 A 
ATOM     39  C   UNL A   1      37.998  33.034  32.662  1.00  0.00     0.049 A 
ATOM     40  N   UNL A   1      39.357  30.728  31.287  1.00  0.00    -0.248 NA
ATOM     41  C   UNL A   1      37.970  31.069  29.441  1.00  0.00     0.031 C 
ATOM     42  C   UNL A   1      37.324  34.095  33.414  1.00  0.00     0.029 A 
ATOM     43  N   UNL A   1      38.977  32.593  33.519  1.00  0.00    -0.354 N 
ATOM     44  C   UNL A   1      39.622  29.758  30.328  1.00  0.00     0.074 A 
ATOM     45  C   UNL A   1      38.699  29.981  29.235  1.00  0.00     0.031 C 
ATOM     46  C   UNL A   1      37.902  34.216  34.619  1.00  0.00     0.029 A 
ATOM     47  C   UNL A   1      38.961  33.219  34.744  1.00  0.00     0.049 A 
ATOM     48  H   UNL A   1      39.628  31.894  33.280  1.00  0.00     0.167 HD
ATOM     49  C   UNL A   1      40.562  28.783  30.342  1.00  0.00     0.034 A 
ATOM     50  C   UNL A   1      39.699  33.003  35.852  1.00  0.00     0.034 A 
ATOM     51  C   UNL A   1      41.509  28.594  31.407  1.00  0.00     0.049 A 
ATOM     52  C   UNL A   1      40.761  31.937  35.827  1.00  0.00     0.074 A 
ATOM     53  C   UNL A   1      42.555  27.691  31.477  1.00  0.00     0.029 A 
ATOM     54  N   UNL A   1      41.526  29.317  32.589  1.00  0.00    -0.354 N 
ATOM     55  N   UNL A   1      41.090  31.122  34.855  1.00  0.00    -0.248 NA
ATOM     56  C   UNL A   1      41.579  31.783  37.040  1.00  0.00     0.031 C 
ATOM     57  C   UNL A   1      43.190  27.852  32.712  1.00  0.00     0.029 A 
ATOM     58  C   UNL A   1      42.560  28.877  33.398  1.00  0.00     0.049 A 
ATOM     59  H   UNL A   1      40.895  30.036  32.821  1.00  0.00     0.167 HD
ATOM     60  C   UNL A   1      42.178  30.391  35.321  1.00  0.00     0.074 A 
ATOM     61  C   UNL A   1      42.461  30.870  36.657  1.00  0.00     0.031 C 
ATOM     62  C   UNL A   1      42.873  29.406  34.701  1.00  0.00     0.034 A 
BRANCH  49  63
ATOM     63  C   UNL A   1      40.646  27.872  29.145  1.00  0.00     0.023 A 
ATOM     64  C   UNL A   1      39.797  26.749  29.062  1.00  0.00     0.012 A 
ATOM     65  C   UNL A   1      41.521  28.157  28.077  1.00  0.00     0.148 A 
ATOM     66  C   UNL A   1      39.842  25.904  27.954  1.00  0.00     0.002 A 
ATOM     67  C   UNL A   1      41.527  27.335  26.955  1.00  0.00     0.091 A 
ATOM     68  F   UNL A   1      42.335  29.217  28.182  1.00  0.00    -0.205 F 
ATOM     69  C   UNL A   1      40.698  26.203  26.899  1.00  0.00     0.022 A 
BRANCH  67  70
ATOM     70  S   UNL A   1      42.533  27.679  25.508  1.00  0.00     0.127 S 
ATOM     71  O   UNL A   1      42.266  26.505  24.678  1.00  0.00    -0.237 OA
ATOM     72  O   UNL A   1      41.945  28.924  25.012  1.00  0.00    -0.237 OA
ATOM     73  O   UNL A   1      43.901  27.805  25.990  1.00  0.00    -0.744 OA
ENDBRANCH  67  70
ENDBRANCH  49  63
BRANCH  50  74
ATOM     74  C   UNL A   1      39.500  33.854  37.060  1.00  0.00     0.023 A 
ATOM     75  C   UNL A   1      39.954  35.187  37.045  1.00  0.00     0.012 A 
ATOM     76  C   UNL A   1      38.852  33.361  38.208  1.00  0.00     0.148 A 
ATOM     77  C   UNL A   1      39.797  36.005  38.164  1.00  0.00     0.002 A 
ATOM     78  C   UNL A   1      38.650  34.198  39.300  1.00  0.00     0.091 A 
ATOM     79  F   UNL A   1      38.436  32.087  38.206  1.00  0.00    -0.205 F 
ATOM     80  C   UNL A   1      39.137  35.514  39.288  1.00  0.00     0.022 A 
BRANCH  78  81
ATOM     81  S   UNL A   1      37.699  33.693  40.738  1.00  0.00     0.127 S 
ATOM     82  O   UNL A   1      38.591  32.716  41.359  1.00  0.00    -0.237 OA
ATOM     83  O   UNL A   1      37.563  34.954  41.467  1.00  0.00    -0.237 OA
ATOM     84  O   UNL A   1      36.446  33.164  40.216  1.00  0.00    -0.744 OA
ENDBRANCH  78  81
ENDBRANCH  50  74
BRANCH  62  85
ATOM     85  C   UNL A   1      44.051  28.809  35.427  1.00  0.00     0.023 A 
ATOM     86  C   UNL A   1      45.339  29.346  35.242  1.00  0.00     0.012 A 
ATOM     87  C   UNL A   1      43.860  27.772  36.361  1.00  0.00     0.148 A 
ATOM     88  C   UNL A   1      46.426  28.840  35.955  1.00  0.00     0.002 A 
ATOM     89  C   UNL A   1      44.937  27.306  37.104  1.00  0.00     0.091 A 
ATOM     90  F   UNL A   1      42.627  27.262  36.507  1.00  0.00    -0.205 F 
ATOM     91  C   UNL A   1      46.223  27.831  36.894  1.00  0.00     0.022 A 
BRANCH  89  92
ATOM     92  S   UNL A   1      44.752  26.082  38.406  1.00  0.00     0.127 S 
ATOM     93  O   UNL A   1      44.291  24.915  37.654  1.00  0.00    -0.237 OA
ATOM     94  O   UNL A   1      46.115  25.973  38.925  1.00  0.00    -0.237 OA
ATOM     95  O   UNL A   1      43.789  26.637  39.347  1.00  0.00    -0.744 OA
ENDBRANCH  89  92
ENDBRANCH  62  85
ENDBRANCH  36  37
ENDBRANCH  28  31
ENDBRANCH  26  27
ENDBRANCH   1  26
TORSDOF 16
ENDMDL
