MODEL 1
REMARK VINA RESULT:     -11.9      0.000      0.000
REMARK SMILES O=C(NCCCNC(=O)c1cc2cnc(Cl)cc2[nH]1)c1ccc(-c2c3nc(c(-c4cccc(S(=O)(=O)[O-])c4F)c4ccc([nH]4)c(-c4cccc(S(=O)(=O)[O-])c4F)c4nc(c(-c5cccc(S(=O)(=O)[O-])c5F)c5ccc2[nH]5)C=C4)C=C3)cc1
REMARK SMILES IDX 1 1 2 2 3 3 20 5 21 6 82 7 22 8 81 9 23 10 24 11 25 12 75 13
REMARK SMILES IDX 26 14 80 15 74 16 76 17 27 18 79 19 73 20 72 21 28 23 60 24
REMARK SMILES IDX 40 25 59 26 41 27 44 28 58 29 77 30 42 31 43 32 57 34 78 35
REMARK SMILES IDX 45 36 29 37 30 38 38 39 31 40 33 41 39 42 32 43 34 44 35 45
REMARK SMILES IDX 36 46 37 47 61 48 62 49 70 50 63 51 65 52 71 53 64 54 66 55
REMARK SMILES IDX 67 56 68 57 69 58 46 59 47 60 55 61 48 62 50 63 56 64 49 65
REMARK SMILES IDX 51 66 52 67 53 68 54 69 4 70 5 71 6 72 7 73 8 74 9 76 10 77
REMARK SMILES IDX 11 78 19 79 12 80 18 81 13 83 17 84 14 85 15 86 16 87
REMARK H PARENT 3 4 76 22 44 33 7 75 19 82
REMARK Flexibility Score: inf
ROOT
ATOM      1  O   UNL A   1      42.446  18.582  25.725  1.00  0.00    -0.269 OA
ATOM      2  C   UNL A   1      41.590  19.424  25.967  1.00  0.00     0.251 C 
ATOM      3  N   UNL A   1      40.245  19.162  25.728  1.00  0.00    -0.352 N 
ATOM      4  H   UNL A   1      40.013  18.215  25.587  1.00  0.00     0.163 HD
ENDROOT
BRANCH   2   5
ATOM      5  C   UNL A   1      41.951  20.739  26.525  1.00  0.00     0.039 A 
ATOM      6  C   UNL A   1      42.518  21.777  25.787  1.00  0.00     0.014 A 
ATOM      7  C   UNL A   1      41.623  20.935  27.854  1.00  0.00     0.014 A 
ATOM      8  C   UNL A   1      42.699  23.001  26.428  1.00  0.00     0.010 A 
ATOM      9  C   UNL A   1      41.396  22.194  28.297  1.00  0.00     0.010 A 
ATOM     10  C   UNL A   1      42.127  23.189  27.700  1.00  0.00    -0.014 A 
BRANCH  10  11
ATOM     11  C   UNL A   1      42.241  24.415  28.467  1.00  0.00     0.031 A 
ATOM     12  C   UNL A   1      41.105  25.326  28.258  1.00  0.00     0.074 A 
ATOM     13  C   UNL A   1      43.195  24.622  29.405  1.00  0.00     0.049 A 
ATOM     14  N   UNL A   1      41.083  26.349  27.476  1.00  0.00    -0.248 NA
ATOM     15  C   UNL A   1      39.789  24.931  28.778  1.00  0.00     0.031 C 
ATOM     16  C   UNL A   1      44.184  23.674  29.952  1.00  0.00     0.029 A 
ATOM     17  N   UNL A   1      43.412  25.727  30.164  1.00  0.00    -0.354 N 
ATOM     18  C   UNL A   1      39.820  26.899  27.641  1.00  0.00     0.074 A 
ATOM     19  C   UNL A   1      39.010  25.861  28.220  1.00  0.00     0.031 C 
ATOM     20  C   UNL A   1      44.711  24.167  31.095  1.00  0.00     0.029 A 
ATOM     21  C   UNL A   1      44.257  25.531  31.254  1.00  0.00     0.049 A 
ATOM     22  H   UNL A   1      43.003  26.598  29.960  1.00  0.00     0.167 HD
ATOM     23  C   UNL A   1      39.648  28.246  27.570  1.00  0.00     0.034 A 
ATOM     24  C   UNL A   1      44.541  26.437  32.221  1.00  0.00     0.034 A 
ATOM     25  C   UNL A   1      40.826  28.883  27.023  1.00  0.00     0.049 A 
ATOM     26  C   UNL A   1      44.250  27.767  31.640  1.00  0.00     0.074 A 
ATOM     27  C   UNL A   1      41.520  28.808  25.832  1.00  0.00     0.029 A 
ATOM     28  N   UNL A   1      41.692  29.428  27.941  1.00  0.00    -0.354 N 
ATOM     29  N   UNL A   1      44.914  28.280  30.643  1.00  0.00    -0.248 NA
ATOM     30  C   UNL A   1      42.943  28.348  31.892  1.00  0.00     0.031 C 
ATOM     31  C   UNL A   1      42.896  28.924  26.193  1.00  0.00     0.029 A 
ATOM     32  C   UNL A   1      42.977  29.134  27.572  1.00  0.00     0.049 A 
ATOM     33  H   UNL A   1      41.429  29.947  28.736  1.00  0.00     0.167 HD
ATOM     34  C   UNL A   1      43.942  28.899  29.868  1.00  0.00     0.074 A 
ATOM     35  C   UNL A   1      42.784  29.024  30.751  1.00  0.00     0.031 C 
ATOM     36  C   UNL A   1      44.073  28.978  28.511  1.00  0.00     0.034 A 
BRANCH  23  37
ATOM     37  C   UNL A   1      38.625  29.036  28.354  1.00  0.00     0.023 A 
ATOM     38  C   UNL A   1      37.833  29.949  27.622  1.00  0.00     0.012 A 
ATOM     39  C   UNL A   1      38.565  29.131  29.764  1.00  0.00     0.148 A 
ATOM     40  C   UNL A   1      37.073  30.937  28.254  1.00  0.00     0.002 A 
ATOM     41  C   UNL A   1      37.744  30.060  30.390  1.00  0.00     0.091 A 
ATOM     42  F   UNL A   1      39.398  28.420  30.525  1.00  0.00    -0.205 F 
ATOM     43  C   UNL A   1      37.021  30.989  29.640  1.00  0.00     0.022 A 
BRANCH  41  44
ATOM     44  S   UNL A   1      37.593  30.134  32.181  1.00  0.00     0.127 S 
ATOM     45  O   UNL A   1      36.534  31.125  32.345  1.00  0.00    -0.237 OA
ATOM     46  O   UNL A   1      37.212  28.759  32.502  1.00  0.00    -0.237 OA
ATOM     47  O   UNL A   1      38.910  30.518  32.673  1.00  0.00    -0.744 OA
ENDBRANCH  41  44
ENDBRANCH  23  37
BRANCH  24  48
ATOM     48  C   UNL A   1      44.758  26.261  33.677  1.00  0.00     0.023 A 
ATOM     49  C   UNL A   1      46.001  26.628  34.236  1.00  0.00     0.012 A 
ATOM     50  C   UNL A   1      43.664  26.074  34.550  1.00  0.00     0.148 A 
ATOM     51  C   UNL A   1      46.134  26.867  35.610  1.00  0.00     0.002 A 
ATOM     52  C   UNL A   1      43.800  26.321  35.914  1.00  0.00     0.091 A 
ATOM     53  F   UNL A   1      42.473  25.751  34.028  1.00  0.00    -0.205 F 
ATOM     54  C   UNL A   1      45.029  26.732  36.445  1.00  0.00     0.022 A 
BRANCH  52  55
ATOM     55  S   UNL A   1      42.410  26.233  37.053  1.00  0.00     0.127 S 
ATOM     56  O   UNL A   1      41.975  24.846  36.890  1.00  0.00    -0.237 OA
ATOM     57  O   UNL A   1      43.053  26.527  38.332  1.00  0.00    -0.237 OA
ATOM     58  O   UNL A   1      41.452  27.227  36.588  1.00  0.00    -0.744 OA
ENDBRANCH  52  55
ENDBRANCH  24  48
BRANCH  36  59
ATOM     59  C   UNL A   1      45.424  28.658  27.909  1.00  0.00     0.023 A 
ATOM     60  C   UNL A   1      46.501  29.571  27.912  1.00  0.00     0.012 A 
ATOM     61  C   UNL A   1      45.661  27.337  27.493  1.00  0.00     0.148 A 
ATOM     62  C   UNL A   1      47.778  29.176  27.500  1.00  0.00     0.002 A 
ATOM     63  C   UNL A   1      46.942  26.934  27.136  1.00  0.00     0.091 A 
ATOM     64  F   UNL A   1      44.626  26.482  27.488  1.00  0.00    -0.205 F 
ATOM     65  C   UNL A   1      48.002  27.852  27.129  1.00  0.00     0.022 A 
BRANCH  63  66
ATOM     66  S   UNL A   1      47.320  25.215  26.789  1.00  0.00     0.127 S 
ATOM     67  O   UNL A   1      46.543  24.969  25.576  1.00  0.00    -0.237 OA
ATOM     68  O   UNL A   1      48.770  25.246  26.592  1.00  0.00    -0.237 OA
ATOM     69  O   UNL A   1      46.897  24.464  27.966  1.00  0.00    -0.744 OA
ENDBRANCH  63  66
ENDBRANCH  36  59
ENDBRANCH  10  11
ENDBRANCH   2   5
BRANCH   3  70
ATOM     70  C   UNL A   1      39.121  20.116  25.655  1.00  0.00     0.118 C 
BRANCH  70  71
ATOM     71  C   UNL A   1      37.885  19.556  24.988  1.00  0.00     0.042 C 
BRANCH  71  72
ATOM     72  C   UNL A   1      36.835  20.644  24.761  1.00  0.00     0.118 C 
BRANCH  72  73
ATOM     73  N   UNL A   1      35.482  20.284  25.179  1.00  0.00    -0.351 N 
ATOM     74  C   UNL A   1      34.325  21.031  25.241  1.00  0.00     0.267 C 
ATOM     75  H   UNL A   1      35.378  19.348  25.465  1.00  0.00     0.163 HD
ATOM     76  O   UNL A   1      33.314  20.527  25.699  1.00  0.00    -0.268 OA
BRANCH  74  77
ATOM     77  C   UNL A   1      34.387  22.392  24.770  1.00  0.00     0.105 A 
ATOM     78  C   UNL A   1      34.192  22.888  23.491  1.00  0.00     0.043 A 
ATOM     79  N   UNL A   1      34.717  23.474  25.547  1.00  0.00    -0.350 N 
ATOM     80  C   UNL A   1      34.038  24.299  23.605  1.00  0.00     0.019 A 
ATOM     81  C   UNL A   1      34.289  24.624  24.937  1.00  0.00     0.051 A 
ATOM     82  H   UNL A   1      35.189  23.431  26.409  1.00  0.00     0.167 HD
ATOM     83  C   UNL A   1      33.651  25.324  22.734  1.00  0.00     0.123 A 
ATOM     84  C   UNL A   1      34.097  25.903  25.449  1.00  0.00     0.067 A 
ATOM     85  N   UNL A   1      33.455  26.584  23.201  1.00  0.00    -0.244 NA
ATOM     86  C   UNL A   1      33.654  26.823  24.515  1.00  0.00     0.131 A 
ATOM     87  Cl  UNL A   1      33.287  28.428  25.007  1.00  0.00    -0.062 Cl
ENDBRANCH  74  77
ENDBRANCH  72  73
ENDBRANCH  71  72
ENDBRANCH  70  71
ENDBRANCH   3  70
TORSDOF 13
ENDMDL
MODEL 2
REMARK VINA RESULT:     -11.9      4.377      9.793
REMARK SMILES O=C(NCCCNC(=O)c1cc2cnc(Cl)cc2[nH]1)c1ccc(-c2c3nc(c(-c4cccc(S(=O)(=O)[O-])c4F)c4ccc([nH]4)c(-c4cccc(S(=O)(=O)[O-])c4F)c4nc(c(-c5cccc(S(=O)(=O)[O-])c5F)c5ccc2[nH]5)C=C4)C=C3)cc1
REMARK SMILES IDX 1 1 2 2 3 3 20 5 21 6 82 7 22 8 81 9 23 10 24 11 25 12 75 13
REMARK SMILES IDX 26 14 80 15 74 16 76 17 27 18 79 19 73 20 72 21 28 23 60 24
REMARK SMILES IDX 40 25 59 26 41 27 44 28 58 29 77 30 42 31 43 32 57 34 78 35
REMARK SMILES IDX 45 36 29 37 30 38 38 39 31 40 33 41 39 42 32 43 34 44 35 45
REMARK SMILES IDX 36 46 37 47 61 48 62 49 70 50 63 51 65 52 71 53 64 54 66 55
REMARK SMILES IDX 67 56 68 57 69 58 46 59 47 60 55 61 48 62 50 63 56 64 49 65
REMARK SMILES IDX 51 66 52 67 53 68 54 69 4 70 5 71 6 72 7 73 8 74 9 76 10 77
REMARK SMILES IDX 11 78 19 79 12 80 18 81 13 83 17 84 14 85 15 86 16 87
REMARK H PARENT 3 4 76 22 44 33 7 75 19 82
REMARK Flexibility Score: inf
ROOT
ATOM      1  O   UNL A   1      32.563  35.541  29.725  1.00  0.00    -0.269 OA
ATOM      2  C   UNL A   1      33.068  34.659  29.043  1.00  0.00     0.251 C 
ATOM      3  N   UNL A   1      32.447  34.213  27.881  1.00  0.00    -0.352 N 
ATOM      4  H   UNL A   1      31.733  34.792  27.529  1.00  0.00     0.163 HD
ENDROOT
BRANCH   2   5
ATOM      5  C   UNL A   1      34.352  34.043  29.423  1.00  0.00     0.039 A 
ATOM      6  C   UNL A   1      34.517  33.169  30.497  1.00  0.00     0.014 A 
ATOM      7  C   UNL A   1      35.419  34.322  28.588  1.00  0.00     0.014 A 
ATOM      8  C   UNL A   1      35.769  32.580  30.662  1.00  0.00     0.010 A 
ATOM      9  C   UNL A   1      36.437  33.434  28.502  1.00  0.00     0.010 A 
ATOM     10  C   UNL A   1      36.727  32.730  29.642  1.00  0.00    -0.014 A 
BRANCH  10  11
ATOM     11  C   UNL A   1      38.061  32.163  29.694  1.00  0.00     0.031 A 
ATOM     12  C   UNL A   1      38.127  30.808  29.125  1.00  0.00     0.074 A 
ATOM     13  C   UNL A   1      39.158  32.868  30.061  1.00  0.00     0.049 A 
ATOM     14  N   UNL A   1      38.121  29.703  29.787  1.00  0.00    -0.248 NA
ATOM     15  C   UNL A   1      37.939  30.649  27.677  1.00  0.00     0.031 C 
ATOM     16  C   UNL A   1      39.289  34.312  30.329  1.00  0.00     0.029 A 
ATOM     17  N   UNL A   1      40.443  32.442  30.166  1.00  0.00    -0.354 N 
ATOM     18  C   UNL A   1      38.228  28.709  28.825  1.00  0.00     0.074 A 
ATOM     19  C   UNL A   1      37.846  29.320  27.581  1.00  0.00     0.031 C 
ATOM     20  C   UNL A   1      40.594  34.665  30.323  1.00  0.00     0.029 A 
ATOM     21  C   UNL A   1      41.391  33.459  30.255  1.00  0.00     0.049 A 
ATOM     22  H   UNL A   1      40.686  31.489  30.179  1.00  0.00     0.167 HD
ATOM     23  C   UNL A   1      38.914  27.568  29.098  1.00  0.00     0.034 A 
ATOM     24  C   UNL A   1      42.737  33.302  30.255  1.00  0.00     0.034 A 
ATOM     25  C   UNL A   1      39.186  27.461  30.515  1.00  0.00     0.049 A 
ATOM     26  C   UNL A   1      42.991  31.909  30.681  1.00  0.00     0.074 A 
ATOM     27  C   UNL A   1      38.418  27.391  31.660  1.00  0.00     0.029 A 
ATOM     28  N   UNL A   1      40.441  27.855  30.914  1.00  0.00    -0.354 N 
ATOM     29  N   UNL A   1      42.707  31.454  31.870  1.00  0.00    -0.248 NA
ATOM     30  C   UNL A   1      43.171  30.903  29.649  1.00  0.00     0.031 C 
ATOM     31  C   UNL A   1      39.133  28.147  32.636  1.00  0.00     0.029 A 
ATOM     32  C   UNL A   1      40.333  28.584  32.068  1.00  0.00     0.049 A 
ATOM     33  H   UNL A   1      41.281  27.646  30.446  1.00  0.00     0.167 HD
ATOM     34  C   UNL A   1      42.214  30.177  31.638  1.00  0.00     0.074 A 
ATOM     35  C   UNL A   1      42.650  29.848  30.282  1.00  0.00     0.031 C 
ATOM     36  C   UNL A   1      41.257  29.637  32.449  1.00  0.00     0.034 A 
BRANCH  23  37
ATOM     37  C   UNL A   1      39.700  26.761  28.089  1.00  0.00     0.023 A 
ATOM     38  C   UNL A   1      39.484  25.364  28.087  1.00  0.00     0.012 A 
ATOM     39  C   UNL A   1      40.799  27.235  27.336  1.00  0.00     0.148 A 
ATOM     40  C   UNL A   1      40.345  24.487  27.425  1.00  0.00     0.002 A 
ATOM     41  C   UNL A   1      41.605  26.366  26.610  1.00  0.00     0.091 A 
ATOM     42  F   UNL A   1      41.170  28.514  27.412  1.00  0.00    -0.205 F 
ATOM     43  C   UNL A   1      41.404  24.987  26.678  1.00  0.00     0.022 A 
BRANCH  41  44
ATOM     44  S   UNL A   1      42.953  26.964  25.581  1.00  0.00     0.127 S 
ATOM     45  O   UNL A   1      43.879  27.484  26.583  1.00  0.00    -0.237 OA
ATOM     46  O   UNL A   1      43.384  25.734  24.916  1.00  0.00    -0.237 OA
ATOM     47  O   UNL A   1      42.360  27.949  24.684  1.00  0.00    -0.744 OA
ENDBRANCH  41  44
ENDBRANCH  23  37
BRANCH  24  48
ATOM     48  C   UNL A   1      43.807  34.133  29.651  1.00  0.00     0.023 A 
ATOM     49  C   UNL A   1      44.702  34.822  30.497  1.00  0.00     0.012 A 
ATOM     50  C   UNL A   1      44.162  33.972  28.294  1.00  0.00     0.148 A 
ATOM     51  C   UNL A   1      45.939  35.277  30.024  1.00  0.00     0.002 A 
ATOM     52  C   UNL A   1      45.397  34.419  27.832  1.00  0.00     0.091 A 
ATOM     53  F   UNL A   1      43.333  33.297  27.488  1.00  0.00    -0.205 F 
ATOM     54  C   UNL A   1      46.295  35.058  28.697  1.00  0.00     0.022 A 
BRANCH  52  55
ATOM     55  S   UNL A   1      45.962  34.122  26.149  1.00  0.00     0.127 S 
ATOM     56  O   UNL A   1      44.877  34.705  25.360  1.00  0.00    -0.237 OA
ATOM     57  O   UNL A   1      47.215  34.873  26.117  1.00  0.00    -0.237 OA
ATOM     58  O   UNL A   1      46.092  32.677  26.024  1.00  0.00    -0.744 OA
ENDBRANCH  52  55
ENDBRANCH  24  48
BRANCH  36  59
ATOM     59  C   UNL A   1      40.974  30.325  33.767  1.00  0.00     0.023 A 
ATOM     60  C   UNL A   1      41.854  30.263  34.869  1.00  0.00     0.012 A 
ATOM     61  C   UNL A   1      39.878  31.203  33.827  1.00  0.00     0.148 A 
ATOM     62  C   UNL A   1      41.637  31.049  36.006  1.00  0.00     0.002 A 
ATOM     63  C   UNL A   1      39.697  32.023  34.934  1.00  0.00     0.091 A 
ATOM     64  F   UNL A   1      39.046  31.246  32.775  1.00  0.00    -0.205 F 
ATOM     65  C   UNL A   1      40.569  31.943  36.030  1.00  0.00     0.022 A 
BRANCH  63  66
ATOM     66  S   UNL A   1      38.428  33.290  34.963  1.00  0.00     0.127 S 
ATOM     67  O   UNL A   1      37.202  32.496  35.009  1.00  0.00    -0.237 OA
ATOM     68  O   UNL A   1      38.735  34.014  36.198  1.00  0.00    -0.237 OA
ATOM     69  O   UNL A   1      38.618  34.078  33.751  1.00  0.00    -0.744 OA
ENDBRANCH  63  66
ENDBRANCH  36  59
ENDBRANCH  10  11
ENDBRANCH   2   5
BRANCH   3  70
ATOM     70  C   UNL A   1      32.716  32.984  27.108  1.00  0.00     0.118 C 
BRANCH  70  71
ATOM     71  C   UNL A   1      31.496  32.118  26.892  1.00  0.00     0.042 C 
BRANCH  71  72
ATOM     72  C   UNL A   1      31.884  30.723  26.400  1.00  0.00     0.118 C 
BRANCH  72  73
ATOM     73  N   UNL A   1      31.342  30.363  25.092  1.00  0.00    -0.351 N 
ATOM     74  C   UNL A   1      31.268  29.147  24.447  1.00  0.00     0.267 C 
ATOM     75  H   UNL A   1      30.965  31.117  24.585  1.00  0.00     0.163 HD
ATOM     76  O   UNL A   1      30.831  29.102  23.310  1.00  0.00    -0.268 OA
BRANCH  74  77
ATOM     77  C   UNL A   1      31.738  27.986  25.161  1.00  0.00     0.105 A 
ATOM     78  C   UNL A   1      31.014  27.034  25.859  1.00  0.00     0.043 A 
ATOM     79  N   UNL A   1      33.058  27.643  25.314  1.00  0.00    -0.350 N 
ATOM     80  C   UNL A   1      31.886  25.934  26.099  1.00  0.00     0.019 A 
ATOM     81  C   UNL A   1      33.151  26.321  25.659  1.00  0.00     0.051 A 
ATOM     82  H   UNL A   1      33.820  28.254  25.195  1.00  0.00     0.167 HD
ATOM     83  C   UNL A   1      31.723  24.631  26.582  1.00  0.00     0.123 A 
ATOM     84  C   UNL A   1      34.231  25.446  25.610  1.00  0.00     0.067 A 
ATOM     85  N   UNL A   1      32.757  23.751  26.548  1.00  0.00    -0.244 NA
ATOM     86  C   UNL A   1      33.942  24.168  26.053  1.00  0.00     0.131 A 
ATOM     87  Cl  UNL A   1      35.147  22.945  25.975  1.00  0.00    -0.062 Cl
ENDBRANCH  74  77
ENDBRANCH  72  73
ENDBRANCH  71  72
ENDBRANCH  70  71
ENDBRANCH   3  70
TORSDOF 13
ENDMDL
MODEL 3
REMARK VINA RESULT:     -11.9      1.245      1.571
REMARK SMILES O=C(NCCCNC(=O)c1cc2cnc(Cl)cc2[nH]1)c1ccc(-c2c3nc(c(-c4cccc(S(=O)(=O)[O-])c4F)c4ccc([nH]4)c(-c4cccc(S(=O)(=O)[O-])c4F)c4nc(c(-c5cccc(S(=O)(=O)[O-])c5F)c5ccc2[nH]5)C=C4)C=C3)cc1
REMARK SMILES IDX 1 1 2 2 3 3 20 5 21 6 82 7 22 8 81 9 23 10 24 11 25 12 75 13
REMARK SMILES IDX 26 14 80 15 74 16 76 17 27 18 79 19 73 20 72 21 28 23 60 24
REMARK SMILES IDX 40 25 59 26 41 27 44 28 58 29 77 30 42 31 43 32 57 34 78 35
REMARK SMILES IDX 45 36 29 37 30 38 38 39 31 40 33 41 39 42 32 43 34 44 35 45
REMARK SMILES IDX 36 46 37 47 61 48 62 49 70 50 63 51 65 52 71 53 64 54 66 55
REMARK SMILES IDX 67 56 68 57 69 58 46 59 47 60 55 61 48 62 50 63 56 64 49 65
REMARK SMILES IDX 51 66 52 67 53 68 54 69 4 70 5 71 6 72 7 73 8 74 9 76 10 77
REMARK SMILES IDX 11 78 19 79 12 80 18 81 13 83 17 84 14 85 15 86 16 87
REMARK H PARENT 3 4 76 22 44 33 7 75 19 82
REMARK Flexibility Score: inf
ROOT
ATOM      1  O   UNL A   1      42.586  18.695  25.439  1.00  0.00    -0.269 OA
ATOM      2  C   UNL A   1      41.713  19.454  25.841  1.00  0.00     0.251 C 
ATOM      3  N   UNL A   1      40.371  19.093  25.777  1.00  0.00    -0.352 N 
ATOM      4  H   UNL A   1      40.193  18.137  25.621  1.00  0.00     0.163 HD
ENDROOT
BRANCH   2   5
ATOM      5  C   UNL A   1      42.050  20.770  26.411  1.00  0.00     0.039 A 
ATOM      6  C   UNL A   1      42.472  21.867  25.660  1.00  0.00     0.014 A 
ATOM      7  C   UNL A   1      41.854  20.899  27.774  1.00  0.00     0.014 A 
ATOM      8  C   UNL A   1      42.644  23.077  26.328  1.00  0.00     0.010 A 
ATOM      9  C   UNL A   1      41.600  22.125  28.288  1.00  0.00     0.010 A 
ATOM     10  C   UNL A   1      42.201  23.185  27.659  1.00  0.00    -0.014 A 
BRANCH  10  11
ATOM     11  C   UNL A   1      42.321  24.389  28.459  1.00  0.00     0.031 A 
ATOM     12  C   UNL A   1      41.180  25.302  28.290  1.00  0.00     0.074 A 
ATOM     13  C   UNL A   1      43.286  24.573  29.390  1.00  0.00     0.049 A 
ATOM     14  N   UNL A   1      41.145  26.347  27.537  1.00  0.00    -0.248 NA
ATOM     15  C   UNL A   1      39.872  24.888  28.814  1.00  0.00     0.031 C 
ATOM     16  C   UNL A   1      44.284  23.612  29.899  1.00  0.00     0.029 A 
ATOM     17  N   UNL A   1      43.509  25.656  30.178  1.00  0.00    -0.354 N 
ATOM     18  C   UNL A   1      39.883  26.888  27.733  1.00  0.00     0.074 A 
ATOM     19  C   UNL A   1      39.083  25.832  28.293  1.00  0.00     0.031 C 
ATOM     20  C   UNL A   1      44.824  24.075  31.049  1.00  0.00     0.029 A 
ATOM     21  C   UNL A   1      44.368  25.433  31.251  1.00  0.00     0.049 A 
ATOM     22  H   UNL A   1      43.095  26.532  30.004  1.00  0.00     0.167 HD
ATOM     23  C   UNL A   1      39.707  28.235  27.702  1.00  0.00     0.034 A 
ATOM     24  C   UNL A   1      44.661  26.312  32.240  1.00  0.00     0.034 A 
ATOM     25  C   UNL A   1      40.876  28.891  27.159  1.00  0.00     0.049 A 
ATOM     26  C   UNL A   1      44.360  27.656  31.701  1.00  0.00     0.074 A 
ATOM     27  C   UNL A   1      41.555  28.852  25.958  1.00  0.00     0.029 A 
ATOM     28  N   UNL A   1      41.751  29.413  28.081  1.00  0.00    -0.354 N 
ATOM     29  N   UNL A   1      45.010  28.199  30.710  1.00  0.00    -0.248 NA
ATOM     30  C   UNL A   1      43.055  28.227  31.985  1.00  0.00     0.031 C 
ATOM     31  C   UNL A   1      42.935  28.962  26.305  1.00  0.00     0.029 A 
ATOM     32  C   UNL A   1      43.032  29.133  27.689  1.00  0.00     0.049 A 
ATOM     33  H   UNL A   1      41.497  29.909  28.893  1.00  0.00     0.167 HD
ATOM     34  C   UNL A   1      44.027  28.837  29.965  1.00  0.00     0.074 A 
ATOM     35  C   UNL A   1      42.879  28.934  30.865  1.00  0.00     0.031 C 
ATOM     36  C   UNL A   1      44.140  28.955  28.610  1.00  0.00     0.034 A 
BRANCH  23  37
ATOM     37  C   UNL A   1      38.691  29.000  28.520  1.00  0.00     0.023 A 
ATOM     38  C   UNL A   1      37.914  29.959  27.831  1.00  0.00     0.012 A 
ATOM     39  C   UNL A   1      38.627  29.026  29.933  1.00  0.00     0.148 A 
ATOM     40  C   UNL A   1      37.165  30.924  28.509  1.00  0.00     0.002 A 
ATOM     41  C   UNL A   1      37.815  29.935  30.602  1.00  0.00     0.091 A 
ATOM     42  F   UNL A   1      39.447  28.268  30.662  1.00  0.00    -0.205 F 
ATOM     43  C   UNL A   1      37.108  30.909  29.896  1.00  0.00     0.022 A 
BRANCH  41  44
ATOM     44  S   UNL A   1      37.659  29.923  32.393  1.00  0.00     0.127 S 
ATOM     45  O   UNL A   1      36.610  30.917  32.602  1.00  0.00    -0.237 OA
ATOM     46  O   UNL A   1      37.261  28.538  32.646  1.00  0.00    -0.237 OA
ATOM     47  O   UNL A   1      38.978  30.267  32.909  1.00  0.00    -0.744 OA
ENDBRANCH  41  44
ENDBRANCH  23  37
BRANCH  24  48
ATOM     48  C   UNL A   1      44.897  26.096  33.688  1.00  0.00     0.023 A 
ATOM     49  C   UNL A   1      46.195  26.284  34.209  1.00  0.00     0.012 A 
ATOM     50  C   UNL A   1      43.815  26.053  34.594  1.00  0.00     0.148 A 
ATOM     51  C   UNL A   1      46.402  26.491  35.578  1.00  0.00     0.002 A 
ATOM     52  C   UNL A   1      44.026  26.268  35.954  1.00  0.00     0.091 A 
ATOM     53  F   UNL A   1      42.576  25.901  34.109  1.00  0.00    -0.205 F 
ATOM     54  C   UNL A   1      45.315  26.502  36.448  1.00  0.00     0.022 A 
BRANCH  52  55
ATOM     55  S   UNL A   1      42.672  26.362  37.136  1.00  0.00     0.127 S 
ATOM     56  O   UNL A   1      41.998  25.081  36.923  1.00  0.00    -0.237 OA
ATOM     57  O   UNL A   1      43.391  26.472  38.404  1.00  0.00    -0.237 OA
ATOM     58  O   UNL A   1      41.890  27.529  36.753  1.00  0.00    -0.744 OA
ENDBRANCH  52  55
ENDBRANCH  24  48
BRANCH  36  59
ATOM     59  C   UNL A   1      45.485  28.657  27.982  1.00  0.00     0.023 A 
ATOM     60  C   UNL A   1      46.563  29.568  28.007  1.00  0.00     0.012 A 
ATOM     61  C   UNL A   1      45.716  27.351  27.516  1.00  0.00     0.148 A 
ATOM     62  C   UNL A   1      47.835  29.188  27.567  1.00  0.00     0.002 A 
ATOM     63  C   UNL A   1      46.993  26.960  27.131  1.00  0.00     0.091 A 
ATOM     64  F   UNL A   1      44.681  26.498  27.490  1.00  0.00    -0.205 F 
ATOM     65  C   UNL A   1      48.054  27.878  27.146  1.00  0.00     0.022 A 
BRANCH  63  66
ATOM     66  S   UNL A   1      47.365  25.255  26.718  1.00  0.00     0.127 S 
ATOM     67  O   UNL A   1      48.827  25.252  26.719  1.00  0.00    -0.237 OA
ATOM     68  O   UNL A   1      46.751  24.522  27.826  1.00  0.00    -0.237 OA
ATOM     69  O   UNL A   1      46.740  25.008  25.423  1.00  0.00    -0.744 OA
ENDBRANCH  63  66
ENDBRANCH  36  59
ENDBRANCH  10  11
ENDBRANCH   2   5
BRANCH   3  70
ATOM     70  C   UNL A   1      39.180  19.955  25.910  1.00  0.00     0.118 C 
BRANCH  70  71
ATOM     71  C   UNL A   1      38.074  19.625  24.933  1.00  0.00     0.042 C 
BRANCH  71  72
ATOM     72  C   UNL A   1      37.123  20.808  24.752  1.00  0.00     0.118 C 
BRANCH  72  73
ATOM     73  N   UNL A   1      37.656  22.095  25.191  1.00  0.00    -0.351 N 
ATOM     74  C   UNL A   1      37.021  23.228  25.654  1.00  0.00     0.267 C 
ATOM     75  H   UNL A   1      38.637  22.166  25.149  1.00  0.00     0.163 HD
ATOM     76  O   UNL A   1      37.682  24.224  25.896  1.00  0.00    -0.268 OA
BRANCH  74  77
ATOM     77  C   UNL A   1      35.590  23.171  25.809  1.00  0.00     0.105 A 
ATOM     78  C   UNL A   1      34.835  22.482  26.744  1.00  0.00     0.043 A 
ATOM     79  N   UNL A   1      34.688  23.786  24.976  1.00  0.00    -0.350 N 
ATOM     80  C   UNL A   1      33.510  23.002  26.682  1.00  0.00     0.019 A 
ATOM     81  C   UNL A   1      33.478  23.891  25.608  1.00  0.00     0.051 A 
ATOM     82  H   UNL A   1      34.882  24.102  24.065  1.00  0.00     0.167 HD
ATOM     83  C   UNL A   1      32.356  22.861  27.461  1.00  0.00     0.123 A 
ATOM     84  C   UNL A   1      32.377  24.694  25.330  1.00  0.00     0.067 A 
ATOM     85  N   UNL A   1      31.264  23.629  27.215  1.00  0.00    -0.244 NA
ATOM     86  C   UNL A   1      31.315  24.517  26.200  1.00  0.00     0.131 A 
ATOM     87  Cl  UNL A   1      29.912  25.496  26.042  1.00  0.00    -0.062 Cl
ENDBRANCH  74  77
ENDBRANCH  72  73
ENDBRANCH  71  72
ENDBRANCH  70  71
ENDBRANCH   3  70
TORSDOF 13
ENDMDL
