MODEL 1
REMARK VINA RESULT:     -12.0      0.000      0.000
REMARK SMILES CCc1[nH]nc(-n2cccc2)c1C(=O)NCCCNC(=O)c1ccc(-c2c3nc(c(-c4cccc(S(=O)(=O)[O-])c4F)c4ccc([nH]4)c(-c4cccc(S(=O)(=O)[O-])c4F)c4nc(c(-c5cccc(S(=O)(=O)[O-])c5F)c5ccc2[nH]5)C=C4)C=C3)cc1
REMARK SMILES IDX 18 1 17 2 16 3 15 4 13 5 14 6 12 8 3 9 4 10 5 11 6 13 2 14
REMARK SMILES IDX 1 15 7 16 8 17 11 18 9 19 10 20 19 21 20 22 21 24 22 25
REMARK SMILES IDX 23 26 84 27 24 28 83 29 25 30 26 31 27 32 77 33 28 34 82 35
REMARK SMILES IDX 76 36 78 37 29 38 81 39 75 40 74 41 30 43 62 44 42 45 61 46
REMARK SMILES IDX 43 47 46 48 60 49 79 50 44 51 45 52 59 54 80 55 47 56 31 57
REMARK SMILES IDX 32 58 40 59 33 60 35 61 41 62 34 63 36 64 37 65 38 66 39 67
REMARK SMILES IDX 63 68 64 69 72 70 65 71 67 72 73 73 66 74 68 75 69 76 70 77
REMARK SMILES IDX 71 78 48 79 49 80 57 81 50 82 52 83 58 84 51 85 53 86 54 87
REMARK SMILES IDX 55 88 56 89
REMARK H PARENT 15 7 4 12 19 23 78 42 46 53
REMARK Flexibility Score: inf
ROOT
ATOM      1  C   UNL A   1      34.781  29.035  27.305  1.00  0.00     0.118 C 
ENDROOT
BRANCH   1   2
ATOM      2  C   UNL A   1      33.333  28.832  26.914  1.00  0.00     0.042 C 
BRANCH   2   3
ATOM      3  C   UNL A   1      32.877  29.792  25.830  1.00  0.00     0.118 C 
BRANCH   3   4
ATOM      4  N   UNL A   1      33.229  29.462  24.480  1.00  0.00    -0.352 N 
ATOM      5  C   UNL A   1      32.499  28.852  23.489  1.00  0.00     0.256 C 
ATOM      6  O   UNL A   1      32.910  29.082  22.349  1.00  0.00    -0.269 OA
ATOM      7  H   UNL A   1      34.144  29.714  24.221  1.00  0.00     0.163 HD
BRANCH   5   8
ATOM      8  C   UNL A   1      31.332  27.969  23.687  1.00  0.00     0.105 A 
ATOM      9  C   UNL A   1      29.951  28.060  23.412  1.00  0.00     0.050 A 
ATOM     10  N   UNL A   1      29.423  26.840  23.754  1.00  0.00    -0.280 N 
ATOM     11  N   UNL A   1      30.316  25.911  24.065  1.00  0.00    -0.156 NA
ATOM     12  H   UNL A   1      28.453  26.669  23.770  1.00  0.00     0.190 HD
ATOM     13  C   UNL A   1      31.461  26.598  24.121  1.00  0.00     0.171 A 
BRANCH   9  14
ATOM     14  C   UNL A   1      29.026  29.101  22.848  1.00  0.00     0.053 C 
ATOM     15  C   UNL A   1      29.604  30.037  21.796  1.00  0.00     0.011 C 
ENDBRANCH   9  14
BRANCH  13  16
ATOM     16  N   UNL A   1      32.609  25.876  24.582  1.00  0.00    -0.307 N 
ATOM     17  C   UNL A   1      32.864  25.405  25.855  1.00  0.00     0.093 A 
ATOM     18  C   UNL A   1      33.661  25.458  23.778  1.00  0.00     0.093 A 
ATOM     19  C   UNL A   1      34.088  24.769  25.867  1.00  0.00     0.020 A 
ATOM     20  C   UNL A   1      34.606  24.828  24.555  1.00  0.00     0.020 A 
ENDBRANCH  13  16
ENDBRANCH   5   8
ENDBRANCH   3   4
ENDBRANCH   2   3
ENDBRANCH   1   2
BRANCH   1  21
ATOM     21  N   UNL A   1      34.982  30.256  28.086  1.00  0.00    -0.352 N 
ATOM     22  C   UNL A   1      36.086  30.594  28.840  1.00  0.00     0.251 C 
ATOM     23  H   UNL A   1      34.246  30.910  28.070  1.00  0.00     0.163 HD
ATOM     24  O   UNL A   1      36.069  31.559  29.582  1.00  0.00    -0.269 OA
BRANCH  22  25
ATOM     25  C   UNL A   1      37.252  29.696  28.774  1.00  0.00     0.039 A 
ATOM     26  C   UNL A   1      38.137  29.847  27.705  1.00  0.00     0.014 A 
ATOM     27  C   UNL A   1      37.522  28.822  29.831  1.00  0.00     0.014 A 
ATOM     28  C   UNL A   1      39.354  29.183  27.748  1.00  0.00     0.010 A 
ATOM     29  C   UNL A   1      38.764  28.217  29.910  1.00  0.00     0.010 A 
ATOM     30  C   UNL A   1      39.678  28.403  28.868  1.00  0.00    -0.014 A 
BRANCH  30  31
ATOM     31  C   UNL A   1      41.023  27.801  28.949  1.00  0.00     0.031 A 
ATOM     32  C   UNL A   1      41.057  26.373  28.394  1.00  0.00     0.074 A 
ATOM     33  C   UNL A   1      41.978  28.572  29.548  1.00  0.00     0.049 A 
ATOM     34  N   UNL A   1      41.601  25.305  28.897  1.00  0.00    -0.248 NA
ATOM     35  C   UNL A   1      40.245  26.047  27.194  1.00  0.00     0.031 C 
ATOM     36  C   UNL A   1      41.757  29.961  30.012  1.00  0.00     0.029 A 
ATOM     37  N   UNL A   1      43.300  28.379  29.893  1.00  0.00    -0.354 N 
ATOM     38  C   UNL A   1      41.381  24.247  27.979  1.00  0.00     0.074 A 
ATOM     39  C   UNL A   1      40.414  24.728  27.038  1.00  0.00     0.031 C 
ATOM     40  C   UNL A   1      42.856  30.449  30.616  1.00  0.00     0.029 A 
ATOM     41  C   UNL A   1      43.898  29.441  30.609  1.00  0.00     0.049 A 
ATOM     42  H   UNL A   1      43.791  27.559  29.657  1.00  0.00     0.167 HD
ATOM     43  C   UNL A   1      42.140  23.108  27.965  1.00  0.00     0.034 A 
ATOM     44  C   UNL A   1      45.120  29.503  31.219  1.00  0.00     0.034 A 
ATOM     45  C   UNL A   1      43.231  23.271  28.874  1.00  0.00     0.049 A 
ATOM     46  C   UNL A   1      45.783  28.218  30.949  1.00  0.00     0.074 A 
ATOM     47  C   UNL A   1      43.357  23.215  30.235  1.00  0.00     0.029 A 
ATOM     48  N   UNL A   1      44.349  23.863  28.333  1.00  0.00    -0.354 N 
ATOM     49  N   UNL A   1      46.282  27.861  29.803  1.00  0.00    -0.248 NA
ATOM     50  C   UNL A   1      45.769  27.185  31.995  1.00  0.00     0.031 C 
ATOM     51  C   UNL A   1      44.390  24.137  30.516  1.00  0.00     0.029 A 
ATOM     52  C   UNL A   1      44.938  24.611  29.317  1.00  0.00     0.049 A 
ATOM     53  H   UNL A   1      44.667  23.765  27.407  1.00  0.00     0.167 HD
ATOM     54  C   UNL A   1      46.288  26.490  29.904  1.00  0.00     0.074 A 
ATOM     55  C   UNL A   1      46.302  26.178  31.313  1.00  0.00     0.031 C 
ATOM     56  C   UNL A   1      45.744  25.740  28.910  1.00  0.00     0.034 A 
BRANCH  43  57
ATOM     57  C   UNL A   1      42.249  21.895  27.060  1.00  0.00     0.023 A 
ATOM     58  C   UNL A   1      41.327  20.843  27.352  1.00  0.00     0.012 A 
ATOM     59  C   UNL A   1      43.298  21.591  26.178  1.00  0.00     0.148 A 
ATOM     60  C   UNL A   1      41.502  19.535  26.907  1.00  0.00     0.002 A 
ATOM     61  C   UNL A   1      43.442  20.284  25.689  1.00  0.00     0.091 A 
ATOM     62  F   UNL A   1      44.199  22.532  25.878  1.00  0.00    -0.205 F 
ATOM     63  C   UNL A   1      42.573  19.252  26.083  1.00  0.00     0.022 A 
BRANCH  61  64
ATOM     64  S   UNL A   1      44.736  19.809  24.535  1.00  0.00     0.127 S 
ATOM     65  O   UNL A   1      44.504  20.727  23.423  1.00  0.00    -0.237 OA
ATOM     66  O   UNL A   1      45.951  20.088  25.307  1.00  0.00    -0.237 OA
ATOM     67  O   UNL A   1      44.518  18.394  24.270  1.00  0.00    -0.744 OA
ENDBRANCH  61  64
ENDBRANCH  43  57
BRANCH  44  68
ATOM     68  C   UNL A   1      45.771  30.458  32.190  1.00  0.00     0.023 A 
ATOM     69  C   UNL A   1      45.289  30.710  33.485  1.00  0.00     0.012 A 
ATOM     70  C   UNL A   1      46.982  31.121  31.843  1.00  0.00     0.148 A 
ATOM     71  C   UNL A   1      46.034  31.460  34.414  1.00  0.00     0.002 A 
ATOM     72  C   UNL A   1      47.769  31.768  32.788  1.00  0.00     0.091 A 
ATOM     73  F   UNL A   1      47.370  31.169  30.565  1.00  0.00    -0.205 F 
ATOM     74  C   UNL A   1      47.295  31.946  34.084  1.00  0.00     0.022 A 
BRANCH  72  75
ATOM     75  S   UNL A   1      49.464  32.263  32.427  1.00  0.00     0.127 S 
ATOM     76  O   UNL A   1      50.019  32.469  33.762  1.00  0.00    -0.237 OA
ATOM     77  O   UNL A   1      49.969  31.082  31.725  1.00  0.00    -0.237 OA
ATOM     78  O   UNL A   1      49.375  33.460  31.600  1.00  0.00    -0.744 OA
ENDBRANCH  72  75
ENDBRANCH  44  68
BRANCH  56  79
ATOM     79  C   UNL A   1      45.752  26.416  27.539  1.00  0.00     0.023 A 
ATOM     80  C   UNL A   1      44.554  27.015  27.101  1.00  0.00     0.012 A 
ATOM     81  C   UNL A   1      46.826  26.372  26.619  1.00  0.00     0.148 A 
ATOM     82  C   UNL A   1      44.423  27.525  25.806  1.00  0.00     0.002 A 
ATOM     83  C   UNL A   1      46.694  26.871  25.320  1.00  0.00     0.091 A 
ATOM     84  F   UNL A   1      47.975  25.835  27.013  1.00  0.00    -0.205 F 
ATOM     85  C   UNL A   1      45.488  27.452  24.915  1.00  0.00     0.022 A 
BRANCH  83  86
ATOM     86  S   UNL A   1      47.988  26.741  24.063  1.00  0.00     0.127 S 
ATOM     87  O   UNL A   1      49.166  27.254  24.768  1.00  0.00    -0.237 OA
ATOM     88  O   UNL A   1      48.022  25.306  23.805  1.00  0.00    -0.237 OA
ATOM     89  O   UNL A   1      47.569  27.573  22.940  1.00  0.00    -0.744 OA
ENDBRANCH  83  86
ENDBRANCH  56  79
ENDBRANCH  30  31
ENDBRANCH  22  25
ENDBRANCH   1  21
TORSDOF 15
ENDMDL
MODEL 2
REMARK VINA RESULT:     -12.0      4.788     11.577
REMARK SMILES CCc1[nH]nc(-n2cccc2)c1C(=O)NCCCNC(=O)c1ccc(-c2c3nc(c(-c4cccc(S(=O)(=O)[O-])c4F)c4ccc([nH]4)c(-c4cccc(S(=O)(=O)[O-])c4F)c4nc(c(-c5cccc(S(=O)(=O)[O-])c5F)c5ccc2[nH]5)C=C4)C=C3)cc1
REMARK SMILES IDX 18 1 17 2 16 3 15 4 13 5 14 6 12 8 3 9 4 10 5 11 6 13 2 14
REMARK SMILES IDX 1 15 7 16 8 17 11 18 9 19 10 20 19 21 20 22 21 24 22 25
REMARK SMILES IDX 23 26 84 27 24 28 83 29 25 30 26 31 27 32 77 33 28 34 82 35
REMARK SMILES IDX 76 36 78 37 29 38 81 39 75 40 74 41 30 43 62 44 42 45 61 46
REMARK SMILES IDX 43 47 46 48 60 49 79 50 44 51 45 52 59 54 80 55 47 56 31 57
REMARK SMILES IDX 32 58 40 59 33 60 35 61 41 62 34 63 36 64 37 65 38 66 39 67
REMARK SMILES IDX 63 68 64 69 72 70 65 71 67 72 73 73 66 74 68 75 69 76 70 77
REMARK SMILES IDX 71 78 48 79 49 80 57 81 50 82 52 83 58 84 51 85 53 86 54 87
REMARK SMILES IDX 55 88 56 89
REMARK H PARENT 15 7 4 12 19 23 78 42 46 53
REMARK Flexibility Score: inf
ROOT
ATOM      1  C   UNL A   1      41.836  23.842  28.584  1.00  0.00     0.118 C 
ENDROOT
BRANCH   1   2
ATOM      2  C   UNL A   1      42.852  22.748  28.834  1.00  0.00     0.042 C 
BRANCH   2   3
ATOM      3  C   UNL A   1      44.191  23.287  29.307  1.00  0.00     0.118 C 
BRANCH   3   4
ATOM      4  N   UNL A   1      45.323  23.049  28.461  1.00  0.00    -0.352 N 
ATOM      5  C   UNL A   1      45.524  23.337  27.133  1.00  0.00     0.256 C 
ATOM      6  O   UNL A   1      46.713  23.396  26.807  1.00  0.00    -0.269 OA
ATOM      7  H   UNL A   1      46.080  22.605  28.905  1.00  0.00     0.163 HD
BRANCH   5   8
ATOM      8  C   UNL A   1      44.471  23.550  26.121  1.00  0.00     0.105 A 
ATOM      9  C   UNL A   1      43.773  24.671  25.624  1.00  0.00     0.050 A 
ATOM     10  N   UNL A   1      42.985  24.196  24.605  1.00  0.00    -0.280 N 
ATOM     11  N   UNL A   1      43.205  22.933  24.269  1.00  0.00    -0.156 NA
ATOM     12  H   UNL A   1      42.305  24.752  24.158  1.00  0.00     0.190 HD
ATOM     13  C   UNL A   1      44.028  22.503  25.230  1.00  0.00     0.171 A 
BRANCH   9  14
ATOM     14  C   UNL A   1      43.734  26.142  25.924  1.00  0.00     0.053 C 
ATOM     15  C   UNL A   1      43.923  26.552  27.378  1.00  0.00     0.011 C 
ENDBRANCH   9  14
BRANCH  13  16
ATOM     16  N   UNL A   1      44.339  21.104  25.217  1.00  0.00    -0.307 N 
ATOM     17  C   UNL A   1      43.519  20.046  25.557  1.00  0.00     0.093 A 
ATOM     18  C   UNL A   1      45.539  20.561  24.779  1.00  0.00     0.093 A 
ATOM     19  C   UNL A   1      44.215  18.866  25.409  1.00  0.00     0.020 A 
ATOM     20  C   UNL A   1      45.506  19.195  24.942  1.00  0.00     0.020 A 
ENDBRANCH  13  16
ENDBRANCH   5   8
ENDBRANCH   3   4
ENDBRANCH   2   3
ENDBRANCH   1   2
BRANCH   1  21
ATOM     21  N   UNL A   1      40.941  23.527  27.471  1.00  0.00    -0.352 N 
ATOM     22  C   UNL A   1      39.896  24.291  26.995  1.00  0.00     0.251 C 
ATOM     23  H   UNL A   1      41.103  22.673  27.008  1.00  0.00     0.163 HD
ATOM     24  O   UNL A   1      39.116  23.848  26.173  1.00  0.00    -0.269 OA
BRANCH  22  25
ATOM     25  C   UNL A   1      39.715  25.631  27.583  1.00  0.00     0.039 A 
ATOM     26  C   UNL A   1      39.166  25.717  28.864  1.00  0.00     0.014 A 
ATOM     27  C   UNL A   1      40.212  26.758  26.921  1.00  0.00     0.014 A 
ATOM     28  C   UNL A   1      39.206  26.935  29.525  1.00  0.00     0.010 A 
ATOM     29  C   UNL A   1      40.318  27.954  27.608  1.00  0.00     0.010 A 
ATOM     30  C   UNL A   1      39.817  28.038  28.910  1.00  0.00    -0.014 A 
BRANCH  30  31
ATOM     31  C   UNL A   1      39.955  29.291  29.677  1.00  0.00     0.031 A 
ATOM     32  C   UNL A   1      38.733  30.203  29.528  1.00  0.00     0.074 A 
ATOM     33  C   UNL A   1      41.146  29.457  30.325  1.00  0.00     0.049 A 
ATOM     34  N   UNL A   1      38.680  31.481  29.294  1.00  0.00    -0.248 NA
ATOM     35  C   UNL A   1      37.380  29.592  29.475  1.00  0.00     0.031 C 
ATOM     36  C   UNL A   1      42.218  28.437  30.370  1.00  0.00     0.029 A 
ATOM     37  N   UNL A   1      41.710  30.476  31.064  1.00  0.00    -0.354 N 
ATOM     38  C   UNL A   1      37.311  31.852  29.282  1.00  0.00     0.074 A 
ATOM     39  C   UNL A   1      36.566  30.629  29.243  1.00  0.00     0.031 C 
ATOM     40  C   UNL A   1      43.298  28.901  31.027  1.00  0.00     0.029 A 
ATOM     41  C   UNL A   1      43.045  30.256  31.476  1.00  0.00     0.049 A 
ATOM     42  H   UNL A   1      41.218  31.298  31.289  1.00  0.00     0.167 HD
ATOM     43  C   UNL A   1      36.891  33.140  29.476  1.00  0.00     0.034 A 
ATOM     44  C   UNL A   1      43.925  31.111  32.078  1.00  0.00     0.034 A 
ATOM     45  C   UNL A   1      38.016  33.940  29.846  1.00  0.00     0.049 A 
ATOM     46  C   UNL A   1      43.196  32.370  32.293  1.00  0.00     0.074 A 
ATOM     47  C   UNL A   1      39.062  34.494  29.160  1.00  0.00     0.029 A 
ATOM     48  N   UNL A   1      38.285  33.967  31.195  1.00  0.00    -0.354 N 
ATOM     49  N   UNL A   1      42.274  32.556  33.191  1.00  0.00    -0.248 NA
ATOM     50  C   UNL A   1      43.404  33.475  31.345  1.00  0.00     0.031 C 
ATOM     51  C   UNL A   1      40.119  34.489  30.096  1.00  0.00     0.029 A 
ATOM     52  C   UNL A   1      39.643  34.063  31.343  1.00  0.00     0.049 A 
ATOM     53  H   UNL A   1      37.622  33.925  31.921  1.00  0.00     0.167 HD
ATOM     54  C   UNL A   1      41.575  33.621  32.673  1.00  0.00     0.074 A 
ATOM     55  C   UNL A   1      42.478  34.318  31.788  1.00  0.00     0.031 C 
ATOM     56  C   UNL A   1      40.223  33.549  32.564  1.00  0.00     0.034 A 
BRANCH  43  57
ATOM     57  C   UNL A   1      35.546  33.821  29.653  1.00  0.00     0.023 A 
ATOM     58  C   UNL A   1      34.991  34.373  28.457  1.00  0.00     0.012 A 
ATOM     59  C   UNL A   1      34.942  34.194  30.863  1.00  0.00     0.148 A 
ATOM     60  C   UNL A   1      33.986  35.337  28.463  1.00  0.00     0.002 A 
ATOM     61  C   UNL A   1      33.894  35.127  30.861  1.00  0.00     0.091 A 
ATOM     62  F   UNL A   1      35.427  33.719  32.015  1.00  0.00    -0.205 F 
ATOM     63  C   UNL A   1      33.445  35.725  29.672  1.00  0.00     0.022 A 
BRANCH  61  64
ATOM     64  S   UNL A   1      33.042  35.643  32.358  1.00  0.00     0.127 S 
ATOM     65  O   UNL A   1      31.982  36.496  31.827  1.00  0.00    -0.237 OA
ATOM     66  O   UNL A   1      32.575  34.363  32.900  1.00  0.00    -0.237 OA
ATOM     67  O   UNL A   1      34.056  36.293  33.177  1.00  0.00    -0.744 OA
ENDBRANCH  61  64
ENDBRANCH  43  57
BRANCH  44  68
ATOM     68  C   UNL A   1      45.409  31.083  32.351  1.00  0.00     0.023 A 
ATOM     69  C   UNL A   1      45.971  31.107  33.637  1.00  0.00     0.012 A 
ATOM     70  C   UNL A   1      46.335  30.962  31.275  1.00  0.00     0.148 A 
ATOM     71  C   UNL A   1      47.346  30.888  33.844  1.00  0.00     0.002 A 
ATOM     72  C   UNL A   1      47.670  30.639  31.481  1.00  0.00     0.091 A 
ATOM     73  F   UNL A   1      45.934  31.207  30.024  1.00  0.00    -0.205 F 
ATOM     74  C   UNL A   1      48.187  30.604  32.772  1.00  0.00     0.022 A 
BRANCH  72  75
ATOM     75  S   UNL A   1      48.734  30.113  30.124  1.00  0.00     0.127 S 
ATOM     76  O   UNL A   1      48.838  31.329  29.322  1.00  0.00    -0.237 OA
ATOM     77  O   UNL A   1      49.956  29.740  30.839  1.00  0.00    -0.237 OA
ATOM     78  O   UNL A   1      48.054  28.998  29.478  1.00  0.00    -0.744 OA
ENDBRANCH  72  75
ENDBRANCH  44  68
BRANCH  56  79
ATOM     79  C   UNL A   1      39.563  32.604  33.567  1.00  0.00     0.023 A 
ATOM     80  C   UNL A   1      39.163  31.336  33.103  1.00  0.00     0.012 A 
ATOM     81  C   UNL A   1      39.201  32.951  34.890  1.00  0.00     0.148 A 
ATOM     82  C   UNL A   1      38.422  30.463  33.905  1.00  0.00     0.002 A 
ATOM     83  C   UNL A   1      38.449  32.085  35.691  1.00  0.00     0.091 A 
ATOM     84  F   UNL A   1      39.585  34.131  35.363  1.00  0.00    -0.205 F 
ATOM     85  C   UNL A   1      38.061  30.836  35.195  1.00  0.00     0.022 A 
BRANCH  83  86
ATOM     86  S   UNL A   1      37.857  32.515  37.345  1.00  0.00     0.127 S 
ATOM     87  O   UNL A   1      36.737  33.414  37.056  1.00  0.00    -0.237 OA
ATOM     88  O   UNL A   1      37.460  31.215  37.876  1.00  0.00    -0.237 OA
ATOM     89  O   UNL A   1      38.967  33.163  38.035  1.00  0.00    -0.744 OA
ENDBRANCH  83  86
ENDBRANCH  56  79
ENDBRANCH  30  31
ENDBRANCH  22  25
ENDBRANCH   1  21
TORSDOF 15
ENDMDL
MODEL 3
REMARK VINA RESULT:     -12.0      1.688      1.942
REMARK SMILES CCc1[nH]nc(-n2cccc2)c1C(=O)NCCCNC(=O)c1ccc(-c2c3nc(c(-c4cccc(S(=O)(=O)[O-])c4F)c4ccc([nH]4)c(-c4cccc(S(=O)(=O)[O-])c4F)c4nc(c(-c5cccc(S(=O)(=O)[O-])c5F)c5ccc2[nH]5)C=C4)C=C3)cc1
REMARK SMILES IDX 18 1 17 2 16 3 15 4 13 5 14 6 12 8 3 9 4 10 5 11 6 13 2 14
REMARK SMILES IDX 1 15 7 16 8 17 11 18 9 19 10 20 19 21 20 22 21 24 22 25
REMARK SMILES IDX 23 26 84 27 24 28 83 29 25 30 26 31 27 32 77 33 28 34 82 35
REMARK SMILES IDX 76 36 78 37 29 38 81 39 75 40 74 41 30 43 62 44 42 45 61 46
REMARK SMILES IDX 43 47 46 48 60 49 79 50 44 51 45 52 59 54 80 55 47 56 31 57
REMARK SMILES IDX 32 58 40 59 33 60 35 61 41 62 34 63 36 64 37 65 38 66 39 67
REMARK SMILES IDX 63 68 64 69 72 70 65 71 67 72 73 73 66 74 68 75 69 76 70 77
REMARK SMILES IDX 71 78 48 79 49 80 57 81 50 82 52 83 58 84 51 85 53 86 54 87
REMARK SMILES IDX 55 88 56 89
REMARK H PARENT 15 7 4 12 19 23 78 42 46 53
REMARK Flexibility Score: inf
ROOT
ATOM      1  C   UNL A   1      34.653  28.897  27.394  1.00  0.00     0.118 C 
ENDROOT
BRANCH   1   2
ATOM      2  C   UNL A   1      33.960  29.147  26.072  1.00  0.00     0.042 C 
BRANCH   2   3
ATOM      3  C   UNL A   1      32.497  29.521  26.238  1.00  0.00     0.118 C 
BRANCH   3   4
ATOM      4  N   UNL A   1      31.587  28.460  26.552  1.00  0.00    -0.352 N 
ATOM      5  C   UNL A   1      31.169  27.388  25.803  1.00  0.00     0.256 C 
ATOM      6  O   UNL A   1      30.729  26.449  26.471  1.00  0.00    -0.269 OA
ATOM      7  H   UNL A   1      31.197  28.508  27.455  1.00  0.00     0.163 HD
BRANCH   5   8
ATOM      8  C   UNL A   1      31.191  27.296  24.329  1.00  0.00     0.105 A 
ATOM      9  C   UNL A   1      30.577  28.004  23.275  1.00  0.00     0.050 A 
ATOM     10  N   UNL A   1      31.099  27.477  22.120  1.00  0.00    -0.280 N 
ATOM     11  N   UNL A   1      32.100  26.625  22.296  1.00  0.00    -0.156 NA
ATOM     12  H   UNL A   1      30.755  27.713  21.227  1.00  0.00     0.190 HD
ATOM     13  C   UNL A   1      32.105  26.434  23.619  1.00  0.00     0.171 A 
BRANCH   9  14
ATOM     14  C   UNL A   1      29.587  29.129  23.156  1.00  0.00     0.053 C 
ATOM     15  C   UNL A   1      28.120  28.742  23.034  1.00  0.00     0.011 C 
ENDBRANCH   9  14
BRANCH  13  16
ATOM     16  N   UNL A   1      33.005  25.433  24.109  1.00  0.00    -0.307 N 
ATOM     17  C   UNL A   1      32.918  24.063  23.958  1.00  0.00     0.093 A 
ATOM     18  C   UNL A   1      34.191  25.691  24.782  1.00  0.00     0.093 A 
ATOM     19  C   UNL A   1      33.989  23.468  24.591  1.00  0.00     0.020 A 
ATOM     20  C   UNL A   1      34.781  24.500  25.138  1.00  0.00     0.020 A 
ENDBRANCH  13  16
ENDBRANCH   5   8
ENDBRANCH   3   4
ENDBRANCH   2   3
ENDBRANCH   1   2
BRANCH   1  21
ATOM     21  N   UNL A   1      34.840  30.126  28.167  1.00  0.00    -0.352 N 
ATOM     22  C   UNL A   1      35.952  30.496  28.893  1.00  0.00     0.251 C 
ATOM     23  H   UNL A   1      34.087  30.761  28.166  1.00  0.00     0.163 HD
ATOM     24  O   UNL A   1      35.928  31.463  29.632  1.00  0.00    -0.269 OA
BRANCH  22  25
ATOM     25  C   UNL A   1      37.140  29.628  28.802  1.00  0.00     0.039 A 
ATOM     26  C   UNL A   1      38.001  29.806  27.718  1.00  0.00     0.014 A 
ATOM     27  C   UNL A   1      37.452  28.758  29.851  1.00  0.00     0.014 A 
ATOM     28  C   UNL A   1      39.235  29.174  27.736  1.00  0.00     0.010 A 
ATOM     29  C   UNL A   1      38.710  28.186  29.904  1.00  0.00     0.010 A 
ATOM     30  C   UNL A   1      39.600  28.398  28.847  1.00  0.00    -0.014 A 
BRANCH  30  31
ATOM     31  C   UNL A   1      40.961  27.831  28.900  1.00  0.00     0.031 A 
ATOM     32  C   UNL A   1      41.017  26.397  28.365  1.00  0.00     0.074 A 
ATOM     33  C   UNL A   1      41.912  28.634  29.463  1.00  0.00     0.049 A 
ATOM     34  N   UNL A   1      41.601  25.350  28.868  1.00  0.00    -0.248 NA
ATOM     35  C   UNL A   1      40.182  26.033  27.191  1.00  0.00     0.031 C 
ATOM     36  C   UNL A   1      41.668  30.024  29.914  1.00  0.00     0.029 A 
ATOM     37  N   UNL A   1      43.246  28.480  29.776  1.00  0.00    -0.354 N 
ATOM     38  C   UNL A   1      41.383  24.274  27.971  1.00  0.00     0.074 A 
ATOM     39  C   UNL A   1      40.381  24.717  27.049  1.00  0.00     0.031 C 
ATOM     40  C   UNL A   1      42.770  30.548  30.482  1.00  0.00     0.029 A 
ATOM     41  C   UNL A   1      43.836  29.566  30.462  1.00  0.00     0.049 A 
ATOM     42  H   UNL A   1      43.752  27.669  29.539  1.00  0.00     0.167 HD
ATOM     43  C   UNL A   1      42.170  23.154  27.953  1.00  0.00     0.034 A 
ATOM     44  C   UNL A   1      45.072  29.667  31.039  1.00  0.00     0.034 A 
ATOM     45  C   UNL A   1      43.280  23.357  28.831  1.00  0.00     0.049 A 
ATOM     46  C   UNL A   1      45.759  28.396  30.769  1.00  0.00     0.074 A 
ATOM     47  C   UNL A   1      43.443  23.324  30.189  1.00  0.00     0.029 A 
ATOM     48  N   UNL A   1      44.368  23.968  28.252  1.00  0.00    -0.354 N 
ATOM     49  N   UNL A   1      46.237  28.035  29.615  1.00  0.00    -0.248 NA
ATOM     50  C   UNL A   1      45.798  27.378  31.829  1.00  0.00     0.031 C 
ATOM     51  C   UNL A   1      44.459  24.275  30.429  1.00  0.00     0.029 A 
ATOM     52  C   UNL A   1      44.964  24.745  29.210  1.00  0.00     0.049 A 
ATOM     53  H   UNL A   1      44.665  23.865  27.319  1.00  0.00     0.167 HD
ATOM     54  C   UNL A   1      46.280  26.665  29.735  1.00  0.00     0.074 A 
ATOM     55  C   UNL A   1      46.339  26.375  31.147  1.00  0.00     0.031 C 
ATOM     56  C   UNL A   1      45.730  25.888  28.766  1.00  0.00     0.034 A 
BRANCH  43  57
ATOM     57  C   UNL A   1      42.286  21.930  27.062  1.00  0.00     0.023 A 
ATOM     58  C   UNL A   1      41.379  20.872  27.376  1.00  0.00     0.012 A 
ATOM     59  C   UNL A   1      43.331  21.629  26.176  1.00  0.00     0.148 A 
ATOM     60  C   UNL A   1      41.567  19.560  26.946  1.00  0.00     0.002 A 
ATOM     61  C   UNL A   1      43.487  20.317  25.702  1.00  0.00     0.091 A 
ATOM     62  F   UNL A   1      44.218  22.576  25.856  1.00  0.00    -0.205 F 
ATOM     63  C   UNL A   1      42.633  19.280  26.116  1.00  0.00     0.022 A 
BRANCH  61  64
ATOM     64  S   UNL A   1      44.777  19.843  24.542  1.00  0.00     0.127 S 
ATOM     65  O   UNL A   1      44.512  20.731  23.413  1.00  0.00    -0.237 OA
ATOM     66  O   UNL A   1      45.995  20.165  25.292  1.00  0.00    -0.237 OA
ATOM     67  O   UNL A   1      44.586  18.418  24.312  1.00  0.00    -0.744 OA
ENDBRANCH  61  64
ENDBRANCH  43  57
BRANCH  44  68
ATOM     68  C   UNL A   1      45.723  30.653  31.979  1.00  0.00     0.023 A 
ATOM     69  C   UNL A   1      46.912  31.342  31.691  1.00  0.00     0.012 A 
ATOM     70  C   UNL A   1      45.101  30.984  33.216  1.00  0.00     0.148 A 
ATOM     71  C   UNL A   1      47.374  32.386  32.514  1.00  0.00     0.002 A 
ATOM     72  C   UNL A   1      45.494  32.082  33.971  1.00  0.00     0.091 A 
ATOM     73  F   UNL A   1      44.136  30.199  33.705  1.00  0.00    -0.205 F 
ATOM     74  C   UNL A   1      46.640  32.790  33.626  1.00  0.00     0.022 A 
BRANCH  72  75
ATOM     75  S   UNL A   1      44.474  32.718  35.315  1.00  0.00     0.127 S 
ATOM     76  O   UNL A   1      45.179  33.941  35.688  1.00  0.00    -0.237 OA
ATOM     77  O   UNL A   1      43.195  32.927  34.635  1.00  0.00    -0.237 OA
ATOM     78  O   UNL A   1      44.448  31.679  36.336  1.00  0.00    -0.744 OA
ENDBRANCH  72  75
ENDBRANCH  44  68
BRANCH  56  79
ATOM     79  C   UNL A   1      45.685  26.544  27.387  1.00  0.00     0.023 A 
ATOM     80  C   UNL A   1      44.425  26.930  26.889  1.00  0.00     0.012 A 
ATOM     81  C   UNL A   1      46.791  26.672  26.513  1.00  0.00     0.148 A 
ATOM     82  C   UNL A   1      44.267  27.401  25.581  1.00  0.00     0.002 A 
ATOM     83  C   UNL A   1      46.635  27.131  25.202  1.00  0.00     0.091 A 
ATOM     84  F   UNL A   1      47.995  26.338  26.963  1.00  0.00    -0.205 F 
ATOM     85  C   UNL A   1      45.368  27.498  24.737  1.00  0.00     0.022 A 
BRANCH  83  86
ATOM     86  S   UNL A   1      47.986  27.208  24.002  1.00  0.00     0.127 S 
ATOM     87  O   UNL A   1      48.222  25.795  23.700  1.00  0.00    -0.237 OA
ATOM     88  O   UNL A   1      47.383  27.963  22.908  1.00  0.00    -0.237 OA
ATOM     89  O   UNL A   1      49.107  27.859  24.672  1.00  0.00    -0.744 OA
ENDBRANCH  83  86
ENDBRANCH  56  79
ENDBRANCH  30  31
ENDBRANCH  22  25
ENDBRANCH   1  21
TORSDOF 15
ENDMDL
