MODEL 1
REMARK VINA RESULT:     -11.4      0.000      0.000
REMARK SMILES CC(C)(C)N(CC(=O)NCCCNC(=O)c1ccc(-c2c3nc(c(-c4cccc(S(=O)(=O)[O-])c4F)c4ccc([nH]4)c(-c4cccc(S(=O)(=O)[O-])c4F)c4nc(c(-c5cccc(S(=O)(=O)[O-])c5F)c5ccc2[nH]5)C=C4)C=C3)cc1)C(=O)C1(c2ccccc2)CCC1
REMARK SMILES IDX 10 1 9 2 7 3 8 4 6 6 5 7 2 8 1 9 3 10 4 11 79 12 80 13 81 14
REMARK SMILES IDX 88 15 90 16 89 17 82 18 83 19 87 20 84 21 86 22 85 23 11 24
REMARK SMILES IDX 12 25 13 26 14 27 15 29 16 30 17 31 78 32 18 33 77 34 19 35
REMARK SMILES IDX 20 36 21 37 71 38 22 39 76 40 70 41 72 42 23 43 75 44 69 45
REMARK SMILES IDX 68 46 24 48 56 49 36 50 55 51 37 52 40 53 54 54 73 55 38 56
REMARK SMILES IDX 39 57 53 59 74 60 41 61 25 62 26 63 34 64 27 65 29 66 35 67
REMARK SMILES IDX 28 68 30 69 31 70 32 71 33 72 57 73 58 74 66 75 59 76 61 77
REMARK SMILES IDX 67 78 60 79 62 80 63 81 64 82 65 83 42 84 43 85 51 86 44 87
REMARK SMILES IDX 46 88 52 89 45 90 47 91 48 92 49 93 50 94
REMARK H PARENT 9 5 13 28 72 47 40 58
REMARK Flexibility Score: inf
ROOT
ATOM      1  C   UNL A   1      31.841  27.163  26.280  1.00  0.00     0.117 C 
ENDROOT
BRANCH   1   2
ATOM      2  N   UNL A   1      31.322  25.999  26.953  1.00  0.00    -0.354 N 
ATOM      3  C   UNL A   1      31.156  24.747  26.454  1.00  0.00     0.239 C 
ATOM      4  O   UNL A   1      31.106  23.838  27.285  1.00  0.00    -0.273 OA
ATOM      5  H   UNL A   1      31.054  26.128  27.892  1.00  0.00     0.163 HD
BRANCH   3   6
ATOM      6  C   UNL A   1      31.254  24.476  24.943  1.00  0.00     0.220 C 
BRANCH   6   7
ATOM      7  N   UNL A   1      32.560  24.618  24.252  1.00  0.00    -0.328 N 
BRANCH   7   8
ATOM      8  C   UNL A   1      32.665  25.484  22.998  1.00  0.00     0.035 C 
ATOM      9  C   UNL A   1      32.943  24.693  21.691  1.00  0.00     0.034 C 
ATOM     10  C   UNL A   1      33.802  26.526  23.117  1.00  0.00     0.034 C 
ATOM     11  C   UNL A   1      31.326  26.220  22.726  1.00  0.00     0.034 C 
ENDBRANCH   7   8
BRANCH   7  12
ATOM     12  C   UNL A   1      33.792  24.222  24.873  1.00  0.00     0.234 C 
ATOM     13  O   UNL A   1      34.218  24.900  25.826  1.00  0.00    -0.274 OA
BRANCH  12  14
ATOM     14  C   UNL A   1      34.661  22.957  24.414  1.00  0.00     0.074 C 
ATOM     15  C   UNL A   1      35.682  23.280  23.256  1.00  0.00     0.022 C 
ATOM     16  C   UNL A   1      35.981  22.743  25.298  1.00  0.00     0.022 C 
ATOM     17  C   UNL A   1      36.748  22.458  24.001  1.00  0.00     0.003 C 
BRANCH  14  18
ATOM     18  C   UNL A   1      33.767  21.607  24.370  1.00  0.00    -0.032 A 
ATOM     19  C   UNL A   1      33.873  20.589  25.340  1.00  0.00     0.005 A 
ATOM     20  C   UNL A   1      32.868  21.355  23.310  1.00  0.00     0.005 A 
ATOM     21  C   UNL A   1      33.256  19.345  25.185  1.00  0.00     0.000 A 
ATOM     22  C   UNL A   1      32.234  20.118  23.155  1.00  0.00     0.000 A 
ATOM     23  C   UNL A   1      32.454  19.102  24.078  1.00  0.00     0.000 A 
ENDBRANCH  14  18
ENDBRANCH  12  14
ENDBRANCH   7  12
ENDBRANCH   6   7
ENDBRANCH   3   6
ENDBRANCH   1   2
BRANCH   1  24
ATOM     24  C   UNL A   1      32.674  28.033  27.199  1.00  0.00     0.042 C 
BRANCH  24  25
ATOM     25  C   UNL A   1      33.771  28.789  26.466  1.00  0.00     0.118 C 
BRANCH  25  26
ATOM     26  N   UNL A   1      33.729  30.222  26.741  1.00  0.00    -0.352 N 
ATOM     27  C   UNL A   1      34.506  30.987  27.574  1.00  0.00     0.251 C 
ATOM     28  H   UNL A   1      33.033  30.718  26.253  1.00  0.00     0.163 HD
ATOM     29  O   UNL A   1      34.135  32.116  27.878  1.00  0.00    -0.269 OA
BRANCH  27  30
ATOM     30  C   UNL A   1      35.782  30.454  28.096  1.00  0.00     0.039 A 
ATOM     31  C   UNL A   1      35.793  29.775  29.317  1.00  0.00     0.014 A 
ATOM     32  C   UNL A   1      36.974  30.658  27.399  1.00  0.00     0.014 A 
ATOM     33  C   UNL A   1      36.996  29.264  29.810  1.00  0.00     0.010 A 
ATOM     34  C   UNL A   1      38.144  30.049  27.831  1.00  0.00     0.010 A 
ATOM     35  C   UNL A   1      38.177  29.377  29.059  1.00  0.00    -0.014 A 
BRANCH  35  36
ATOM     36  C   UNL A   1      39.470  28.842  29.553  1.00  0.00     0.031 A 
ATOM     37  C   UNL A   1      40.188  29.537  30.681  1.00  0.00     0.074 A 
ATOM     38  C   UNL A   1      40.037  27.789  28.933  1.00  0.00     0.049 A 
ATOM     39  N   UNL A   1      41.348  29.259  31.216  1.00  0.00    -0.248 NA
ATOM     40  C   UNL A   1      39.538  30.728  31.259  1.00  0.00     0.031 C 
ATOM     41  C   UNL A   1      39.486  27.097  27.765  1.00  0.00     0.029 A 
ATOM     42  N   UNL A   1      41.213  27.133  29.183  1.00  0.00    -0.354 N 
ATOM     43  C   UNL A   1      41.585  30.260  32.151  1.00  0.00     0.074 A 
ATOM     44  C   UNL A   1      40.473  31.180  32.080  1.00  0.00     0.031 C 
ATOM     45  C   UNL A   1      40.317  26.103  27.411  1.00  0.00     0.029 A 
ATOM     46  C   UNL A   1      41.467  26.103  28.308  1.00  0.00     0.049 A 
ATOM     47  H   UNL A   1      41.820  27.376  29.920  1.00  0.00     0.167 HD
ATOM     48  C   UNL A   1      42.614  30.383  33.022  1.00  0.00     0.034 A 
ATOM     49  C   UNL A   1      42.510  25.251  28.243  1.00  0.00     0.034 A 
ATOM     50  C   UNL A   1      43.679  29.426  33.136  1.00  0.00     0.049 A 
ATOM     51  C   UNL A   1      43.597  25.357  29.277  1.00  0.00     0.074 A 
ATOM     52  C   UNL A   1      44.713  29.393  34.054  1.00  0.00     0.029 A 
ATOM     53  N   UNL A   1      43.844  28.327  32.306  1.00  0.00    -0.354 N 
ATOM     54  N   UNL A   1      43.715  26.209  30.267  1.00  0.00    -0.248 NA
ATOM     55  C   UNL A   1      44.671  24.356  29.214  1.00  0.00     0.031 C 
ATOM     56  C   UNL A   1      45.512  28.279  33.770  1.00  0.00     0.029 A 
ATOM     57  C   UNL A   1      44.963  27.609  32.688  1.00  0.00     0.049 A 
ATOM     58  H   UNL A   1      43.252  28.092  31.556  1.00  0.00     0.167 HD
ATOM     59  C   UNL A   1      44.857  25.828  30.963  1.00  0.00     0.074 A 
ATOM     60  C   UNL A   1      45.378  24.652  30.297  1.00  0.00     0.031 C 
ATOM     61  C   UNL A   1      45.433  26.409  32.045  1.00  0.00     0.034 A 
BRANCH  48  62
ATOM     62  C   UNL A   1      42.598  31.558  33.965  1.00  0.00     0.023 A 
ATOM     63  C   UNL A   1      43.095  32.804  33.531  1.00  0.00     0.012 A 
ATOM     64  C   UNL A   1      42.052  31.447  35.258  1.00  0.00     0.148 A 
ATOM     65  C   UNL A   1      43.088  33.910  34.380  1.00  0.00     0.002 A 
ATOM     66  C   UNL A   1      42.005  32.565  36.083  1.00  0.00     0.091 A 
ATOM     67  F   UNL A   1      41.604  30.250  35.665  1.00  0.00    -0.205 F 
ATOM     68  C   UNL A   1      42.533  33.794  35.651  1.00  0.00     0.022 A 
BRANCH  66  69
ATOM     69  S   UNL A   1      41.239  32.542  37.709  1.00  0.00     0.127 S 
ATOM     70  O   UNL A   1      39.876  32.120  37.386  1.00  0.00    -0.237 OA
ATOM     71  O   UNL A   1      42.037  31.538  38.411  1.00  0.00    -0.237 OA
ATOM     72  O   UNL A   1      41.368  33.894  38.232  1.00  0.00    -0.744 OA
ENDBRANCH  66  69
ENDBRANCH  48  62
BRANCH  49  73
ATOM     73  C   UNL A   1      42.523  24.170  27.217  1.00  0.00     0.023 A 
ATOM     74  C   UNL A   1      43.411  24.267  26.127  1.00  0.00     0.012 A 
ATOM     75  C   UNL A   1      41.697  23.036  27.330  1.00  0.00     0.148 A 
ATOM     76  C   UNL A   1      43.453  23.271  25.151  1.00  0.00     0.002 A 
ATOM     77  C   UNL A   1      41.782  22.022  26.381  1.00  0.00     0.091 A 
ATOM     78  F   UNL A   1      40.852  22.965  28.367  1.00  0.00    -0.205 F 
ATOM     79  C   UNL A   1      42.646  22.146  25.283  1.00  0.00     0.022 A 
BRANCH  77  80
ATOM     80  S   UNL A   1      40.879  20.477  26.542  1.00  0.00     0.127 S 
ATOM     81  O   UNL A   1      39.539  20.868  26.115  1.00  0.00    -0.237 OA
ATOM     82  O   UNL A   1      41.596  19.609  25.607  1.00  0.00    -0.237 OA
ATOM     83  O   UNL A   1      41.014  20.089  27.940  1.00  0.00    -0.744 OA
ENDBRANCH  77  80
ENDBRANCH  49  73
BRANCH  61  84
ATOM     84  C   UNL A   1      46.676  25.766  32.599  1.00  0.00     0.023 A 
ATOM     85  C   UNL A   1      46.575  24.860  33.673  1.00  0.00     0.012 A 
ATOM     86  C   UNL A   1      47.933  26.005  32.010  1.00  0.00     0.148 A 
ATOM     87  C   UNL A   1      47.710  24.229  34.177  1.00  0.00     0.002 A 
ATOM     88  C   UNL A   1      49.054  25.334  32.485  1.00  0.00     0.091 A 
ATOM     89  F   UNL A   1      48.012  26.884  31.001  1.00  0.00    -0.205 F 
ATOM     90  C   UNL A   1      48.946  24.456  33.576  1.00  0.00     0.022 A 
BRANCH  88  91
ATOM     91  S   UNL A   1      50.665  25.493  31.708  1.00  0.00     0.127 S 
ATOM     92  O   UNL A   1      51.513  24.728  32.620  1.00  0.00    -0.237 OA
ATOM     93  O   UNL A   1      50.448  24.864  30.405  1.00  0.00    -0.237 OA
ATOM     94  O   UNL A   1      50.937  26.924  31.646  1.00  0.00    -0.744 OA
ENDBRANCH  88  91
ENDBRANCH  61  84
ENDBRANCH  35  36
ENDBRANCH  27  30
ENDBRANCH  25  26
ENDBRANCH  24  25
ENDBRANCH   1  24
TORSDOF 18
ENDMDL
MODEL 2
REMARK VINA RESULT:     -11.4      1.876      2.545
REMARK SMILES CC(C)(C)N(CC(=O)NCCCNC(=O)c1ccc(-c2c3nc(c(-c4cccc(S(=O)(=O)[O-])c4F)c4ccc([nH]4)c(-c4cccc(S(=O)(=O)[O-])c4F)c4nc(c(-c5cccc(S(=O)(=O)[O-])c5F)c5ccc2[nH]5)C=C4)C=C3)cc1)C(=O)C1(c2ccccc2)CCC1
REMARK SMILES IDX 10 1 9 2 7 3 8 4 6 6 5 7 2 8 1 9 3 10 4 11 79 12 80 13 81 14
REMARK SMILES IDX 88 15 90 16 89 17 82 18 83 19 87 20 84 21 86 22 85 23 11 24
REMARK SMILES IDX 12 25 13 26 14 27 15 29 16 30 17 31 78 32 18 33 77 34 19 35
REMARK SMILES IDX 20 36 21 37 71 38 22 39 76 40 70 41 72 42 23 43 75 44 69 45
REMARK SMILES IDX 68 46 24 48 56 49 36 50 55 51 37 52 40 53 54 54 73 55 38 56
REMARK SMILES IDX 39 57 53 59 74 60 41 61 25 62 26 63 34 64 27 65 29 66 35 67
REMARK SMILES IDX 28 68 30 69 31 70 32 71 33 72 57 73 58 74 66 75 59 76 61 77
REMARK SMILES IDX 67 78 60 79 62 80 63 81 64 82 65 83 42 84 43 85 51 86 44 87
REMARK SMILES IDX 46 88 52 89 45 90 47 91 48 92 49 93 50 94
REMARK H PARENT 9 5 13 28 72 47 40 58
REMARK Flexibility Score: inf
ROOT
ATOM      1  C   UNL A   1      31.614  27.895  26.281  1.00  0.00     0.117 C 
ENDROOT
BRANCH   1   2
ATOM      2  N   UNL A   1      30.845  26.791  26.800  1.00  0.00    -0.354 N 
ATOM      3  C   UNL A   1      30.484  25.649  26.161  1.00  0.00     0.239 C 
ATOM      4  O   UNL A   1      30.213  24.689  26.886  1.00  0.00    -0.273 OA
ATOM      5  H   UNL A   1      30.545  26.876  27.733  1.00  0.00     0.163 HD
BRANCH   3   6
ATOM      6  C   UNL A   1      30.629  25.512  24.635  1.00  0.00     0.220 C 
BRANCH   6   7
ATOM      7  N   UNL A   1      31.954  25.193  24.047  1.00  0.00    -0.328 N 
BRANCH   7   8
ATOM      8  C   UNL A   1      32.410  25.901  22.773  1.00  0.00     0.035 C 
ATOM      9  C   UNL A   1      31.308  26.742  22.074  1.00  0.00     0.034 C 
ATOM     10  C   UNL A   1      32.920  24.897  21.713  1.00  0.00     0.034 C 
ATOM     11  C   UNL A   1      33.534  26.924  23.087  1.00  0.00     0.034 C 
ENDBRANCH   7   8
BRANCH   7  12
ATOM     12  C   UNL A   1      32.954  24.469  24.780  1.00  0.00     0.234 C 
ATOM     13  O   UNL A   1      33.756  25.114  25.480  1.00  0.00    -0.274 OA
BRANCH  12  14
ATOM     14  C   UNL A   1      33.105  22.874  24.754  1.00  0.00     0.074 C 
ATOM     15  C   UNL A   1      32.205  22.139  25.821  1.00  0.00     0.022 C 
ATOM     16  C   UNL A   1      32.137  22.166  23.689  1.00  0.00     0.022 C 
ATOM     17  C   UNL A   1      31.826  21.102  24.749  1.00  0.00     0.003 C 
BRANCH  14  18
ATOM     18  C   UNL A   1      34.645  22.426  24.527  1.00  0.00    -0.032 A 
ATOM     19  C   UNL A   1      35.325  21.558  25.404  1.00  0.00     0.005 A 
ATOM     20  C   UNL A   1      35.408  22.940  23.455  1.00  0.00     0.005 A 
ATOM     21  C   UNL A   1      36.703  21.342  25.319  1.00  0.00     0.000 A 
ATOM     22  C   UNL A   1      36.785  22.717  23.353  1.00  0.00     0.000 A 
ATOM     23  C   UNL A   1      37.437  21.942  24.306  1.00  0.00     0.000 A 
ENDBRANCH  14  18
ENDBRANCH  12  14
ENDBRANCH   7  12
ENDBRANCH   6   7
ENDBRANCH   3   6
ENDBRANCH   1   2
BRANCH   1  24
ATOM     24  C   UNL A   1      32.896  28.116  27.056  1.00  0.00     0.042 C 
BRANCH  24  25
ATOM     25  C   UNL A   1      33.917  28.941  26.290  1.00  0.00     0.118 C 
BRANCH  25  26
ATOM     26  N   UNL A   1      33.869  30.353  26.657  1.00  0.00    -0.352 N 
ATOM     27  C   UNL A   1      34.601  31.053  27.584  1.00  0.00     0.251 C 
ATOM     28  H   UNL A   1      33.208  30.888  26.162  1.00  0.00     0.163 HD
ATOM     29  O   UNL A   1      34.220  32.164  27.940  1.00  0.00    -0.269 OA
BRANCH  27  30
ATOM     30  C   UNL A   1      35.838  30.473  28.145  1.00  0.00     0.039 A 
ATOM     31  C   UNL A   1      35.772  29.722  29.321  1.00  0.00     0.014 A 
ATOM     32  C   UNL A   1      37.070  30.702  27.531  1.00  0.00     0.014 A 
ATOM     33  C   UNL A   1      36.938  29.166  29.851  1.00  0.00     0.010 A 
ATOM     34  C   UNL A   1      38.208  30.053  27.992  1.00  0.00     0.010 A 
ATOM     35  C   UNL A   1      38.162  29.308  29.176  1.00  0.00    -0.014 A 
BRANCH  35  36
ATOM     36  C   UNL A   1      39.419  28.727  29.711  1.00  0.00     0.031 A 
ATOM     37  C   UNL A   1      40.062  29.326  30.935  1.00  0.00     0.074 A 
ATOM     38  C   UNL A   1      40.024  27.722  29.048  1.00  0.00     0.049 A 
ATOM     39  N   UNL A   1      41.184  28.999  31.522  1.00  0.00    -0.248 NA
ATOM     40  C   UNL A   1      39.377  30.472  31.562  1.00  0.00     0.031 C 
ATOM     41  C   UNL A   1      39.550  27.127  27.796  1.00  0.00     0.029 A 
ATOM     42  N   UNL A   1      41.180  27.040  29.322  1.00  0.00    -0.354 N 
ATOM     43  C   UNL A   1      41.361  29.921  32.546  1.00  0.00     0.074 A 
ATOM     44  C   UNL A   1      40.257  30.852  32.475  1.00  0.00     0.031 C 
ATOM     45  C   UNL A   1      40.401  26.158  27.420  1.00  0.00     0.029 A 
ATOM     46  C   UNL A   1      41.490  26.081  28.388  1.00  0.00     0.049 A 
ATOM     47  H   UNL A   1      41.737  27.220  30.114  1.00  0.00     0.167 HD
ATOM     48  C   UNL A   1      42.330  29.969  33.490  1.00  0.00     0.034 A 
ATOM     49  C   UNL A   1      42.533  25.229  28.324  1.00  0.00     0.034 A 
ATOM     50  C   UNL A   1      43.383  28.998  33.598  1.00  0.00     0.049 A 
ATOM     51  C   UNL A   1      43.550  25.246  29.433  1.00  0.00     0.074 A 
ATOM     52  C   UNL A   1      44.355  28.886  34.576  1.00  0.00     0.029 A 
ATOM     53  N   UNL A   1      43.601  27.968  32.696  1.00  0.00    -0.354 N 
ATOM     54  N   UNL A   1      43.604  26.017  30.492  1.00  0.00    -0.248 NA
ATOM     55  C   UNL A   1      44.624  24.246  29.362  1.00  0.00     0.031 C 
ATOM     56  C   UNL A   1      45.169  27.793  34.258  1.00  0.00     0.029 A 
ATOM     57  C   UNL A   1      44.691  27.214  33.092  1.00  0.00     0.049 A 
ATOM     58  H   UNL A   1      43.059  27.796  31.893  1.00  0.00     0.167 HD
ATOM     59  C   UNL A   1      44.696  25.575  31.229  1.00  0.00     0.074 A 
ATOM     60  C   UNL A   1      45.258  24.452  30.508  1.00  0.00     0.031 C 
ATOM     61  C   UNL A   1      45.201  26.065  32.389  1.00  0.00     0.034 A 
BRANCH  48  62
ATOM     62  C   UNL A   1      42.253  31.066  34.519  1.00  0.00     0.023 A 
ATOM     63  C   UNL A   1      41.591  30.826  35.742  1.00  0.00     0.012 A 
ATOM     64  C   UNL A   1      42.869  32.313  34.303  1.00  0.00     0.148 A 
ATOM     65  C   UNL A   1      41.508  31.820  36.715  1.00  0.00     0.002 A 
ATOM     66  C   UNL A   1      42.824  33.284  35.298  1.00  0.00     0.091 A 
ATOM     67  F   UNL A   1      43.475  32.534  33.128  1.00  0.00    -0.205 F 
ATOM     68  C   UNL A   1      42.133  33.045  36.498  1.00  0.00     0.022 A 
BRANCH  66  69
ATOM     69  S   UNL A   1      43.665  34.865  35.150  1.00  0.00     0.127 S 
ATOM     70  O   UNL A   1      43.340  35.493  36.431  1.00  0.00    -0.237 OA
ATOM     71  O   UNL A   1      45.062  34.459  35.007  1.00  0.00    -0.237 OA
ATOM     72  O   UNL A   1      43.097  35.513  33.976  1.00  0.00    -0.744 OA
ENDBRANCH  66  69
ENDBRANCH  48  62
BRANCH  49  73
ATOM     73  C   UNL A   1      42.613  24.232  27.219  1.00  0.00     0.023 A 
ATOM     74  C   UNL A   1      43.337  24.553  26.054  1.00  0.00     0.012 A 
ATOM     75  C   UNL A   1      42.013  22.964  27.326  1.00  0.00     0.148 A 
ATOM     76  C   UNL A   1      43.435  23.642  25.003  1.00  0.00     0.002 A 
ATOM     77  C   UNL A   1      42.160  22.041  26.296  1.00  0.00     0.091 A 
ATOM     78  F   UNL A   1      41.320  22.679  28.437  1.00  0.00    -0.205 F 
ATOM     79  C   UNL A   1      42.855  22.383  25.128  1.00  0.00     0.022 A 
BRANCH  77  80
ATOM     80  S   UNL A   1      41.561  20.351  26.426  1.00  0.00     0.127 S 
ATOM     81  O   UNL A   1      42.287  19.693  25.343  1.00  0.00    -0.237 OA
ATOM     82  O   UNL A   1      41.993  19.979  27.773  1.00  0.00    -0.237 OA
ATOM     83  O   UNL A   1      40.115  20.435  26.264  1.00  0.00    -0.744 OA
ENDBRANCH  77  80
ENDBRANCH  49  73
BRANCH  61  84
ATOM     84  C   UNL A   1      46.403  25.372  32.971  1.00  0.00     0.023 A 
ATOM     85  C   UNL A   1      47.695  25.852  32.678  1.00  0.00     0.012 A 
ATOM     86  C   UNL A   1      46.251  24.292  33.862  1.00  0.00     0.148 A 
ATOM     87  C   UNL A   1      48.820  25.245  33.235  1.00  0.00     0.002 A 
ATOM     88  C   UNL A   1      47.373  23.724  34.453  1.00  0.00     0.091 A 
ATOM     89  F   UNL A   1      45.015  23.838  34.113  1.00  0.00    -0.205 F 
ATOM     90  C   UNL A   1      48.658  24.190  34.131  1.00  0.00     0.022 A 
BRANCH  88  91
ATOM     91  S   UNL A   1      47.251  22.428  35.690  1.00  0.00     0.127 S 
ATOM     92  O   UNL A   1      46.692  21.324  34.912  1.00  0.00    -0.237 OA
ATOM     93  O   UNL A   1      48.646  22.246  36.093  1.00  0.00    -0.237 OA
ATOM     94  O   UNL A   1      46.387  22.959  36.738  1.00  0.00    -0.744 OA
ENDBRANCH  88  91
ENDBRANCH  61  84
ENDBRANCH  35  36
ENDBRANCH  27  30
ENDBRANCH  25  26
ENDBRANCH  24  25
ENDBRANCH   1  24
TORSDOF 18
ENDMDL
MODEL 3
REMARK VINA RESULT:     -11.4      2.724      3.848
REMARK SMILES CC(C)(C)N(CC(=O)NCCCNC(=O)c1ccc(-c2c3nc(c(-c4cccc(S(=O)(=O)[O-])c4F)c4ccc([nH]4)c(-c4cccc(S(=O)(=O)[O-])c4F)c4nc(c(-c5cccc(S(=O)(=O)[O-])c5F)c5ccc2[nH]5)C=C4)C=C3)cc1)C(=O)C1(c2ccccc2)CCC1
REMARK SMILES IDX 10 1 9 2 7 3 8 4 6 6 5 7 2 8 1 9 3 10 4 11 79 12 80 13 81 14
REMARK SMILES IDX 88 15 90 16 89 17 82 18 83 19 87 20 84 21 86 22 85 23 11 24
REMARK SMILES IDX 12 25 13 26 14 27 15 29 16 30 17 31 78 32 18 33 77 34 19 35
REMARK SMILES IDX 20 36 21 37 71 38 22 39 76 40 70 41 72 42 23 43 75 44 69 45
REMARK SMILES IDX 68 46 24 48 56 49 36 50 55 51 37 52 40 53 54 54 73 55 38 56
REMARK SMILES IDX 39 57 53 59 74 60 41 61 25 62 26 63 34 64 27 65 29 66 35 67
REMARK SMILES IDX 28 68 30 69 31 70 32 71 33 72 57 73 58 74 66 75 59 76 61 77
REMARK SMILES IDX 67 78 60 79 62 80 63 81 64 82 65 83 42 84 43 85 51 86 44 87
REMARK SMILES IDX 46 88 52 89 45 90 47 91 48 92 49 93 50 94
REMARK H PARENT 9 5 13 28 72 47 40 58
REMARK Flexibility Score: inf
ROOT
ATOM      1  C   UNL A   1      32.968  28.923  23.839  1.00  0.00     0.117 C 
ENDROOT
BRANCH   1   2
ATOM      2  N   UNL A   1      32.398  28.166  22.752  1.00  0.00    -0.354 N 
ATOM      3  C   UNL A   1      32.290  26.817  22.637  1.00  0.00     0.239 C 
ATOM      4  O   UNL A   1      31.421  26.411  21.863  1.00  0.00    -0.273 OA
ATOM      5  H   UNL A   1      32.044  28.693  22.000  1.00  0.00     0.163 HD
BRANCH   3   6
ATOM      6  C   UNL A   1      33.053  25.876  23.585  1.00  0.00     0.220 C 
BRANCH   6   7
ATOM      7  N   UNL A   1      32.302  24.902  24.417  1.00  0.00    -0.328 N 
BRANCH   7   8
ATOM      8  C   UNL A   1      31.709  25.344  25.754  1.00  0.00     0.035 C 
ATOM      9  C   UNL A   1      32.584  26.354  26.544  1.00  0.00     0.034 C 
ATOM     10  C   UNL A   1      31.480  24.143  26.701  1.00  0.00     0.034 C 
ATOM     11  C   UNL A   1      30.363  26.086  25.537  1.00  0.00     0.034 C 
ENDBRANCH   7   8
BRANCH   7  12
ATOM     12  C   UNL A   1      31.850  23.645  23.890  1.00  0.00     0.234 C 
ATOM     13  O   UNL A   1      30.719  23.594  23.374  1.00  0.00    -0.274 OA
BRANCH  12  14
ATOM     14  C   UNL A   1      32.714  22.296  23.926  1.00  0.00     0.074 C 
ATOM     15  C   UNL A   1      32.002  21.112  24.687  1.00  0.00     0.022 C 
ATOM     16  C   UNL A   1      32.501  21.375  22.630  1.00  0.00     0.022 C 
ATOM     17  C   UNL A   1      32.440  20.159  23.563  1.00  0.00     0.003 C 
BRANCH  14  18
ATOM     18  C   UNL A   1      34.286  22.603  24.167  1.00  0.00    -0.032 A 
ATOM     19  C   UNL A   1      35.191  22.827  23.110  1.00  0.00     0.005 A 
ATOM     20  C   UNL A   1      34.843  22.603  25.466  1.00  0.00     0.005 A 
ATOM     21  C   UNL A   1      36.573  22.884  23.312  1.00  0.00     0.000 A 
ATOM     22  C   UNL A   1      36.224  22.675  25.678  1.00  0.00     0.000 A 
ATOM     23  C   UNL A   1      37.090  22.784  24.596  1.00  0.00     0.000 A 
ENDBRANCH  14  18
ENDBRANCH  12  14
ENDBRANCH   7  12
ENDBRANCH   6   7
ENDBRANCH   3   6
ENDBRANCH   1   2
BRANCH   1  24
ATOM     24  C   UNL A   1      31.909  29.467  24.775  1.00  0.00     0.042 C 
BRANCH  24  25
ATOM     25  C   UNL A   1      32.473  29.900  26.120  1.00  0.00     0.118 C 
BRANCH  25  26
ATOM     26  N   UNL A   1      32.372  31.342  26.320  1.00  0.00    -0.352 N 
ATOM     27  C   UNL A   1      33.039  32.163  27.195  1.00  0.00     0.251 C 
ATOM     28  H   UNL A   1      31.724  31.798  25.737  1.00  0.00     0.163 HD
ATOM     29  O   UNL A   1      32.614  33.296  27.403  1.00  0.00    -0.269 OA
BRANCH  27  30
ATOM     30  C   UNL A   1      34.260  31.687  27.877  1.00  0.00     0.039 A 
ATOM     31  C   UNL A   1      35.290  32.590  28.149  1.00  0.00     0.014 A 
ATOM     32  C   UNL A   1      34.405  30.340  28.214  1.00  0.00     0.014 A 
ATOM     33  C   UNL A   1      36.443  32.146  28.800  1.00  0.00     0.010 A 
ATOM     34  C   UNL A   1      35.497  29.925  28.963  1.00  0.00     0.010 A 
ATOM     35  C   UNL A   1      36.545  30.814  29.233  1.00  0.00    -0.014 A 
BRANCH  35  36
ATOM     36  C   UNL A   1      37.755  30.311  29.929  1.00  0.00     0.031 A 
ATOM     37  C   UNL A   1      38.058  30.766  31.333  1.00  0.00     0.074 A 
ATOM     38  C   UNL A   1      38.623  29.519  29.269  1.00  0.00     0.049 A 
ATOM     39  N   UNL A   1      39.088  30.486  32.088  1.00  0.00    -0.248 NA
ATOM     40  C   UNL A   1      37.097  31.692  31.961  1.00  0.00     0.031 C 
ATOM     41  C   UNL A   1      38.490  29.094  27.874  1.00  0.00     0.029 A 
ATOM     42  N   UNL A   1      39.800  28.950  29.678  1.00  0.00    -0.354 N 
ATOM     43  C   UNL A   1      38.924  31.233  33.249  1.00  0.00     0.074 A 
ATOM     44  C   UNL A   1      37.721  32.016  33.083  1.00  0.00     0.031 C 
ATOM     45  C   UNL A   1      39.537  28.318  27.549  1.00  0.00     0.029 A 
ATOM     46  C   UNL A   1      40.425  28.212  28.701  1.00  0.00     0.049 A 
ATOM     47  H   UNL A   1      40.165  29.059  30.586  1.00  0.00     0.167 HD
ATOM     48  C   UNL A   1      39.681  31.238  34.370  1.00  0.00     0.034 A 
ATOM     49  C   UNL A   1      41.582  27.521  28.735  1.00  0.00     0.034 A 
ATOM     50  C   UNL A   1      40.835  30.402  34.556  1.00  0.00     0.049 A 
ATOM     51  C   UNL A   1      42.360  27.474  30.022  1.00  0.00     0.074 A 
ATOM     52  C   UNL A   1      41.613  30.246  35.689  1.00  0.00     0.029 A 
ATOM     53  N   UNL A   1      41.375  29.578  33.581  1.00  0.00    -0.354 N 
ATOM     54  N   UNL A   1      42.094  28.052  31.169  1.00  0.00    -0.248 NA
ATOM     55  C   UNL A   1      43.572  26.643  30.034  1.00  0.00     0.031 C 
ATOM     56  C   UNL A   1      42.633  29.334  35.394  1.00  0.00     0.029 A 
ATOM     57  C   UNL A   1      42.477  28.909  34.083  1.00  0.00     0.049 A 
ATOM     58  H   UNL A   1      41.026  29.481  32.666  1.00  0.00     0.167 HD
ATOM     59  C   UNL A   1      43.086  27.629  32.047  1.00  0.00     0.074 A 
ATOM     60  C   UNL A   1      43.941  26.726  31.305  1.00  0.00     0.031 C 
ATOM     61  C   UNL A   1      43.283  27.971  33.344  1.00  0.00     0.034 A 
BRANCH  48  62
ATOM     62  C   UNL A   1      39.242  32.123  35.508  1.00  0.00     0.023 A 
ATOM     63  C   UNL A   1      38.329  31.627  36.462  1.00  0.00     0.012 A 
ATOM     64  C   UNL A   1      39.763  33.422  35.664  1.00  0.00     0.148 A 
ATOM     65  C   UNL A   1      37.909  32.421  37.528  1.00  0.00     0.002 A 
ATOM     66  C   UNL A   1      39.376  34.191  36.756  1.00  0.00     0.091 A 
ATOM     67  F   UNL A   1      40.613  33.887  34.737  1.00  0.00    -0.205 F 
ATOM     68  C   UNL A   1      38.441  33.698  37.681  1.00  0.00     0.022 A 
BRANCH  66  69
ATOM     69  S   UNL A   1      40.063  35.818  37.089  1.00  0.00     0.127 S 
ATOM     70  O   UNL A   1      39.363  36.187  38.319  1.00  0.00    -0.237 OA
ATOM     71  O   UNL A   1      41.484  35.524  37.260  1.00  0.00    -0.237 OA
ATOM     72  O   UNL A   1      39.748  36.632  35.923  1.00  0.00    -0.744 OA
ENDBRANCH  66  69
ENDBRANCH  48  62
BRANCH  49  73
ATOM     73  C   UNL A   1      42.022  26.747  27.539  1.00  0.00     0.023 A 
ATOM     74  C   UNL A   1      42.706  27.412  26.503  1.00  0.00     0.012 A 
ATOM     75  C   UNL A   1      41.802  25.361  27.437  1.00  0.00     0.148 A 
ATOM     76  C   UNL A   1      43.135  26.718  25.372  1.00  0.00     0.002 A 
ATOM     77  C   UNL A   1      42.279  24.665  26.331  1.00  0.00     0.091 A 
ATOM     78  F   UNL A   1      41.141  24.747  28.428  1.00  0.00    -0.205 F 
ATOM     79  C   UNL A   1      42.930  25.344  25.291  1.00  0.00     0.022 A 
BRANCH  77  80
ATOM     80  S   UNL A   1      42.180  22.875  26.204  1.00  0.00     0.127 S 
ATOM     81  O   UNL A   1      42.927  22.450  27.384  1.00  0.00    -0.237 OA
ATOM     82  O   UNL A   1      40.736  22.647  26.273  1.00  0.00    -0.237 OA
ATOM     83  O   UNL A   1      42.777  22.542  24.917  1.00  0.00    -0.744 OA
ENDBRANCH  77  80
ENDBRANCH  49  73
BRANCH  61  84
ATOM     84  C   UNL A   1      44.449  27.345  34.059  1.00  0.00     0.023 A 
ATOM     85  C   UNL A   1      45.724  27.937  33.968  1.00  0.00     0.012 A 
ATOM     86  C   UNL A   1      44.269  26.212  34.876  1.00  0.00     0.148 A 
ATOM     87  C   UNL A   1      46.810  27.391  34.650  1.00  0.00     0.002 A 
ATOM     88  C   UNL A   1      45.345  25.702  35.592  1.00  0.00     0.091 A 
ATOM     89  F   UNL A   1      43.053  25.651  34.934  1.00  0.00    -0.205 F 
ATOM     90  C   UNL A   1      46.618  26.282  35.471  1.00  0.00     0.022 A 
BRANCH  88  91
ATOM     91  S   UNL A   1      45.165  24.338  36.747  1.00  0.00     0.127 S 
ATOM     92  O   UNL A   1      44.086  24.817  37.609  1.00  0.00    -0.237 OA
ATOM     93  O   UNL A   1      44.797  23.228  35.867  1.00  0.00    -0.237 OA
ATOM     94  O   UNL A   1      46.465  24.188  37.390  1.00  0.00    -0.744 OA
ENDBRANCH  88  91
ENDBRANCH  61  84
ENDBRANCH  35  36
ENDBRANCH  27  30
ENDBRANCH  25  26
ENDBRANCH  24  25
ENDBRANCH   1  24
TORSDOF 18
ENDMDL
