MODEL 1
REMARK VINA RESULT:     -10.8      0.000      0.000
REMARK SMILES CC(C)C[NH+]1CC[NH+]([C@H](C)[C@@H](C)C(=O)NCCCNC(=O)c2ccc(-c3c4nc(c(-c5cccc(S(=O)(=O)[O-])c5F)c5ccc([nH]5)c(-c5cccc(S(=O)(=O)[O-])c5F)c5nc(c(-c6cccc(S(=O)(=O)[O-])c6F)c6ccc3[nH]6)C=C5)C=C4)cc2)CC1
REMARK SMILES IDX 16 1 15 2 13 3 14 4 11 6 12 7 9 8 10 9 8 10 5 11 6 12 86 13
REMARK SMILES IDX 7 15 85 16 4 18 2 19 1 20 3 21 17 22 18 23 19 24 20 25 21 27
REMARK SMILES IDX 22 28 23 29 84 30 24 31 83 32 25 33 26 34 27 35 77 36 28 37
REMARK SMILES IDX 82 38 76 39 78 40 29 41 81 42 75 43 74 44 30 46 62 47 42 48
REMARK SMILES IDX 61 49 43 50 46 51 60 52 79 53 44 54 45 55 59 57 80 58 47 59
REMARK SMILES IDX 31 60 32 61 40 62 33 63 35 64 41 65 34 66 36 67 37 68 38 69
REMARK SMILES IDX 39 70 63 71 64 72 72 73 65 74 67 75 73 76 66 77 68 78 69 79
REMARK SMILES IDX 70 80 71 81 48 82 49 83 57 84 50 85 52 86 58 87 51 88 53 89
REMARK SMILES IDX 54 90 55 91 56 92
REMARK H PARENT 15 5 5 14 8 17 19 26 78 45 46 56
REMARK Flexibility Score: inf
ROOT
ATOM      1  C   UNL A   1      31.853  28.258  27.187  1.00  0.00     0.117 C 
ENDROOT
BRANCH   1   2
ATOM      2  N   UNL A   1      31.028  27.062  27.163  1.00  0.00    -0.356 N 
ATOM      3  C   UNL A   1      30.558  26.308  26.131  1.00  0.00     0.228 C 
ATOM      4  O   UNL A   1      29.904  25.301  26.418  1.00  0.00    -0.275 OA
ATOM      5  H   UNL A   1      30.761  26.739  28.054  1.00  0.00     0.163 HD
BRANCH   3   6
ATOM      6  C   UNL A   1      30.892  26.624  24.678  1.00  0.00     0.133 C 
ATOM      7  C   UNL A   1      29.590  26.769  23.879  1.00  0.00     0.024 C 
BRANCH   6   8
ATOM      8  C   UNL A   1      31.960  25.655  24.094  1.00  0.00     0.193 C 
ATOM      9  C   UNL A   1      33.203  26.402  23.581  1.00  0.00     0.076 C 
BRANCH   8  10
ATOM     10  N   UNL A   1      32.234  24.519  25.013  1.00  0.00    -0.323 N 
ATOM     11  N   UNL A   1      33.653  21.955  25.622  1.00  0.00    -0.325 N 
ATOM     12  C   UNL A   1      33.886  23.183  26.382  1.00  0.00     0.324 C 
ATOM     13  C   UNL A   1      32.266  21.916  25.166  1.00  0.00     0.324 C 
ATOM     14  H   UNL A   1      33.717  21.135  26.226  1.00  0.00     0.348 HD
ATOM     15  C   UNL A   1      33.596  24.452  25.557  1.00  0.00     0.324 C 
ATOM     16  C   UNL A   1      31.680  23.225  24.558  1.00  0.00     0.324 C 
ATOM     17  H   UNL A   1      31.683  24.750  25.839  1.00  0.00     0.348 HD
BRANCH  11  18
ATOM     18  C   UNL A   1      34.751  21.553  24.736  1.00  0.00     0.265 C 
BRANCH  18  19
ATOM     19  C   UNL A   1      36.229  21.552  25.198  1.00  0.00     0.038 C 
ATOM     20  C   UNL A   1      36.951  20.259  24.852  1.00  0.00     0.013 C 
ATOM     21  C   UNL A   1      37.001  22.689  24.519  1.00  0.00     0.013 C 
ENDBRANCH  18  19
ENDBRANCH  11  18
ENDBRANCH   8  10
ENDBRANCH   6   8
ENDBRANCH   3   6
ENDBRANCH   1   2
BRANCH   1  22
ATOM     22  C   UNL A   1      33.327  27.962  26.935  1.00  0.00     0.042 C 
BRANCH  22  23
ATOM     23  C   UNL A   1      34.041  29.026  26.116  1.00  0.00     0.118 C 
BRANCH  23  24
ATOM     24  N   UNL A   1      33.812  30.361  26.644  1.00  0.00    -0.352 N 
ATOM     25  C   UNL A   1      34.425  31.024  27.674  1.00  0.00     0.251 C 
ATOM     26  H   UNL A   1      33.102  30.871  26.188  1.00  0.00     0.163 HD
ATOM     27  O   UNL A   1      33.901  32.043  28.119  1.00  0.00    -0.269 OA
BRANCH  25  28
ATOM     28  C   UNL A   1      35.700  30.534  28.244  1.00  0.00     0.039 A 
ATOM     29  C   UNL A   1      36.896  30.902  27.622  1.00  0.00     0.014 A 
ATOM     30  C   UNL A   1      35.723  29.659  29.334  1.00  0.00     0.014 A 
ATOM     31  C   UNL A   1      38.109  30.406  28.100  1.00  0.00     0.010 A 
ATOM     32  C   UNL A   1      36.939  29.242  29.869  1.00  0.00     0.010 A 
ATOM     33  C   UNL A   1      38.142  29.579  29.235  1.00  0.00    -0.014 A 
BRANCH  33  34
ATOM     34  C   UNL A   1      39.424  29.028  29.739  1.00  0.00     0.031 A 
ATOM     35  C   UNL A   1      40.097  29.643  30.939  1.00  0.00     0.074 A 
ATOM     36  C   UNL A   1      40.015  28.012  29.081  1.00  0.00     0.049 A 
ATOM     37  N   UNL A   1      41.208  29.288  31.531  1.00  0.00    -0.248 NA
ATOM     38  C   UNL A   1      39.457  30.829  31.534  1.00  0.00     0.031 C 
ATOM     39  C   UNL A   1      39.516  27.402  27.847  1.00  0.00     0.029 A 
ATOM     40  N   UNL A   1      41.173  27.327  29.348  1.00  0.00    -0.354 N 
ATOM     41  C   UNL A   1      41.421  30.227  32.534  1.00  0.00     0.074 A 
ATOM     42  C   UNL A   1      40.347  31.190  32.446  1.00  0.00     0.031 C 
ATOM     43  C   UNL A   1      40.357  26.426  27.470  1.00  0.00     0.029 A 
ATOM     44  C   UNL A   1      41.459  26.350  28.425  1.00  0.00     0.049 A 
ATOM     45  H   UNL A   1      41.744  27.517  30.127  1.00  0.00     0.167 HD
ATOM     46  C   UNL A   1      42.401  30.267  33.469  1.00  0.00     0.034 A 
ATOM     47  C   UNL A   1      42.488  25.484  28.361  1.00  0.00     0.034 A 
ATOM     48  C   UNL A   1      43.433  29.273  33.589  1.00  0.00     0.049 A 
ATOM     49  C   UNL A   1      43.507  25.482  29.468  1.00  0.00     0.074 A 
ATOM     50  C   UNL A   1      44.410  29.158  34.562  1.00  0.00     0.029 A 
ATOM     51  N   UNL A   1      43.624  28.224  32.704  1.00  0.00    -0.354 N 
ATOM     52  N   UNL A   1      43.588  26.265  30.516  1.00  0.00    -0.248 NA
ATOM     53  C   UNL A   1      44.546  24.445  29.411  1.00  0.00     0.031 C 
ATOM     54  C   UNL A   1      45.202  28.045  34.255  1.00  0.00     0.029 A 
ATOM     55  C   UNL A   1      44.704  27.456  33.103  1.00  0.00     0.049 A 
ATOM     56  H   UNL A   1      43.073  28.050  31.907  1.00  0.00     0.167 HD
ATOM     57  C   UNL A   1      44.663  25.796  31.261  1.00  0.00     0.074 A 
ATOM     58  C   UNL A   1      45.186  24.643  30.555  1.00  0.00     0.031 C 
ATOM     59  C   UNL A   1      45.182  26.282  32.416  1.00  0.00     0.034 A 
BRANCH  46  60
ATOM     60  C   UNL A   1      42.364  31.393  34.471  1.00  0.00     0.023 A 
ATOM     61  C   UNL A   1      43.272  32.466  34.348  1.00  0.00     0.012 A 
ATOM     62  C   UNL A   1      41.413  31.412  35.509  1.00  0.00     0.148 A 
ATOM     63  C   UNL A   1      43.263  33.515  35.266  1.00  0.00     0.002 A 
ATOM     64  C   UNL A   1      41.380  32.485  36.393  1.00  0.00     0.091 A 
ATOM     65  F   UNL A   1      40.572  30.374  35.628  1.00  0.00    -0.205 F 
ATOM     66  C   UNL A   1      42.312  33.530  36.281  1.00  0.00     0.022 A 
BRANCH  64  67
ATOM     67  S   UNL A   1      40.138  32.635  37.683  1.00  0.00     0.127 S 
ATOM     68  O   UNL A   1      39.665  34.003  37.481  1.00  0.00    -0.237 OA
ATOM     69  O   UNL A   1      39.176  31.596  37.310  1.00  0.00    -0.237 OA
ATOM     70  O   UNL A   1      40.835  32.389  38.937  1.00  0.00    -0.744 OA
ENDBRANCH  64  67
ENDBRANCH  46  60
BRANCH  47  71
ATOM     71  C   UNL A   1      42.542  24.486  27.257  1.00  0.00     0.023 A 
ATOM     72  C   UNL A   1      43.244  24.797  26.076  1.00  0.00     0.012 A 
ATOM     73  C   UNL A   1      41.953  23.214  27.391  1.00  0.00     0.148 A 
ATOM     74  C   UNL A   1      43.333  23.872  25.036  1.00  0.00     0.002 A 
ATOM     75  C   UNL A   1      42.093  22.277  26.375  1.00  0.00     0.091 A 
ATOM     76  F   UNL A   1      41.284  22.941  28.520  1.00  0.00    -0.205 F 
ATOM     77  C   UNL A   1      42.768  22.608  25.190  1.00  0.00     0.022 A 
BRANCH  75  78
ATOM     78  S   UNL A   1      41.521  20.582  26.542  1.00  0.00     0.127 S 
ATOM     79  O   UNL A   1      42.140  19.941  25.386  1.00  0.00    -0.237 OA
ATOM     80  O   UNL A   1      42.084  20.199  27.837  1.00  0.00    -0.237 OA
ATOM     81  O   UNL A   1      40.064  20.655  26.522  1.00  0.00    -0.744 OA
ENDBRANCH  75  78
ENDBRANCH  47  71
BRANCH  59  82
ATOM     82  C   UNL A   1      46.361  25.555  33.008  1.00  0.00     0.023 A 
ATOM     83  C   UNL A   1      47.669  25.993  32.724  1.00  0.00     0.012 A 
ATOM     84  C   UNL A   1      46.170  24.472  33.889  1.00  0.00     0.148 A 
ATOM     85  C   UNL A   1      48.771  25.338  33.273  1.00  0.00     0.002 A 
ATOM     86  C   UNL A   1      47.272  23.855  34.470  1.00  0.00     0.091 A 
ATOM     87  F   UNL A   1      44.919  24.053  34.132  1.00  0.00    -0.205 F 
ATOM     88  C   UNL A   1      48.572  24.278  34.154  1.00  0.00     0.022 A 
BRANCH  86  89
ATOM     89  S   UNL A   1      47.094  22.547  35.689  1.00  0.00     0.127 S 
ATOM     90  O   UNL A   1      46.248  23.187  36.693  1.00  0.00    -0.237 OA
ATOM     91  O   UNL A   1      46.435  21.488  34.922  1.00  0.00    -0.237 OA
ATOM     92  O   UNL A   1      48.448  22.220  36.115  1.00  0.00    -0.744 OA
ENDBRANCH  86  89
ENDBRANCH  59  82
ENDBRANCH  33  34
ENDBRANCH  25  28
ENDBRANCH  23  24
ENDBRANCH  22  23
ENDBRANCH   1  22
TORSDOF 17
ENDMDL
MODEL 2
REMARK VINA RESULT:     -10.7      1.472      1.965
REMARK SMILES CC(C)C[NH+]1CC[NH+]([C@H](C)[C@@H](C)C(=O)NCCCNC(=O)c2ccc(-c3c4nc(c(-c5cccc(S(=O)(=O)[O-])c5F)c5ccc([nH]5)c(-c5cccc(S(=O)(=O)[O-])c5F)c5nc(c(-c6cccc(S(=O)(=O)[O-])c6F)c6ccc3[nH]6)C=C5)C=C4)cc2)CC1
REMARK SMILES IDX 16 1 15 2 13 3 14 4 11 6 12 7 9 8 10 9 8 10 5 11 6 12 86 13
REMARK SMILES IDX 7 15 85 16 4 18 2 19 1 20 3 21 17 22 18 23 19 24 20 25 21 27
REMARK SMILES IDX 22 28 23 29 84 30 24 31 83 32 25 33 26 34 27 35 77 36 28 37
REMARK SMILES IDX 82 38 76 39 78 40 29 41 81 42 75 43 74 44 30 46 62 47 42 48
REMARK SMILES IDX 61 49 43 50 46 51 60 52 79 53 44 54 45 55 59 57 80 58 47 59
REMARK SMILES IDX 31 60 32 61 40 62 33 63 35 64 41 65 34 66 36 67 37 68 38 69
REMARK SMILES IDX 39 70 63 71 64 72 72 73 65 74 67 75 73 76 66 77 68 78 69 79
REMARK SMILES IDX 70 80 71 81 48 82 49 83 57 84 50 85 52 86 58 87 51 88 53 89
REMARK SMILES IDX 54 90 55 91 56 92
REMARK H PARENT 15 5 5 14 8 17 19 26 78 45 46 56
REMARK Flexibility Score: inf
ROOT
ATOM      1  C   UNL A   1      32.389  26.971  26.594  1.00  0.00     0.117 C 
ENDROOT
BRANCH   1   2
ATOM      2  N   UNL A   1      32.032  27.192  25.203  1.00  0.00    -0.356 N 
ATOM      3  C   UNL A   1      32.209  26.426  24.092  1.00  0.00     0.228 C 
ATOM      4  O   UNL A   1      31.756  26.859  23.027  1.00  0.00    -0.275 OA
ATOM      5  H   UNL A   1      31.582  28.051  25.034  1.00  0.00     0.163 HD
BRANCH   3   6
ATOM      6  C   UNL A   1      32.855  25.047  24.151  1.00  0.00     0.133 C 
ATOM      7  C   UNL A   1      33.641  24.798  22.858  1.00  0.00     0.024 C 
BRANCH   6   8
ATOM      8  C   UNL A   1      31.845  23.941  24.572  1.00  0.00     0.193 C 
ATOM      9  C   UNL A   1      31.129  23.317  23.362  1.00  0.00     0.076 C 
BRANCH   8  10
ATOM     10  N   UNL A   1      32.453  22.972  25.521  1.00  0.00    -0.323 N 
ATOM     11  N   UNL A   1      34.789  21.326  26.413  1.00  0.00    -0.325 N 
ATOM     12  C   UNL A   1      34.249  22.425  27.213  1.00  0.00     0.324 C 
ATOM     13  C   UNL A   1      33.709  20.691  25.661  1.00  0.00     0.324 C 
ATOM     14  H   UNL A   1      35.124  20.570  27.011  1.00  0.00     0.348 HD
ATOM     15  C   UNL A   1      33.546  23.492  26.353  1.00  0.00     0.324 C 
ATOM     16  C   UNL A   1      32.692  21.630  24.947  1.00  0.00     0.324 C 
ATOM     17  H   UNL A   1      31.713  22.823  26.207  1.00  0.00     0.348 HD
BRANCH  11  18
ATOM     18  C   UNL A   1      36.090  21.589  25.789  1.00  0.00     0.265 C 
BRANCH  18  19
ATOM     19  C   UNL A   1      36.485  22.989  25.258  1.00  0.00     0.038 C 
ATOM     20  C   UNL A   1      37.746  23.531  25.914  1.00  0.00     0.013 C 
ATOM     21  C   UNL A   1      36.756  22.932  23.751  1.00  0.00     0.013 C 
ENDBRANCH  18  19
ENDBRANCH  11  18
ENDBRANCH   8  10
ENDBRANCH   6   8
ENDBRANCH   3   6
ENDBRANCH   1   2
BRANCH   1  22
ATOM     22  C   UNL A   1      32.962  28.217  27.260  1.00  0.00     0.042 C 
BRANCH  22  23
ATOM     23  C   UNL A   1      33.974  28.965  26.408  1.00  0.00     0.118 C 
BRANCH  23  24
ATOM     24  N   UNL A   1      33.968  30.393  26.684  1.00  0.00    -0.352 N 
ATOM     25  C   UNL A   1      34.727  31.130  27.554  1.00  0.00     0.251 C 
ATOM     26  H   UNL A   1      33.314  30.912  26.162  1.00  0.00     0.163 HD
ATOM     27  O   UNL A   1      34.380  32.279  27.816  1.00  0.00    -0.269 OA
BRANCH  25  28
ATOM     28  C   UNL A   1      35.949  30.564  28.168  1.00  0.00     0.039 A 
ATOM     29  C   UNL A   1      37.183  30.825  27.564  1.00  0.00     0.014 A 
ATOM     30  C   UNL A   1      35.884  29.722  29.281  1.00  0.00     0.014 A 
ATOM     31  C   UNL A   1      38.345  30.255  28.085  1.00  0.00     0.010 A 
ATOM     32  C   UNL A   1      37.054  29.232  29.856  1.00  0.00     0.010 A 
ATOM     33  C   UNL A   1      38.292  29.461  29.242  1.00  0.00    -0.014 A 
BRANCH  33  34
ATOM     34  C   UNL A   1      39.518  28.832  29.791  1.00  0.00     0.031 A 
ATOM     35  C   UNL A   1      40.153  29.371  31.047  1.00  0.00     0.074 A 
ATOM     36  C   UNL A   1      40.096  27.812  29.128  1.00  0.00     0.049 A 
ATOM     37  N   UNL A   1      41.213  28.943  31.683  1.00  0.00    -0.248 NA
ATOM     38  C   UNL A   1      39.537  30.565  31.652  1.00  0.00     0.031 C 
ATOM     39  C   UNL A   1      39.637  27.270  27.848  1.00  0.00     0.029 A 
ATOM     40  N   UNL A   1      41.205  27.064  29.429  1.00  0.00    -0.354 N 
ATOM     41  C   UNL A   1      41.415  29.836  32.730  1.00  0.00     0.074 A 
ATOM     42  C   UNL A   1      40.392  30.852  32.622  1.00  0.00     0.031 C 
ATOM     43  C   UNL A   1      40.452  26.268  27.479  1.00  0.00     0.029 A 
ATOM     44  C   UNL A   1      41.496  26.107  28.487  1.00  0.00     0.049 A 
ATOM     45  H   UNL A   1      41.742  27.199  30.244  1.00  0.00     0.167 HD
ATOM     46  C   UNL A   1      42.344  29.797  33.715  1.00  0.00     0.034 A 
ATOM     47  C   UNL A   1      42.486  25.195  28.444  1.00  0.00     0.034 A 
ATOM     48  C   UNL A   1      43.321  28.751  33.852  1.00  0.00     0.049 A 
ATOM     49  C   UNL A   1      43.442  25.106  29.602  1.00  0.00     0.074 A 
ATOM     50  C   UNL A   1      44.238  28.555  34.869  1.00  0.00     0.029 A 
ATOM     51  N   UNL A   1      43.511  27.725  32.939  1.00  0.00    -0.354 N 
ATOM     52  N   UNL A   1      43.503  25.848  30.681  1.00  0.00    -0.248 NA
ATOM     53  C   UNL A   1      44.434  24.023  29.561  1.00  0.00     0.031 C 
ATOM     54  C   UNL A   1      44.993  27.417  34.563  1.00  0.00     0.029 A 
ATOM     55  C   UNL A   1      44.532  26.892  33.366  1.00  0.00     0.049 A 
ATOM     56  H   UNL A   1      42.996  27.605  32.109  1.00  0.00     0.167 HD
ATOM     57  C   UNL A   1      44.514  25.302  31.464  1.00  0.00     0.074 A 
ATOM     58  C   UNL A   1      45.020  24.150  30.743  1.00  0.00     0.031 C 
ATOM     59  C   UNL A   1      44.991  25.722  32.661  1.00  0.00     0.034 A 
BRANCH  46  60
ATOM     60  C   UNL A   1      42.305  30.888  34.756  1.00  0.00     0.023 A 
ATOM     61  C   UNL A   1      41.570  30.691  35.944  1.00  0.00     0.012 A 
ATOM     62  C   UNL A   1      43.020  32.087  34.579  1.00  0.00     0.148 A 
ATOM     63  C   UNL A   1      41.512  31.686  36.918  1.00  0.00     0.002 A 
ATOM     64  C   UNL A   1      42.996  33.056  35.577  1.00  0.00     0.091 A 
ATOM     65  F   UNL A   1      43.695  32.269  33.434  1.00  0.00    -0.205 F 
ATOM     66  C   UNL A   1      42.233  32.863  36.739  1.00  0.00     0.022 A 
BRANCH  64  67
ATOM     67  S   UNL A   1      43.958  34.570  35.475  1.00  0.00     0.127 S 
ATOM     68  O   UNL A   1      43.501  35.291  36.661  1.00  0.00    -0.237 OA
ATOM     69  O   UNL A   1      45.332  34.071  35.556  1.00  0.00    -0.237 OA
ATOM     70  O   UNL A   1      43.612  35.176  34.197  1.00  0.00    -0.744 OA
ENDBRANCH  64  67
ENDBRANCH  46  60
BRANCH  47  71
ATOM     71  C   UNL A   1      42.553  24.235  27.308  1.00  0.00     0.023 A 
ATOM     72  C   UNL A   1      43.304  24.568  26.163  1.00  0.00     0.012 A 
ATOM     73  C   UNL A   1      41.928  22.976  27.377  1.00  0.00     0.148 A 
ATOM     74  C   UNL A   1      43.406  23.677  25.095  1.00  0.00     0.002 A 
ATOM     75  C   UNL A   1      42.079  22.070  26.333  1.00  0.00     0.091 A 
ATOM     76  F   UNL A   1      41.213  22.681  28.471  1.00  0.00    -0.205 F 
ATOM     77  C   UNL A   1      42.804  22.425  25.185  1.00  0.00     0.022 A 
BRANCH  75  78
ATOM     78  S   UNL A   1      41.460  20.386  26.421  1.00  0.00     0.127 S 
ATOM     79  O   UNL A   1      41.869  19.985  27.763  1.00  0.00    -0.237 OA
ATOM     80  O   UNL A   1      40.021  20.585  26.246  1.00  0.00    -0.237 OA
ATOM     81  O   UNL A   1      42.102  19.674  25.322  1.00  0.00    -0.744 OA
ENDBRANCH  75  78
ENDBRANCH  47  71
BRANCH  59  82
ATOM     82  C   UNL A   1      46.102  24.919  33.286  1.00  0.00     0.023 A 
ATOM     83  C   UNL A   1      47.434  25.360  33.174  1.00  0.00     0.012 A 
ATOM     84  C   UNL A   1      45.819  23.757  34.031  1.00  0.00     0.148 A 
ATOM     85  C   UNL A   1      48.473  24.635  33.756  1.00  0.00     0.002 A 
ATOM     86  C   UNL A   1      46.854  23.066  34.650  1.00  0.00     0.091 A 
ATOM     87  F   UNL A   1      44.547  23.339  34.111  1.00  0.00    -0.205 F 
ATOM     88  C   UNL A   1      48.183  23.496  34.503  1.00  0.00     0.022 A 
BRANCH  86  89
ATOM     89  S   UNL A   1      46.549  21.647  35.708  1.00  0.00     0.127 S 
ATOM     90  O   UNL A   1      45.761  20.784  34.832  1.00  0.00    -0.237 OA
ATOM     91  O   UNL A   1      47.903  21.162  35.984  1.00  0.00    -0.237 OA
ATOM     92  O   UNL A   1      45.853  22.170  36.877  1.00  0.00    -0.744 OA
ENDBRANCH  86  89
ENDBRANCH  59  82
ENDBRANCH  33  34
ENDBRANCH  25  28
ENDBRANCH  23  24
ENDBRANCH  22  23
ENDBRANCH   1  22
TORSDOF 17
ENDMDL
MODEL 3
REMARK VINA RESULT:     -10.4      4.962      9.996
REMARK SMILES CC(C)C[NH+]1CC[NH+]([C@H](C)[C@@H](C)C(=O)NCCCNC(=O)c2ccc(-c3c4nc(c(-c5cccc(S(=O)(=O)[O-])c5F)c5ccc([nH]5)c(-c5cccc(S(=O)(=O)[O-])c5F)c5nc(c(-c6cccc(S(=O)(=O)[O-])c6F)c6ccc3[nH]6)C=C5)C=C4)cc2)CC1
REMARK SMILES IDX 16 1 15 2 13 3 14 4 11 6 12 7 9 8 10 9 8 10 5 11 6 12 86 13
REMARK SMILES IDX 7 15 85 16 4 18 2 19 1 20 3 21 17 22 18 23 19 24 20 25 21 27
REMARK SMILES IDX 22 28 23 29 84 30 24 31 83 32 25 33 26 34 27 35 77 36 28 37
REMARK SMILES IDX 82 38 76 39 78 40 29 41 81 42 75 43 74 44 30 46 62 47 42 48
REMARK SMILES IDX 61 49 43 50 46 51 60 52 79 53 44 54 45 55 59 57 80 58 47 59
REMARK SMILES IDX 31 60 32 61 40 62 33 63 35 64 41 65 34 66 36 67 37 68 38 69
REMARK SMILES IDX 39 70 63 71 64 72 72 73 65 74 67 75 73 76 66 77 68 78 69 79
REMARK SMILES IDX 70 80 71 81 48 82 49 83 57 84 50 85 52 86 58 87 51 88 53 89
REMARK SMILES IDX 54 90 55 91 56 92
REMARK H PARENT 15 5 5 14 8 17 19 26 78 45 46 56
REMARK Flexibility Score: inf
ROOT
ATOM      1  C   UNL A   1      35.022  23.641  23.265  1.00  0.00     0.117 C 
ENDROOT
BRANCH   1   2
ATOM      2  N   UNL A   1      33.927  22.698  23.414  1.00  0.00    -0.356 N 
ATOM      3  C   UNL A   1      32.934  22.604  24.341  1.00  0.00     0.228 C 
ATOM      4  O   UNL A   1      32.100  21.706  24.189  1.00  0.00    -0.275 OA
ATOM      5  H   UNL A   1      33.898  22.000  22.720  1.00  0.00     0.163 HD
BRANCH   3   6
ATOM      6  C   UNL A   1      32.786  23.611  25.475  1.00  0.00     0.133 C 
ATOM      7  C   UNL A   1      32.700  22.862  26.811  1.00  0.00     0.024 C 
BRANCH   6   8
ATOM      8  C   UNL A   1      31.669  24.657  25.193  1.00  0.00     0.193 C 
ATOM      9  C   UNL A   1      30.532  24.585  26.227  1.00  0.00     0.076 C 
BRANCH   8  10
ATOM     10  N   UNL A   1      32.230  26.013  24.957  1.00  0.00    -0.323 N 
ATOM     11  N   UNL A   1      31.885  28.847  24.058  1.00  0.00    -0.325 N 
ATOM     12  C   UNL A   1      32.194  28.492  25.443  1.00  0.00     0.324 C 
ATOM     13  C   UNL A   1      32.502  27.878  23.155  1.00  0.00     0.324 C 
ATOM     14  H   UNL A   1      32.339  29.722  23.796  1.00  0.00     0.348 HD
ATOM     15  C   UNL A   1      31.703  27.081  25.815  1.00  0.00     0.324 C 
ATOM     16  C   UNL A   1      32.368  26.371  23.529  1.00  0.00     0.324 C 
ATOM     17  H   UNL A   1      33.191  25.927  25.287  1.00  0.00     0.348 HD
BRANCH  11  18
ATOM     18  C   UNL A   1      30.519  29.331  23.828  1.00  0.00     0.265 C 
BRANCH  18  19
ATOM     19  C   UNL A   1      29.546  28.628  22.850  1.00  0.00     0.038 C 
ATOM     20  C   UNL A   1      28.813  27.459  23.490  1.00  0.00     0.013 C 
ATOM     21  C   UNL A   1      28.476  29.612  22.362  1.00  0.00     0.013 C 
ENDBRANCH  18  19
ENDBRANCH  11  18
ENDBRANCH   8  10
ENDBRANCH   6   8
ENDBRANCH   3   6
ENDBRANCH   1   2
BRANCH   1  22
ATOM     22  C   UNL A   1      36.374  23.035  23.624  1.00  0.00     0.042 C 
BRANCH  22  23
ATOM     23  C   UNL A   1      36.905  23.468  24.981  1.00  0.00     0.118 C 
BRANCH  23  24
ATOM     24  N   UNL A   1      37.824  22.490  25.542  1.00  0.00    -0.352 N 
ATOM     25  C   UNL A   1      38.997  22.668  26.227  1.00  0.00     0.251 C 
ATOM     26  H   UNL A   1      37.562  21.550  25.407  1.00  0.00     0.163 HD
ATOM     27  O   UNL A   1      39.745  21.706  26.383  1.00  0.00    -0.269 OA
BRANCH  25  28
ATOM     28  C   UNL A   1      39.362  23.991  26.781  1.00  0.00     0.039 A 
ATOM     29  C   UNL A   1      40.023  24.903  25.952  1.00  0.00     0.014 A 
ATOM     30  C   UNL A   1      39.130  24.312  28.121  1.00  0.00     0.014 A 
ATOM     31  C   UNL A   1      40.433  26.135  26.463  1.00  0.00     0.010 A 
ATOM     32  C   UNL A   1      39.455  25.576  28.604  1.00  0.00     0.010 A 
ATOM     33  C   UNL A   1      40.144  26.486  27.792  1.00  0.00    -0.014 A 
BRANCH  33  34
ATOM     34  C   UNL A   1      40.596  27.784  28.352  1.00  0.00     0.031 A 
ATOM     35  C   UNL A   1      42.066  28.087  28.481  1.00  0.00     0.074 A 
ATOM     36  C   UNL A   1      39.684  28.667  28.802  1.00  0.00     0.049 A 
ATOM     37  N   UNL A   1      42.647  29.169  28.929  1.00  0.00    -0.248 NA
ATOM     38  C   UNL A   1      43.008  27.025  28.084  1.00  0.00     0.031 C 
ATOM     39  C   UNL A   1      38.236  28.446  28.829  1.00  0.00     0.029 A 
ATOM     40  N   UNL A   1      39.840  29.919  29.339  1.00  0.00    -0.354 N 
ATOM     41  C   UNL A   1      44.012  28.905  28.909  1.00  0.00     0.074 A 
ATOM     42  C   UNL A   1      44.172  27.546  28.443  1.00  0.00     0.031 C 
ATOM     43  C   UNL A   1      37.637  29.531  29.345  1.00  0.00     0.029 A 
ATOM     44  C   UNL A   1      38.655  30.516  29.698  1.00  0.00     0.049 A 
ATOM     45  H   UNL A   1      40.718  30.350  29.455  1.00  0.00     0.167 HD
ATOM     46  C   UNL A   1      45.044  29.727  29.217  1.00  0.00     0.034 A 
ATOM     47  C   UNL A   1      38.415  31.725  30.240  1.00  0.00     0.034 A 
ATOM     48  C   UNL A   1      44.881  31.097  29.622  1.00  0.00     0.049 A 
ATOM     49  C   UNL A   1      39.571  32.659  30.475  1.00  0.00     0.074 A 
ATOM     50  C   UNL A   1      45.857  32.050  29.854  1.00  0.00     0.029 A 
ATOM     51  N   UNL A   1      43.660  31.709  29.862  1.00  0.00    -0.354 N 
ATOM     52  N   UNL A   1      40.850  32.455  30.274  1.00  0.00    -0.248 NA
ATOM     53  C   UNL A   1      39.247  34.006  30.962  1.00  0.00     0.031 C 
ATOM     54  C   UNL A   1      45.226  33.235  30.249  1.00  0.00     0.029 A 
ATOM     55  C   UNL A   1      43.855  33.026  30.242  1.00  0.00     0.049 A 
ATOM     56  H   UNL A   1      42.783  31.271  29.776  1.00  0.00     0.167 HD
ATOM     57  C   UNL A   1      41.481  33.656  30.577  1.00  0.00     0.074 A 
ATOM     58  C   UNL A   1      40.437  34.590  30.949  1.00  0.00     0.031 C 
ATOM     59  C   UNL A   1      42.803  33.956  30.562  1.00  0.00     0.034 A 
BRANCH  46  60
ATOM     60  C   UNL A   1      46.441  29.181  29.065  1.00  0.00     0.023 A 
ATOM     61  C   UNL A   1      47.101  28.635  30.186  1.00  0.00     0.012 A 
ATOM     62  C   UNL A   1      47.087  29.173  27.814  1.00  0.00     0.148 A 
ATOM     63  C   UNL A   1      48.396  28.131  30.073  1.00  0.00     0.002 A 
ATOM     64  C   UNL A   1      48.361  28.626  27.700  1.00  0.00     0.091 A 
ATOM     65  F   UNL A   1      46.457  29.717  26.763  1.00  0.00    -0.205 F 
ATOM     66  C   UNL A   1      49.021  28.117  28.830  1.00  0.00     0.022 A 
BRANCH  64  67
ATOM     67  S   UNL A   1      49.214  28.487  26.125  1.00  0.00     0.127 S 
ATOM     68  O   UNL A   1      48.096  28.467  25.184  1.00  0.00    -0.237 OA
ATOM     69  O   UNL A   1      50.013  29.714  26.096  1.00  0.00    -0.237 OA
ATOM     70  O   UNL A   1      49.995  27.260  26.202  1.00  0.00    -0.744 OA
ENDBRANCH  64  67
ENDBRANCH  46  60
BRANCH  47  71
ATOM     71  C   UNL A   1      37.012  32.148  30.501  1.00  0.00     0.023 A 
ATOM     72  C   UNL A   1      36.464  31.975  31.787  1.00  0.00     0.012 A 
ATOM     73  C   UNL A   1      36.238  32.771  29.503  1.00  0.00     0.148 A 
ATOM     74  C   UNL A   1      35.161  32.387  32.067  1.00  0.00     0.002 A 
ATOM     75  C   UNL A   1      34.961  33.229  29.804  1.00  0.00     0.091 A 
ATOM     76  F   UNL A   1      36.775  32.920  28.285  1.00  0.00    -0.205 F 
ATOM     77  C   UNL A   1      34.414  33.024  31.080  1.00  0.00     0.022 A 
BRANCH  75  78
ATOM     78  S   UNL A   1      33.981  34.184  28.640  1.00  0.00     0.127 S 
ATOM     79  O   UNL A   1      33.662  33.184  27.625  1.00  0.00    -0.237 OA
ATOM     80  O   UNL A   1      32.852  34.605  29.469  1.00  0.00    -0.237 OA
ATOM     81  O   UNL A   1      34.842  35.277  28.204  1.00  0.00    -0.744 OA
ENDBRANCH  75  78
ENDBRANCH  47  71
BRANCH  59  82
ATOM     82  C   UNL A   1      43.200  35.361  30.935  1.00  0.00     0.023 A 
ATOM     83  C   UNL A   1      43.474  35.678  32.280  1.00  0.00     0.012 A 
ATOM     84  C   UNL A   1      43.353  36.353  29.946  1.00  0.00     0.148 A 
ATOM     85  C   UNL A   1      43.853  36.970  32.641  1.00  0.00     0.002 A 
ATOM     86  C   UNL A   1      43.779  37.626  30.307  1.00  0.00     0.091 A 
ATOM     87  F   UNL A   1      43.066  36.040  28.673  1.00  0.00    -0.205 F 
ATOM     88  C   UNL A   1      44.017  37.940  31.654  1.00  0.00     0.022 A 
BRANCH  86  89
ATOM     89  S   UNL A   1      44.105  38.900  29.083  1.00  0.00     0.127 S 
ATOM     90  O   UNL A   1      44.582  40.000  29.917  1.00  0.00    -0.237 OA
ATOM     91  O   UNL A   1      45.134  38.279  28.248  1.00  0.00    -0.237 OA
ATOM     92  O   UNL A   1      42.837  39.124  28.401  1.00  0.00    -0.744 OA
ENDBRANCH  86  89
ENDBRANCH  59  82
ENDBRANCH  33  34
ENDBRANCH  25  28
ENDBRANCH  23  24
ENDBRANCH  22  23
ENDBRANCH   1  22
TORSDOF 17
ENDMDL
