MODEL 1
REMARK VINA RESULT:     -13.3      0.000      0.000
REMARK SMILES Cc1cc(C)n(-c2nc(C)c(C)c(Oc3cccc(C(=O)NCCCNC(=O)c4ccc(-c5c6nc(c(-c7cccc(S(=O)(=O)[O-])c7F)c7ccc([nH]7)c(-c7cccc(S(=O)(=O)[O-])c7F)c7nc(c(-c8cccc(S(=O)(=O)[O-])c8F)c8ccc5[nH]8)C=C7)C=C6)cc4)c3)n2)n1
REMARK SMILES IDX 24 1 23 2 22 3 20 4 21 5 19 7 15 8 16 9 92 10 17 11 18 12
REMARK SMILES IDX 14 13 13 14 7 15 8 16 93 17 9 18 10 19 11 20 12 21 6 22 1 23
REMARK SMILES IDX 2 24 3 25 94 26 4 27 5 28 25 29 26 30 27 31 28 33 29 34
REMARK SMILES IDX 30 35 91 36 31 37 90 38 32 39 33 40 34 41 84 42 35 43 89 44
REMARK SMILES IDX 83 45 85 46 36 47 88 48 82 49 81 50 37 52 69 53 49 54 68 55
REMARK SMILES IDX 50 56 53 57 67 58 86 59 51 60 52 61 66 63 87 64 54 65 38 66
REMARK SMILES IDX 39 67 47 68 40 69 42 70 48 71 41 72 43 73 44 74 45 75 46 76
REMARK SMILES IDX 70 77 71 78 79 79 72 80 74 81 80 82 73 83 75 84 76 85 77 86
REMARK SMILES IDX 78 87 55 88 56 89 64 90 57 91 59 92 65 93 58 94 60 95 61 96
REMARK SMILES IDX 62 97 63 98
REMARK H PARENT 22 6 26 32 85 51 53 62
REMARK Flexibility Score: inf
ROOT
ATOM      1  C   UNL A   1      36.688  23.032  23.730  1.00  0.00     0.042 C 
ENDROOT
BRANCH   1   2
ATOM      2  C   UNL A   1      35.326  23.732  23.617  1.00  0.00     0.118 C 
BRANCH   2   3
ATOM      3  N   UNL A   1      34.341  22.904  22.943  1.00  0.00    -0.352 N 
ATOM      4  C   UNL A   1      33.040  22.575  23.234  1.00  0.00     0.251 C 
ATOM      5  O   UNL A   1      32.423  21.938  22.379  1.00  0.00    -0.269 OA
ATOM      6  H   UNL A   1      34.673  22.498  22.109  1.00  0.00     0.163 HD
BRANCH   4   7
ATOM      7  C   UNL A   1      32.325  22.975  24.481  1.00  0.00     0.043 A 
ATOM      8  C   UNL A   1      30.817  24.362  25.783  1.00  0.00     0.130 A 
ATOM      9  C   UNL A   1      30.922  23.500  26.869  1.00  0.00     0.047 A 
ATOM     10  C   UNL A   1      31.582  24.145  24.634  1.00  0.00     0.061 A 
ATOM     11  C   UNL A   1      31.733  22.373  26.773  1.00  0.00     0.005 A 
ATOM     12  C   UNL A   1      32.410  22.103  25.579  1.00  0.00     0.014 A 
BRANCH   8  13
ATOM     13  O   UNL A   1      29.989  25.453  25.914  1.00  0.00    -0.439 OA
BRANCH  13  14
ATOM     14  C   UNL A   1      30.467  26.690  25.470  1.00  0.00     0.227 A 
ATOM     15  C   UNL A   1      31.832  28.512  25.725  1.00  0.00     0.254 A 
ATOM     16  N   UNL A   1      31.328  29.099  24.618  1.00  0.00    -0.216 NA
ATOM     17  N   UNL A   1      31.464  27.292  26.153  1.00  0.00    -0.175 NA
ATOM     18  C   UNL A   1      30.427  28.410  23.886  1.00  0.00     0.050 A 
ATOM     19  C   UNL A   1      30.133  29.010  22.542  1.00  0.00     0.067 C 
ATOM     20  C   UNL A   1      29.901  27.198  24.309  1.00  0.00     0.033 A 
ATOM     21  C   UNL A   1      28.832  26.474  23.554  1.00  0.00     0.052 C 
BRANCH  15  22
ATOM     22  N   UNL A   1      32.832  29.244  26.460  1.00  0.00    -0.203 N 
ATOM     23  C   UNL A   1      36.171  29.465  27.683  1.00  0.00     0.069 C 
ATOM     24  C   UNL A   1      34.757  29.683  27.293  1.00  0.00     0.060 A 
ATOM     25  C   UNL A   1      34.034  30.890  27.334  1.00  0.00     0.049 A 
ATOM     26  N   UNL A   1      34.010  28.668  26.845  1.00  0.00    -0.170 NA
ATOM     27  C   UNL A   1      32.788  30.586  26.832  1.00  0.00     0.045 A 
ATOM     28  C   UNL A   1      31.571  31.432  26.745  1.00  0.00     0.067 C 
ENDBRANCH  15  22
ENDBRANCH  13  14
ENDBRANCH   8  13
ENDBRANCH   4   7
ENDBRANCH   2   3
ENDBRANCH   1   2
BRANCH   1  29
ATOM     29  C   UNL A   1      37.344  23.273  25.081  1.00  0.00     0.118 C 
BRANCH  29  30
ATOM     30  N   UNL A   1      38.137  22.116  25.514  1.00  0.00    -0.352 N 
ATOM     31  C   UNL A   1      39.310  22.079  26.240  1.00  0.00     0.251 C 
ATOM     32  H   UNL A   1      37.779  21.239  25.247  1.00  0.00     0.163 HD
ATOM     33  O   UNL A   1      40.003  21.066  26.238  1.00  0.00    -0.269 OA
BRANCH  31  34
ATOM     34  C   UNL A   1      39.722  23.269  27.001  1.00  0.00     0.039 A 
ATOM     35  C   UNL A   1      40.891  23.277  27.768  1.00  0.00     0.014 A 
ATOM     36  C   UNL A   1      38.932  24.409  26.907  1.00  0.00     0.014 A 
ATOM     37  C   UNL A   1      41.292  24.469  28.367  1.00  0.00     0.010 A 
ATOM     38  C   UNL A   1      39.431  25.614  27.317  1.00  0.00     0.010 A 
ATOM     39  C   UNL A   1      40.564  25.643  28.117  1.00  0.00    -0.014 A 
BRANCH  39  40
ATOM     40  C   UNL A   1      41.002  26.931  28.635  1.00  0.00     0.031 A 
ATOM     41  C   UNL A   1      42.277  27.443  28.069  1.00  0.00     0.074 A 
ATOM     42  C   UNL A   1      40.221  27.711  29.416  1.00  0.00     0.049 A 
ATOM     43  N   UNL A   1      43.417  27.540  28.668  1.00  0.00    -0.248 NA
ATOM     44  C   UNL A   1      42.326  27.754  26.634  1.00  0.00     0.031 C 
ATOM     45  C   UNL A   1      38.815  27.512  29.796  1.00  0.00     0.029 A 
ATOM     46  N   UNL A   1      40.493  28.941  29.926  1.00  0.00    -0.354 N 
ATOM     47  C   UNL A   1      44.273  28.148  27.754  1.00  0.00     0.074 A 
ATOM     48  C   UNL A   1      43.616  28.065  26.476  1.00  0.00     0.031 C 
ATOM     49  C   UNL A   1      38.295  28.679  30.230  1.00  0.00     0.029 A 
ATOM     50  C   UNL A   1      39.370  29.640  30.355  1.00  0.00     0.049 A 
ATOM     51  H   UNL A   1      41.405  29.306  29.985  1.00  0.00     0.167 HD
ATOM     52  C   UNL A   1      45.341  28.886  28.167  1.00  0.00     0.034 A 
ATOM     53  C   UNL A   1      39.335  30.930  30.759  1.00  0.00     0.034 A 
ATOM     54  C   UNL A   1      45.604  28.682  29.571  1.00  0.00     0.049 A 
ATOM     55  C   UNL A   1      40.714  31.287  31.158  1.00  0.00     0.074 A 
ATOM     56  C   UNL A   1      45.927  27.602  30.367  1.00  0.00     0.029 A 
ATOM     57  N   UNL A   1      45.161  29.663  30.425  1.00  0.00    -0.354 N 
ATOM     58  N   UNL A   1      41.331  30.762  32.179  1.00  0.00    -0.248 NA
ATOM     59  C   UNL A   1      41.563  31.947  30.183  1.00  0.00     0.031 C 
ATOM     60  C   UNL A   1      45.232  27.826  31.593  1.00  0.00     0.029 A 
ATOM     61  C   UNL A   1      44.568  29.052  31.497  1.00  0.00     0.049 A 
ATOM     62  H   UNL A   1      45.253  30.633  30.289  1.00  0.00     0.167 HD
ATOM     63  C   UNL A   1      42.644  30.619  31.752  1.00  0.00     0.074 A 
ATOM     64  C   UNL A   1      42.752  31.488  30.582  1.00  0.00     0.031 C 
ATOM     65  C   UNL A   1      43.426  29.595  32.207  1.00  0.00     0.034 A 
BRANCH  52  66
ATOM     66  C   UNL A   1      45.945  30.062  27.428  1.00  0.00     0.023 A 
ATOM     67  C   UNL A   1      47.350  30.215  27.499  1.00  0.00     0.012 A 
ATOM     68  C   UNL A   1      45.214  31.151  26.900  1.00  0.00     0.148 A 
ATOM     69  C   UNL A   1      47.985  31.403  27.120  1.00  0.00     0.002 A 
ATOM     70  C   UNL A   1      45.858  32.297  26.443  1.00  0.00     0.091 A 
ATOM     71  F   UNL A   1      43.880  31.155  26.956  1.00  0.00    -0.205 F 
ATOM     72  C   UNL A   1      47.239  32.442  26.581  1.00  0.00     0.022 A 
BRANCH  70  73
ATOM     73  S   UNL A   1      44.950  33.644  25.674  1.00  0.00     0.127 S 
ATOM     74  O   UNL A   1      44.154  34.137  26.792  1.00  0.00    -0.237 OA
ATOM     75  O   UNL A   1      46.033  34.529  25.245  1.00  0.00    -0.237 OA
ATOM     76  O   UNL A   1      44.210  33.035  24.575  1.00  0.00    -0.744 OA
ENDBRANCH  70  73
ENDBRANCH  52  66
BRANCH  53  77
ATOM     77  C   UNL A   1      38.276  31.951  30.611  1.00  0.00     0.023 A 
ATOM     78  C   UNL A   1      37.870  32.330  29.316  1.00  0.00     0.012 A 
ATOM     79  C   UNL A   1      37.453  32.302  31.703  1.00  0.00     0.148 A 
ATOM     80  C   UNL A   1      36.650  32.981  29.106  1.00  0.00     0.002 A 
ATOM     81  C   UNL A   1      36.238  32.948  31.488  1.00  0.00     0.091 A 
ATOM     82  F   UNL A   1      37.814  31.917  32.934  1.00  0.00    -0.205 F 
ATOM     83  C   UNL A   1      35.827  33.275  30.189  1.00  0.00     0.022 A 
BRANCH  81  84
ATOM     84  S   UNL A   1      35.091  33.313  32.823  1.00  0.00     0.127 S 
ATOM     85  O   UNL A   1      35.078  34.775  32.821  1.00  0.00    -0.237 OA
ATOM     86  O   UNL A   1      33.863  32.687  32.343  1.00  0.00    -0.237 OA
ATOM     87  O   UNL A   1      35.678  32.719  34.020  1.00  0.00    -0.744 OA
ENDBRANCH  81  84
ENDBRANCH  53  77
BRANCH  65  88
ATOM     88  C   UNL A   1      42.924  28.784  33.382  1.00  0.00     0.023 A 
ATOM     89  C   UNL A   1      41.911  27.810  33.248  1.00  0.00     0.012 A 
ATOM     90  C   UNL A   1      43.607  28.879  34.607  1.00  0.00     0.148 A 
ATOM     91  C   UNL A   1      41.573  26.969  34.312  1.00  0.00     0.002 A 
ATOM     92  C   UNL A   1      43.303  28.008  35.647  1.00  0.00     0.091 A 
ATOM     93  F   UNL A   1      44.570  29.806  34.724  1.00  0.00    -0.205 F 
ATOM     94  C   UNL A   1      42.279  27.058  35.508  1.00  0.00     0.022 A 
BRANCH  92  95
ATOM     95  S   UNL A   1      44.266  27.979  37.161  1.00  0.00     0.127 S 
ATOM     96  O   UNL A   1      43.602  26.926  37.928  1.00  0.00    -0.237 OA
ATOM     97  O   UNL A   1      45.604  27.632  36.678  1.00  0.00    -0.237 OA
ATOM     98  O   UNL A   1      44.170  29.321  37.723  1.00  0.00    -0.744 OA
ENDBRANCH  92  95
ENDBRANCH  65  88
ENDBRANCH  39  40
ENDBRANCH  31  34
ENDBRANCH  29  30
ENDBRANCH   1  29
TORSDOF 16
ENDMDL
MODEL 2
REMARK VINA RESULT:     -13.2      2.892      8.850
REMARK SMILES Cc1cc(C)n(-c2nc(C)c(C)c(Oc3cccc(C(=O)NCCCNC(=O)c4ccc(-c5c6nc(c(-c7cccc(S(=O)(=O)[O-])c7F)c7ccc([nH]7)c(-c7cccc(S(=O)(=O)[O-])c7F)c7nc(c(-c8cccc(S(=O)(=O)[O-])c8F)c8ccc5[nH]8)C=C7)C=C6)cc4)c3)n2)n1
REMARK SMILES IDX 24 1 23 2 22 3 20 4 21 5 19 7 15 8 16 9 92 10 17 11 18 12
REMARK SMILES IDX 14 13 13 14 7 15 8 16 93 17 9 18 10 19 11 20 12 21 6 22 1 23
REMARK SMILES IDX 2 24 3 25 94 26 4 27 5 28 25 29 26 30 27 31 28 33 29 34
REMARK SMILES IDX 30 35 91 36 31 37 90 38 32 39 33 40 34 41 84 42 35 43 89 44
REMARK SMILES IDX 83 45 85 46 36 47 88 48 82 49 81 50 37 52 69 53 49 54 68 55
REMARK SMILES IDX 50 56 53 57 67 58 86 59 51 60 52 61 66 63 87 64 54 65 38 66
REMARK SMILES IDX 39 67 47 68 40 69 42 70 48 71 41 72 43 73 44 74 45 75 46 76
REMARK SMILES IDX 70 77 71 78 79 79 72 80 74 81 80 82 73 83 75 84 76 85 77 86
REMARK SMILES IDX 78 87 55 88 56 89 64 90 57 91 59 92 65 93 58 94 60 95 61 96
REMARK SMILES IDX 62 97 63 98
REMARK H PARENT 22 6 26 32 85 51 53 62
REMARK Flexibility Score: inf
ROOT
ATOM      1  C   UNL A   1      32.633  30.714  26.868  1.00  0.00     0.042 C 
ENDROOT
BRANCH   1   2
ATOM      2  C   UNL A   1      32.631  29.987  25.515  1.00  0.00     0.118 C 
BRANCH   2   3
ATOM      3  N   UNL A   1      31.396  30.201  24.782  1.00  0.00    -0.352 N 
ATOM      4  C   UNL A   1      30.568  29.361  24.079  1.00  0.00     0.251 C 
ATOM      5  O   UNL A   1      29.510  29.838  23.668  1.00  0.00    -0.269 OA
ATOM      6  H   UNL A   1      31.091  31.137  24.790  1.00  0.00     0.163 HD
BRANCH   4   7
ATOM      7  C   UNL A   1      30.845  27.915  23.829  1.00  0.00     0.043 A 
ATOM      8  C   UNL A   1      31.142  25.602  24.499  1.00  0.00     0.130 A 
ATOM      9  C   UNL A   1      31.216  25.200  23.170  1.00  0.00     0.047 A 
ATOM     10  C   UNL A   1      31.047  26.958  24.822  1.00  0.00     0.061 A 
ATOM     11  C   UNL A   1      31.111  26.152  22.160  1.00  0.00     0.005 A 
ATOM     12  C   UNL A   1      30.905  27.496  22.488  1.00  0.00     0.014 A 
BRANCH   8  13
ATOM     13  O   UNL A   1      31.231  24.626  25.465  1.00  0.00    -0.439 OA
BRANCH  13  14
ATOM     14  C   UNL A   1      32.305  23.734  25.393  1.00  0.00     0.227 A 
ATOM     15  C   UNL A   1      33.134  21.635  25.000  1.00  0.00     0.254 A 
ATOM     16  N   UNL A   1      34.389  22.024  25.315  1.00  0.00    -0.216 NA
ATOM     17  N   UNL A   1      32.080  22.469  24.979  1.00  0.00    -0.175 NA
ATOM     18  C   UNL A   1      34.598  23.328  25.597  1.00  0.00     0.050 A 
ATOM     19  C   UNL A   1      36.045  23.722  25.661  1.00  0.00     0.067 C 
ATOM     20  C   UNL A   1      33.557  24.237  25.714  1.00  0.00     0.033 A 
ATOM     21  C   UNL A   1      33.771  25.660  26.120  1.00  0.00     0.052 C 
BRANCH  15  22
ATOM     22  N   UNL A   1      32.944  20.250  24.651  1.00  0.00    -0.203 N 
ATOM     23  C   UNL A   1      32.830  16.836  25.663  1.00  0.00     0.069 C 
ATOM     24  C   UNL A   1      32.772  18.135  24.951  1.00  0.00     0.060 A 
ATOM     25  C   UNL A   1      32.220  18.392  23.682  1.00  0.00     0.049 A 
ATOM     26  N   UNL A   1      33.286  19.238  25.504  1.00  0.00    -0.170 NA
ATOM     27  C   UNL A   1      32.371  19.746  23.486  1.00  0.00     0.045 A 
ATOM     28  C   UNL A   1      32.082  20.567  22.282  1.00  0.00     0.067 C 
ENDBRANCH  15  22
ENDBRANCH  13  14
ENDBRANCH   8  13
ENDBRANCH   4   7
ENDBRANCH   2   3
ENDBRANCH   1   2
BRANCH   1  29
ATOM     29  C   UNL A   1      34.043  30.979  27.372  1.00  0.00     0.118 C 
BRANCH  29  30
ATOM     30  N   UNL A   1      34.040  31.804  28.586  1.00  0.00    -0.352 N 
ATOM     31  C   UNL A   1      34.927  31.812  29.644  1.00  0.00     0.251 C 
ATOM     32  H   UNL A   1      33.296  32.445  28.656  1.00  0.00     0.163 HD
ATOM     33  O   UNL A   1      34.606  32.324  30.712  1.00  0.00    -0.269 OA
BRANCH  31  34
ATOM     34  C   UNL A   1      36.250  31.191  29.476  1.00  0.00     0.039 A 
ATOM     35  C   UNL A   1      37.416  31.961  29.416  1.00  0.00     0.014 A 
ATOM     36  C   UNL A   1      36.317  29.804  29.415  1.00  0.00     0.014 A 
ATOM     37  C   UNL A   1      38.647  31.311  29.380  1.00  0.00     0.010 A 
ATOM     38  C   UNL A   1      37.518  29.176  29.590  1.00  0.00     0.010 A 
ATOM     39  C   UNL A   1      38.691  29.912  29.489  1.00  0.00    -0.014 A 
BRANCH  39  40
ATOM     40  C   UNL A   1      39.956  29.196  29.560  1.00  0.00     0.031 A 
ATOM     41  C   UNL A   1      40.471  28.952  30.932  1.00  0.00     0.074 A 
ATOM     42  C   UNL A   1      40.529  28.611  28.484  1.00  0.00     0.049 A 
ATOM     43  N   UNL A   1      41.492  29.507  31.496  1.00  0.00    -0.248 NA
ATOM     44  C   UNL A   1      39.683  28.097  31.830  1.00  0.00     0.031 C 
ATOM     45  C   UNL A   1      39.991  28.469  27.123  1.00  0.00     0.029 A 
ATOM     46  N   UNL A   1      41.675  27.884  28.425  1.00  0.00    -0.354 N 
ATOM     47  C   UNL A   1      41.616  28.894  32.740  1.00  0.00     0.074 A 
ATOM     48  C   UNL A   1      40.375  28.200  32.968  1.00  0.00     0.031 C 
ATOM     49  C   UNL A   1      40.663  27.498  26.471  1.00  0.00     0.029 A 
ATOM     50  C   UNL A   1      41.796  27.103  27.281  1.00  0.00     0.049 A 
ATOM     51  H   UNL A   1      42.360  27.908  29.131  1.00  0.00     0.167 HD
ATOM     52  C   UNL A   1      42.821  28.807  33.369  1.00  0.00     0.034 A 
ATOM     53  C   UNL A   1      42.752  26.178  27.040  1.00  0.00     0.034 A 
ATOM     54  C   UNL A   1      43.799  29.663  32.743  1.00  0.00     0.049 A 
ATOM     55  C   UNL A   1      43.894  26.509  27.920  1.00  0.00     0.074 A 
ATOM     56  C   UNL A   1      43.918  31.018  32.508  1.00  0.00     0.029 A 
ATOM     57  N   UNL A   1      44.696  29.053  31.899  1.00  0.00    -0.354 N 
ATOM     58  N   UNL A   1      44.610  27.591  27.799  1.00  0.00    -0.248 NA
ATOM     59  C   UNL A   1      44.002  25.824  29.195  1.00  0.00     0.031 C 
ATOM     60  C   UNL A   1      44.536  31.118  31.226  1.00  0.00     0.029 A 
ATOM     61  C   UNL A   1      44.807  29.823  30.773  1.00  0.00     0.049 A 
ATOM     62  H   UNL A   1      45.173  28.210  32.074  1.00  0.00     0.167 HD
ATOM     63  C   UNL A   1      44.885  27.970  29.106  1.00  0.00     0.074 A 
ATOM     64  C   UNL A   1      44.609  26.777  29.905  1.00  0.00     0.031 C 
ATOM     65  C   UNL A   1      45.026  29.286  29.444  1.00  0.00     0.034 A 
BRANCH  52  66
ATOM     66  C   UNL A   1      43.248  27.706  34.317  1.00  0.00     0.023 A 
ATOM     67  C   UNL A   1      43.519  28.077  35.655  1.00  0.00     0.012 A 
ATOM     68  C   UNL A   1      43.647  26.407  33.925  1.00  0.00     0.148 A 
ATOM     69  C   UNL A   1      44.197  27.227  36.536  1.00  0.00     0.002 A 
ATOM     70  C   UNL A   1      44.243  25.533  34.831  1.00  0.00     0.091 A 
ATOM     71  F   UNL A   1      43.582  26.041  32.643  1.00  0.00    -0.205 F 
ATOM     72  C   UNL A   1      44.551  25.949  36.127  1.00  0.00     0.022 A 
BRANCH  70  73
ATOM     73  S   UNL A   1      44.658  23.845  34.375  1.00  0.00     0.127 S 
ATOM     74  O   UNL A   1      44.676  23.186  35.677  1.00  0.00    -0.237 OA
ATOM     75  O   UNL A   1      43.533  23.482  33.512  1.00  0.00    -0.237 OA
ATOM     76  O   UNL A   1      45.935  23.934  33.679  1.00  0.00    -0.744 OA
ENDBRANCH  70  73
ENDBRANCH  52  66
BRANCH  53  77
ATOM     77  C   UNL A   1      42.684  24.902  26.297  1.00  0.00     0.023 A 
ATOM     78  C   UNL A   1      43.791  24.505  25.520  1.00  0.00     0.012 A 
ATOM     79  C   UNL A   1      41.698  23.938  26.603  1.00  0.00     0.148 A 
ATOM     80  C   UNL A   1      43.945  23.176  25.114  1.00  0.00     0.002 A 
ATOM     81  C   UNL A   1      41.859  22.615  26.199  1.00  0.00     0.091 A 
ATOM     82  F   UNL A   1      40.659  24.297  27.369  1.00  0.00    -0.205 F 
ATOM     83  C   UNL A   1      42.989  22.228  25.468  1.00  0.00     0.022 A 
BRANCH  81  84
ATOM     84  S   UNL A   1      40.702  21.319  26.660  1.00  0.00     0.127 S 
ATOM     85  O   UNL A   1      39.470  21.766  26.009  1.00  0.00    -0.237 OA
ATOM     86  O   UNL A   1      41.319  20.139  26.064  1.00  0.00    -0.237 OA
ATOM     87  O   UNL A   1      40.651  21.338  28.119  1.00  0.00    -0.744 OA
ENDBRANCH  81  84
ENDBRANCH  53  77
BRANCH  65  88
ATOM     88  C   UNL A   1      45.144  30.299  28.327  1.00  0.00     0.023 A 
ATOM     89  C   UNL A   1      44.014  30.840  27.676  1.00  0.00     0.012 A 
ATOM     90  C   UNL A   1      46.407  30.849  28.046  1.00  0.00     0.148 A 
ATOM     91  C   UNL A   1      44.141  31.885  26.756  1.00  0.00     0.002 A 
ATOM     92  C   UNL A   1      46.525  31.921  27.168  1.00  0.00     0.091 A 
ATOM     93  F   UNL A   1      47.476  30.331  28.671  1.00  0.00    -0.205 F 
ATOM     94  C   UNL A   1      45.396  32.434  26.512  1.00  0.00     0.022 A 
BRANCH  92  95
ATOM     95  S   UNL A   1      48.090  32.763  26.917  1.00  0.00     0.127 S 
ATOM     96  O   UNL A   1      48.367  33.300  28.247  1.00  0.00    -0.237 OA
ATOM     97  O   UNL A   1      48.973  31.670  26.503  1.00  0.00    -0.237 OA
ATOM     98  O   UNL A   1      47.849  33.755  25.876  1.00  0.00    -0.744 OA
ENDBRANCH  92  95
ENDBRANCH  65  88
ENDBRANCH  39  40
ENDBRANCH  31  34
ENDBRANCH  29  30
ENDBRANCH   1  29
TORSDOF 16
ENDMDL
MODEL 3
REMARK VINA RESULT:     -13.0      1.477      2.836
REMARK SMILES Cc1cc(C)n(-c2nc(C)c(C)c(Oc3cccc(C(=O)NCCCNC(=O)c4ccc(-c5c6nc(c(-c7cccc(S(=O)(=O)[O-])c7F)c7ccc([nH]7)c(-c7cccc(S(=O)(=O)[O-])c7F)c7nc(c(-c8cccc(S(=O)(=O)[O-])c8F)c8ccc5[nH]8)C=C7)C=C6)cc4)c3)n2)n1
REMARK SMILES IDX 24 1 23 2 22 3 20 4 21 5 19 7 15 8 16 9 92 10 17 11 18 12
REMARK SMILES IDX 14 13 13 14 7 15 8 16 93 17 9 18 10 19 11 20 12 21 6 22 1 23
REMARK SMILES IDX 2 24 3 25 94 26 4 27 5 28 25 29 26 30 27 31 28 33 29 34
REMARK SMILES IDX 30 35 91 36 31 37 90 38 32 39 33 40 34 41 84 42 35 43 89 44
REMARK SMILES IDX 83 45 85 46 36 47 88 48 82 49 81 50 37 52 69 53 49 54 68 55
REMARK SMILES IDX 50 56 53 57 67 58 86 59 51 60 52 61 66 63 87 64 54 65 38 66
REMARK SMILES IDX 39 67 47 68 40 69 42 70 48 71 41 72 43 73 44 74 45 75 46 76
REMARK SMILES IDX 70 77 71 78 79 79 72 80 74 81 80 82 73 83 75 84 76 85 77 86
REMARK SMILES IDX 78 87 55 88 56 89 64 90 57 91 59 92 65 93 58 94 60 95 61 96
REMARK SMILES IDX 62 97 63 98
REMARK H PARENT 22 6 26 32 85 51 53 62
REMARK Flexibility Score: inf
ROOT
ATOM      1  C   UNL A   1      36.337  23.124  26.042  1.00  0.00     0.042 C 
ENDROOT
BRANCH   1   2
ATOM      2  C   UNL A   1      35.367  21.934  26.075  1.00  0.00     0.118 C 
BRANCH   2   3
ATOM      3  N   UNL A   1      34.337  22.095  27.085  1.00  0.00    -0.352 N 
ATOM      4  C   UNL A   1      33.122  22.735  27.088  1.00  0.00     0.251 C 
ATOM      5  O   UNL A   1      32.413  22.579  28.083  1.00  0.00    -0.269 OA
ATOM      6  H   UNL A   1      34.553  21.657  27.940  1.00  0.00     0.163 HD
BRANCH   4   7
ATOM      7  C   UNL A   1      32.595  23.555  25.957  1.00  0.00     0.043 A 
ATOM      8  C   UNL A   1      32.604  25.461  24.455  1.00  0.00     0.130 A 
ATOM      9  C   UNL A   1      31.581  24.900  23.698  1.00  0.00     0.047 A 
ATOM     10  C   UNL A   1      33.042  24.833  25.623  1.00  0.00     0.061 A 
ATOM     11  C   UNL A   1      31.053  23.666  24.067  1.00  0.00     0.005 A 
ATOM     12  C   UNL A   1      31.573  22.990  25.175  1.00  0.00     0.014 A 
BRANCH   8  13
ATOM     13  O   UNL A   1      33.109  26.672  24.043  1.00  0.00    -0.439 OA
BRANCH  13  14
ATOM     14  C   UNL A   1      32.382  27.824  24.361  1.00  0.00     0.227 A 
ATOM     15  C   UNL A   1      30.653  29.269  23.952  1.00  0.00     0.254 A 
ATOM     16  N   UNL A   1      31.033  30.079  24.964  1.00  0.00    -0.216 NA
ATOM     17  N   UNL A   1      31.270  28.114  23.652  1.00  0.00    -0.175 NA
ATOM     18  C   UNL A   1      32.071  29.690  25.735  1.00  0.00     0.050 A 
ATOM     19  C   UNL A   1      32.246  30.495  26.989  1.00  0.00     0.067 C 
ATOM     20  C   UNL A   1      32.840  28.576  25.433  1.00  0.00     0.033 A 
ATOM     21  C   UNL A   1      34.049  28.191  26.225  1.00  0.00     0.052 C 
BRANCH  15  22
ATOM     22  N   UNL A   1      29.510  29.679  23.176  1.00  0.00    -0.203 N 
ATOM     23  C   UNL A   1      28.037  31.984  20.894  1.00  0.00     0.069 C 
ATOM     24  C   UNL A   1      28.367  30.856  21.797  1.00  0.00     0.060 A 
ATOM     25  C   UNL A   1      27.664  29.646  21.948  1.00  0.00     0.049 A 
ATOM     26  N   UNL A   1      29.436  30.915  22.598  1.00  0.00    -0.170 NA
ATOM     27  C   UNL A   1      28.387  28.916  22.864  1.00  0.00     0.045 A 
ATOM     28  C   UNL A   1      28.067  27.612  23.501  1.00  0.00     0.067 C 
ENDBRANCH  15  22
ENDBRANCH  13  14
ENDBRANCH   8  13
ENDBRANCH   4   7
ENDBRANCH   2   3
ENDBRANCH   1   2
BRANCH   1  29
ATOM     29  C   UNL A   1      37.642  22.780  25.342  1.00  0.00     0.118 C 
BRANCH  29  30
ATOM     30  N   UNL A   1      38.485  21.903  26.164  1.00  0.00    -0.352 N 
ATOM     31  C   UNL A   1      39.630  22.201  26.874  1.00  0.00     0.251 C 
ATOM     32  H   UNL A   1      38.190  20.966  26.215  1.00  0.00     0.163 HD
ATOM     33  O   UNL A   1      40.381  21.300  27.236  1.00  0.00    -0.269 OA
BRANCH  31  34
ATOM     34  C   UNL A   1      39.942  23.607  27.177  1.00  0.00     0.039 A 
ATOM     35  C   UNL A   1      39.032  24.632  26.904  1.00  0.00     0.014 A 
ATOM     36  C   UNL A   1      41.160  23.889  27.784  1.00  0.00     0.014 A 
ATOM     37  C   UNL A   1      39.331  25.926  27.325  1.00  0.00     0.010 A 
ATOM     38  C   UNL A   1      41.356  25.105  28.376  1.00  0.00     0.010 A 
ATOM     39  C   UNL A   1      40.491  26.150  28.083  1.00  0.00    -0.014 A 
BRANCH  39  40
ATOM     40  C   UNL A   1      40.794  27.464  28.633  1.00  0.00     0.031 A 
ATOM     41  C   UNL A   1      41.983  28.137  28.050  1.00  0.00     0.074 A 
ATOM     42  C   UNL A   1      39.955  28.123  29.463  1.00  0.00     0.049 A 
ATOM     43  N   UNL A   1      43.123  28.346  28.620  1.00  0.00    -0.248 NA
ATOM     44  C   UNL A   1      41.950  28.497  26.626  1.00  0.00     0.031 C 
ATOM     45  C   UNL A   1      38.594  27.750  29.875  1.00  0.00     0.029 A 
ATOM     46  N   UNL A   1      40.099  29.359  30.007  1.00  0.00    -0.354 N 
ATOM     47  C   UNL A   1      43.874  29.078  27.703  1.00  0.00     0.074 A 
ATOM     48  C   UNL A   1      43.190  28.960  26.442  1.00  0.00     0.031 C 
ATOM     49  C   UNL A   1      37.957  28.835  30.364  1.00  0.00     0.029 A 
ATOM     50  C   UNL A   1      38.918  29.909  30.493  1.00  0.00     0.049 A 
ATOM     51  H   UNL A   1      40.965  29.825  30.054  1.00  0.00     0.167 HD
ATOM     52  C   UNL A   1      44.863  29.921  28.112  1.00  0.00     0.034 A 
ATOM     53  C   UNL A   1      38.748  31.173  30.942  1.00  0.00     0.034 A 
ATOM     54  C   UNL A   1      45.193  29.705  29.500  1.00  0.00     0.049 A 
ATOM     55  C   UNL A   1      40.089  31.675  31.314  1.00  0.00     0.074 A 
ATOM     56  C   UNL A   1      45.663  28.645  30.248  1.00  0.00     0.029 A 
ATOM     57  N   UNL A   1      44.667  30.600  30.400  1.00  0.00    -0.354 N 
ATOM     58  N   UNL A   1      40.795  31.192  32.299  1.00  0.00    -0.248 NA
ATOM     59  C   UNL A   1      40.826  32.459  30.340  1.00  0.00     0.031 C 
ATOM     60  C   UNL A   1      44.986  28.748  31.500  1.00  0.00     0.029 A 
ATOM     61  C   UNL A   1      44.183  29.891  31.466  1.00  0.00     0.049 A 
ATOM     62  H   UNL A   1      44.644  31.579  30.296  1.00  0.00     0.167 HD
ATOM     63  C   UNL A   1      42.101  31.216  31.830  1.00  0.00     0.074 A 
ATOM     64  C   UNL A   1      42.071  32.129  30.689  1.00  0.00     0.031 C 
ATOM     65  C   UNL A   1      43.010  30.276  32.227  1.00  0.00     0.034 A 
BRANCH  52  66
ATOM     66  C   UNL A   1      45.304  31.182  27.398  1.00  0.00     0.023 A 
ATOM     67  C   UNL A   1      46.674  31.285  27.059  1.00  0.00     0.012 A 
ATOM     68  C   UNL A   1      44.529  32.359  27.276  1.00  0.00     0.148 A 
ATOM     69  C   UNL A   1      47.252  32.501  26.677  1.00  0.00     0.002 A 
ATOM     70  C   UNL A   1      45.090  33.545  26.812  1.00  0.00     0.091 A 
ATOM     71  F   UNL A   1      43.276  32.389  27.734  1.00  0.00    -0.205 F 
ATOM     72  C   UNL A   1      46.457  33.631  26.543  1.00  0.00     0.022 A 
BRANCH  70  73
ATOM     73  S   UNL A   1      44.094  35.019  26.552  1.00  0.00     0.127 S 
ATOM     74  O   UNL A   1      45.111  35.999  26.188  1.00  0.00    -0.237 OA
ATOM     75  O   UNL A   1      43.217  34.599  25.458  1.00  0.00    -0.237 OA
ATOM     76  O   UNL A   1      43.402  35.245  27.815  1.00  0.00    -0.744 OA
ENDBRANCH  70  73
ENDBRANCH  52  66
BRANCH  53  77
ATOM     77  C   UNL A   1      37.575  32.069  30.860  1.00  0.00     0.023 A 
ATOM     78  C   UNL A   1      36.844  32.128  29.657  1.00  0.00     0.012 A 
ATOM     79  C   UNL A   1      36.988  32.600  32.030  1.00  0.00     0.148 A 
ATOM     80  C   UNL A   1      35.544  32.640  29.630  1.00  0.00     0.002 A 
ATOM     81  C   UNL A   1      35.691  33.106  31.997  1.00  0.00     0.091 A 
ATOM     82  F   UNL A   1      37.660  32.518  33.185  1.00  0.00    -0.205 F 
ATOM     83  C   UNL A   1      34.961  33.113  30.801  1.00  0.00     0.022 A 
BRANCH  81  84
ATOM     84  S   UNL A   1      34.844  33.683  33.474  1.00  0.00     0.127 S 
ATOM     85  O   UNL A   1      35.006  35.133  33.370  1.00  0.00    -0.237 OA
ATOM     86  O   UNL A   1      33.486  33.199  33.250  1.00  0.00    -0.237 OA
ATOM     87  O   UNL A   1      35.554  33.078  34.597  1.00  0.00    -0.744 OA
ENDBRANCH  81  84
ENDBRANCH  53  77
BRANCH  65  88
ATOM     88  C   UNL A   1      42.642  29.376  33.386  1.00  0.00     0.023 A 
ATOM     89  C   UNL A   1      41.737  28.300  33.249  1.00  0.00     0.012 A 
ATOM     90  C   UNL A   1      43.355  29.503  34.591  1.00  0.00     0.148 A 
ATOM     91  C   UNL A   1      41.531  27.392  34.291  1.00  0.00     0.002 A 
ATOM     92  C   UNL A   1      43.185  28.569  35.607  1.00  0.00     0.091 A 
ATOM     93  F   UNL A   1      44.215  30.526  34.711  1.00  0.00    -0.205 F 
ATOM     94  C   UNL A   1      42.266  27.518  35.466  1.00  0.00     0.022 A 
BRANCH  92  95
ATOM     95  S   UNL A   1      44.201  28.595  37.087  1.00  0.00     0.127 S 
ATOM     96  O   UNL A   1      43.779  29.840  37.727  1.00  0.00    -0.237 OA
ATOM     97  O   UNL A   1      43.777  27.378  37.781  1.00  0.00    -0.237 OA
ATOM     98  O   UNL A   1      45.583  28.563  36.625  1.00  0.00    -0.744 OA
ENDBRANCH  92  95
ENDBRANCH  65  88
ENDBRANCH  39  40
ENDBRANCH  31  34
ENDBRANCH  29  30
ENDBRANCH   1  29
TORSDOF 16
ENDMDL
