MODEL 1
REMARK VINA RESULT:     -11.9      0.000      0.000
REMARK SMILES Cn1cc(CCC(=O)N2C[C@@H](C(=O)NCCCNC(=O)c3ccc(-c4c5nc(c(-c6cccc(S(=O)(=O)[O-])c6F)c6ccc([nH]6)c(-c6cccc(S(=O)(=O)[O-])c6F)c6nc(c(-c7cccc(S(=O)(=O)[O-])c7F)c7ccc4[nH]7)C=C6)C=C5)cc3)[C@H](C3CC3)C2)cn1
REMARK SMILES IDX 15 1 14 2 12 3 13 4 11 6 9 7 10 8 88 9 84 10 7 11 8 12 6 13
REMARK SMILES IDX 5 14 4 15 1 16 2 17 3 18 90 19 89 20 85 21 86 22 87 23 16 24
REMARK SMILES IDX 17 25 18 26 19 27 20 29 21 30 22 31 83 32 23 33 82 34 24 35
REMARK SMILES IDX 25 36 26 37 76 38 27 39 81 40 75 41 77 42 28 43 80 44 74 45
REMARK SMILES IDX 73 46 29 48 61 49 41 50 60 51 42 52 45 53 59 54 78 55 43 56
REMARK SMILES IDX 44 57 58 59 79 60 46 61 30 62 31 63 39 64 32 65 34 66 40 67
REMARK SMILES IDX 33 68 35 69 36 70 37 71 38 72 62 73 63 74 71 75 64 76 66 77
REMARK SMILES IDX 72 78 65 79 67 80 68 81 69 82 70 83 47 84 48 85 56 86 49 87
REMARK SMILES IDX 51 88 57 89 50 90 52 91 53 92 54 93 55 94
REMARK H PARENT 14 5 18 28 77 47 45 58
REMARK Flexibility Score: inf
ROOT
ATOM      1  C   UNL A   1      32.606  28.453  22.584  1.00  0.00     0.117 C 
ENDROOT
BRANCH   1   2
ATOM      2  N   UNL A   1      33.071  27.449  21.637  1.00  0.00    -0.356 N 
ATOM      3  C   UNL A   1      33.105  26.078  21.701  1.00  0.00     0.225 C 
ATOM      4  O   UNL A   1      33.318  25.486  20.641  1.00  0.00    -0.275 OA
ATOM      5  H   UNL A   1      33.425  27.821  20.797  1.00  0.00     0.163 HD
BRANCH   3   6
ATOM      6  C   UNL A   1      32.961  25.334  23.026  1.00  0.00     0.103 C 
ATOM      7  N   UNL A   1      32.985  23.109  23.816  1.00  0.00    -0.342 N 
ATOM      8  C   UNL A   1      33.564  23.966  22.822  1.00  0.00     0.133 C 
ATOM      9  C   UNL A   1      31.678  23.608  24.196  1.00  0.00     0.124 C 
ATOM     10  C   UNL A   1      31.512  24.957  23.440  1.00  0.00     0.026 C 
BRANCH   7  11
ATOM     11  C   UNL A   1      33.485  21.883  24.209  1.00  0.00     0.222 C 
ATOM     12  O   UNL A   1      34.684  21.615  24.137  1.00  0.00    -0.275 OA
BRANCH  11  13
ATOM     13  C   UNL A   1      32.464  20.813  24.603  1.00  0.00     0.105 C 
BRANCH  13  14
ATOM     14  C   UNL A   1      32.155  19.678  23.623  1.00  0.00     0.048 C 
BRANCH  14  15
ATOM     15  C   UNL A   1      32.873  18.383  23.804  1.00  0.00    -0.009 A 
ATOM     16  C   UNL A   1      34.994  15.937  25.355  1.00  0.00     0.173 C 
ATOM     17  N   UNL A   1      34.038  16.675  24.567  1.00  0.00    -0.276 N 
ATOM     18  C   UNL A   1      33.288  17.750  24.963  1.00  0.00     0.112 A 
ATOM     19  N   UNL A   1      33.985  16.459  23.246  1.00  0.00    -0.182 NA
ATOM     20  C   UNL A   1      33.256  17.477  22.787  1.00  0.00     0.138 A 
ENDBRANCH  14  15
ENDBRANCH  13  14
ENDBRANCH  11  13
ENDBRANCH   7  11
BRANCH  10  21
ATOM     21  C   UNL A   1      30.778  25.977  24.281  1.00  0.00    -0.005 C 
ATOM     22  C   UNL A   1      29.371  26.451  23.995  1.00  0.00     0.004 C 
ATOM     23  C   UNL A   1      29.625  25.525  25.147  1.00  0.00     0.004 C 
ENDBRANCH  10  21
ENDBRANCH   3   6
ENDBRANCH   1   2
BRANCH   1  24
ATOM     24  C   UNL A   1      33.599  28.907  23.677  1.00  0.00     0.042 C 
BRANCH  24  25
ATOM     25  C   UNL A   1      33.207  28.890  25.163  1.00  0.00     0.118 C 
BRANCH  25  26
ATOM     26  N   UNL A   1      32.610  30.120  25.642  1.00  0.00    -0.352 N 
ATOM     27  C   UNL A   1      33.036  30.948  26.659  1.00  0.00     0.251 C 
ATOM     28  H   UNL A   1      31.788  30.402  25.178  1.00  0.00     0.163 HD
ATOM     29  O   UNL A   1      32.336  31.905  26.982  1.00  0.00    -0.269 OA
BRANCH  27  30
ATOM     30  C   UNL A   1      34.305  30.696  27.391  1.00  0.00     0.039 A 
ATOM     31  C   UNL A   1      34.507  29.432  27.954  1.00  0.00     0.014 A 
ATOM     32  C   UNL A   1      35.247  31.707  27.615  1.00  0.00     0.014 A 
ATOM     33  C   UNL A   1      35.658  29.171  28.712  1.00  0.00     0.010 A 
ATOM     34  C   UNL A   1      36.414  31.433  28.352  1.00  0.00     0.010 A 
ATOM     35  C   UNL A   1      36.632  30.164  28.915  1.00  0.00    -0.014 A 
BRANCH  35  36
ATOM     36  C   UNL A   1      37.872  29.842  29.686  1.00  0.00     0.031 A 
ATOM     37  C   UNL A   1      38.114  30.401  31.068  1.00  0.00     0.074 A 
ATOM     38  C   UNL A   1      38.807  29.039  29.134  1.00  0.00     0.049 A 
ATOM     39  N   UNL A   1      39.095  30.147  31.900  1.00  0.00    -0.248 NA
ATOM     40  C   UNL A   1      37.143  31.382  31.576  1.00  0.00     0.031 C 
ATOM     41  C   UNL A   1      38.749  28.493  27.778  1.00  0.00     0.029 A 
ATOM     42  N   UNL A   1      39.993  28.553  29.635  1.00  0.00    -0.354 N 
ATOM     43  C   UNL A   1      38.876  30.949  33.015  1.00  0.00     0.074 A 
ATOM     44  C   UNL A   1      37.679  31.716  32.744  1.00  0.00     0.031 C 
ATOM     45  C   UNL A   1      39.843  27.747  27.555  1.00  0.00     0.029 A 
ATOM     46  C   UNL A   1      40.692  27.771  28.743  1.00  0.00     0.049 A 
ATOM     47  H   UNL A   1      40.312  28.747  30.546  1.00  0.00     0.167 HD
ATOM     48  C   UNL A   1      39.591  31.029  34.166  1.00  0.00     0.034 A 
ATOM     49  C   UNL A   1      41.882  27.147  28.859  1.00  0.00     0.034 A 
ATOM     50  C   UNL A   1      40.766  30.245  34.452  1.00  0.00     0.049 A 
ATOM     51  C   UNL A   1      42.626  27.209  30.167  1.00  0.00     0.074 A 
ATOM     52  C   UNL A   1      41.491  30.182  35.630  1.00  0.00     0.029 A 
ATOM     53  N   UNL A   1      41.403  29.408  33.550  1.00  0.00    -0.354 N 
ATOM     54  N   UNL A   1      42.292  27.820  31.277  1.00  0.00    -0.248 NA
ATOM     55  C   UNL A   1      43.889  26.459  30.254  1.00  0.00     0.031 C 
ATOM     56  C   UNL A   1      42.589  29.338  35.427  1.00  0.00     0.029 A 
ATOM     57  C   UNL A   1      42.523  28.842  34.136  1.00  0.00     0.049 A 
ATOM     58  H   UNL A   1      41.103  29.239  32.627  1.00  0.00     0.167 HD
ATOM     59  C   UNL A   1      43.286  27.508  32.198  1.00  0.00     0.074 A 
ATOM     60  C   UNL A   1      44.216  26.624  31.528  1.00  0.00     0.031 C 
ATOM     61  C   UNL A   1      43.425  27.931  33.480  1.00  0.00     0.034 A 
BRANCH  48  62
ATOM     62  C   UNL A   1      39.109  31.972  35.241  1.00  0.00     0.023 A 
ATOM     63  C   UNL A   1      38.146  31.534  36.173  1.00  0.00     0.012 A 
ATOM     64  C   UNL A   1      39.684  33.251  35.393  1.00  0.00     0.148 A 
ATOM     65  C   UNL A   1      37.742  32.362  37.222  1.00  0.00     0.002 A 
ATOM     66  C   UNL A   1      39.308  34.053  36.465  1.00  0.00     0.091 A 
ATOM     67  F   UNL A   1      40.591  33.653  34.493  1.00  0.00    -0.205 F 
ATOM     68  C   UNL A   1      38.330  33.614  37.373  1.00  0.00     0.022 A 
BRANCH  66  69
ATOM     69  S   UNL A   1      40.064  35.648  36.801  1.00  0.00     0.127 S 
ATOM     70  O   UNL A   1      39.664  36.417  35.624  1.00  0.00    -0.237 OA
ATOM     71  O   UNL A   1      39.402  36.045  38.043  1.00  0.00    -0.237 OA
ATOM     72  O   UNL A   1      41.495  35.400  36.923  1.00  0.00    -0.744 OA
ENDBRANCH  66  69
ENDBRANCH  48  62
BRANCH  49  73
ATOM     73  C   UNL A   1      42.431  26.365  27.712  1.00  0.00     0.023 A 
ATOM     74  C   UNL A   1      43.320  26.975  26.805  1.00  0.00     0.012 A 
ATOM     75  C   UNL A   1      42.078  25.015  27.519  1.00  0.00     0.148 A 
ATOM     76  C   UNL A   1      43.815  26.269  25.707  1.00  0.00     0.002 A 
ATOM     77  C   UNL A   1      42.625  24.299  26.462  1.00  0.00     0.091 A 
ATOM     78  F   UNL A   1      41.217  24.455  28.381  1.00  0.00    -0.205 F 
ATOM     79  C   UNL A   1      43.477  24.929  25.542  1.00  0.00     0.022 A 
BRANCH  77  80
ATOM     80  S   UNL A   1      42.358  22.535  26.261  1.00  0.00     0.127 S 
ATOM     81  O   UNL A   1      43.170  22.238  25.086  1.00  0.00    -0.237 OA
ATOM     82  O   UNL A   1      42.880  22.005  27.522  1.00  0.00    -0.237 OA
ATOM     83  O   UNL A   1      40.917  22.374  26.099  1.00  0.00    -0.744 OA
ENDBRANCH  77  80
ENDBRANCH  49  73
BRANCH  61  84
ATOM     84  C   UNL A   1      44.613  27.424  34.258  1.00  0.00     0.023 A 
ATOM     85  C   UNL A   1      45.817  28.157  34.262  1.00  0.00     0.012 A 
ATOM     86  C   UNL A   1      44.520  26.249  35.030  1.00  0.00     0.148 A 
ATOM     87  C   UNL A   1      46.921  27.706  34.985  1.00  0.00     0.002 A 
ATOM     88  C   UNL A   1      45.608  25.833  35.790  1.00  0.00     0.091 A 
ATOM     89  F   UNL A   1      43.374  25.553  35.002  1.00  0.00    -0.205 F 
ATOM     90  C   UNL A   1      46.814  26.552  35.757  1.00  0.00     0.022 A 
BRANCH  88  91
ATOM     91  S   UNL A   1      45.529  24.414  36.889  1.00  0.00     0.127 S 
ATOM     92  O   UNL A   1      46.929  24.268  37.286  1.00  0.00    -0.237 OA
ATOM     93  O   UNL A   1      44.641  24.890  37.949  1.00  0.00    -0.237 OA
ATOM     94  O   UNL A   1      44.987  23.321  36.094  1.00  0.00    -0.744 OA
ENDBRANCH  88  91
ENDBRANCH  61  84
ENDBRANCH  35  36
ENDBRANCH  27  30
ENDBRANCH  25  26
ENDBRANCH  24  25
ENDBRANCH   1  24
TORSDOF 18
ENDMDL
MODEL 2
REMARK VINA RESULT:     -11.5      2.656      3.338
REMARK SMILES Cn1cc(CCC(=O)N2C[C@@H](C(=O)NCCCNC(=O)c3ccc(-c4c5nc(c(-c6cccc(S(=O)(=O)[O-])c6F)c6ccc([nH]6)c(-c6cccc(S(=O)(=O)[O-])c6F)c6nc(c(-c7cccc(S(=O)(=O)[O-])c7F)c7ccc4[nH]7)C=C6)C=C5)cc3)[C@H](C3CC3)C2)cn1
REMARK SMILES IDX 15 1 14 2 12 3 13 4 11 6 9 7 10 8 88 9 84 10 7 11 8 12 6 13
REMARK SMILES IDX 5 14 4 15 1 16 2 17 3 18 90 19 89 20 85 21 86 22 87 23 16 24
REMARK SMILES IDX 17 25 18 26 19 27 20 29 21 30 22 31 83 32 23 33 82 34 24 35
REMARK SMILES IDX 25 36 26 37 76 38 27 39 81 40 75 41 77 42 28 43 80 44 74 45
REMARK SMILES IDX 73 46 29 48 61 49 41 50 60 51 42 52 45 53 59 54 78 55 43 56
REMARK SMILES IDX 44 57 58 59 79 60 46 61 30 62 31 63 39 64 32 65 34 66 40 67
REMARK SMILES IDX 33 68 35 69 36 70 37 71 38 72 62 73 63 74 71 75 64 76 66 77
REMARK SMILES IDX 72 78 65 79 67 80 68 81 69 82 70 83 47 84 48 85 56 86 49 87
REMARK SMILES IDX 51 88 57 89 50 90 52 91 53 92 54 93 55 94
REMARK H PARENT 14 5 18 28 77 47 45 58
REMARK Flexibility Score: inf
ROOT
ATOM      1  C   UNL A   1      33.409  28.368  24.289  1.00  0.00     0.117 C 
ENDROOT
BRANCH   1   2
ATOM      2  N   UNL A   1      33.665  27.548  23.113  1.00  0.00    -0.356 N 
ATOM      3  C   UNL A   1      33.715  26.186  22.942  1.00  0.00     0.225 C 
ATOM      4  O   UNL A   1      33.699  25.781  21.778  1.00  0.00    -0.275 OA
ATOM      5  H   UNL A   1      33.830  28.063  22.291  1.00  0.00     0.163 HD
BRANCH   3   6
ATOM      6  C   UNL A   1      33.860  25.235  24.126  1.00  0.00     0.103 C 
ATOM      7  N   UNL A   1      34.389  22.966  24.517  1.00  0.00    -0.342 N 
ATOM      8  C   UNL A   1      34.684  24.066  23.645  1.00  0.00     0.133 C 
ATOM      9  C   UNL A   1      33.060  23.123  25.076  1.00  0.00     0.124 C 
ATOM     10  C   UNL A   1      32.561  24.510  24.578  1.00  0.00     0.026 C 
BRANCH   7  11
ATOM     11  C   UNL A   1      35.151  21.823  24.654  1.00  0.00     0.222 C 
ATOM     12  O   UNL A   1      36.293  21.743  24.201  1.00  0.00    -0.275 OA
BRANCH  11  13
ATOM     13  C   UNL A   1      34.462  20.602  25.267  1.00  0.00     0.105 C 
BRANCH  13  14
ATOM     14  C   UNL A   1      33.480  19.793  24.417  1.00  0.00     0.048 C 
BRANCH  14  15
ATOM     15  C   UNL A   1      33.553  18.305  24.489  1.00  0.00    -0.009 A 
ATOM     16  C   UNL A   1      32.646  14.965  25.445  1.00  0.00     0.173 C 
ATOM     17  N   UNL A   1      33.176  16.162  24.839  1.00  0.00    -0.276 N 
ATOM     18  C   UNL A   1      32.553  17.374  24.708  1.00  0.00     0.112 A 
ATOM     19  N   UNL A   1      34.480  16.210  24.538  1.00  0.00    -0.182 NA
ATOM     20  C   UNL A   1      34.702  17.502  24.297  1.00  0.00     0.138 A 
ENDBRANCH  14  15
ENDBRANCH  13  14
ENDBRANCH  11  13
ENDBRANCH   7  11
BRANCH  10  21
ATOM     21  C   UNL A   1      31.744  25.217  25.635  1.00  0.00    -0.005 C 
ATOM     22  C   UNL A   1      30.436  25.925  25.359  1.00  0.00     0.004 C 
ATOM     23  C   UNL A   1      30.434  24.610  26.082  1.00  0.00     0.004 C 
ENDBRANCH  10  21
ENDBRANCH   3   6
ENDBRANCH   1   2
BRANCH   1  24
ATOM     24  C   UNL A   1      34.164  27.999  25.586  1.00  0.00     0.042 C 
BRANCH  24  25
ATOM     25  C   UNL A   1      33.658  28.466  26.960  1.00  0.00     0.118 C 
BRANCH  25  26
ATOM     26  N   UNL A   1      33.563  29.903  27.109  1.00  0.00    -0.352 N 
ATOM     27  C   UNL A   1      34.452  30.770  27.709  1.00  0.00     0.251 C 
ATOM     28  H   UNL A   1      32.754  30.318  26.731  1.00  0.00     0.163 HD
ATOM     29  O   UNL A   1      34.148  31.956  27.819  1.00  0.00    -0.269 OA
BRANCH  27  30
ATOM     30  C   UNL A   1      35.757  30.302  28.247  1.00  0.00     0.039 A 
ATOM     31  C   UNL A   1      36.881  30.373  27.418  1.00  0.00     0.014 A 
ATOM     32  C   UNL A   1      35.870  29.706  29.508  1.00  0.00     0.014 A 
ATOM     33  C   UNL A   1      38.117  29.879  27.858  1.00  0.00     0.010 A 
ATOM     34  C   UNL A   1      37.118  29.237  29.957  1.00  0.00     0.010 A 
ATOM     35  C   UNL A   1      38.256  29.312  29.136  1.00  0.00    -0.014 A 
BRANCH  35  36
ATOM     36  C   UNL A   1      39.598  28.837  29.598  1.00  0.00     0.031 A 
ATOM     37  C   UNL A   1      40.342  29.528  30.715  1.00  0.00     0.074 A 
ATOM     38  C   UNL A   1      40.167  27.772  28.996  1.00  0.00     0.049 A 
ATOM     39  N   UNL A   1      41.470  29.187  31.289  1.00  0.00    -0.248 NA
ATOM     40  C   UNL A   1      39.756  30.768  31.247  1.00  0.00     0.031 C 
ATOM     41  C   UNL A   1      39.606  27.056  27.850  1.00  0.00     0.029 A 
ATOM     42  N   UNL A   1      41.348  27.111  29.251  1.00  0.00    -0.354 N 
ATOM     43  C   UNL A   1      41.743  30.176  32.229  1.00  0.00     0.074 A 
ATOM     44  C   UNL A   1      40.671  31.144  32.133  1.00  0.00     0.031 C 
ATOM     45  C   UNL A   1      40.435  26.057  27.504  1.00  0.00     0.029 A 
ATOM     46  C   UNL A   1      41.596  26.067  28.389  1.00  0.00     0.049 A 
ATOM     47  H   UNL A   1      41.957  27.362  29.983  1.00  0.00     0.167 HD
ATOM     48  C   UNL A   1      42.777  30.264  33.103  1.00  0.00     0.034 A 
ATOM     49  C   UNL A   1      42.639  25.215  28.310  1.00  0.00     0.034 A 
ATOM     50  C   UNL A   1      43.830  29.287  33.221  1.00  0.00     0.049 A 
ATOM     51  C   UNL A   1      43.745  25.303  29.329  1.00  0.00     0.074 A 
ATOM     52  C   UNL A   1      44.857  29.240  34.149  1.00  0.00     0.029 A 
ATOM     53  N   UNL A   1      44.007  28.202  32.378  1.00  0.00    -0.354 N 
ATOM     54  N   UNL A   1      43.875  26.133  30.334  1.00  0.00    -0.248 NA
ATOM     55  C   UNL A   1      44.826  24.310  29.229  1.00  0.00     0.031 C 
ATOM     56  C   UNL A   1      45.679  28.149  33.841  1.00  0.00     0.029 A 
ATOM     57  C   UNL A   1      45.139  27.493  32.748  1.00  0.00     0.049 A 
ATOM     58  H   UNL A   1      43.417  27.970  31.625  1.00  0.00     0.167 HD
ATOM     59  C   UNL A   1      45.033  25.747  31.000  1.00  0.00     0.074 A 
ATOM     60  C   UNL A   1      45.548  24.586  30.305  1.00  0.00     0.031 C 
ATOM     61  C   UNL A   1      45.627  26.314  32.080  1.00  0.00     0.034 A 
BRANCH  48  62
ATOM     62  C   UNL A   1      42.815  31.442  34.046  1.00  0.00     0.023 A 
ATOM     63  C   UNL A   1      43.370  32.663  33.615  1.00  0.00     0.012 A 
ATOM     64  C   UNL A   1      42.207  31.371  35.317  1.00  0.00     0.148 A 
ATOM     65  C   UNL A   1      43.346  33.787  34.443  1.00  0.00     0.002 A 
ATOM     66  C   UNL A   1      42.149  32.505  36.118  1.00  0.00     0.091 A 
ATOM     67  F   UNL A   1      41.692  30.198  35.713  1.00  0.00    -0.205 F 
ATOM     68  C   UNL A   1      42.727  33.711  35.687  1.00  0.00     0.022 A 
BRANCH  66  69
ATOM     69  S   UNL A   1      41.301  32.538  37.702  1.00  0.00     0.127 S 
ATOM     70  O   UNL A   1      39.969  32.061  37.333  1.00  0.00    -0.237 OA
ATOM     71  O   UNL A   1      42.089  31.592  38.492  1.00  0.00    -0.237 OA
ATOM     72  O   UNL A   1      41.360  33.918  38.164  1.00  0.00    -0.744 OA
ENDBRANCH  66  69
ENDBRANCH  48  62
BRANCH  49  73
ATOM     73  C   UNL A   1      42.669  24.167  27.248  1.00  0.00     0.023 A 
ATOM     74  C   UNL A   1      43.323  24.421  26.026  1.00  0.00     0.012 A 
ATOM     75  C   UNL A   1      42.055  22.915  27.446  1.00  0.00     0.148 A 
ATOM     76  C   UNL A   1      43.331  23.465  25.009  1.00  0.00     0.002 A 
ATOM     77  C   UNL A   1      42.122  21.944  26.455  1.00  0.00     0.091 A 
ATOM     78  F   UNL A   1      41.421  22.696  28.607  1.00  0.00    -0.205 F 
ATOM     79  C   UNL A   1      42.740  22.223  25.227  1.00  0.00     0.022 A 
BRANCH  77  80
ATOM     80  S   UNL A   1      41.517  20.273  26.710  1.00  0.00     0.127 S 
ATOM     81  O   UNL A   1      40.086  20.493  26.888  1.00  0.00    -0.237 OA
ATOM     82  O   UNL A   1      41.890  19.621  25.454  1.00  0.00    -0.237 OA
ATOM     83  O   UNL A   1      42.235  19.771  27.877  1.00  0.00    -0.744 OA
ENDBRANCH  77  80
ENDBRANCH  49  73
BRANCH  61  84
ATOM     84  C   UNL A   1      46.889  25.676  32.600  1.00  0.00     0.023 A 
ATOM     85  C   UNL A   1      46.833  24.796  33.700  1.00  0.00     0.012 A 
ATOM     86  C   UNL A   1      48.127  25.904  31.964  1.00  0.00     0.148 A 
ATOM     87  C   UNL A   1      47.991  24.191  34.187  1.00  0.00     0.002 A 
ATOM     88  C   UNL A   1      49.269  25.256  32.421  1.00  0.00     0.091 A 
ATOM     89  F   UNL A   1      48.168  26.757  30.930  1.00  0.00    -0.205 F 
ATOM     90  C   UNL A   1      49.206  24.411  33.541  1.00  0.00     0.022 A 
BRANCH  88  91
ATOM     91  S   UNL A   1      50.857  25.404  31.594  1.00  0.00     0.127 S 
ATOM     92  O   UNL A   1      50.525  24.975  30.235  1.00  0.00    -0.237 OA
ATOM     93  O   UNL A   1      51.146  26.831  31.730  1.00  0.00    -0.237 OA
ATOM     94  O   UNL A   1      51.769  24.531  32.319  1.00  0.00    -0.744 OA
ENDBRANCH  88  91
ENDBRANCH  61  84
ENDBRANCH  35  36
ENDBRANCH  27  30
ENDBRANCH  25  26
ENDBRANCH  24  25
ENDBRANCH   1  24
TORSDOF 18
ENDMDL
MODEL 3
REMARK VINA RESULT:     -11.4      1.060      1.877
REMARK SMILES Cn1cc(CCC(=O)N2C[C@@H](C(=O)NCCCNC(=O)c3ccc(-c4c5nc(c(-c6cccc(S(=O)(=O)[O-])c6F)c6ccc([nH]6)c(-c6cccc(S(=O)(=O)[O-])c6F)c6nc(c(-c7cccc(S(=O)(=O)[O-])c7F)c7ccc4[nH]7)C=C6)C=C5)cc3)[C@H](C3CC3)C2)cn1
REMARK SMILES IDX 15 1 14 2 12 3 13 4 11 6 9 7 10 8 88 9 84 10 7 11 8 12 6 13
REMARK SMILES IDX 5 14 4 15 1 16 2 17 3 18 90 19 89 20 85 21 86 22 87 23 16 24
REMARK SMILES IDX 17 25 18 26 19 27 20 29 21 30 22 31 83 32 23 33 82 34 24 35
REMARK SMILES IDX 25 36 26 37 76 38 27 39 81 40 75 41 77 42 28 43 80 44 74 45
REMARK SMILES IDX 73 46 29 48 61 49 41 50 60 51 42 52 45 53 59 54 78 55 43 56
REMARK SMILES IDX 44 57 58 59 79 60 46 61 30 62 31 63 39 64 32 65 34 66 40 67
REMARK SMILES IDX 33 68 35 69 36 70 37 71 38 72 62 73 63 74 71 75 64 76 66 77
REMARK SMILES IDX 72 78 65 79 67 80 68 81 69 82 70 83 47 84 48 85 56 86 49 87
REMARK SMILES IDX 51 88 57 89 50 90 52 91 53 92 54 93 55 94
REMARK H PARENT 14 5 18 28 77 47 45 58
REMARK Flexibility Score: inf
ROOT
ATOM      1  C   UNL A   1      32.778  26.617  25.015  1.00  0.00     0.117 C 
ENDROOT
BRANCH   1   2
ATOM      2  N   UNL A   1      33.319  26.677  23.665  1.00  0.00    -0.356 N 
ATOM      3  C   UNL A   1      33.670  25.690  22.776  1.00  0.00     0.225 C 
ATOM      4  O   UNL A   1      33.860  26.046  21.612  1.00  0.00    -0.275 OA
ATOM      5  H   UNL A   1      33.457  27.591  23.327  1.00  0.00     0.163 HD
BRANCH   3   6
ATOM      6  C   UNL A   1      33.887  24.248  23.225  1.00  0.00     0.103 C 
ATOM      7  N   UNL A   1      32.842  22.654  24.619  1.00  0.00    -0.342 N 
ATOM      8  C   UNL A   1      32.559  23.749  23.737  1.00  0.00     0.133 C 
ATOM      9  C   UNL A   1      34.168  22.808  25.186  1.00  0.00     0.124 C 
ATOM     10  C   UNL A   1      34.777  24.055  24.484  1.00  0.00     0.026 C 
BRANCH   7  11
ATOM     11  C   UNL A   1      31.932  21.703  25.038  1.00  0.00     0.222 C 
ATOM     12  O   UNL A   1      31.035  21.969  25.838  1.00  0.00    -0.275 OA
BRANCH  11  13
ATOM     13  C   UNL A   1      32.174  20.264  24.579  1.00  0.00     0.105 C 
BRANCH  13  14
ATOM     14  C   UNL A   1      33.135  19.377  25.373  1.00  0.00     0.048 C 
BRANCH  14  15
ATOM     15  C   UNL A   1      33.186  17.925  25.039  1.00  0.00    -0.009 A 
ATOM     16  C   UNL A   1      32.832  14.382  25.506  1.00  0.00     0.173 C 
ATOM     17  N   UNL A   1      32.988  15.730  25.015  1.00  0.00    -0.276 N 
ATOM     18  C   UNL A   1      32.434  16.871  25.530  1.00  0.00     0.112 A 
ATOM     19  N   UNL A   1      33.921  15.974  24.086  1.00  0.00    -0.182 NA
ATOM     20  C   UNL A   1      34.021  17.304  24.079  1.00  0.00     0.138 A 
ENDBRANCH  14  15
ENDBRANCH  13  14
ENDBRANCH  11  13
ENDBRANCH   7  11
BRANCH  10  21
ATOM     21  C   UNL A   1      36.257  23.878  24.226  1.00  0.00    -0.005 C 
ATOM     22  C   UNL A   1      37.285  23.674  25.316  1.00  0.00     0.004 C 
ATOM     23  C   UNL A   1      36.885  22.522  24.443  1.00  0.00     0.004 C 
ENDBRANCH  10  21
ENDBRANCH   3   6
ENDBRANCH   1   2
BRANCH   1  24
ATOM     24  C   UNL A   1      32.497  27.961  25.725  1.00  0.00     0.042 C 
BRANCH  24  25
ATOM     25  C   UNL A   1      33.058  29.281  25.175  1.00  0.00     0.118 C 
BRANCH  25  26
ATOM     26  N   UNL A   1      32.457  30.472  25.739  1.00  0.00    -0.352 N 
ATOM     27  C   UNL A   1      32.892  31.241  26.799  1.00  0.00     0.251 C 
ATOM     28  H   UNL A   1      31.624  30.773  25.309  1.00  0.00     0.163 HD
ATOM     29  O   UNL A   1      32.189  32.168  27.192  1.00  0.00    -0.269 OA
BRANCH  27  30
ATOM     30  C   UNL A   1      34.178  30.959  27.491  1.00  0.00     0.039 A 
ATOM     31  C   UNL A   1      34.353  29.703  28.081  1.00  0.00     0.014 A 
ATOM     32  C   UNL A   1      35.164  31.938  27.655  1.00  0.00     0.014 A 
ATOM     33  C   UNL A   1      35.519  29.418  28.804  1.00  0.00     0.010 A 
ATOM     34  C   UNL A   1      36.346  31.639  28.356  1.00  0.00     0.010 A 
ATOM     35  C   UNL A   1      36.537  30.377  28.946  1.00  0.00    -0.014 A 
BRANCH  35  36
ATOM     36  C   UNL A   1      37.792  30.028  29.681  1.00  0.00     0.031 A 
ATOM     37  C   UNL A   1      38.066  30.546  31.072  1.00  0.00     0.074 A 
ATOM     38  C   UNL A   1      38.710  29.237  29.087  1.00  0.00     0.049 A 
ATOM     39  N   UNL A   1      39.062  30.265  31.876  1.00  0.00    -0.248 NA
ATOM     40  C   UNL A   1      37.111  31.517  31.628  1.00  0.00     0.031 C 
ATOM     41  C   UNL A   1      38.620  28.730  27.717  1.00  0.00     0.029 A 
ATOM     42  N   UNL A   1      39.904  28.731  29.548  1.00  0.00    -0.354 N 
ATOM     43  C   UNL A   1      38.872  31.036  33.018  1.00  0.00     0.074 A 
ATOM     44  C   UNL A   1      37.673  31.816  32.794  1.00  0.00     0.031 C 
ATOM     45  C   UNL A   1      39.706  27.985  27.449  1.00  0.00     0.029 A 
ATOM     46  C   UNL A   1      40.580  27.972  28.619  1.00  0.00     0.049 A 
ATOM     47  H   UNL A   1      40.243  28.898  30.457  1.00  0.00     0.167 HD
ATOM     48  C   UNL A   1      39.612  31.080  34.154  1.00  0.00     0.034 A 
ATOM     49  C   UNL A   1      41.769  27.339  28.692  1.00  0.00     0.034 A 
ATOM     50  C   UNL A   1      40.788  30.283  34.392  1.00  0.00     0.049 A 
ATOM     51  C   UNL A   1      42.540  27.361  29.985  1.00  0.00     0.074 A 
ATOM     52  C   UNL A   1      41.538  30.183  35.553  1.00  0.00     0.029 A 
ATOM     53  N   UNL A   1      41.401  29.468  33.454  1.00  0.00    -0.354 N 
ATOM     54  N   UNL A   1      42.234  27.942  31.119  1.00  0.00    -0.248 NA
ATOM     55  C   UNL A   1      43.801  26.603  30.023  1.00  0.00     0.031 C 
ATOM     56  C   UNL A   1      42.627  29.340  35.303  1.00  0.00     0.029 A 
ATOM     57  C   UNL A   1      42.531  28.881  34.000  1.00  0.00     0.049 A 
ATOM     58  H   UNL A   1      41.081  29.328  32.533  1.00  0.00     0.167 HD
ATOM     59  C   UNL A   1      43.245  27.600  32.010  1.00  0.00     0.074 A 
ATOM     60  C   UNL A   1      44.156  26.730  31.294  1.00  0.00     0.031 C 
ATOM     61  C   UNL A   1      43.414  27.985  33.299  1.00  0.00     0.034 A 
BRANCH  48  62
ATOM     62  C   UNL A   1      39.157  31.994  35.266  1.00  0.00     0.023 A 
ATOM     63  C   UNL A   1      38.247  31.520  36.232  1.00  0.00     0.012 A 
ATOM     64  C   UNL A   1      39.710  33.283  35.414  1.00  0.00     0.148 A 
ATOM     65  C   UNL A   1      37.873  32.321  37.311  1.00  0.00     0.002 A 
ATOM     66  C   UNL A   1      39.365  34.059  36.515  1.00  0.00     0.091 A 
ATOM     67  F   UNL A   1      40.567  33.721  34.481  1.00  0.00    -0.205 F 
ATOM     68  C   UNL A   1      38.439  33.584  37.458  1.00  0.00     0.022 A 
BRANCH  66  69
ATOM     69  S   UNL A   1      40.100  35.665  36.844  1.00  0.00     0.127 S 
ATOM     70  O   UNL A   1      41.527  35.349  36.808  1.00  0.00    -0.237 OA
ATOM     71  O   UNL A   1      39.623  36.459  35.712  1.00  0.00    -0.237 OA
ATOM     72  O   UNL A   1      39.590  36.085  38.142  1.00  0.00    -0.744 OA
ENDBRANCH  66  69
ENDBRANCH  48  62
BRANCH  49  73
ATOM     73  C   UNL A   1      42.289  26.588  27.512  1.00  0.00     0.023 A 
ATOM     74  C   UNL A   1      43.063  27.252  26.540  1.00  0.00     0.012 A 
ATOM     75  C   UNL A   1      42.023  25.214  27.352  1.00  0.00     0.148 A 
ATOM     76  C   UNL A   1      43.527  26.572  25.412  1.00  0.00     0.002 A 
ATOM     77  C   UNL A   1      42.544  24.529  26.261  1.00  0.00     0.091 A 
ATOM     78  F   UNL A   1      41.271  24.601  28.277  1.00  0.00    -0.205 F 
ATOM     79  C   UNL A   1      43.277  25.209  25.278  1.00  0.00     0.022 A 
BRANCH  77  80
ATOM     80  S   UNL A   1      42.393  22.747  26.090  1.00  0.00     0.127 S 
ATOM     81  O   UNL A   1      42.979  22.273  27.339  1.00  0.00    -0.237 OA
ATOM     82  O   UNL A   1      40.944  22.575  25.982  1.00  0.00    -0.237 OA
ATOM     83  O   UNL A   1      43.125  22.409  24.874  1.00  0.00    -0.744 OA
ENDBRANCH  77  80
ENDBRANCH  49  73
BRANCH  61  84
ATOM     84  C   UNL A   1      44.615  27.451  34.037  1.00  0.00     0.023 A 
ATOM     85  C   UNL A   1      45.850  28.127  33.956  1.00  0.00     0.012 A 
ATOM     86  C   UNL A   1      44.509  26.308  34.856  1.00  0.00     0.148 A 
ATOM     87  C   UNL A   1      46.967  27.650  34.640  1.00  0.00     0.002 A 
ATOM     88  C   UNL A   1      45.613  25.869  35.577  1.00  0.00     0.091 A 
ATOM     89  F   UNL A   1      43.333  25.666  34.909  1.00  0.00    -0.205 F 
ATOM     90  C   UNL A   1      46.847  26.530  35.459  1.00  0.00     0.022 A 
BRANCH  88  91
ATOM     91  S   UNL A   1      45.526  24.495  36.730  1.00  0.00     0.127 S 
ATOM     92  O   UNL A   1      44.683  23.548  36.001  1.00  0.00    -0.237 OA
ATOM     93  O   UNL A   1      46.929  24.097  36.846  1.00  0.00    -0.237 OA
ATOM     94  O   UNL A   1      44.948  25.033  37.953  1.00  0.00    -0.744 OA
ENDBRANCH  88  91
ENDBRANCH  61  84
ENDBRANCH  35  36
ENDBRANCH  27  30
ENDBRANCH  25  26
ENDBRANCH  24  25
ENDBRANCH   1  24
TORSDOF 18
ENDMDL
