MODEL 1
REMARK VINA RESULT:     -13.0      0.000      0.000
REMARK SMILES C[C@@H](C(=O)NCCCNC(=O)c1ccc(-c2c3nc(c(-c4cccc(S(=O)(=O)[O-])c4F)c4ccc([nH]4)c(-c4cccc(S(=O)(=O)[O-])c4F)c4nc(c(-c5cccc(S(=O)(=O)[O-])c5F)c5ccc2[nH]5)C=C4)C=C3)cc1)N1C(=O)/C(=C/c2nc3ccccc3[nH]2)SC1=S
REMARK SMILES IDX 7 1 6 2 5 3 3 4 4 5 2 7 1 8 75 9 76 10 90 11 77 12 78 13
REMARK SMILES IDX 89 14 91 15 79 16 80 17 81 18 88 19 82 20 87 21 83 23 86 24
REMARK SMILES IDX 84 25 85 26 8 27 9 28 10 29 11 31 12 32 13 33 74 34 14 35
REMARK SMILES IDX 73 36 15 37 16 38 17 39 67 40 18 41 72 42 66 43 68 44 19 45
REMARK SMILES IDX 71 46 65 47 64 48 20 50 52 51 32 52 51 53 33 54 36 55 50 56
REMARK SMILES IDX 69 57 34 58 35 59 49 61 70 62 37 63 21 64 22 65 30 66 23 67
REMARK SMILES IDX 25 68 31 69 24 70 26 71 27 72 28 73 29 74 53 75 54 76 62 77
REMARK SMILES IDX 55 78 57 79 63 80 56 81 58 82 59 83 60 84 61 85 38 86 39 87
REMARK SMILES IDX 47 88 40 89 42 90 48 91 41 92 43 93 44 94 45 95 46 96
REMARK H PARENT 5 6 88 22 9 30 68 49 36 60
REMARK Flexibility Score: inf
ROOT
ATOM      1  C   UNL A   1      31.482  30.404  25.656  1.00  0.00     0.042 C 
ENDROOT
BRANCH   1   2
ATOM      2  C   UNL A   1      32.209  29.678  24.526  1.00  0.00     0.117 C 
BRANCH   2   3
ATOM      3  N   UNL A   1      33.190  28.742  25.048  1.00  0.00    -0.354 N 
ATOM      4  C   UNL A   1      33.005  27.528  25.647  1.00  0.00     0.242 C 
ATOM      5  O   UNL A   1      33.990  26.974  26.142  1.00  0.00    -0.273 OA
ATOM      6  H   UNL A   1      34.128  29.025  24.956  1.00  0.00     0.163 HD
BRANCH   4   7
ATOM      7  C   UNL A   1      31.601  26.882  25.659  1.00  0.00     0.178 C 
ATOM      8  C   UNL A   1      30.981  27.058  27.043  1.00  0.00     0.042 C 
BRANCH   7   9
ATOM      9  N   UNL A   1      31.739  25.488  25.169  1.00  0.00    -0.281 N 
ATOM     10  C   UNL A   1      31.811  24.397  26.018  1.00  0.00     0.267 C 
ATOM     11  C   UNL A   1      31.833  25.200  23.815  1.00  0.00     0.149 C 
ATOM     12  O   UNL A   1      31.622  24.373  27.229  1.00  0.00    -0.268 OA
ATOM     13  C   UNL A   1      32.091  23.154  25.261  1.00  0.00     0.084 C 
ATOM     14  S   UNL A   1      32.173  23.498  23.581  1.00  0.00    -0.054 SA
ATOM     15  S   UNL A   1      31.644  26.226  22.507  1.00  0.00    -0.052 S 
ATOM     16  C   UNL A   1      32.224  21.967  25.878  1.00  0.00     0.068 C 
BRANCH  16  17
ATOM     17  C   UNL A   1      32.667  20.829  25.170  1.00  0.00     0.132 A 
ATOM     18  N   UNL A   1      32.023  20.119  24.270  1.00  0.00    -0.229 NA
ATOM     19  N   UNL A   1      33.918  20.304  25.399  1.00  0.00    -0.338 N 
ATOM     20  C   UNL A   1      32.814  19.044  24.001  1.00  0.00     0.089 A 
ATOM     21  C   UNL A   1      34.013  19.121  24.700  1.00  0.00     0.066 A 
ATOM     22  H   UNL A   1      34.620  20.703  25.962  1.00  0.00     0.168 HD
ATOM     23  C   UNL A   1      32.547  17.943  23.181  1.00  0.00     0.030 A 
ATOM     24  C   UNL A   1      34.993  18.129  24.626  1.00  0.00     0.028 A 
ATOM     25  C   UNL A   1      33.502  16.928  23.102  1.00  0.00     0.002 A 
ATOM     26  C   UNL A   1      34.703  17.022  23.812  1.00  0.00     0.002 A 
ENDBRANCH  16  17
ENDBRANCH   7   9
ENDBRANCH   4   7
ENDBRANCH   2   3
ENDBRANCH   1   2
BRANCH   1  27
ATOM     27  C   UNL A   1      32.389  30.789  26.823  1.00  0.00     0.118 C 
BRANCH  27  28
ATOM     28  N   UNL A   1      32.454  32.230  27.026  1.00  0.00    -0.352 N 
ATOM     29  C   UNL A   1      33.408  32.990  27.659  1.00  0.00     0.251 C 
ATOM     30  H   UNL A   1      31.698  32.737  26.652  1.00  0.00     0.163 HD
ATOM     31  O   UNL A   1      33.176  34.175  27.891  1.00  0.00    -0.269 OA
BRANCH  29  32
ATOM     32  C   UNL A   1      34.692  32.391  28.084  1.00  0.00     0.039 A 
ATOM     33  C   UNL A   1      35.845  33.182  28.053  1.00  0.00     0.014 A 
ATOM     34  C   UNL A   1      34.771  31.059  28.503  1.00  0.00     0.014 A 
ATOM     35  C   UNL A   1      37.054  32.667  28.526  1.00  0.00     0.010 A 
ATOM     36  C   UNL A   1      35.963  30.569  29.037  1.00  0.00     0.010 A 
ATOM     37  C   UNL A   1      37.113  31.373  29.072  1.00  0.00    -0.014 A 
BRANCH  37  38
ATOM     38  C   UNL A   1      38.338  30.885  29.759  1.00  0.00     0.031 A 
ATOM     39  C   UNL A   1      39.226  29.850  29.122  1.00  0.00     0.074 A 
ATOM     40  C   UNL A   1      38.593  31.307  31.015  1.00  0.00     0.049 A 
ATOM     41  N   UNL A   1      40.289  29.268  29.613  1.00  0.00    -0.248 NA
ATOM     42  C   UNL A   1      38.866  29.396  27.768  1.00  0.00     0.031 C 
ATOM     43  C   UNL A   1      37.766  32.251  31.773  1.00  0.00     0.029 A 
ATOM     44  N   UNL A   1      39.596  30.973  31.891  1.00  0.00    -0.354 N 
ATOM     45  C   UNL A   1      40.705  28.356  28.650  1.00  0.00     0.074 A 
ATOM     46  C   UNL A   1      39.773  28.453  27.547  1.00  0.00     0.031 C 
ATOM     47  C   UNL A   1      38.289  32.412  32.998  1.00  0.00     0.029 A 
ATOM     48  C   UNL A   1      39.460  31.554  33.132  1.00  0.00     0.049 A 
ATOM     49  H   UNL A   1      40.342  30.374  31.655  1.00  0.00     0.167 HD
ATOM     50  C   UNL A   1      41.774  27.525  28.678  1.00  0.00     0.034 A 
ATOM     51  C   UNL A   1      40.178  31.393  34.263  1.00  0.00     0.034 A 
ATOM     52  C   UNL A   1      42.720  27.457  29.760  1.00  0.00     0.049 A 
ATOM     53  C   UNL A   1      41.366  30.471  34.252  1.00  0.00     0.074 A 
ATOM     54  C   UNL A   1      43.897  26.728  29.825  1.00  0.00     0.029 A 
ATOM     55  N   UNL A   1      42.592  28.113  30.972  1.00  0.00    -0.354 N 
ATOM     56  N   UNL A   1      41.853  29.765  33.261  1.00  0.00    -0.248 NA
ATOM     57  C   UNL A   1      42.120  30.341  35.508  1.00  0.00     0.031 C 
ATOM     58  C   UNL A   1      44.455  26.909  31.093  1.00  0.00     0.029 A 
ATOM     59  C   UNL A   1      43.647  27.779  31.805  1.00  0.00     0.049 A 
ATOM     60  H   UNL A   1      41.859  28.726  31.208  1.00  0.00     0.167 HD
ATOM     61  C   UNL A   1      42.982  29.131  33.766  1.00  0.00     0.074 A 
ATOM     62  C   UNL A   1      43.128  29.564  35.140  1.00  0.00     0.031 C 
ATOM     63  C   UNL A   1      43.811  28.250  33.155  1.00  0.00     0.034 A 
BRANCH  50  64
ATOM     64  C   UNL A   1      42.022  26.634  27.490  1.00  0.00     0.023 A 
ATOM     65  C   UNL A   1      42.758  27.121  26.392  1.00  0.00     0.012 A 
ATOM     66  C   UNL A   1      41.637  25.278  27.520  1.00  0.00     0.148 A 
ATOM     67  C   UNL A   1      43.097  26.277  25.335  1.00  0.00     0.002 A 
ATOM     68  C   UNL A   1      42.015  24.433  26.484  1.00  0.00     0.091 A 
ATOM     69  F   UNL A   1      40.924  24.841  28.568  1.00  0.00    -0.205 F 
ATOM     70  C   UNL A   1      42.738  24.933  25.387  1.00  0.00     0.022 A 
BRANCH  68  71
ATOM     71  S   UNL A   1      41.678  22.669  26.494  1.00  0.00     0.127 S 
ATOM     72  O   UNL A   1      42.313  22.241  25.248  1.00  0.00    -0.237 OA
ATOM     73  O   UNL A   1      42.364  22.234  27.710  1.00  0.00    -0.237 OA
ATOM     74  O   UNL A   1      40.228  22.534  26.527  1.00  0.00    -0.744 OA
ENDBRANCH  68  71
ENDBRANCH  50  64
BRANCH  51  75
ATOM     75  C   UNL A   1      39.804  32.130  35.505  1.00  0.00     0.023 A 
ATOM     76  C   UNL A   1      40.392  33.381  35.778  1.00  0.00     0.012 A 
ATOM     77  C   UNL A   1      38.882  31.592  36.424  1.00  0.00     0.148 A 
ATOM     78  C   UNL A   1      40.108  34.058  36.963  1.00  0.00     0.002 A 
ATOM     79  C   UNL A   1      38.556  32.301  37.574  1.00  0.00     0.091 A 
ATOM     80  F   UNL A   1      38.343  30.394  36.159  1.00  0.00    -0.205 F 
ATOM     81  C   UNL A   1      39.184  33.523  37.858  1.00  0.00     0.022 A 
BRANCH  79  82
ATOM     82  S   UNL A   1      37.273  31.750  38.705  1.00  0.00     0.127 S 
ATOM     83  O   UNL A   1      37.911  31.951  40.003  1.00  0.00    -0.237 OA
ATOM     84  O   UNL A   1      36.181  32.676  38.401  1.00  0.00    -0.237 OA
ATOM     85  O   UNL A   1      36.998  30.367  38.336  1.00  0.00    -0.744 OA
ENDBRANCH  79  82
ENDBRANCH  51  75
BRANCH  63  86
ATOM     86  C   UNL A   1      44.967  27.706  33.954  1.00  0.00     0.023 A 
ATOM     87  C   UNL A   1      46.190  28.405  33.979  1.00  0.00     0.012 A 
ATOM     88  C   UNL A   1      44.821  26.542  34.734  1.00  0.00     0.148 A 
ATOM     89  C   UNL A   1      47.261  27.937  34.740  1.00  0.00     0.002 A 
ATOM     90  C   UNL A   1      45.875  26.110  35.530  1.00  0.00     0.091 A 
ATOM     91  F   UNL A   1      43.655  25.883  34.686  1.00  0.00    -0.205 F 
ATOM     92  C   UNL A   1      47.100  26.798  35.524  1.00  0.00     0.022 A 
BRANCH  90  93
ATOM     93  S   UNL A   1      45.735  24.708  36.645  1.00  0.00     0.127 S 
ATOM     94  O   UNL A   1      45.582  23.597  35.709  1.00  0.00    -0.237 OA
ATOM     95  O   UNL A   1      47.017  24.744  37.347  1.00  0.00    -0.237 OA
ATOM     96  O   UNL A   1      44.575  24.975  37.486  1.00  0.00    -0.744 OA
ENDBRANCH  90  93
ENDBRANCH  63  86
ENDBRANCH  37  38
ENDBRANCH  29  32
ENDBRANCH  27  28
ENDBRANCH   1  27
TORSDOF 15
ENDMDL
MODEL 2
REMARK VINA RESULT:     -12.9      1.789      2.385
REMARK SMILES C[C@@H](C(=O)NCCCNC(=O)c1ccc(-c2c3nc(c(-c4cccc(S(=O)(=O)[O-])c4F)c4ccc([nH]4)c(-c4cccc(S(=O)(=O)[O-])c4F)c4nc(c(-c5cccc(S(=O)(=O)[O-])c5F)c5ccc2[nH]5)C=C4)C=C3)cc1)N1C(=O)/C(=C/c2nc3ccccc3[nH]2)SC1=S
REMARK SMILES IDX 7 1 6 2 5 3 3 4 4 5 2 7 1 8 75 9 76 10 90 11 77 12 78 13
REMARK SMILES IDX 89 14 91 15 79 16 80 17 81 18 88 19 82 20 87 21 83 23 86 24
REMARK SMILES IDX 84 25 85 26 8 27 9 28 10 29 11 31 12 32 13 33 74 34 14 35
REMARK SMILES IDX 73 36 15 37 16 38 17 39 67 40 18 41 72 42 66 43 68 44 19 45
REMARK SMILES IDX 71 46 65 47 64 48 20 50 52 51 32 52 51 53 33 54 36 55 50 56
REMARK SMILES IDX 69 57 34 58 35 59 49 61 70 62 37 63 21 64 22 65 30 66 23 67
REMARK SMILES IDX 25 68 31 69 24 70 26 71 27 72 28 73 29 74 53 75 54 76 62 77
REMARK SMILES IDX 55 78 57 79 63 80 56 81 58 82 59 83 60 84 61 85 38 86 39 87
REMARK SMILES IDX 47 88 40 89 42 90 48 91 41 92 43 93 44 94 45 95 46 96
REMARK H PARENT 5 6 88 22 9 30 68 49 36 60
REMARK Flexibility Score: inf
ROOT
ATOM      1  C   UNL A   1      31.970  30.717  26.704  1.00  0.00     0.042 C 
ENDROOT
BRANCH   1   2
ATOM      2  C   UNL A   1      32.236  29.979  25.394  1.00  0.00     0.117 C 
BRANCH   2   3
ATOM      3  N   UNL A   1      33.228  28.933  25.571  1.00  0.00    -0.354 N 
ATOM      4  C   UNL A   1      33.055  27.600  25.822  1.00  0.00     0.242 C 
ATOM      5  O   UNL A   1      34.056  26.927  26.079  1.00  0.00    -0.273 OA
ATOM      6  H   UNL A   1      34.164  29.227  25.501  1.00  0.00     0.163 HD
BRANCH   4   7
ATOM      7  C   UNL A   1      31.640  26.981  25.744  1.00  0.00     0.178 C 
ATOM      8  C   UNL A   1      30.950  27.139  27.096  1.00  0.00     0.042 C 
BRANCH   7   9
ATOM      9  N   UNL A   1      31.779  25.596  25.231  1.00  0.00    -0.281 N 
ATOM     10  C   UNL A   1      31.764  24.484  26.056  1.00  0.00     0.267 C 
ATOM     11  C   UNL A   1      31.963  25.336  23.880  1.00  0.00     0.149 C 
ATOM     12  O   UNL A   1      31.489  24.438  27.250  1.00  0.00    -0.268 OA
ATOM     13  C   UNL A   1      32.068  23.251  25.292  1.00  0.00     0.084 C 
ATOM     14  S   UNL A   1      32.278  23.631  23.630  1.00  0.00    -0.054 SA
ATOM     15  S   UNL A   1      31.893  26.396  22.588  1.00  0.00    -0.052 S 
ATOM     16  C   UNL A   1      32.128  22.048  25.887  1.00  0.00     0.068 C 
BRANCH  16  17
ATOM     17  C   UNL A   1      32.593  20.915  25.185  1.00  0.00     0.132 A 
ATOM     18  N   UNL A   1      31.959  20.184  24.294  1.00  0.00    -0.229 NA
ATOM     19  N   UNL A   1      33.857  20.422  25.409  1.00  0.00    -0.338 N 
ATOM     20  C   UNL A   1      32.775  19.125  24.029  1.00  0.00     0.089 A 
ATOM     21  C   UNL A   1      33.976  19.236  24.718  1.00  0.00     0.066 A 
ATOM     22  H   UNL A   1      34.554  20.842  25.964  1.00  0.00     0.168 HD
ATOM     23  C   UNL A   1      32.528  18.012  23.219  1.00  0.00     0.030 A 
ATOM     24  C   UNL A   1      34.978  18.267  24.644  1.00  0.00     0.028 A 
ATOM     25  C   UNL A   1      33.506  17.019  23.141  1.00  0.00     0.002 A 
ATOM     26  C   UNL A   1      34.710  17.147  23.841  1.00  0.00     0.002 A 
ENDBRANCH  16  17
ENDBRANCH   7   9
ENDBRANCH   4   7
ENDBRANCH   2   3
ENDBRANCH   1   2
BRANCH   1  27
ATOM     27  C   UNL A   1      33.141  31.575  27.177  1.00  0.00     0.118 C 
BRANCH  27  28
ATOM     28  N   UNL A   1      32.761  32.963  27.398  1.00  0.00    -0.352 N 
ATOM     29  C   UNL A   1      33.221  33.869  28.322  1.00  0.00     0.251 C 
ATOM     30  H   UNL A   1      32.066  33.306  26.789  1.00  0.00     0.163 HD
ATOM     31  O   UNL A   1      32.629  34.935  28.468  1.00  0.00    -0.269 OA
BRANCH  29  32
ATOM     32  C   UNL A   1      34.402  33.560  29.159  1.00  0.00     0.039 A 
ATOM     33  C   UNL A   1      34.234  32.748  30.285  1.00  0.00     0.014 A 
ATOM     34  C   UNL A   1      35.668  34.067  28.848  1.00  0.00     0.014 A 
ATOM     35  C   UNL A   1      35.345  32.373  31.045  1.00  0.00     0.010 A 
ATOM     36  C   UNL A   1      36.784  33.638  29.567  1.00  0.00     0.010 A 
ATOM     37  C   UNL A   1      36.637  32.772  30.662  1.00  0.00    -0.014 A 
BRANCH  37  38
ATOM     38  C   UNL A   1      37.841  32.221  31.338  1.00  0.00     0.031 A 
ATOM     39  C   UNL A   1      38.630  31.095  30.725  1.00  0.00     0.074 A 
ATOM     40  C   UNL A   1      38.165  32.676  32.567  1.00  0.00     0.049 A 
ATOM     41  N   UNL A   1      39.660  30.455  31.214  1.00  0.00    -0.248 NA
ATOM     42  C   UNL A   1      38.197  30.612  29.403  1.00  0.00     0.031 C 
ATOM     43  C   UNL A   1      37.434  33.712  33.303  1.00  0.00     0.029 A 
ATOM     44  N   UNL A   1      39.165  32.304  33.431  1.00  0.00    -0.354 N 
ATOM     45  C   UNL A   1      39.978  29.473  30.283  1.00  0.00     0.074 A 
ATOM     46  C   UNL A   1      39.024  29.594  29.201  1.00  0.00     0.031 C 
ATOM     47  C   UNL A   1      38.003  33.885  34.505  1.00  0.00     0.029 A 
ATOM     48  C   UNL A   1      39.110  32.946  34.647  1.00  0.00     0.049 A 
ATOM     49  H   UNL A   1      39.856  31.640  33.202  1.00  0.00     0.167 HD
ATOM     50  C   UNL A   1      40.982  28.565  30.320  1.00  0.00     0.034 A 
ATOM     51  C   UNL A   1      39.846  32.780  35.765  1.00  0.00     0.034 A 
ATOM     52  C   UNL A   1      41.951  28.471  31.379  1.00  0.00     0.049 A 
ATOM     53  C   UNL A   1      40.960  31.769  35.765  1.00  0.00     0.074 A 
ATOM     54  C   UNL A   1      43.071  27.658  31.446  1.00  0.00     0.029 A 
ATOM     55  N   UNL A   1      41.908  29.186  32.564  1.00  0.00    -0.354 N 
ATOM     56  N   UNL A   1      41.363  30.987  34.794  1.00  0.00    -0.248 NA
ATOM     57  C   UNL A   1      41.739  31.637  37.005  1.00  0.00     0.031 C 
ATOM     58  C   UNL A   1      43.678  27.849  32.690  1.00  0.00     0.029 A 
ATOM     59  C   UNL A   1      42.959  28.808  33.383  1.00  0.00     0.049 A 
ATOM     60  H   UNL A   1      41.230  29.863  32.791  1.00  0.00     0.167 HD
ATOM     61  C   UNL A   1      42.456  30.290  35.298  1.00  0.00     0.074 A 
ATOM     62  C   UNL A   1      42.675  30.769  36.646  1.00  0.00     0.031 C 
ATOM     63  C   UNL A   1      43.198  29.323  34.706  1.00  0.00     0.034 A 
BRANCH  50  64
ATOM     64  C   UNL A   1      41.126  27.607  29.167  1.00  0.00     0.023 A 
ATOM     65  C   UNL A   1      40.345  26.435  29.130  1.00  0.00     0.012 A 
ATOM     66  C   UNL A   1      41.938  27.934  28.063  1.00  0.00     0.148 A 
ATOM     67  C   UNL A   1      40.379  25.595  28.018  1.00  0.00     0.002 A 
ATOM     68  C   UNL A   1      41.934  27.115  26.940  1.00  0.00     0.091 A 
ATOM     69  F   UNL A   1      42.684  29.046  28.127  1.00  0.00    -0.205 F 
ATOM     70  C   UNL A   1      41.162  25.942  26.919  1.00  0.00     0.022 A 
BRANCH  68  71
ATOM     71  S   UNL A   1      42.840  27.515  25.441  1.00  0.00     0.127 S 
ATOM     72  O   UNL A   1      42.615  26.316  24.634  1.00  0.00    -0.237 OA
ATOM     73  O   UNL A   1      42.139  28.708  24.970  1.00  0.00    -0.237 OA
ATOM     74  O   UNL A   1      44.221  27.736  25.848  1.00  0.00    -0.744 OA
ENDBRANCH  68  71
ENDBRANCH  50  64
BRANCH  51  75
ATOM     75  C   UNL A   1      39.565  33.596  36.982  1.00  0.00     0.023 A 
ATOM     76  C   UNL A   1      40.054  34.914  37.066  1.00  0.00     0.012 A 
ATOM     77  C   UNL A   1      38.831  33.068  38.062  1.00  0.00     0.148 A 
ATOM     78  C   UNL A   1      39.861  35.673  38.220  1.00  0.00     0.002 A 
ATOM     79  C   UNL A   1      38.588  33.852  39.183  1.00  0.00     0.091 A 
ATOM     80  F   UNL A   1      38.386  31.807  37.974  1.00  0.00    -0.205 F 
ATOM     81  C   UNL A   1      39.122  35.146  39.275  1.00  0.00     0.022 A 
BRANCH  79  82
ATOM     82  S   UNL A   1      37.527  33.299  40.523  1.00  0.00     0.127 S 
ATOM     83  O   UNL A   1      36.309  32.926  39.809  1.00  0.00    -0.237 OA
ATOM     84  O   UNL A   1      38.289  32.178  41.074  1.00  0.00    -0.237 OA
ATOM     85  O   UNL A   1      37.414  34.440  41.425  1.00  0.00    -0.744 OA
ENDBRANCH  79  82
ENDBRANCH  51  75
BRANCH  63  86
ATOM     86  C   UNL A   1      44.332  28.726  35.498  1.00  0.00     0.023 A 
ATOM     87  C   UNL A   1      45.627  29.270  35.382  1.00  0.00     0.012 A 
ATOM     88  C   UNL A   1      44.103  27.676  36.408  1.00  0.00     0.148 A 
ATOM     89  C   UNL A   1      46.684  28.756  36.132  1.00  0.00     0.002 A 
ATOM     90  C   UNL A   1      45.150  27.202  37.190  1.00  0.00     0.091 A 
ATOM     91  F   UNL A   1      42.868  27.163  36.493  1.00  0.00    -0.205 F 
ATOM     92  C   UNL A   1      46.443  27.731  37.044  1.00  0.00     0.022 A 
BRANCH  90  93
ATOM     93  S   UNL A   1      44.921  25.950  38.458  1.00  0.00     0.127 S 
ATOM     94  O   UNL A   1      44.004  26.621  39.378  1.00  0.00    -0.237 OA
ATOM     95  O   UNL A   1      44.328  24.849  37.700  1.00  0.00    -0.237 OA
ATOM     96  O   UNL A   1      46.246  25.673  38.996  1.00  0.00    -0.744 OA
ENDBRANCH  90  93
ENDBRANCH  63  86
ENDBRANCH  37  38
ENDBRANCH  29  32
ENDBRANCH  27  28
ENDBRANCH   1  27
TORSDOF 15
ENDMDL
MODEL 3
REMARK VINA RESULT:     -12.9      5.358     10.869
REMARK SMILES C[C@@H](C(=O)NCCCNC(=O)c1ccc(-c2c3nc(c(-c4cccc(S(=O)(=O)[O-])c4F)c4ccc([nH]4)c(-c4cccc(S(=O)(=O)[O-])c4F)c4nc(c(-c5cccc(S(=O)(=O)[O-])c5F)c5ccc2[nH]5)C=C4)C=C3)cc1)N1C(=O)/C(=C/c2nc3ccccc3[nH]2)SC1=S
REMARK SMILES IDX 7 1 6 2 5 3 3 4 4 5 2 7 1 8 75 9 76 10 90 11 77 12 78 13
REMARK SMILES IDX 89 14 91 15 79 16 80 17 81 18 88 19 82 20 87 21 83 23 86 24
REMARK SMILES IDX 84 25 85 26 8 27 9 28 10 29 11 31 12 32 13 33 74 34 14 35
REMARK SMILES IDX 73 36 15 37 16 38 17 39 67 40 18 41 72 42 66 43 68 44 19 45
REMARK SMILES IDX 71 46 65 47 64 48 20 50 52 51 32 52 51 53 33 54 36 55 50 56
REMARK SMILES IDX 69 57 34 58 35 59 49 61 70 62 37 63 21 64 22 65 30 66 23 67
REMARK SMILES IDX 25 68 31 69 24 70 26 71 27 72 28 73 29 74 53 75 54 76 62 77
REMARK SMILES IDX 55 78 57 79 63 80 56 81 58 82 59 83 60 84 61 85 38 86 39 87
REMARK SMILES IDX 47 88 40 89 42 90 48 91 41 92 43 93 44 94 45 95 46 96
REMARK H PARENT 5 6 88 22 9 30 68 49 36 60
REMARK Flexibility Score: inf
ROOT
ATOM      1  C   UNL A   1      36.868  20.598  24.996  1.00  0.00     0.042 C 
ENDROOT
BRANCH   1   2
ATOM      2  C   UNL A   1      35.886  21.756  24.832  1.00  0.00     0.117 C 
BRANCH   2   3
ATOM      3  N   UNL A   1      34.526  21.274  24.667  1.00  0.00    -0.354 N 
ATOM      4  C   UNL A   1      33.383  21.646  25.318  1.00  0.00     0.242 C 
ATOM      5  O   UNL A   1      32.360  20.988  25.107  1.00  0.00    -0.273 OA
ATOM      6  H   UNL A   1      34.410  20.574  23.984  1.00  0.00     0.163 HD
BRANCH   4   7
ATOM      7  C   UNL A   1      33.398  22.875  26.255  1.00  0.00     0.178 C 
ATOM      8  C   UNL A   1      33.037  22.429  27.670  1.00  0.00     0.042 C 
BRANCH   7   9
ATOM      9  N   UNL A   1      32.532  23.917  25.650  1.00  0.00    -0.281 N 
ATOM     10  C   UNL A   1      33.005  24.861  24.755  1.00  0.00     0.267 C 
ATOM     11  C   UNL A   1      31.186  24.022  25.974  1.00  0.00     0.149 C 
ATOM     12  O   UNL A   1      34.106  24.900  24.216  1.00  0.00    -0.268 OA
ATOM     13  C   UNL A   1      31.957  25.857  24.430  1.00  0.00     0.084 C 
ATOM     14  S   UNL A   1      30.498  25.455  25.242  1.00  0.00    -0.054 SA
ATOM     15  S   UNL A   1      30.244  22.988  26.893  1.00  0.00    -0.052 S 
ATOM     16  C   UNL A   1      32.193  26.883  23.594  1.00  0.00     0.068 C 
BRANCH  16  17
ATOM     17  C   UNL A   1      31.248  27.920  23.437  1.00  0.00     0.132 A 
ATOM     18  N   UNL A   1      31.281  29.142  23.922  1.00  0.00    -0.229 NA
ATOM     19  N   UNL A   1      30.096  27.715  22.714  1.00  0.00    -0.338 N 
ATOM     20  C   UNL A   1      30.076  29.700  23.618  1.00  0.00     0.089 A 
ATOM     21  C   UNL A   1      29.299  28.828  22.865  1.00  0.00     0.066 A 
ATOM     22  H   UNL A   1      29.879  26.915  22.183  1.00  0.00     0.168 HD
ATOM     23  C   UNL A   1      29.573  30.951  23.988  1.00  0.00     0.030 A 
ATOM     24  C   UNL A   1      28.005  29.144  22.446  1.00  0.00     0.028 A 
ATOM     25  C   UNL A   1      28.275  31.286  23.597  1.00  0.00     0.002 A 
ATOM     26  C   UNL A   1      27.507  30.397  22.839  1.00  0.00     0.002 A 
ENDBRANCH  16  17
ENDBRANCH   7   9
ENDBRANCH   4   7
ENDBRANCH   2   3
ENDBRANCH   1   2
BRANCH   1  27
ATOM     27  C   UNL A   1      38.262  21.032  25.443  1.00  0.00     0.118 C 
BRANCH  27  28
ATOM     28  N   UNL A   1      39.132  19.900  25.731  1.00  0.00    -0.352 N 
ATOM     29  C   UNL A   1      40.447  19.875  26.127  1.00  0.00     0.251 C 
ATOM     30  H   UNL A   1      38.711  19.015  25.627  1.00  0.00     0.163 HD
ATOM     31  O   UNL A   1      41.055  18.807  26.129  1.00  0.00    -0.269 OA
BRANCH  29  32
ATOM     32  C   UNL A   1      41.141  21.121  26.521  1.00  0.00     0.039 A 
ATOM     33  C   UNL A   1      41.617  21.971  25.518  1.00  0.00     0.014 A 
ATOM     34  C   UNL A   1      41.332  21.453  27.866  1.00  0.00     0.014 A 
ATOM     35  C   UNL A   1      42.202  23.193  25.862  1.00  0.00     0.010 A 
ATOM     36  C   UNL A   1      41.854  22.701  28.206  1.00  0.00     0.010 A 
ATOM     37  C   UNL A   1      42.278  23.592  27.207  1.00  0.00    -0.014 A 
BRANCH  37  38
ATOM     38  C   UNL A   1      42.712  24.966  27.575  1.00  0.00     0.031 A 
ATOM     39  C   UNL A   1      41.747  25.950  28.181  1.00  0.00     0.074 A 
ATOM     40  C   UNL A   1      43.965  25.360  27.264  1.00  0.00     0.049 A 
ATOM     41  N   UNL A   1      41.943  27.204  28.495  1.00  0.00    -0.248 NA
ATOM     42  C   UNL A   1      40.381  25.472  28.453  1.00  0.00     0.031 C 
ATOM     43  C   UNL A   1      44.973  24.524  26.606  1.00  0.00     0.029 A 
ATOM     44  N   UNL A   1      44.595  26.570  27.425  1.00  0.00    -0.354 N 
ATOM     45  C   UNL A   1      40.724  27.677  28.966  1.00  0.00     0.074 A 
ATOM     46  C   UNL A   1      39.787  26.576  28.887  1.00  0.00     0.031 C 
ATOM     47  C   UNL A   1      46.087  25.247  26.411  1.00  0.00     0.029 A 
ATOM     48  C   UNL A   1      45.862  26.606  26.889  1.00  0.00     0.049 A 
ATOM     49  H   UNL A   1      44.180  27.338  27.880  1.00  0.00     0.167 HD
ATOM     50  C   UNL A   1      40.419  28.910  29.434  1.00  0.00     0.034 A 
ATOM     51  C   UNL A   1      46.738  27.625  26.766  1.00  0.00     0.034 A 
ATOM     52  C   UNL A   1      41.361  29.992  29.545  1.00  0.00     0.049 A 
ATOM     53  C   UNL A   1      46.367  28.978  27.308  1.00  0.00     0.074 A 
ATOM     54  C   UNL A   1      41.169  31.240  30.114  1.00  0.00     0.029 A 
ATOM     55  N   UNL A   1      42.657  29.971  29.059  1.00  0.00    -0.354 N 
ATOM     56  N   UNL A   1      45.274  29.347  27.928  1.00  0.00    -0.248 NA
ATOM     57  C   UNL A   1      47.363  30.050  27.159  1.00  0.00     0.031 C 
ATOM     58  C   UNL A   1      42.334  31.989  29.930  1.00  0.00     0.029 A 
ATOM     59  C   UNL A   1      43.265  31.195  29.282  1.00  0.00     0.049 A 
ATOM     60  H   UNL A   1      43.084  29.201  28.619  1.00  0.00     0.167 HD
ATOM     61  C   UNL A   1      45.460  30.683  28.264  1.00  0.00     0.074 A 
ATOM     62  C   UNL A   1      46.786  31.048  27.813  1.00  0.00     0.031 C 
ATOM     63  C   UNL A   1      44.601  31.538  28.871  1.00  0.00     0.034 A 
BRANCH  50  64
ATOM     64  C   UNL A   1      39.012  29.171  29.905  1.00  0.00     0.023 A 
ATOM     65  C   UNL A   1      38.633  28.801  31.211  1.00  0.00     0.012 A 
ATOM     66  C   UNL A   1      38.111  29.898  29.102  1.00  0.00     0.148 A 
ATOM     67  C   UNL A   1      37.374  29.137  31.705  1.00  0.00     0.002 A 
ATOM     68  C   UNL A   1      36.875  30.267  29.616  1.00  0.00     0.091 A 
ATOM     69  F   UNL A   1      38.489  30.227  27.857  1.00  0.00    -0.205 F 
ATOM     70  C   UNL A   1      36.502  29.881  30.914  1.00  0.00     0.022 A 
BRANCH  68  71
ATOM     71  S   UNL A   1      35.713  31.297  28.713  1.00  0.00     0.127 S 
ATOM     72  O   UNL A   1      34.868  31.804  29.793  1.00  0.00    -0.237 OA
ATOM     73  O   UNL A   1      36.594  32.294  28.108  1.00  0.00    -0.237 OA
ATOM     74  O   UNL A   1      35.042  30.417  27.766  1.00  0.00    -0.744 OA
ENDBRANCH  68  71
ENDBRANCH  50  64
BRANCH  51  75
ATOM     75  C   UNL A   1      48.061  27.408  26.111  1.00  0.00     0.023 A 
ATOM     76  C   UNL A   1      49.188  27.103  26.899  1.00  0.00     0.012 A 
ATOM     77  C   UNL A   1      48.211  27.519  24.715  1.00  0.00     0.148 A 
ATOM     78  C   UNL A   1      50.447  26.962  26.316  1.00  0.00     0.002 A 
ATOM     79  C   UNL A   1      49.456  27.314  24.133  1.00  0.00     0.091 A 
ATOM     80  F   UNL A   1      47.132  27.825  23.980  1.00  0.00    -0.205 F 
ATOM     81  C   UNL A   1      50.580  27.059  24.933  1.00  0.00     0.022 A 
BRANCH  79  82
ATOM     82  S   UNL A   1      49.686  27.282  22.352  1.00  0.00     0.127 S 
ATOM     83  O   UNL A   1      48.789  26.200  21.953  1.00  0.00    -0.237 OA
ATOM     84  O   UNL A   1      49.248  28.623  21.964  1.00  0.00    -0.237 OA
ATOM     85  O   UNL A   1      51.109  27.039  22.148  1.00  0.00    -0.744 OA
ENDBRANCH  79  82
ENDBRANCH  51  75
BRANCH  63  86
ATOM     86  C   UNL A   1      45.069  32.951  29.106  1.00  0.00     0.023 A 
ATOM     87  C   UNL A   1      45.764  33.269  30.290  1.00  0.00     0.012 A 
ATOM     88  C   UNL A   1      44.882  33.946  28.126  1.00  0.00     0.148 A 
ATOM     89  C   UNL A   1      46.236  34.563  30.510  1.00  0.00     0.002 A 
ATOM     90  C   UNL A   1      45.400  35.219  28.329  1.00  0.00     0.091 A 
ATOM     91  F   UNL A   1      44.206  33.627  27.013  1.00  0.00    -0.205 F 
ATOM     92  C   UNL A   1      46.065  35.533  29.527  1.00  0.00     0.022 A 
BRANCH  90  93
ATOM     93  S   UNL A   1      45.313  36.511  27.084  1.00  0.00     0.127 S 
ATOM     94  O   UNL A   1      45.994  37.617  27.754  1.00  0.00    -0.237 OA
ATOM     95  O   UNL A   1      46.056  35.918  25.973  1.00  0.00    -0.237 OA
ATOM     96  O   UNL A   1      43.895  36.723  26.821  1.00  0.00    -0.744 OA
ENDBRANCH  90  93
ENDBRANCH  63  86
ENDBRANCH  37  38
ENDBRANCH  29  32
ENDBRANCH  27  28
ENDBRANCH   1  27
TORSDOF 15
ENDMDL
