MODEL 1
REMARK VINA RESULT:     -12.5      0.000      0.000
REMARK SMILES CN(C)S(=O)(=O)c1ccc(-n2c(CCC(=O)NCCCNC(=O)c3ccc(-c4c5nc(c(-c6cccc(S(=O)(=O)[O-])c6F)c6ccc([nH]6)c(-c6cccc(S(=O)(=O)[O-])c6F)c6nc(c(-c7cccc(S(=O)(=O)[O-])c7F)c7ccc4[nH]7)C=C6)C=C5)cc3)ccc2-c2ccc(F)cc2)cc1
REMARK SMILES IDX 18 1 17 2 15 3 16 4 14 6 13 7 12 8 11 9 89 10 87 11 88 12
REMARK SMILES IDX 10 13 7 14 8 15 98 16 9 17 97 18 4 19 5 20 6 21 2 22 1 23
REMARK SMILES IDX 3 24 90 25 91 26 96 27 92 28 95 29 93 30 94 31 19 32 20 33
REMARK SMILES IDX 21 34 22 35 23 37 24 38 25 39 86 40 26 41 85 42 27 43 28 44
REMARK SMILES IDX 29 45 79 46 30 47 84 48 78 49 80 50 31 51 83 52 77 53 76 54
REMARK SMILES IDX 32 56 64 57 44 58 63 59 45 60 48 61 62 62 81 63 46 64 47 65
REMARK SMILES IDX 61 67 82 68 49 69 33 70 34 71 42 72 35 73 37 74 43 75 36 76
REMARK SMILES IDX 38 77 39 78 40 79 41 80 65 81 66 82 74 83 67 84 69 85 75 86
REMARK SMILES IDX 68 87 70 88 71 89 72 90 73 91 50 92 51 93 59 94 52 95 54 96
REMARK SMILES IDX 60 97 53 98 55 99 56 100 57 101 58 102
REMARK H PARENT 17 5 21 36 80 55 48 66
REMARK Flexibility Score: inf
ROOT
ATOM      1  C   UNL A   1      34.694  20.744  24.907  1.00  0.00     0.117 C 
ENDROOT
BRANCH   1   2
ATOM      2  N   UNL A   1      33.503  21.200  25.587  1.00  0.00    -0.356 N 
ATOM      3  C   UNL A   1      32.413  21.867  25.105  1.00  0.00     0.220 C 
ATOM      4  O   UNL A   1      31.404  21.910  25.815  1.00  0.00    -0.275 OA
ATOM      5  H   UNL A   1      33.471  20.996  26.549  1.00  0.00     0.163 HD
BRANCH   3   6
ATOM      6  C   UNL A   1      32.405  22.559  23.746  1.00  0.00     0.106 C 
BRANCH   6   7
ATOM      7  C   UNL A   1      31.821  23.981  23.662  1.00  0.00     0.064 C 
BRANCH   7   8
ATOM      8  C   UNL A   1      32.650  25.047  24.342  1.00  0.00     0.024 A 
ATOM      9  N   UNL A   1      32.488  26.462  24.370  1.00  0.00    -0.314 N 
ATOM     10  C   UNL A   1      33.433  26.928  25.339  1.00  0.00     0.053 A 
ATOM     11  C   UNL A   1      33.779  24.718  25.071  1.00  0.00     0.024 A 
ATOM     12  C   UNL A   1      34.277  25.875  25.656  1.00  0.00     0.029 A 
BRANCH   9  13
ATOM     13  C   UNL A   1      31.470  27.235  23.662  1.00  0.00     0.046 A 
ATOM     14  C   UNL A   1      29.405  28.920  22.688  1.00  0.00     0.082 A 
ATOM     15  C   UNL A   1      30.738  29.166  22.351  1.00  0.00     0.024 A 
ATOM     16  C   UNL A   1      29.086  27.814  23.434  1.00  0.00     0.024 A 
ATOM     17  C   UNL A   1      31.766  28.319  22.826  1.00  0.00     0.028 A 
ATOM     18  C   UNL A   1      30.107  26.975  23.855  1.00  0.00     0.028 A 
BRANCH  14  19
ATOM     19  S   UNL A   1      28.069  29.986  22.213  1.00  0.00     0.242 S 
ATOM     20  O   UNL A   1      27.040  29.813  23.219  1.00  0.00    -0.207 OA
ATOM     21  O   UNL A   1      27.768  29.705  20.825  1.00  0.00    -0.207 OA
BRANCH  19  22
ATOM     22  N   UNL A   1      28.818  31.511  22.280  1.00  0.00    -0.204 NA
ATOM     23  C   UNL A   1      28.417  32.393  21.160  1.00  0.00     0.124 C 
ATOM     24  C   UNL A   1      28.741  32.197  23.597  1.00  0.00     0.124 C 
ENDBRANCH  19  22
ENDBRANCH  14  19
ENDBRANCH   9  13
BRANCH  10  25
ATOM     25  C   UNL A   1      33.402  28.124  26.208  1.00  0.00    -0.001 A 
ATOM     26  C   UNL A   1      32.268  28.913  26.407  1.00  0.00     0.013 A 
ATOM     27  C   UNL A   1      34.640  28.642  26.636  1.00  0.00     0.013 A 
ATOM     28  C   UNL A   1      32.367  30.130  27.105  1.00  0.00     0.040 A 
ATOM     29  C   UNL A   1      34.740  29.817  27.376  1.00  0.00     0.040 A 
ATOM     30  C   UNL A   1      33.596  30.556  27.605  1.00  0.00     0.123 A 
ATOM     31  F   UNL A   1      33.686  31.718  28.265  1.00  0.00    -0.207 F 
ENDBRANCH  10  25
ENDBRANCH   7   8
ENDBRANCH   6   7
ENDBRANCH   3   6
ENDBRANCH   1   2
BRANCH   1  32
ATOM     32  C   UNL A   1      35.788  21.776  24.663  1.00  0.00     0.042 C 
BRANCH  32  33
ATOM     33  C   UNL A   1      36.589  22.405  25.802  1.00  0.00     0.118 C 
BRANCH  33  34
ATOM     34  N   UNL A   1      37.862  21.683  25.943  1.00  0.00    -0.352 N 
ATOM     35  C   UNL A   1      39.180  22.016  26.154  1.00  0.00     0.251 C 
ATOM     36  H   UNL A   1      37.740  20.709  25.868  1.00  0.00     0.163 HD
ATOM     37  O   UNL A   1      40.006  21.194  25.739  1.00  0.00    -0.269 OA
BRANCH  35  38
ATOM     38  C   UNL A   1      39.677  23.182  26.938  1.00  0.00     0.039 A 
ATOM     39  C   UNL A   1      39.397  24.477  26.440  1.00  0.00     0.014 A 
ATOM     40  C   UNL A   1      40.530  23.075  28.025  1.00  0.00     0.014 A 
ATOM     41  C   UNL A   1      40.040  25.612  26.952  1.00  0.00     0.010 A 
ATOM     42  C   UNL A   1      41.180  24.195  28.525  1.00  0.00     0.010 A 
ATOM     43  C   UNL A   1      40.974  25.461  27.975  1.00  0.00    -0.014 A 
BRANCH  43  44
ATOM     44  C   UNL A   1      41.644  26.622  28.612  1.00  0.00     0.031 A 
ATOM     45  C   UNL A   1      40.594  27.610  29.206  1.00  0.00     0.074 A 
ATOM     46  C   UNL A   1      43.023  26.603  28.630  1.00  0.00     0.049 A 
ATOM     47  N   UNL A   1      40.730  28.829  29.631  1.00  0.00    -0.248 NA
ATOM     48  C   UNL A   1      39.156  27.200  29.302  1.00  0.00     0.031 C 
ATOM     49  C   UNL A   1      43.864  25.485  28.126  1.00  0.00     0.029 A 
ATOM     50  N   UNL A   1      44.013  27.465  29.091  1.00  0.00    -0.354 N 
ATOM     51  C   UNL A   1      39.526  29.192  30.294  1.00  0.00     0.074 A 
ATOM     52  C   UNL A   1      38.563  28.197  29.962  1.00  0.00     0.031 C 
ATOM     53  C   UNL A   1      45.187  25.769  28.218  1.00  0.00     0.029 A 
ATOM     54  C   UNL A   1      45.364  27.080  28.817  1.00  0.00     0.049 A 
ATOM     55  H   UNL A   1      43.795  28.293  29.578  1.00  0.00     0.167 HD
ATOM     56  C   UNL A   1      39.463  30.227  31.184  1.00  0.00     0.034 A 
ATOM     57  C   UNL A   1      46.530  27.779  29.038  1.00  0.00     0.034 A 
ATOM     58  C   UNL A   1      40.707  30.918  31.166  1.00  0.00     0.049 A 
ATOM     59  C   UNL A   1      46.118  28.913  29.857  1.00  0.00     0.074 A 
ATOM     60  C   UNL A   1      41.293  31.710  30.213  1.00  0.00     0.029 A 
ATOM     61  N   UNL A   1      41.648  30.476  32.062  1.00  0.00    -0.354 N 
ATOM     62  N   UNL A   1      45.889  28.832  31.128  1.00  0.00    -0.248 NA
ATOM     63  C   UNL A   1      45.938  30.223  29.228  1.00  0.00     0.031 C 
ATOM     64  C   UNL A   1      42.649  31.356  30.304  1.00  0.00     0.029 A 
ATOM     65  C   UNL A   1      42.871  30.605  31.463  1.00  0.00     0.049 A 
ATOM     66  H   UNL A   1      41.475  30.130  32.967  1.00  0.00     0.167 HD
ATOM     67  C   UNL A   1      45.147  29.959  31.342  1.00  0.00     0.074 A 
ATOM     68  C   UNL A   1      45.490  30.890  30.289  1.00  0.00     0.031 C 
ATOM     69  C   UNL A   1      43.959  29.826  31.980  1.00  0.00     0.034 A 
BRANCH  56  70
ATOM     70  C   UNL A   1      38.495  30.629  32.277  1.00  0.00     0.023 A 
ATOM     71  C   UNL A   1      37.362  31.380  31.840  1.00  0.00     0.012 A 
ATOM     72  C   UNL A   1      38.770  30.630  33.653  1.00  0.00     0.148 A 
ATOM     73  C   UNL A   1      36.641  32.217  32.688  1.00  0.00     0.002 A 
ATOM     74  C   UNL A   1      38.007  31.432  34.513  1.00  0.00     0.091 A 
ATOM     75  F   UNL A   1      39.805  29.922  34.118  1.00  0.00    -0.205 F 
ATOM     76  C   UNL A   1      36.980  32.257  34.027  1.00  0.00     0.022 A 
BRANCH  74  77
ATOM     77  S   UNL A   1      38.289  31.509  36.286  1.00  0.00     0.127 S 
ATOM     78  O   UNL A   1      37.183  32.353  36.733  1.00  0.00    -0.237 OA
ATOM     79  O   UNL A   1      38.172  30.101  36.670  1.00  0.00    -0.237 OA
ATOM     80  O   UNL A   1      39.625  32.064  36.450  1.00  0.00    -0.744 OA
ENDBRANCH  74  77
ENDBRANCH  56  70
BRANCH  57  81
ATOM     81  C   UNL A   1      48.019  27.804  28.704  1.00  0.00     0.023 A 
ATOM     82  C   UNL A   1      49.049  27.600  29.627  1.00  0.00     0.012 A 
ATOM     83  C   UNL A   1      48.426  27.833  27.320  1.00  0.00     0.148 A 
ATOM     84  C   UNL A   1      50.368  27.323  29.192  1.00  0.00     0.002 A 
ATOM     85  C   UNL A   1      49.682  27.418  26.894  1.00  0.00     0.091 A 
ATOM     86  F   UNL A   1      47.578  28.274  26.383  1.00  0.00    -0.205 F 
ATOM     87  C   UNL A   1      50.671  27.171  27.835  1.00  0.00     0.022 A 
BRANCH  85  88
ATOM     88  S   UNL A   1      50.015  26.997  25.165  1.00  0.00     0.127 S 
ATOM     89  O   UNL A   1      50.110  28.312  24.532  1.00  0.00    -0.237 OA
ATOM     90  O   UNL A   1      51.285  26.280  25.279  1.00  0.00    -0.237 OA
ATOM     91  O   UNL A   1      48.898  26.178  24.711  1.00  0.00    -0.744 OA
ENDBRANCH  85  88
ENDBRANCH  57  81
BRANCH  69  92
ATOM     92  C   UNL A   1      43.894  28.581  32.852  1.00  0.00     0.023 A 
ATOM     93  C   UNL A   1      44.116  27.335  32.223  1.00  0.00     0.012 A 
ATOM     94  C   UNL A   1      43.392  28.568  34.169  1.00  0.00     0.148 A 
ATOM     95  C   UNL A   1      43.802  26.126  32.848  1.00  0.00     0.002 A 
ATOM     96  C   UNL A   1      43.060  27.358  34.778  1.00  0.00     0.091 A 
ATOM     97  F   UNL A   1      43.226  29.729  34.808  1.00  0.00    -0.205 F 
ATOM     98  C   UNL A   1      43.259  26.138  34.121  1.00  0.00     0.022 A 
BRANCH  96  99
ATOM     99  S   UNL A   1      42.424  27.220  36.436  1.00  0.00     0.127 S 
ATOM    100  O   UNL A   1      42.458  25.780  36.686  1.00  0.00    -0.237 OA
ATOM    101  O   UNL A   1      43.439  27.984  37.157  1.00  0.00    -0.237 OA
ATOM    102  O   UNL A   1      41.106  27.833  36.410  1.00  0.00    -0.744 OA
ENDBRANCH  96  99
ENDBRANCH  69  92
ENDBRANCH  43  44
ENDBRANCH  35  38
ENDBRANCH  33  34
ENDBRANCH  32  33
ENDBRANCH   1  32
TORSDOF 19
ENDMDL
MODEL 2
REMARK VINA RESULT:     -12.2      5.233     11.972
REMARK SMILES CN(C)S(=O)(=O)c1ccc(-n2c(CCC(=O)NCCCNC(=O)c3ccc(-c4c5nc(c(-c6cccc(S(=O)(=O)[O-])c6F)c6ccc([nH]6)c(-c6cccc(S(=O)(=O)[O-])c6F)c6nc(c(-c7cccc(S(=O)(=O)[O-])c7F)c7ccc4[nH]7)C=C6)C=C5)cc3)ccc2-c2ccc(F)cc2)cc1
REMARK SMILES IDX 18 1 17 2 15 3 16 4 14 6 13 7 12 8 11 9 89 10 87 11 88 12
REMARK SMILES IDX 10 13 7 14 8 15 98 16 9 17 97 18 4 19 5 20 6 21 2 22 1 23
REMARK SMILES IDX 3 24 90 25 91 26 96 27 92 28 95 29 93 30 94 31 19 32 20 33
REMARK SMILES IDX 21 34 22 35 23 37 24 38 25 39 86 40 26 41 85 42 27 43 28 44
REMARK SMILES IDX 29 45 79 46 30 47 84 48 78 49 80 50 31 51 83 52 77 53 76 54
REMARK SMILES IDX 32 56 64 57 44 58 63 59 45 60 48 61 62 62 81 63 46 64 47 65
REMARK SMILES IDX 61 67 82 68 49 69 33 70 34 71 42 72 35 73 37 74 43 75 36 76
REMARK SMILES IDX 38 77 39 78 40 79 41 80 65 81 66 82 74 83 67 84 69 85 75 86
REMARK SMILES IDX 68 87 70 88 71 89 72 90 73 91 50 92 51 93 59 94 52 95 54 96
REMARK SMILES IDX 60 97 53 98 55 99 56 100 57 101 58 102
REMARK H PARENT 17 5 21 36 80 55 48 66
REMARK Flexibility Score: inf
ROOT
ATOM      1  C   UNL A   1      35.355  33.275  32.401  1.00  0.00     0.117 C 
ENDROOT
BRANCH   1   2
ATOM      2  N   UNL A   1      35.864  32.706  33.628  1.00  0.00    -0.356 N 
ATOM      3  C   UNL A   1      36.925  33.082  34.402  1.00  0.00     0.220 C 
ATOM      4  O   UNL A   1      37.001  32.614  35.542  1.00  0.00    -0.275 OA
ATOM      5  H   UNL A   1      35.366  31.925  33.960  1.00  0.00     0.163 HD
BRANCH   3   6
ATOM      6  C   UNL A   1      38.006  34.037  33.909  1.00  0.00     0.106 C 
BRANCH   6   7
ATOM      7  C   UNL A   1      38.799  33.641  32.650  1.00  0.00     0.064 C 
BRANCH   7   8
ATOM      8  C   UNL A   1      39.466  32.286  32.723  1.00  0.00     0.024 A 
ATOM      9  N   UNL A   1      40.775  31.927  33.157  1.00  0.00    -0.314 N 
ATOM     10  C   UNL A   1      40.772  30.496  33.211  1.00  0.00     0.053 A 
ATOM     11  C   UNL A   1      38.806  31.141  32.318  1.00  0.00     0.024 A 
ATOM     12  C   UNL A   1      39.618  30.046  32.587  1.00  0.00     0.029 A 
BRANCH   9  13
ATOM     13  C   UNL A   1      41.830  32.841  33.590  1.00  0.00     0.046 A 
ATOM     14  C   UNL A   1      43.763  34.862  34.073  1.00  0.00     0.082 A 
ATOM     15  C   UNL A   1      42.651  34.731  34.908  1.00  0.00     0.024 A 
ATOM     16  C   UNL A   1      43.958  33.961  33.057  1.00  0.00     0.024 A 
ATOM     17  C   UNL A   1      41.694  33.716  34.676  1.00  0.00     0.028 A 
ATOM     18  C   UNL A   1      43.027  32.949  32.872  1.00  0.00     0.028 A 
BRANCH  14  19
ATOM     19  S   UNL A   1      44.957  36.163  34.238  1.00  0.00     0.242 S 
ATOM     20  O   UNL A   1      45.593  36.292  32.942  1.00  0.00    -0.207 OA
ATOM     21  O   UNL A   1      45.761  35.862  35.404  1.00  0.00    -0.207 OA
BRANCH  19  22
ATOM     22  N   UNL A   1      43.959  37.484  34.626  1.00  0.00    -0.204 NA
ATOM     23  C   UNL A   1      44.637  38.475  35.494  1.00  0.00     0.124 C 
ATOM     24  C   UNL A   1      43.272  38.119  33.471  1.00  0.00     0.124 C 
ENDBRANCH  19  22
ENDBRANCH  14  19
ENDBRANCH   9  13
BRANCH  10  25
ATOM     25  C   UNL A   1      41.550  29.568  34.058  1.00  0.00    -0.001 A 
ATOM     26  C   UNL A   1      42.066  28.351  33.607  1.00  0.00     0.013 A 
ATOM     27  C   UNL A   1      41.534  29.795  35.447  1.00  0.00     0.013 A 
ATOM     28  C   UNL A   1      42.640  27.446  34.520  1.00  0.00     0.040 A 
ATOM     29  C   UNL A   1      42.148  28.931  36.351  1.00  0.00     0.040 A 
ATOM     30  C   UNL A   1      42.699  27.758  35.876  1.00  0.00     0.123 A 
ATOM     31  F   UNL A   1      43.242  26.890  36.741  1.00  0.00    -0.207 F 
ENDBRANCH  10  25
ENDBRANCH   7   8
ENDBRANCH   6   7
ENDBRANCH   3   6
ENDBRANCH   1   2
BRANCH   1  32
ATOM     32  C   UNL A   1      35.174  32.327  31.222  1.00  0.00     0.042 C 
BRANCH  32  33
ATOM     33  C   UNL A   1      36.163  32.266  30.059  1.00  0.00     0.118 C 
BRANCH  33  34
ATOM     34  N   UNL A   1      35.604  31.408  29.005  1.00  0.00    -0.352 N 
ATOM     35  C   UNL A   1      36.095  30.520  28.076  1.00  0.00     0.251 C 
ATOM     36  H   UNL A   1      34.625  31.489  28.950  1.00  0.00     0.163 HD
ATOM     37  O   UNL A   1      35.394  30.366  27.069  1.00  0.00    -0.269 OA
BRANCH  35  38
ATOM     38  C   UNL A   1      37.296  29.652  28.240  1.00  0.00     0.039 A 
ATOM     39  C   UNL A   1      37.416  28.916  29.443  1.00  0.00     0.014 A 
ATOM     40  C   UNL A   1      38.372  29.649  27.367  1.00  0.00     0.014 A 
ATOM     41  C   UNL A   1      38.618  28.291  29.801  1.00  0.00     0.010 A 
ATOM     42  C   UNL A   1      39.569  29.044  27.725  1.00  0.00     0.010 A 
ATOM     43  C   UNL A   1      39.718  28.395  28.951  1.00  0.00    -0.014 A 
BRANCH  43  44
ATOM     44  C   UNL A   1      41.002  27.705  29.231  1.00  0.00     0.031 A 
ATOM     45  C   UNL A   1      40.922  26.202  28.823  1.00  0.00     0.074 A 
ATOM     46  C   UNL A   1      42.027  28.487  29.722  1.00  0.00     0.049 A 
ATOM     47  N   UNL A   1      41.713  25.211  29.100  1.00  0.00    -0.248 NA
ATOM     48  C   UNL A   1      39.758  25.708  28.019  1.00  0.00     0.031 C 
ATOM     49  C   UNL A   1      41.954  29.958  29.919  1.00  0.00     0.029 A 
ATOM     50  N   UNL A   1      43.338  28.251  30.122  1.00  0.00    -0.354 N 
ATOM     51  C   UNL A   1      41.327  24.110  28.288  1.00  0.00     0.074 A 
ATOM     52  C   UNL A   1      40.058  24.440  27.732  1.00  0.00     0.031 C 
ATOM     53  C   UNL A   1      43.091  30.450  30.470  1.00  0.00     0.029 A 
ATOM     54  C   UNL A   1      44.043  29.371  30.667  1.00  0.00     0.049 A 
ATOM     55  H   UNL A   1      43.756  27.364  30.036  1.00  0.00     0.167 HD
ATOM     56  C   UNL A   1      42.162  23.059  28.032  1.00  0.00     0.034 A 
ATOM     57  C   UNL A   1      45.290  29.415  31.250  1.00  0.00     0.034 A 
ATOM     58  C   UNL A   1      43.330  23.202  28.833  1.00  0.00     0.049 A 
ATOM     59  C   UNL A   1      45.864  28.105  30.967  1.00  0.00     0.074 A 
ATOM     60  C   UNL A   1      43.525  23.090  30.185  1.00  0.00     0.029 A 
ATOM     61  N   UNL A   1      44.365  23.897  28.259  1.00  0.00    -0.354 N 
ATOM     62  N   UNL A   1      46.375  27.779  29.823  1.00  0.00    -0.248 NA
ATOM     63  C   UNL A   1      45.864  27.082  32.015  1.00  0.00     0.031 C 
ATOM     64  C   UNL A   1      44.449  24.112  30.453  1.00  0.00     0.029 A 
ATOM     65  C   UNL A   1      44.984  24.600  29.256  1.00  0.00     0.049 A 
ATOM     66  H   UNL A   1      44.615  23.891  27.307  1.00  0.00     0.167 HD
ATOM     67  C   UNL A   1      46.363  26.415  29.900  1.00  0.00     0.074 A 
ATOM     68  C   UNL A   1      46.374  26.077  31.307  1.00  0.00     0.031 C 
ATOM     69  C   UNL A   1      45.790  25.727  28.883  1.00  0.00     0.034 A 
BRANCH  56  70
ATOM     70  C   UNL A   1      42.205  21.969  26.982  1.00  0.00     0.023 A 
ATOM     71  C   UNL A   1      41.166  20.995  27.073  1.00  0.00     0.012 A 
ATOM     72  C   UNL A   1      43.312  21.649  26.180  1.00  0.00     0.148 A 
ATOM     73  C   UNL A   1      41.285  19.713  26.539  1.00  0.00     0.002 A 
ATOM     74  C   UNL A   1      43.405  20.377  25.600  1.00  0.00     0.091 A 
ATOM     75  F   UNL A   1      44.302  22.537  26.041  1.00  0.00    -0.205 F 
ATOM     76  C   UNL A   1      42.420  19.399  25.817  1.00  0.00     0.022 A 
BRANCH  74  77
ATOM     77  S   UNL A   1      44.786  19.870  24.568  1.00  0.00     0.127 S 
ATOM     78  O   UNL A   1      44.435  18.489  24.248  1.00  0.00    -0.237 OA
ATOM     79  O   UNL A   1      44.677  20.801  23.443  1.00  0.00    -0.237 OA
ATOM     80  O   UNL A   1      45.977  20.056  25.384  1.00  0.00    -0.744 OA
ENDBRANCH  74  77
ENDBRANCH  56  70
BRANCH  57  81
ATOM     81  C   UNL A   1      46.217  30.296  32.084  1.00  0.00     0.023 A 
ATOM     82  C   UNL A   1      47.105  31.240  31.564  1.00  0.00     0.012 A 
ATOM     83  C   UNL A   1      46.045  30.331  33.517  1.00  0.00     0.148 A 
ATOM     84  C   UNL A   1      47.687  32.226  32.397  1.00  0.00     0.002 A 
ATOM     85  C   UNL A   1      46.497  31.383  34.305  1.00  0.00     0.091 A 
ATOM     86  F   UNL A   1      45.428  29.321  34.142  1.00  0.00    -0.205 F 
ATOM     87  C   UNL A   1      47.337  32.337  33.748  1.00  0.00     0.022 A 
BRANCH  85  88
ATOM     88  S   UNL A   1      45.869  31.663  35.979  1.00  0.00     0.127 S 
ATOM     89  O   UNL A   1      44.421  31.674  35.775  1.00  0.00    -0.237 OA
ATOM     90  O   UNL A   1      46.378  30.484  36.682  1.00  0.00    -0.237 OA
ATOM     91  O   UNL A   1      46.433  32.927  36.433  1.00  0.00    -0.744 OA
ENDBRANCH  85  88
ENDBRANCH  57  81
BRANCH  69  92
ATOM     92  C   UNL A   1      45.768  26.510  27.579  1.00  0.00     0.023 A 
ATOM     93  C   UNL A   1      44.518  26.997  27.135  1.00  0.00     0.012 A 
ATOM     94  C   UNL A   1      46.850  26.568  26.678  1.00  0.00     0.148 A 
ATOM     95  C   UNL A   1      44.330  27.470  25.834  1.00  0.00     0.002 A 
ATOM     96  C   UNL A   1      46.649  27.020  25.374  1.00  0.00     0.091 A 
ATOM     97  F   UNL A   1      48.056  26.167  27.090  1.00  0.00    -0.205 F 
ATOM     98  C   UNL A   1      45.392  27.466  24.947  1.00  0.00     0.022 A 
BRANCH  96  99
ATOM     99  S   UNL A   1      47.940  27.141  24.152  1.00  0.00     0.127 S 
ATOM    100  O   UNL A   1      48.369  25.753  23.983  1.00  0.00    -0.237 OA
ATOM    101  O   UNL A   1      47.174  27.679  23.031  1.00  0.00    -0.237 OA
ATOM    102  O   UNL A   1      48.929  28.052  24.706  1.00  0.00    -0.744 OA
ENDBRANCH  96  99
ENDBRANCH  69  92
ENDBRANCH  43  44
ENDBRANCH  35  38
ENDBRANCH  33  34
ENDBRANCH  32  33
ENDBRANCH   1  32
TORSDOF 19
ENDMDL
MODEL 3
REMARK VINA RESULT:     -11.9      2.982      4.343
REMARK SMILES CN(C)S(=O)(=O)c1ccc(-n2c(CCC(=O)NCCCNC(=O)c3ccc(-c4c5nc(c(-c6cccc(S(=O)(=O)[O-])c6F)c6ccc([nH]6)c(-c6cccc(S(=O)(=O)[O-])c6F)c6nc(c(-c7cccc(S(=O)(=O)[O-])c7F)c7ccc4[nH]7)C=C6)C=C5)cc3)ccc2-c2ccc(F)cc2)cc1
REMARK SMILES IDX 18 1 17 2 15 3 16 4 14 6 13 7 12 8 11 9 89 10 87 11 88 12
REMARK SMILES IDX 10 13 7 14 8 15 98 16 9 17 97 18 4 19 5 20 6 21 2 22 1 23
REMARK SMILES IDX 3 24 90 25 91 26 96 27 92 28 95 29 93 30 94 31 19 32 20 33
REMARK SMILES IDX 21 34 22 35 23 37 24 38 25 39 86 40 26 41 85 42 27 43 28 44
REMARK SMILES IDX 29 45 79 46 30 47 84 48 78 49 80 50 31 51 83 52 77 53 76 54
REMARK SMILES IDX 32 56 64 57 44 58 63 59 45 60 48 61 62 62 81 63 46 64 47 65
REMARK SMILES IDX 61 67 82 68 49 69 33 70 34 71 42 72 35 73 37 74 43 75 36 76
REMARK SMILES IDX 38 77 39 78 40 79 41 80 65 81 66 82 74 83 67 84 69 85 75 86
REMARK SMILES IDX 68 87 70 88 71 89 72 90 73 91 50 92 51 93 59 94 52 95 54 96
REMARK SMILES IDX 60 97 53 98 55 99 56 100 57 101 58 102
REMARK H PARENT 17 5 21 36 80 55 48 66
REMARK Flexibility Score: inf
ROOT
ATOM      1  C   UNL A   1      35.595  21.351  25.151  1.00  0.00     0.117 C 
ENDROOT
BRANCH   1   2
ATOM      2  N   UNL A   1      35.141  21.716  26.475  1.00  0.00    -0.356 N 
ATOM      3  C   UNL A   1      34.084  22.489  26.863  1.00  0.00     0.220 C 
ATOM      4  O   UNL A   1      33.736  22.437  28.046  1.00  0.00    -0.275 OA
ATOM      5  H   UNL A   1      35.678  21.348  27.213  1.00  0.00     0.163 HD
BRANCH   3   6
ATOM      6  C   UNL A   1      33.338  23.408  25.901  1.00  0.00     0.106 C 
BRANCH   6   7
ATOM      7  C   UNL A   1      33.052  24.851  26.356  1.00  0.00     0.064 C 
BRANCH   7   8
ATOM      8  C   UNL A   1      31.886  25.514  25.659  1.00  0.00     0.024 A 
ATOM      9  N   UNL A   1      31.617  26.894  25.424  1.00  0.00    -0.314 N 
ATOM     10  C   UNL A   1      30.493  26.910  24.538  1.00  0.00     0.053 A 
ATOM     11  C   UNL A   1      30.845  24.767  25.137  1.00  0.00     0.024 A 
ATOM     12  C   UNL A   1      29.975  25.625  24.477  1.00  0.00     0.029 A 
BRANCH   9  13
ATOM     13  C   UNL A   1      32.419  28.026  25.882  1.00  0.00     0.046 A 
ATOM     14  C   UNL A   1      33.899  30.067  27.184  1.00  0.00     0.082 A 
ATOM     15  C   UNL A   1      34.553  29.085  26.435  1.00  0.00     0.024 A 
ATOM     16  C   UNL A   1      32.528  30.086  27.229  1.00  0.00     0.024 A 
ATOM     17  C   UNL A   1      33.815  28.076  25.776  1.00  0.00     0.028 A 
ATOM     18  C   UNL A   1      31.823  29.109  26.541  1.00  0.00     0.028 A 
BRANCH  14  19
ATOM     19  S   UNL A   1      34.754  31.310  28.117  1.00  0.00     0.242 S 
ATOM     20  O   UNL A   1      33.738  32.015  28.873  1.00  0.00    -0.207 OA
ATOM     21  O   UNL A   1      35.594  32.040  27.191  1.00  0.00    -0.207 OA
BRANCH  19  22
ATOM     22  N   UNL A   1      35.769  30.356  29.092  1.00  0.00    -0.204 NA
ATOM     23  C   UNL A   1      37.018  29.962  28.400  1.00  0.00     0.124 C 
ATOM     24  C   UNL A   1      36.021  30.890  30.457  1.00  0.00     0.124 C 
ENDBRANCH  19  22
ENDBRANCH  14  19
ENDBRANCH   9  13
BRANCH  10  25
ATOM     25  C   UNL A   1      30.088  27.906  23.522  1.00  0.00    -0.001 A 
ATOM     26  C   UNL A   1      30.967  28.818  22.934  1.00  0.00     0.013 A 
ATOM     27  C   UNL A   1      28.709  28.122  23.346  1.00  0.00     0.013 A 
ATOM     28  C   UNL A   1      30.471  29.846  22.111  1.00  0.00     0.040 A 
ATOM     29  C   UNL A   1      28.211  29.102  22.490  1.00  0.00     0.040 A 
ATOM     30  C   UNL A   1      29.102  29.961  21.877  1.00  0.00     0.123 A 
ATOM     31  F   UNL A   1      28.635  30.945  21.097  1.00  0.00    -0.207 F 
ENDBRANCH  10  25
ENDBRANCH   7   8
ENDBRANCH   6   7
ENDBRANCH   3   6
ENDBRANCH   1   2
BRANCH   1  32
ATOM     32  C   UNL A   1      36.969  20.702  25.047  1.00  0.00     0.042 C 
BRANCH  32  33
ATOM     33  C   UNL A   1      38.248  21.417  25.481  1.00  0.00     0.118 C 
BRANCH  33  34
ATOM     34  N   UNL A   1      39.246  20.411  25.868  1.00  0.00    -0.352 N 
ATOM     35  C   UNL A   1      40.615  20.361  25.998  1.00  0.00     0.251 C 
ATOM     36  H   UNL A   1      38.828  19.549  26.094  1.00  0.00     0.163 HD
ATOM     37  O   UNL A   1      41.118  19.238  25.878  1.00  0.00    -0.269 OA
BRANCH  35  38
ATOM     38  C   UNL A   1      41.501  21.492  26.396  1.00  0.00     0.039 A 
ATOM     39  C   UNL A   1      41.578  21.813  27.773  1.00  0.00     0.014 A 
ATOM     40  C   UNL A   1      42.119  22.344  25.495  1.00  0.00     0.014 A 
ATOM     41  C   UNL A   1      42.163  23.008  28.212  1.00  0.00     0.010 A 
ATOM     42  C   UNL A   1      42.685  23.536  25.926  1.00  0.00     0.010 A 
ATOM     43  C   UNL A   1      42.681  23.898  27.273  1.00  0.00    -0.014 A 
BRANCH  43  44
ATOM     44  C   UNL A   1      43.375  25.150  27.668  1.00  0.00     0.031 A 
ATOM     45  C   UNL A   1      42.347  26.292  27.934  1.00  0.00     0.074 A 
ATOM     46  C   UNL A   1      44.747  25.081  27.792  1.00  0.00     0.049 A 
ATOM     47  N   UNL A   1      42.523  27.570  28.071  1.00  0.00    -0.248 NA
ATOM     48  C   UNL A   1      40.884  25.973  28.017  1.00  0.00     0.031 C 
ATOM     49  C   UNL A   1      45.554  23.843  27.628  1.00  0.00     0.029 A 
ATOM     50  N   UNL A   1      45.752  25.987  28.110  1.00  0.00    -0.354 N 
ATOM     51  C   UNL A   1      41.303  28.128  28.539  1.00  0.00     0.074 A 
ATOM     52  C   UNL A   1      40.308  27.121  28.379  1.00  0.00     0.031 C 
ATOM     53  C   UNL A   1      46.882  24.088  27.749  1.00  0.00     0.029 A 
ATOM     54  C   UNL A   1      47.094  25.495  28.035  1.00  0.00     0.049 A 
ATOM     55  H   UNL A   1      45.551  26.915  28.372  1.00  0.00     0.167 HD
ATOM     56  C   UNL A   1      41.242  29.346  29.155  1.00  0.00     0.034 A 
ATOM     57  C   UNL A   1      48.281  26.180  28.172  1.00  0.00     0.034 A 
ATOM     58  C   UNL A   1      42.522  29.963  29.067  1.00  0.00     0.049 A 
ATOM     59  C   UNL A   1      47.884  27.491  28.669  1.00  0.00     0.074 A 
ATOM     60  C   UNL A   1      43.210  30.482  28.001  1.00  0.00     0.029 A 
ATOM     61  N   UNL A   1      43.379  29.710  30.109  1.00  0.00    -0.354 N 
ATOM     62  N   UNL A   1      47.571  27.724  29.904  1.00  0.00    -0.248 NA
ATOM     63  C   UNL A   1      47.816  28.620  27.739  1.00  0.00     0.031 C 
ATOM     64  C   UNL A   1      44.536  30.107  28.273  1.00  0.00     0.029 A 
ATOM     65  C   UNL A   1      44.642  29.645  29.589  1.00  0.00     0.049 A 
ATOM     66  H   UNL A   1      43.130  29.596  31.055  1.00  0.00     0.167 HD
ATOM     67  C   UNL A   1      46.881  28.898  29.792  1.00  0.00     0.074 A 
ATOM     68  C   UNL A   1      47.342  29.537  28.578  1.00  0.00     0.031 C 
ATOM     69  C   UNL A   1      45.650  28.968  30.353  1.00  0.00     0.034 A 
BRANCH  56  70
ATOM     70  C   UNL A   1      40.232  30.035  30.048  1.00  0.00     0.023 A 
ATOM     71  C   UNL A   1      40.115  31.445  29.859  1.00  0.00     0.012 A 
ATOM     72  C   UNL A   1      39.678  29.499  31.221  1.00  0.00     0.148 A 
ATOM     73  C   UNL A   1      39.627  32.299  30.846  1.00  0.00     0.002 A 
ATOM     74  C   UNL A   1      39.139  30.357  32.190  1.00  0.00     0.091 A 
ATOM     75  F   UNL A   1      39.739  28.180  31.435  1.00  0.00    -0.205 F 
ATOM     76  C   UNL A   1      39.157  31.752  32.024  1.00  0.00     0.022 A 
BRANCH  74  77
ATOM     77  S   UNL A   1      38.418  29.768  33.726  1.00  0.00     0.127 S 
ATOM     78  O   UNL A   1      39.593  29.286  34.448  1.00  0.00    -0.237 OA
ATOM     79  O   UNL A   1      37.831  30.994  34.271  1.00  0.00    -0.237 OA
ATOM     80  O   UNL A   1      37.443  28.757  33.343  1.00  0.00    -0.744 OA
ENDBRANCH  74  77
ENDBRANCH  56  70
BRANCH  57  81
ATOM     81  C   UNL A   1      49.788  26.066  27.953  1.00  0.00     0.023 A 
ATOM     82  C   UNL A   1      50.421  26.118  26.708  1.00  0.00     0.012 A 
ATOM     83  C   UNL A   1      50.667  26.112  29.096  1.00  0.00     0.148 A 
ATOM     84  C   UNL A   1      51.819  26.325  26.613  1.00  0.00     0.002 A 
ATOM     85  C   UNL A   1      52.009  26.460  29.002  1.00  0.00     0.091 A 
ATOM     86  F   UNL A   1      50.197  25.812  30.313  1.00  0.00    -0.205 F 
ATOM     87  C   UNL A   1      52.600  26.557  27.750  1.00  0.00     0.022 A 
BRANCH  85  88
ATOM     88  S   UNL A   1      52.964  26.987  30.448  1.00  0.00     0.127 S 
ATOM     89  O   UNL A   1      53.762  28.090  29.914  1.00  0.00    -0.237 OA
ATOM     90  O   UNL A   1      51.901  27.391  31.368  1.00  0.00    -0.237 OA
ATOM     91  O   UNL A   1      53.734  25.829  30.885  1.00  0.00    -0.744 OA
ENDBRANCH  85  88
ENDBRANCH  57  81
BRANCH  69  92
ATOM     92  C   UNL A   1      45.461  27.969  31.485  1.00  0.00     0.023 A 
ATOM     93  C   UNL A   1      44.726  26.796  31.201  1.00  0.00     0.012 A 
ATOM     94  C   UNL A   1      45.751  28.247  32.836  1.00  0.00     0.148 A 
ATOM     95  C   UNL A   1      44.249  25.960  32.213  1.00  0.00     0.002 A 
ATOM     96  C   UNL A   1      45.251  27.421  33.842  1.00  0.00     0.091 A 
ATOM     97  F   UNL A   1      46.491  29.319  33.130  1.00  0.00    -0.205 F 
ATOM     98  C   UNL A   1      44.497  26.281  33.536  1.00  0.00     0.022 A 
BRANCH  96  99
ATOM     99  S   UNL A   1      45.556  27.671  35.579  1.00  0.00     0.127 S 
ATOM    100  O   UNL A   1      44.682  26.687  36.216  1.00  0.00    -0.237 OA
ATOM    101  O   UNL A   1      46.978  27.342  35.633  1.00  0.00    -0.237 OA
ATOM    102  O   UNL A   1      45.244  29.067  35.842  1.00  0.00    -0.744 OA
ENDBRANCH  96  99
ENDBRANCH  69  92
ENDBRANCH  43  44
ENDBRANCH  35  38
ENDBRANCH  33  34
ENDBRANCH  32  33
ENDBRANCH   1  32
TORSDOF 19
ENDMDL
