MODEL 1
REMARK VINA RESULT:     -11.4      0.000      0.000
REMARK SMILES C[NH+]1CC[NH+](CC[C@H]2CCC[C@@]2([NH3+])C(=O)NCCCNC(=O)c2ccc(-c3c4nc(c(-c5cccc(S(=O)(=O)[O-])c5F)c5ccc([nH]5)c(-c5cccc(S(=O)(=O)[O-])c5F)c5nc(c(-c6cccc(S(=O)(=O)[O-])c6F)c6ccc3[nH]6)C=C5)C=C4)cc2)CC1
REMARK SMILES IDX 18 1 17 2 16 3 14 4 15 5 12 7 8 8 9 9 10 10 11 11 7 12 6 13
REMARK SMILES IDX 5 14 1 15 2 16 3 17 87 18 4 20 86 21 13 23 19 27 20 28 21 29
REMARK SMILES IDX 22 31 23 32 24 33 85 34 25 35 84 36 26 37 27 38 28 39 78 40
REMARK SMILES IDX 29 41 83 42 77 43 79 44 30 45 82 46 76 47 75 48 31 50 63 51
REMARK SMILES IDX 43 52 62 53 44 54 47 55 61 56 80 57 45 58 46 59 60 61 81 62
REMARK SMILES IDX 48 63 32 64 33 65 41 66 34 67 36 68 42 69 35 70 37 71 38 72
REMARK SMILES IDX 39 73 40 74 64 75 65 76 73 77 66 78 68 79 74 80 67 81 69 82
REMARK SMILES IDX 70 83 71 84 72 85 49 86 50 87 58 88 51 89 53 90 59 91 52 92
REMARK SMILES IDX 54 93 55 94 56 95 57 96
REMARK H PARENT 16 6 2 19 5 22 13 24 13 25 13 26 20 30 79 49 47 60
REMARK Flexibility Score: inf
ROOT
ATOM      1  C   UNL A   1      32.710  28.135  27.039  1.00  0.00     0.042 C 
ENDROOT
BRANCH   1   2
ATOM      2  C   UNL A   1      31.427  27.583  26.391  1.00  0.00     0.118 C 
BRANCH   2   3
ATOM      3  N   UNL A   1      31.058  26.229  26.783  1.00  0.00    -0.351 N 
ATOM      4  C   UNL A   1      31.164  25.000  26.213  1.00  0.00     0.281 C 
ATOM      5  O   UNL A   1      30.786  24.071  26.946  1.00  0.00    -0.268 OA
ATOM      6  H   UNL A   1      30.631  26.198  27.669  1.00  0.00     0.163 HD
BRANCH   4   7
ATOM      7  C   UNL A   1      31.674  24.697  24.754  1.00  0.00     0.177 C 
ATOM      8  C   UNL A   1      33.201  24.834  24.413  1.00  0.00     0.066 C 
ATOM      9  C   UNL A   1      33.509  23.603  23.516  1.00  0.00     0.011 C 
ATOM     10  C   UNL A   1      32.164  23.035  23.079  1.00  0.00     0.008 C 
ATOM     11  C   UNL A   1      31.265  23.299  24.275  1.00  0.00     0.079 C 
BRANCH   8  12
ATOM     12  C   UNL A   1      34.170  24.923  25.596  1.00  0.00     0.072 C 
BRANCH  12  13
ATOM     13  C   UNL A   1      35.461  24.094  25.555  1.00  0.00     0.263 C 
BRANCH  13  14
ATOM     14  N   UNL A   1      35.546  22.873  26.351  1.00  0.00    -0.326 N 
ATOM     15  C   UNL A   1      33.033  19.495  25.374  1.00  0.00     0.333 C 
ATOM     16  N   UNL A   1      34.020  20.327  26.062  1.00  0.00    -0.328 N 
ATOM     17  C   UNL A   1      33.394  21.560  26.566  1.00  0.00     0.324 C 
ATOM     18  C   UNL A   1      35.144  20.650  25.164  1.00  0.00     0.324 C 
ATOM     19  H   UNL A   1      34.384  19.801  26.857  1.00  0.00     0.348 HD
ATOM     20  C   UNL A   1      34.402  22.542  27.193  1.00  0.00     0.324 C 
ATOM     21  C   UNL A   1      36.147  21.678  25.747  1.00  0.00     0.324 C 
ATOM     22  H   UNL A   1      36.268  23.214  26.985  1.00  0.00     0.348 HD
ENDBRANCH  13  14
ENDBRANCH  12  13
ENDBRANCH   8  12
BRANCH   7  23
ATOM     23  N   UNL A   1      30.939  25.627  23.830  1.00  0.00    -0.345 N 
ATOM     24  H   UNL A   1      31.169  26.592  24.065  1.00  0.00     0.345 HD
ATOM     25  H   UNL A   1      29.934  25.483  23.930  1.00  0.00     0.345 HD
ATOM     26  H   UNL A   1      31.214  25.437  22.866  1.00  0.00     0.345 HD
ENDBRANCH   7  23
ENDBRANCH   4   7
ENDBRANCH   2   3
ENDBRANCH   1   2
BRANCH   1  27
ATOM     27  C   UNL A   1      33.658  28.913  26.134  1.00  0.00     0.118 C 
BRANCH  27  28
ATOM     28  N   UNL A   1      33.751  30.307  26.515  1.00  0.00    -0.352 N 
ATOM     29  C   UNL A   1      34.608  30.931  27.389  1.00  0.00     0.251 C 
ATOM     30  H   UNL A   1      33.096  30.900  26.080  1.00  0.00     0.163 HD
ATOM     31  O   UNL A   1      34.319  32.062  27.779  1.00  0.00    -0.269 OA
BRANCH  29  32
ATOM     32  C   UNL A   1      35.852  30.284  27.882  1.00  0.00     0.039 A 
ATOM     33  C   UNL A   1      35.835  29.708  29.157  1.00  0.00     0.014 A 
ATOM     34  C   UNL A   1      37.057  30.330  27.174  1.00  0.00     0.014 A 
ATOM     35  C   UNL A   1      37.005  29.169  29.707  1.00  0.00     0.010 A 
ATOM     36  C   UNL A   1      38.207  29.724  27.692  1.00  0.00     0.010 A 
ATOM     37  C   UNL A   1      38.204  29.158  28.976  1.00  0.00    -0.014 A 
BRANCH  37  38
ATOM     38  C   UNL A   1      39.445  28.574  29.563  1.00  0.00     0.031 A 
ATOM     39  C   UNL A   1      40.048  29.137  30.827  1.00  0.00     0.074 A 
ATOM     40  C   UNL A   1      40.057  27.545  28.942  1.00  0.00     0.049 A 
ATOM     41  N   UNL A   1      41.093  28.721  31.499  1.00  0.00    -0.248 NA
ATOM     42  C   UNL A   1      39.410  30.332  31.402  1.00  0.00     0.031 C 
ATOM     43  C   UNL A   1      39.631  26.956  27.672  1.00  0.00     0.029 A 
ATOM     44  N   UNL A   1      41.173  26.821  29.287  1.00  0.00    -0.354 N 
ATOM     45  C   UNL A   1      41.256  29.615  32.551  1.00  0.00     0.074 A 
ATOM     46  C   UNL A   1      40.223  30.618  32.410  1.00  0.00     0.031 C 
ATOM     47  C   UNL A   1      40.463  25.951  27.353  1.00  0.00     0.029 A 
ATOM     48  C   UNL A   1      41.493  25.836  28.382  1.00  0.00     0.049 A 
ATOM     49  H   UNL A   1      41.693  26.991  30.104  1.00  0.00     0.167 HD
ATOM     50  C   UNL A   1      42.158  29.591  33.563  1.00  0.00     0.034 A 
ATOM     51  C   UNL A   1      42.496  24.935  28.379  1.00  0.00     0.034 A 
ATOM     52  C   UNL A   1      43.160  28.572  33.731  1.00  0.00     0.049 A 
ATOM     53  C   UNL A   1      43.452  24.893  29.540  1.00  0.00     0.074 A 
ATOM     54  C   UNL A   1      44.060  28.411  34.770  1.00  0.00     0.029 A 
ATOM     55  N   UNL A   1      43.402  27.544  32.833  1.00  0.00    -0.354 N 
ATOM     56  N   UNL A   1      43.479  25.645  30.614  1.00  0.00    -0.248 NA
ATOM     57  C   UNL A   1      44.491  23.852  29.511  1.00  0.00     0.031 C 
ATOM     58  C   UNL A   1      44.861  27.299  34.489  1.00  0.00     0.029 A 
ATOM     59  C   UNL A   1      44.442  26.750  33.288  1.00  0.00     0.049 A 
ATOM     60  H   UNL A   1      42.907  27.398  31.994  1.00  0.00     0.167 HD
ATOM     61  C   UNL A   1      44.509  25.146  31.404  1.00  0.00     0.074 A 
ATOM     62  C   UNL A   1      45.069  24.014  30.694  1.00  0.00     0.031 C 
ATOM     63  C   UNL A   1      44.959  25.593  32.602  1.00  0.00     0.034 A 
BRANCH  50  64
ATOM     64  C   UNL A   1      42.069  30.675  34.610  1.00  0.00     0.023 A 
ATOM     65  C   UNL A   1      41.285  30.463  35.763  1.00  0.00     0.012 A 
ATOM     66  C   UNL A   1      42.803  31.872  34.487  1.00  0.00     0.148 A 
ATOM     67  C   UNL A   1      41.201  31.438  36.756  1.00  0.00     0.002 A 
ATOM     68  C   UNL A   1      42.751  32.820  35.503  1.00  0.00     0.091 A 
ATOM     69  F   UNL A   1      43.531  32.066  33.377  1.00  0.00    -0.205 F 
ATOM     70  C   UNL A   1      41.940  32.611  36.631  1.00  0.00     0.022 A 
BRANCH  68  71
ATOM     71  S   UNL A   1      43.730  34.327  35.474  1.00  0.00     0.127 S 
ATOM     72  O   UNL A   1      43.217  34.988  34.275  1.00  0.00    -0.237 OA
ATOM     73  O   UNL A   1      43.348  34.967  36.733  1.00  0.00    -0.237 OA
ATOM     74  O   UNL A   1      45.120  33.899  35.408  1.00  0.00    -0.744 OA
ENDBRANCH  68  71
ENDBRANCH  50  64
BRANCH  51  75
ATOM     75  C   UNL A   1      42.593  23.940  27.273  1.00  0.00     0.023 A 
ATOM     76  C   UNL A   1      43.374  24.240  26.139  1.00  0.00     0.012 A 
ATOM     77  C   UNL A   1      41.955  22.688  27.354  1.00  0.00     0.148 A 
ATOM     78  C   UNL A   1      43.494  23.322  25.095  1.00  0.00     0.002 A 
ATOM     79  C   UNL A   1      42.126  21.756  26.337  1.00  0.00     0.091 A 
ATOM     80  F   UNL A   1      41.206  22.427  28.436  1.00  0.00    -0.205 F 
ATOM     81  C   UNL A   1      42.880  22.077  25.199  1.00  0.00     0.022 A 
BRANCH  79  82
ATOM     82  S   UNL A   1      41.488  20.080  26.453  1.00  0.00     0.127 S 
ATOM     83  O   UNL A   1      42.209  19.411  25.370  1.00  0.00    -0.237 OA
ATOM     84  O   UNL A   1      41.908  19.692  27.802  1.00  0.00    -0.237 OA
ATOM     85  O   UNL A   1      40.050  20.192  26.283  1.00  0.00    -0.744 OA
ENDBRANCH  79  82
ENDBRANCH  51  75
BRANCH  63  86
ATOM     86  C   UNL A   1      46.093  24.842  33.252  1.00  0.00     0.023 A 
ATOM     87  C   UNL A   1      47.412  25.326  33.137  1.00  0.00     0.012 A 
ATOM     88  C   UNL A   1      45.843  23.696  34.031  1.00  0.00     0.148 A 
ATOM     89  C   UNL A   1      48.467  24.661  33.762  1.00  0.00     0.002 A 
ATOM     90  C   UNL A   1      46.893  23.067  34.690  1.00  0.00     0.091 A 
ATOM     91  F   UNL A   1      44.585  23.238  34.112  1.00  0.00    -0.205 F 
ATOM     92  C   UNL A   1      48.207  23.540  34.546  1.00  0.00     0.022 A 
BRANCH  90  93
ATOM     93  S   UNL A   1      46.636  21.675  35.798  1.00  0.00     0.127 S 
ATOM     94  O   UNL A   1      45.544  22.162  36.639  1.00  0.00    -0.237 OA
ATOM     95  O   UNL A   1      46.262  20.605  34.873  1.00  0.00    -0.237 OA
ATOM     96  O   UNL A   1      47.907  21.466  36.479  1.00  0.00    -0.744 OA
ENDBRANCH  90  93
ENDBRANCH  63  86
ENDBRANCH  37  38
ENDBRANCH  29  32
ENDBRANCH  27  28
ENDBRANCH   1  27
TORSDOF 17
ENDMDL
MODEL 2
REMARK VINA RESULT:     -11.3      1.925      2.523
REMARK SMILES C[NH+]1CC[NH+](CC[C@H]2CCC[C@@]2([NH3+])C(=O)NCCCNC(=O)c2ccc(-c3c4nc(c(-c5cccc(S(=O)(=O)[O-])c5F)c5ccc([nH]5)c(-c5cccc(S(=O)(=O)[O-])c5F)c5nc(c(-c6cccc(S(=O)(=O)[O-])c6F)c6ccc3[nH]6)C=C5)C=C4)cc2)CC1
REMARK SMILES IDX 18 1 17 2 16 3 14 4 15 5 12 7 8 8 9 9 10 10 11 11 7 12 6 13
REMARK SMILES IDX 5 14 1 15 2 16 3 17 87 18 4 20 86 21 13 23 19 27 20 28 21 29
REMARK SMILES IDX 22 31 23 32 24 33 85 34 25 35 84 36 26 37 27 38 28 39 78 40
REMARK SMILES IDX 29 41 83 42 77 43 79 44 30 45 82 46 76 47 75 48 31 50 63 51
REMARK SMILES IDX 43 52 62 53 44 54 47 55 61 56 80 57 45 58 46 59 60 61 81 62
REMARK SMILES IDX 48 63 32 64 33 65 41 66 34 67 36 68 42 69 35 70 37 71 38 72
REMARK SMILES IDX 39 73 40 74 64 75 65 76 73 77 66 78 68 79 74 80 67 81 69 82
REMARK SMILES IDX 70 83 71 84 72 85 49 86 50 87 58 88 51 89 53 90 59 91 52 92
REMARK SMILES IDX 54 93 55 94 56 95 57 96
REMARK H PARENT 16 6 2 19 5 22 13 24 13 25 13 26 20 30 79 49 47 60
REMARK Flexibility Score: inf
ROOT
ATOM      1  C   UNL A   1      32.264  28.069  25.904  1.00  0.00     0.042 C 
ENDROOT
BRANCH   1   2
ATOM      2  C   UNL A   1      31.194  27.378  25.039  1.00  0.00     0.118 C 
BRANCH   2   3
ATOM      3  N   UNL A   1      30.837  26.024  25.441  1.00  0.00    -0.351 N 
ATOM      4  C   UNL A   1      31.165  24.776  25.015  1.00  0.00     0.281 C 
ATOM      5  O   UNL A   1      30.688  23.865  25.711  1.00  0.00    -0.268 OA
ATOM      6  H   UNL A   1      30.212  26.011  26.201  1.00  0.00     0.163 HD
BRANCH   4   7
ATOM      7  C   UNL A   1      32.033  24.430  23.748  1.00  0.00     0.177 C 
ATOM      8  C   UNL A   1      33.588  24.651  23.778  1.00  0.00     0.066 C 
ATOM      9  C   UNL A   1      34.171  23.397  23.069  1.00  0.00     0.011 C 
ATOM     10  C   UNL A   1      33.006  22.716  22.361  1.00  0.00     0.008 C 
ATOM     11  C   UNL A   1      31.828  22.983  23.282  1.00  0.00     0.079 C 
BRANCH   8  12
ATOM     12  C   UNL A   1      34.230  24.869  25.151  1.00  0.00     0.072 C 
BRANCH  12  13
ATOM     13  C   UNL A   1      35.576  24.194  25.451  1.00  0.00     0.263 C 
BRANCH  13  14
ATOM     14  N   UNL A   1      35.598  22.998  26.289  1.00  0.00    -0.326 N 
ATOM     15  C   UNL A   1      33.535  19.430  24.990  1.00  0.00     0.333 C 
ATOM     16  N   UNL A   1      34.324  20.344  25.815  1.00  0.00    -0.328 N 
ATOM     17  C   UNL A   1      33.536  21.538  26.160  1.00  0.00     0.324 C 
ATOM     18  C   UNL A   1      35.566  20.730  25.122  1.00  0.00     0.324 C 
ATOM     19  H   UNL A   1      34.574  19.861  26.679  1.00  0.00     0.348 HD
ATOM     20  C   UNL A   1      34.347  22.602  26.924  1.00  0.00     0.324 C 
ATOM     21  C   UNL A   1      36.377  21.838  25.840  1.00  0.00     0.324 C 
ATOM     22  H   UNL A   1      36.169  23.403  27.030  1.00  0.00     0.348 HD
ENDBRANCH  13  14
ENDBRANCH  12  13
ENDBRANCH   8  12
BRANCH   7  23
ATOM     23  N   UNL A   1      31.500  25.256  22.610  1.00  0.00    -0.345 N 
ATOM     24  H   UNL A   1      31.835  26.215  22.701  1.00  0.00     0.345 HD
ATOM     25  H   UNL A   1      30.481  25.248  22.633  1.00  0.00     0.345 HD
ATOM     26  H   UNL A   1      31.823  24.866  21.726  1.00  0.00     0.345 HD
ENDBRANCH   7  23
ENDBRANCH   4   7
ENDBRANCH   2   3
ENDBRANCH   1   2
BRANCH   1  27
ATOM     27  C   UNL A   1      33.030  29.219  25.263  1.00  0.00     0.118 C 
BRANCH  27  28
ATOM     28  N   UNL A   1      32.618  30.505  25.788  1.00  0.00    -0.352 N 
ATOM     29  C   UNL A   1      33.091  31.215  26.864  1.00  0.00     0.251 C 
ATOM     30  H   UNL A   1      31.882  30.937  25.296  1.00  0.00     0.163 HD
ATOM     31  O   UNL A   1      32.403  32.138  27.301  1.00  0.00    -0.269 OA
BRANCH  29  32
ATOM     32  C   UNL A   1      34.387  30.897  27.519  1.00  0.00     0.039 A 
ATOM     33  C   UNL A   1      34.563  29.612  28.046  1.00  0.00     0.014 A 
ATOM     34  C   UNL A   1      35.381  31.857  27.728  1.00  0.00     0.014 A 
ATOM     35  C   UNL A   1      35.727  29.290  28.754  1.00  0.00     0.010 A 
ATOM     36  C   UNL A   1      36.577  31.513  28.369  1.00  0.00     0.010 A 
ATOM     37  C   UNL A   1      36.755  30.233  28.915  1.00  0.00    -0.014 A 
BRANCH  37  38
ATOM     38  C   UNL A   1      37.997  29.881  29.663  1.00  0.00     0.031 A 
ATOM     39  C   UNL A   1      38.250  30.419  31.051  1.00  0.00     0.074 A 
ATOM     40  C   UNL A   1      38.925  29.092  29.083  1.00  0.00     0.049 A 
ATOM     41  N   UNL A   1      39.251  30.177  31.860  1.00  0.00    -0.248 NA
ATOM     42  C   UNL A   1      37.264  31.368  31.593  1.00  0.00     0.031 C 
ATOM     43  C   UNL A   1      38.850  28.569  27.719  1.00  0.00     0.029 A 
ATOM     44  N   UNL A   1      40.117  28.604  29.561  1.00  0.00    -0.354 N 
ATOM     45  C   UNL A   1      39.033  30.960  32.988  1.00  0.00     0.074 A 
ATOM     46  C   UNL A   1      37.823  31.715  32.744  1.00  0.00     0.031 C 
ATOM     47  C   UNL A   1      39.937  27.819  27.475  1.00  0.00     0.029 A 
ATOM     48  C   UNL A   1      40.798  27.824  28.655  1.00  0.00     0.049 A 
ATOM     49  H   UNL A   1      40.452  28.793  30.466  1.00  0.00     0.167 HD
ATOM     50  C   UNL A   1      39.752  31.027  34.136  1.00  0.00     0.034 A 
ATOM     51  C   UNL A   1      41.977  27.179  28.759  1.00  0.00     0.034 A 
ATOM     52  C   UNL A   1      40.932  30.247  34.398  1.00  0.00     0.049 A 
ATOM     53  C   UNL A   1      42.728  27.223  30.061  1.00  0.00     0.074 A 
ATOM     54  C   UNL A   1      41.677  30.176  35.562  1.00  0.00     0.029 A 
ATOM     55  N   UNL A   1      41.547  29.407  33.482  1.00  0.00    -0.354 N 
ATOM     56  N   UNL A   1      42.412  27.835  31.176  1.00  0.00    -0.248 NA
ATOM     57  C   UNL A   1      43.979  26.452  30.135  1.00  0.00     0.031 C 
ATOM     58  C   UNL A   1      42.756  29.312  35.343  1.00  0.00     0.029 A 
ATOM     59  C   UNL A   1      42.667  28.821  34.051  1.00  0.00     0.049 A 
ATOM     60  H   UNL A   1      41.234  29.249  32.562  1.00  0.00     0.167 HD
ATOM     61  C   UNL A   1      43.400  27.496  32.093  1.00  0.00     0.074 A 
ATOM     62  C   UNL A   1      44.316  26.606  31.409  1.00  0.00     0.031 C 
ATOM     63  C   UNL A   1      43.544  27.895  33.381  1.00  0.00     0.034 A 
BRANCH  50  64
ATOM     64  C   UNL A   1      39.248  31.938  35.228  1.00  0.00     0.023 A 
ATOM     65  C   UNL A   1      38.275  31.465  36.132  1.00  0.00     0.012 A 
ATOM     66  C   UNL A   1      39.777  33.233  35.401  1.00  0.00     0.148 A 
ATOM     67  C   UNL A   1      37.806  32.278  37.164  1.00  0.00     0.002 A 
ATOM     68  C   UNL A   1      39.338  34.021  36.460  1.00  0.00     0.091 A 
ATOM     69  F   UNL A   1      40.690  33.675  34.523  1.00  0.00    -0.205 F 
ATOM     70  C   UNL A   1      38.344  33.551  37.334  1.00  0.00     0.022 A 
BRANCH  68  71
ATOM     71  S   UNL A   1      40.028  35.643  36.811  1.00  0.00     0.127 S 
ATOM     72  O   UNL A   1      39.620  36.399  35.628  1.00  0.00    -0.237 OA
ATOM     73  O   UNL A   1      39.328  36.015  38.042  1.00  0.00    -0.237 OA
ATOM     74  O   UNL A   1      41.462  35.443  36.966  1.00  0.00    -0.744 OA
ENDBRANCH  68  71
ENDBRANCH  50  64
BRANCH  51  75
ATOM     75  C   UNL A   1      42.475  26.361  27.615  1.00  0.00     0.023 A 
ATOM     76  C   UNL A   1      43.403  26.923  26.716  1.00  0.00     0.012 A 
ATOM     77  C   UNL A   1      42.072  25.024  27.438  1.00  0.00     0.148 A 
ATOM     78  C   UNL A   1      43.897  26.178  25.645  1.00  0.00     0.002 A 
ATOM     79  C   UNL A   1      42.612  24.269  26.403  1.00  0.00     0.091 A 
ATOM     80  F   UNL A   1      41.179  24.512  28.298  1.00  0.00    -0.205 F 
ATOM     81  C   UNL A   1      43.511  24.849  25.496  1.00  0.00     0.022 A 
BRANCH  79  82
ATOM     82  S   UNL A   1      42.280  22.513  26.221  1.00  0.00     0.127 S 
ATOM     83  O   UNL A   1      42.780  21.981  27.489  1.00  0.00    -0.237 OA
ATOM     84  O   UNL A   1      40.822  22.496  26.081  1.00  0.00    -0.237 OA
ATOM     85  O   UNL A   1      43.000  22.096  25.031  1.00  0.00    -0.744 OA
ENDBRANCH  79  82
ENDBRANCH  51  75
BRANCH  63  86
ATOM     86  C   UNL A   1      44.713  27.351  34.159  1.00  0.00     0.023 A 
ATOM     87  C   UNL A   1      45.933  28.057  34.180  1.00  0.00     0.012 A 
ATOM     88  C   UNL A   1      44.584  26.175  34.924  1.00  0.00     0.148 A 
ATOM     89  C   UNL A   1      47.014  27.584  34.924  1.00  0.00     0.002 A 
ATOM     90  C   UNL A   1      45.649  25.736  35.701  1.00  0.00     0.091 A 
ATOM     91  F   UNL A   1      43.423  25.504  34.876  1.00  0.00    -0.205 F 
ATOM     92  C   UNL A   1      46.869  26.432  35.692  1.00  0.00     0.022 A 
BRANCH  90  93
ATOM     93  S   UNL A   1      45.520  24.316  36.795  1.00  0.00     0.127 S 
ATOM     94  O   UNL A   1      44.557  24.791  37.787  1.00  0.00    -0.237 OA
ATOM     95  O   UNL A   1      45.010  23.277  35.900  1.00  0.00    -0.237 OA
ATOM     96  O   UNL A   1      46.866  24.072  37.295  1.00  0.00    -0.744 OA
ENDBRANCH  90  93
ENDBRANCH  63  86
ENDBRANCH  37  38
ENDBRANCH  29  32
ENDBRANCH  27  28
ENDBRANCH   1  27
TORSDOF 17
ENDMDL
MODEL 3
REMARK VINA RESULT:     -11.3      2.493      3.075
REMARK SMILES C[NH+]1CC[NH+](CC[C@H]2CCC[C@@]2([NH3+])C(=O)NCCCNC(=O)c2ccc(-c3c4nc(c(-c5cccc(S(=O)(=O)[O-])c5F)c5ccc([nH]5)c(-c5cccc(S(=O)(=O)[O-])c5F)c5nc(c(-c6cccc(S(=O)(=O)[O-])c6F)c6ccc3[nH]6)C=C5)C=C4)cc2)CC1
REMARK SMILES IDX 18 1 17 2 16 3 14 4 15 5 12 7 8 8 9 9 10 10 11 11 7 12 6 13
REMARK SMILES IDX 5 14 1 15 2 16 3 17 87 18 4 20 86 21 13 23 19 27 20 28 21 29
REMARK SMILES IDX 22 31 23 32 24 33 85 34 25 35 84 36 26 37 27 38 28 39 78 40
REMARK SMILES IDX 29 41 83 42 77 43 79 44 30 45 82 46 76 47 75 48 31 50 63 51
REMARK SMILES IDX 43 52 62 53 44 54 47 55 61 56 80 57 45 58 46 59 60 61 81 62
REMARK SMILES IDX 48 63 32 64 33 65 41 66 34 67 36 68 42 69 35 70 37 71 38 72
REMARK SMILES IDX 39 73 40 74 64 75 65 76 73 77 66 78 68 79 74 80 67 81 69 82
REMARK SMILES IDX 70 83 71 84 72 85 49 86 50 87 58 88 51 89 53 90 59 91 52 92
REMARK SMILES IDX 54 93 55 94 56 95 57 96
REMARK H PARENT 16 6 2 19 5 22 13 24 13 25 13 26 20 30 79 49 47 60
REMARK Flexibility Score: inf
ROOT
ATOM      1  C   UNL A   1      32.659  28.003  25.774  1.00  0.00     0.042 C 
ENDROOT
BRANCH   1   2
ATOM      2  C   UNL A   1      31.289  27.473  25.314  1.00  0.00     0.118 C 
BRANCH   2   3
ATOM      3  N   UNL A   1      30.982  26.102  25.702  1.00  0.00    -0.351 N 
ATOM      4  C   UNL A   1      31.323  24.872  25.238  1.00  0.00     0.281 C 
ATOM      5  O   UNL A   1      30.897  23.935  25.934  1.00  0.00    -0.268 OA
ATOM      6  H   UNL A   1      30.387  26.058  26.485  1.00  0.00     0.163 HD
BRANCH   4   7
ATOM      7  C   UNL A   1      32.150  24.572  23.932  1.00  0.00     0.177 C 
ATOM      8  C   UNL A   1      33.713  24.721  23.942  1.00  0.00     0.066 C 
ATOM      9  C   UNL A   1      34.224  23.492  23.139  1.00  0.00     0.011 C 
ATOM     10  C   UNL A   1      33.016  22.912  22.414  1.00  0.00     0.008 C 
ATOM     11  C   UNL A   1      31.870  23.170  23.378  1.00  0.00     0.079 C 
BRANCH   8  12
ATOM     12  C   UNL A   1      34.392  24.819  25.311  1.00  0.00     0.072 C 
BRANCH  12  13
ATOM     13  C   UNL A   1      35.698  24.046  25.543  1.00  0.00     0.263 C 
BRANCH  13  14
ATOM     14  N   UNL A   1      35.660  22.805  26.314  1.00  0.00    -0.326 N 
ATOM     15  C   UNL A   1      33.178  19.528  24.982  1.00  0.00     0.333 C 
ATOM     16  N   UNL A   1      34.106  20.314  25.795  1.00  0.00    -0.328 N 
ATOM     17  C   UNL A   1      33.463  21.554  26.258  1.00  0.00     0.324 C 
ATOM     18  C   UNL A   1      35.330  20.623  25.034  1.00  0.00     0.324 C 
ATOM     19  H   UNL A   1      34.365  19.760  26.612  1.00  0.00     0.348 HD
ATOM     20  C   UNL A   1      34.422  22.491  27.016  1.00  0.00     0.324 C 
ATOM     21  C   UNL A   1      36.291  21.606  25.749  1.00  0.00     0.324 C 
ATOM     22  H   UNL A   1      36.317  23.111  27.031  1.00  0.00     0.348 HD
ENDBRANCH  13  14
ENDBRANCH  12  13
ENDBRANCH   8  12
BRANCH   7  23
ATOM     23  N   UNL A   1      31.633  25.495  22.864  1.00  0.00    -0.345 N 
ATOM     24  H   UNL A   1      31.606  25.001  21.972  1.00  0.00     0.345 HD
ATOM     25  H   UNL A   1      32.249  26.304  22.786  1.00  0.00     0.345 HD
ATOM     26  H   UNL A   1      30.693  25.805  23.108  1.00  0.00     0.345 HD
ENDBRANCH   7  23
ENDBRANCH   4   7
ENDBRANCH   2   3
ENDBRANCH   1   2
BRANCH   1  27
ATOM     27  C   UNL A   1      33.200  29.230  25.051  1.00  0.00     0.118 C 
BRANCH  27  28
ATOM     28  N   UNL A   1      32.730  30.463  25.649  1.00  0.00    -0.352 N 
ATOM     29  C   UNL A   1      33.147  31.111  26.786  1.00  0.00     0.251 C 
ATOM     30  H   UNL A   1      31.996  30.906  25.163  1.00  0.00     0.163 HD
ATOM     31  O   UNL A   1      32.416  31.980  27.262  1.00  0.00    -0.269 OA
BRANCH  29  32
ATOM     32  C   UNL A   1      34.432  30.788  27.460  1.00  0.00     0.039 A 
ATOM     33  C   UNL A   1      34.568  29.528  28.053  1.00  0.00     0.014 A 
ATOM     34  C   UNL A   1      35.455  31.727  27.621  1.00  0.00     0.014 A 
ATOM     35  C   UNL A   1      35.720  29.207  28.780  1.00  0.00     0.010 A 
ATOM     36  C   UNL A   1      36.638  31.380  28.283  1.00  0.00     0.010 A 
ATOM     37  C   UNL A   1      36.777  30.125  28.894  1.00  0.00    -0.014 A 
BRANCH  37  38
ATOM     38  C   UNL A   1      38.007  29.775  29.663  1.00  0.00     0.031 A 
ATOM     39  C   UNL A   1      38.246  30.331  31.046  1.00  0.00     0.074 A 
ATOM     40  C   UNL A   1      38.936  28.971  29.106  1.00  0.00     0.049 A 
ATOM     41  N   UNL A   1      39.235  30.093  31.871  1.00  0.00    -0.248 NA
ATOM     42  C   UNL A   1      37.261  31.294  31.563  1.00  0.00     0.031 C 
ATOM     43  C   UNL A   1      38.874  28.429  27.748  1.00  0.00     0.029 A 
ATOM     44  N   UNL A   1      40.118  28.481  29.606  1.00  0.00    -0.354 N 
ATOM     45  C   UNL A   1      39.009  30.894  32.985  1.00  0.00     0.074 A 
ATOM     46  C   UNL A   1      37.808  31.653  32.715  1.00  0.00     0.031 C 
ATOM     47  C   UNL A   1      39.959  27.668  27.529  1.00  0.00     0.029 A 
ATOM     48  C   UNL A   1      40.804  27.684  28.719  1.00  0.00     0.049 A 
ATOM     49  H   UNL A   1      40.443  28.681  30.512  1.00  0.00     0.167 HD
ATOM     50  C   UNL A   1      39.714  30.971  34.141  1.00  0.00     0.034 A 
ATOM     51  C   UNL A   1      41.977  27.031  28.847  1.00  0.00     0.034 A 
ATOM     52  C   UNL A   1      40.885  30.186  34.429  1.00  0.00     0.049 A 
ATOM     53  C   UNL A   1      42.713  27.088  30.158  1.00  0.00     0.074 A 
ATOM     54  C   UNL A   1      41.615  30.127  35.604  1.00  0.00     0.029 A 
ATOM     55  N   UNL A   1      41.505  29.329  33.533  1.00  0.00    -0.354 N 
ATOM     56  N   UNL A   1      42.387  27.719  31.260  1.00  0.00    -0.248 NA
ATOM     57  C   UNL A   1      43.956  26.309  30.259  1.00  0.00     0.031 C 
ATOM     58  C   UNL A   1      42.689  29.252  35.410  1.00  0.00     0.029 A 
ATOM     59  C   UNL A   1      42.613  28.743  34.124  1.00  0.00     0.049 A 
ATOM     60  H   UNL A   1      41.202  29.160  32.611  1.00  0.00     0.167 HD
ATOM     61  C   UNL A   1      43.361  27.385  32.195  1.00  0.00     0.074 A 
ATOM     62  C   UNL A   1      44.279  26.479  31.534  1.00  0.00     0.031 C 
ATOM     63  C   UNL A   1      43.492  27.802  33.478  1.00  0.00     0.034 A 
BRANCH  50  64
ATOM     64  C   UNL A   1      39.204  31.901  35.214  1.00  0.00     0.023 A 
ATOM     65  C   UNL A   1      39.359  33.294  35.058  1.00  0.00     0.012 A 
ATOM     66  C   UNL A   1      38.519  31.407  36.343  1.00  0.00     0.148 A 
ATOM     67  C   UNL A   1      38.879  34.177  36.024  1.00  0.00     0.002 A 
ATOM     68  C   UNL A   1      38.002  32.297  37.280  1.00  0.00     0.091 A 
ATOM     69  F   UNL A   1      38.393  30.079  36.486  1.00  0.00    -0.205 F 
ATOM     70  C   UNL A   1      38.193  33.680  37.129  1.00  0.00     0.022 A 
BRANCH  68  71
ATOM     71  S   UNL A   1      37.033  31.760  38.695  1.00  0.00     0.127 S 
ATOM     72  O   UNL A   1      37.976  31.964  39.793  1.00  0.00    -0.237 OA
ATOM     73  O   UNL A   1      35.910  32.698  38.673  1.00  0.00    -0.237 OA
ATOM     74  O   UNL A   1      36.670  30.375  38.428  1.00  0.00    -0.744 OA
ENDBRANCH  68  71
ENDBRANCH  50  64
BRANCH  51  75
ATOM     75  C   UNL A   1      42.484  26.194  27.722  1.00  0.00     0.023 A 
ATOM     76  C   UNL A   1      43.439  26.731  26.836  1.00  0.00     0.012 A 
ATOM     77  C   UNL A   1      42.060  24.863  27.549  1.00  0.00     0.148 A 
ATOM     78  C   UNL A   1      43.942  25.966  25.783  1.00  0.00     0.002 A 
ATOM     79  C   UNL A   1      42.608  24.088  26.532  1.00  0.00     0.091 A 
ATOM     80  F   UNL A   1      41.142  24.375  28.395  1.00  0.00    -0.205 F 
ATOM     81  C   UNL A   1      43.535  24.643  25.638  1.00  0.00     0.022 A 
BRANCH  79  82
ATOM     82  S   UNL A   1      42.248  22.336  26.360  1.00  0.00     0.127 S 
ATOM     83  O   UNL A   1      40.811  22.353  26.085  1.00  0.00    -0.237 OA
ATOM     84  O   UNL A   1      43.088  21.968  25.219  1.00  0.00    -0.237 OA
ATOM     85  O   UNL A   1      42.644  21.727  27.618  1.00  0.00    -0.744 OA
ENDBRANCH  79  82
ENDBRANCH  51  75
BRANCH  63  86
ATOM     86  C   UNL A   1      44.647  27.260  34.279  1.00  0.00     0.023 A 
ATOM     87  C   UNL A   1      45.865  27.968  34.322  1.00  0.00     0.012 A 
ATOM     88  C   UNL A   1      44.505  26.084  35.042  1.00  0.00     0.148 A 
ATOM     89  C   UNL A   1      46.933  27.497  35.086  1.00  0.00     0.002 A 
ATOM     90  C   UNL A   1      45.557  25.648  35.839  1.00  0.00     0.091 A 
ATOM     91  F   UNL A   1      43.346  25.412  34.973  1.00  0.00    -0.205 F 
ATOM     92  C   UNL A   1      46.775  26.345  35.853  1.00  0.00     0.022 A 
BRANCH  90  93
ATOM     93  S   UNL A   1      45.409  24.228  36.932  1.00  0.00     0.127 S 
ATOM     94  O   UNL A   1      46.771  24.110  37.452  1.00  0.00    -0.237 OA
ATOM     95  O   UNL A   1      44.422  24.688  37.910  1.00  0.00    -0.237 OA
ATOM     96  O   UNL A   1      44.960  23.124  36.096  1.00  0.00    -0.744 OA
ENDBRANCH  90  93
ENDBRANCH  63  86
ENDBRANCH  37  38
ENDBRANCH  29  32
ENDBRANCH  27  28
ENDBRANCH   1  27
TORSDOF 17
ENDMDL
