MODEL 1
REMARK VINA RESULT:     -12.3      0.000      0.000
REMARK SMILES O=C(NCCCNC(=O)c1cc(=O)[nH]c2c(Br)cccc12)c1ccc(-c2c3nc(c(-c4cccc(S(=O)(=O)[O-])c4F)c4ccc([nH]4)c(-c4cccc(S(=O)(=O)[O-])c4F)c4nc(c(-c5cccc(S(=O)(=O)[O-])c5F)c5ccc2[nH]5)C=C4)C=C3)cc1
REMARK SMILES IDX 1 1 2 2 3 3 22 5 23 6 84 7 24 8 83 9 25 10 26 11 27 12 77 13
REMARK SMILES IDX 28 14 82 15 76 16 78 17 29 18 81 19 75 20 74 21 30 23 62 24
REMARK SMILES IDX 42 25 61 26 43 27 46 28 60 29 79 30 44 31 45 32 59 34 80 35
REMARK SMILES IDX 47 36 31 37 32 38 40 39 33 40 35 41 41 42 34 43 36 44 37 45
REMARK SMILES IDX 38 46 39 47 63 48 64 49 72 50 65 51 67 52 73 53 66 54 68 55
REMARK SMILES IDX 69 56 70 57 71 58 48 59 49 60 57 61 50 62 52 63 58 64 51 65
REMARK SMILES IDX 53 66 54 67 55 68 56 69 4 70 5 71 6 72 7 73 8 74 9 76 10 77
REMARK SMILES IDX 11 78 21 79 12 80 15 81 20 82 13 83 14 84 16 85 19 86 17 88
REMARK SMILES IDX 18 89
REMARK H PARENT 3 4 78 22 46 33 7 75 14 87
REMARK Flexibility Score: inf
ROOT
ATOM      1  O   UNL A   1      32.662  35.461  28.753  1.00  0.00    -0.269 OA
ATOM      2  C   UNL A   1      33.140  34.352  28.524  1.00  0.00     0.251 C 
ATOM      3  N   UNL A   1      32.595  33.586  27.524  1.00  0.00    -0.352 N 
ATOM      4  H   UNL A   1      31.949  34.058  26.949  1.00  0.00     0.163 HD
ENDROOT
BRANCH   2   5
ATOM      5  C   UNL A   1      34.287  33.862  29.323  1.00  0.00     0.039 A 
ATOM      6  C   UNL A   1      35.576  34.276  28.975  1.00  0.00     0.014 A 
ATOM      7  C   UNL A   1      34.111  32.949  30.365  1.00  0.00     0.014 A 
ATOM      8  C   UNL A   1      36.678  33.792  29.684  1.00  0.00     0.010 A 
ATOM      9  C   UNL A   1      35.197  32.549  31.136  1.00  0.00     0.010 A 
ATOM     10  C   UNL A   1      36.497  32.930  30.777  1.00  0.00    -0.014 A 
BRANCH  10  11
ATOM     11  C   UNL A   1      37.651  32.341  31.501  1.00  0.00     0.031 A 
ATOM     12  C   UNL A   1      38.423  31.208  30.873  1.00  0.00     0.074 A 
ATOM     13  C   UNL A   1      37.986  32.785  32.728  1.00  0.00     0.049 A 
ATOM     14  N   UNL A   1      39.411  30.510  31.369  1.00  0.00    -0.248 NA
ATOM     15  C   UNL A   1      38.016  30.783  29.520  1.00  0.00     0.031 C 
ATOM     16  C   UNL A   1      37.293  33.844  33.464  1.00  0.00     0.029 A 
ATOM     17  N   UNL A   1      38.986  32.387  33.580  1.00  0.00    -0.354 N 
ATOM     18  C   UNL A   1      39.713  29.547  30.414  1.00  0.00     0.074 A 
ATOM     19  C   UNL A   1      38.786  29.724  29.320  1.00  0.00     0.031 C 
ATOM     20  C   UNL A   1      37.902  34.026  34.647  1.00  0.00     0.029 A 
ATOM     21  C   UNL A   1      39.004  33.076  34.769  1.00  0.00     0.049 A 
ATOM     22  H   UNL A   1      39.631  31.676  33.359  1.00  0.00     0.167 HD
ATOM     23  C   UNL A   1      40.699  28.623  30.426  1.00  0.00     0.034 A 
ATOM     24  C   UNL A   1      39.813  32.953  35.841  1.00  0.00     0.034 A 
ATOM     25  C   UNL A   1      41.669  28.493  31.474  1.00  0.00     0.049 A 
ATOM     26  C   UNL A   1      40.919  31.936  35.819  1.00  0.00     0.074 A 
ATOM     27  C   UNL A   1      42.752  27.636  31.535  1.00  0.00     0.029 A 
ATOM     28  N   UNL A   1      41.679  29.244  32.637  1.00  0.00    -0.354 N 
ATOM     29  N   UNL A   1      41.245  31.099  34.865  1.00  0.00    -0.248 NA
ATOM     30  C   UNL A   1      41.784  31.860  37.006  1.00  0.00     0.031 C 
ATOM     31  C   UNL A   1      43.412  27.858  32.746  1.00  0.00     0.029 A 
ATOM     32  C   UNL A   1      42.750  28.867  33.427  1.00  0.00     0.049 A 
ATOM     33  H   UNL A   1      41.023  29.941  32.868  1.00  0.00     0.167 HD
ATOM     34  C   UNL A   1      42.365  30.415  35.323  1.00  0.00     0.074 A 
ATOM     35  C   UNL A   1      42.669  30.940  36.638  1.00  0.00     0.031 C 
ATOM     36  C   UNL A   1      43.069  29.433  34.711  1.00  0.00     0.034 A 
BRANCH  23  37
ATOM     37  C   UNL A   1      40.831  27.713  29.236  1.00  0.00     0.023 A 
ATOM     38  C   UNL A   1      40.026  26.559  29.159  1.00  0.00     0.012 A 
ATOM     39  C   UNL A   1      41.668  28.053  28.156  1.00  0.00     0.148 A 
ATOM     40  C   UNL A   1      40.057  25.752  28.024  1.00  0.00     0.002 A 
ATOM     41  C   UNL A   1      41.669  27.260  27.016  1.00  0.00     0.091 A 
ATOM     42  F   UNL A   1      42.433  29.148  28.263  1.00  0.00    -0.205 F 
ATOM     43  C   UNL A   1      40.868  26.108  26.950  1.00  0.00     0.022 A 
BRANCH  41  44
ATOM     44  S   UNL A   1      42.636  27.657  25.556  1.00  0.00     0.127 S 
ATOM     45  O   UNL A   1      43.982  27.769  26.116  1.00  0.00    -0.237 OA
ATOM     46  O   UNL A   1      42.419  26.479  24.717  1.00  0.00    -0.237 OA
ATOM     47  O   UNL A   1      42.084  28.897  25.028  1.00  0.00    -0.744 OA
ENDBRANCH  41  44
ENDBRANCH  23  37
BRANCH  24  48
ATOM     48  C   UNL A   1      39.636  33.876  36.994  1.00  0.00     0.023 A 
ATOM     49  C   UNL A   1      40.002  35.228  36.856  1.00  0.00     0.012 A 
ATOM     50  C   UNL A   1      39.042  33.439  38.194  1.00  0.00     0.148 A 
ATOM     51  C   UNL A   1      39.784  36.131  37.896  1.00  0.00     0.002 A 
ATOM     52  C   UNL A   1      38.794  34.351  39.213  1.00  0.00     0.091 A 
ATOM     53  F   UNL A   1      38.704  32.146  38.298  1.00  0.00    -0.205 F 
ATOM     54  C   UNL A   1      39.172  35.696  39.069  1.00  0.00     0.022 A 
BRANCH  52  55
ATOM     55  S   UNL A   1      37.927  33.909  40.722  1.00  0.00     0.127 S 
ATOM     56  O   UNL A   1      36.741  33.234  40.198  1.00  0.00    -0.237 OA
ATOM     57  O   UNL A   1      38.898  33.029  41.374  1.00  0.00    -0.237 OA
ATOM     58  O   UNL A   1      37.676  35.161  41.420  1.00  0.00    -0.744 OA
ENDBRANCH  52  55
ENDBRANCH  24  48
BRANCH  36  59
ATOM     59  C   UNL A   1      44.259  28.856  35.423  1.00  0.00     0.023 A 
ATOM     60  C   UNL A   1      45.524  29.449  35.249  1.00  0.00     0.012 A 
ATOM     61  C   UNL A   1      44.092  27.833  36.378  1.00  0.00     0.148 A 
ATOM     62  C   UNL A   1      46.609  29.030  36.016  1.00  0.00     0.002 A 
ATOM     63  C   UNL A   1      45.170  27.445  37.162  1.00  0.00     0.091 A 
ATOM     64  F   UNL A   1      42.875  27.287  36.520  1.00  0.00    -0.205 F 
ATOM     65  C   UNL A   1      46.430  28.040  36.981  1.00  0.00     0.022 A 
BRANCH  63  66
ATOM     66  S   UNL A   1      45.023  26.234  38.480  1.00  0.00     0.127 S 
ATOM     67  O   UNL A   1      44.666  25.027  37.736  1.00  0.00    -0.237 OA
ATOM     68  O   UNL A   1      46.372  26.227  39.046  1.00  0.00    -0.237 OA
ATOM     69  O   UNL A   1      43.988  26.733  39.377  1.00  0.00    -0.744 OA
ENDBRANCH  63  66
ENDBRANCH  36  59
ENDBRANCH  10  11
ENDBRANCH   2   5
BRANCH   3  70
ATOM     70  C   UNL A   1      32.815  32.190  27.175  1.00  0.00     0.118 C 
BRANCH  70  71
ATOM     71  C   UNL A   1      31.604  31.550  26.512  1.00  0.00     0.042 C 
BRANCH  71  72
ATOM     72  C   UNL A   1      31.805  30.099  26.102  1.00  0.00     0.118 C 
BRANCH  72  73
ATOM     73  N   UNL A   1      32.284  29.962  24.733  1.00  0.00    -0.352 N 
ATOM     74  C   UNL A   1      32.194  28.916  23.864  1.00  0.00     0.252 C 
ATOM     75  H   UNL A   1      32.750  30.754  24.379  1.00  0.00     0.163 HD
ATOM     76  O   UNL A   1      32.750  28.989  22.771  1.00  0.00    -0.269 OA
BRANCH  74  77
ATOM     77  C   UNL A   1      31.434  27.701  24.256  1.00  0.00     0.054 A 
ATOM     78  C   UNL A   1      30.153  27.641  23.855  1.00  0.00     0.086 A 
ATOM     79  C   UNL A   1      32.055  26.535  24.912  1.00  0.00     0.012 A 
ATOM     80  C   UNL A   1      29.299  26.487  24.181  1.00  0.00     0.249 A 
ATOM     81  C   UNL A   1      31.260  25.402  25.159  1.00  0.00     0.063 A 
ATOM     82  C   UNL A   1      33.405  26.504  25.293  1.00  0.00     0.011 A 
ATOM     83  O   UNL A   1      28.106  26.493  23.896  1.00  0.00    -0.270 OA
ATOM     84  N   UNL A   1      29.901  25.435  24.802  1.00  0.00    -0.321 N 
ATOM     85  C   UNL A   1      31.814  24.260  25.751  1.00  0.00     0.042 A 
ATOM     86  C   UNL A   1      33.954  25.363  25.885  1.00  0.00     0.002 A 
ATOM     87  H   UNL A   1      29.350  24.647  25.013  1.00  0.00     0.170 HD
ATOM     88  Br  UNL A   1      30.774  22.701  26.064  1.00  0.00    -0.049 Br
ATOM     89  C   UNL A   1      33.162  24.238  26.109  1.00  0.00     0.018 A 
ENDBRANCH  74  77
ENDBRANCH  72  73
ENDBRANCH  71  72
ENDBRANCH  70  71
ENDBRANCH   3  70
TORSDOF 13
ENDMDL
MODEL 2
REMARK VINA RESULT:     -12.2      5.895      8.795
REMARK SMILES O=C(NCCCNC(=O)c1cc(=O)[nH]c2c(Br)cccc12)c1ccc(-c2c3nc(c(-c4cccc(S(=O)(=O)[O-])c4F)c4ccc([nH]4)c(-c4cccc(S(=O)(=O)[O-])c4F)c4nc(c(-c5cccc(S(=O)(=O)[O-])c5F)c5ccc2[nH]5)C=C4)C=C3)cc1
REMARK SMILES IDX 1 1 2 2 3 3 22 5 23 6 84 7 24 8 83 9 25 10 26 11 27 12 77 13
REMARK SMILES IDX 28 14 82 15 76 16 78 17 29 18 81 19 75 20 74 21 30 23 62 24
REMARK SMILES IDX 42 25 61 26 43 27 46 28 60 29 79 30 44 31 45 32 59 34 80 35
REMARK SMILES IDX 47 36 31 37 32 38 40 39 33 40 35 41 41 42 34 43 36 44 37 45
REMARK SMILES IDX 38 46 39 47 63 48 64 49 72 50 65 51 67 52 73 53 66 54 68 55
REMARK SMILES IDX 69 56 70 57 71 58 48 59 49 60 57 61 50 62 52 63 58 64 51 65
REMARK SMILES IDX 53 66 54 67 55 68 56 69 4 70 5 71 6 72 7 73 8 74 9 76 10 77
REMARK SMILES IDX 11 78 21 79 12 80 15 81 20 82 13 83 14 84 16 85 19 86 17 88
REMARK SMILES IDX 18 89
REMARK H PARENT 3 4 78 22 46 33 7 75 14 87
REMARK Flexibility Score: inf
ROOT
ATOM      1  O   UNL A   1      39.436  19.925  25.783  1.00  0.00    -0.269 OA
ATOM      2  C   UNL A   1      38.733  20.933  25.783  1.00  0.00     0.251 C 
ATOM      3  N   UNL A   1      37.442  20.844  25.326  1.00  0.00    -0.352 N 
ATOM      4  H   UNL A   1      37.120  19.925  25.176  1.00  0.00     0.163 HD
ENDROOT
BRANCH   2   5
ATOM      5  C   UNL A   1      39.283  22.218  26.272  1.00  0.00     0.039 A 
ATOM      6  C   UNL A   1      38.733  23.411  25.795  1.00  0.00     0.014 A 
ATOM      7  C   UNL A   1      40.376  22.259  27.141  1.00  0.00     0.014 A 
ATOM      8  C   UNL A   1      39.264  24.636  26.205  1.00  0.00     0.010 A 
ATOM      9  C   UNL A   1      40.837  23.476  27.629  1.00  0.00     0.010 A 
ATOM     10  C   UNL A   1      40.316  24.680  27.133  1.00  0.00    -0.014 A 
BRANCH  10  11
ATOM     11  C   UNL A   1      40.950  25.962  27.529  1.00  0.00     0.031 A 
ATOM     12  C   UNL A   1      42.376  26.242  27.128  1.00  0.00     0.074 A 
ATOM     13  C   UNL A   1      40.273  26.856  28.276  1.00  0.00     0.049 A 
ATOM     14  N   UNL A   1      43.132  27.264  27.434  1.00  0.00    -0.248 NA
ATOM     15  C   UNL A   1      43.053  25.231  26.294  1.00  0.00     0.031 C 
ATOM     16  C   UNL A   1      38.904  26.686  28.767  1.00  0.00     0.029 A 
ATOM     17  N   UNL A   1      40.652  28.080  28.767  1.00  0.00    -0.354 N 
ATOM     18  C   UNL A   1      44.374  26.999  26.869  1.00  0.00     0.074 A 
ATOM     19  C   UNL A   1      44.287  25.708  26.229  1.00  0.00     0.031 C 
ATOM     20  C   UNL A   1      38.552  27.775  29.470  1.00  0.00     0.029 A 
ATOM     21  C   UNL A   1      39.679  28.703  29.510  1.00  0.00     0.049 A 
ATOM     22  H   UNL A   1      41.540  28.475  28.601  1.00  0.00     0.167 HD
ATOM     23  C   UNL A   1      45.478  27.778  26.851  1.00  0.00     0.034 A 
ATOM     24  C   UNL A   1      39.692  29.886  30.157  1.00  0.00     0.034 A 
ATOM     25  C   UNL A   1      45.547  29.092  27.420  1.00  0.00     0.049 A 
ATOM     26  C   UNL A   1      40.923  30.746  30.100  1.00  0.00     0.074 A 
ATOM     27  C   UNL A   1      46.601  29.987  27.382  1.00  0.00     0.029 A 
ATOM     28  N   UNL A   1      44.522  29.703  28.122  1.00  0.00    -0.354 N 
ATOM     29  N   UNL A   1      42.056  30.517  29.481  1.00  0.00    -0.248 NA
ATOM     30  C   UNL A   1      40.875  32.035  30.806  1.00  0.00     0.031 C 
ATOM     31  C   UNL A   1      46.218  31.137  28.074  1.00  0.00     0.029 A 
ATOM     32  C   UNL A   1      44.919  30.965  28.525  1.00  0.00     0.049 A 
ATOM     33  H   UNL A   1      43.642  29.301  28.305  1.00  0.00     0.167 HD
ATOM     34  C   UNL A   1      42.844  31.640  29.700  1.00  0.00     0.074 A 
ATOM     35  C   UNL A   1      42.059  32.554  30.502  1.00  0.00     0.031 C 
ATOM     36  C   UNL A   1      44.109  31.883  29.281  1.00  0.00     0.034 A 
BRANCH  23  37
ATOM     37  C   UNL A   1      46.695  27.264  26.133  1.00  0.00     0.023 A 
ATOM     38  C   UNL A   1      46.822  27.485  24.747  1.00  0.00     0.012 A 
ATOM     39  C   UNL A   1      47.751  26.661  26.843  1.00  0.00     0.148 A 
ATOM     40  C   UNL A   1      47.982  27.106  24.075  1.00  0.00     0.002 A 
ATOM     41  C   UNL A   1      48.917  26.316  26.171  1.00  0.00     0.091 A 
ATOM     42  F   UNL A   1      47.598  26.450  28.158  1.00  0.00    -0.205 F 
ATOM     43  C   UNL A   1      49.033  26.534  24.788  1.00  0.00     0.022 A 
BRANCH  41  44
ATOM     44  S   UNL A   1      50.350  25.621  27.002  1.00  0.00     0.127 S 
ATOM     45  O   UNL A   1      49.807  24.369  27.527  1.00  0.00    -0.237 OA
ATOM     46  O   UNL A   1      51.295  25.462  25.899  1.00  0.00    -0.237 OA
ATOM     47  O   UNL A   1      50.743  26.593  28.014  1.00  0.00    -0.744 OA
ENDBRANCH  41  44
ENDBRANCH  23  37
BRANCH  24  48
ATOM     48  C   UNL A   1      38.463  30.345  30.857  1.00  0.00     0.023 A 
ATOM     49  C   UNL A   1      38.315  30.082  32.232  1.00  0.00     0.012 A 
ATOM     50  C   UNL A   1      37.480  31.101  30.189  1.00  0.00     0.148 A 
ATOM     51  C   UNL A   1      37.207  30.560  32.931  1.00  0.00     0.002 A 
ATOM     52  C   UNL A   1      36.397  31.606  30.898  1.00  0.00     0.091 A 
ATOM     53  F   UNL A   1      37.647  31.337  28.879  1.00  0.00    -0.205 F 
ATOM     54  C   UNL A   1      36.254  31.329  32.267  1.00  0.00     0.022 A 
BRANCH  52  55
ATOM     55  S   UNL A   1      35.168  32.683  30.154  1.00  0.00     0.127 S 
ATOM     56  O   UNL A   1      34.277  32.943  31.283  1.00  0.00    -0.237 OA
ATOM     57  O   UNL A   1      35.986  33.824  29.740  1.00  0.00    -0.237 OA
ATOM     58  O   UNL A   1      34.582  31.925  29.058  1.00  0.00    -0.744 OA
ENDBRANCH  52  55
ENDBRANCH  24  48
BRANCH  36  59
ATOM     59  C   UNL A   1      44.745  33.194  29.648  1.00  0.00     0.023 A 
ATOM     60  C   UNL A   1      45.500  33.289  30.831  1.00  0.00     0.012 A 
ATOM     61  C   UNL A   1      44.720  34.275  28.745  1.00  0.00     0.148 A 
ATOM     62  C   UNL A   1      46.225  34.446  31.113  1.00  0.00     0.002 A 
ATOM     63  C   UNL A   1      45.472  35.412  29.016  1.00  0.00     0.091 A 
ATOM     64  F   UNL A   1      43.990  34.155  27.627  1.00  0.00    -0.205 F 
ATOM     65  C   UNL A   1      46.222  35.500  30.201  1.00  0.00     0.022 A 
BRANCH  63  66
ATOM     66  S   UNL A   1      45.593  36.789  27.870  1.00  0.00     0.127 S 
ATOM     67  O   UNL A   1      44.207  37.255  27.818  1.00  0.00    -0.237 OA
ATOM     68  O   UNL A   1      46.513  37.689  28.565  1.00  0.00    -0.237 OA
ATOM     69  O   UNL A   1      46.105  36.236  26.623  1.00  0.00    -0.744 OA
ENDBRANCH  63  66
ENDBRANCH  36  59
ENDBRANCH  10  11
ENDBRANCH   2   5
BRANCH   3  70
ATOM     70  C   UNL A   1      36.471  21.886  25.026  1.00  0.00     0.118 C 
BRANCH  70  71
ATOM     71  C   UNL A   1      35.419  22.043  26.114  1.00  0.00     0.042 C 
BRANCH  71  72
ATOM     72  C   UNL A   1      34.246  21.082  25.998  1.00  0.00     0.118 C 
BRANCH  72  73
ATOM     73  N   UNL A   1      33.631  21.100  24.678  1.00  0.00    -0.352 N 
ATOM     74  C   UNL A   1      32.617  21.865  24.184  1.00  0.00     0.252 C 
ATOM     75  H   UNL A   1      34.010  20.454  24.039  1.00  0.00     0.163 HD
ATOM     76  O   UNL A   1      32.196  21.652  23.049  1.00  0.00    -0.269 OA
BRANCH  74  77
ATOM     77  C   UNL A   1      32.029  22.936  25.029  1.00  0.00     0.054 A 
ATOM     78  C   UNL A   1      31.081  22.557  25.901  1.00  0.00     0.086 A 
ATOM     79  C   UNL A   1      32.538  24.321  25.050  1.00  0.00     0.012 A 
ATOM     80  C   UNL A   1      30.425  23.528  26.793  1.00  0.00     0.249 A 
ATOM     81  C   UNL A   1      31.963  25.233  25.952  1.00  0.00     0.063 A 
ATOM     82  C   UNL A   1      33.574  24.765  24.214  1.00  0.00     0.011 A 
ATOM     83  O   UNL A   1      29.492  23.184  27.511  1.00  0.00    -0.270 OA
ATOM     84  N   UNL A   1      30.909  24.801  26.775  1.00  0.00    -0.321 N 
ATOM     85  C   UNL A   1      32.435  26.549  26.030  1.00  0.00     0.042 A 
ATOM     86  C   UNL A   1      34.040  26.080  24.294  1.00  0.00     0.002 A 
ATOM     87  H   UNL A   1      30.494  25.461  27.377  1.00  0.00     0.170 HD
ATOM     88  Br  UNL A   1      31.703  27.794  27.265  1.00  0.00    -0.049 Br
ATOM     89  C   UNL A   1      33.477  26.971  25.205  1.00  0.00     0.018 A 
ENDBRANCH  74  77
ENDBRANCH  72  73
ENDBRANCH  71  72
ENDBRANCH  70  71
ENDBRANCH   3  70
TORSDOF 13
ENDMDL
MODEL 3
REMARK VINA RESULT:     -12.1      6.090      8.807
REMARK SMILES O=C(NCCCNC(=O)c1cc(=O)[nH]c2c(Br)cccc12)c1ccc(-c2c3nc(c(-c4cccc(S(=O)(=O)[O-])c4F)c4ccc([nH]4)c(-c4cccc(S(=O)(=O)[O-])c4F)c4nc(c(-c5cccc(S(=O)(=O)[O-])c5F)c5ccc2[nH]5)C=C4)C=C3)cc1
REMARK SMILES IDX 1 1 2 2 3 3 22 5 23 6 84 7 24 8 83 9 25 10 26 11 27 12 77 13
REMARK SMILES IDX 28 14 82 15 76 16 78 17 29 18 81 19 75 20 74 21 30 23 62 24
REMARK SMILES IDX 42 25 61 26 43 27 46 28 60 29 79 30 44 31 45 32 59 34 80 35
REMARK SMILES IDX 47 36 31 37 32 38 40 39 33 40 35 41 41 42 34 43 36 44 37 45
REMARK SMILES IDX 38 46 39 47 63 48 64 49 72 50 65 51 67 52 73 53 66 54 68 55
REMARK SMILES IDX 69 56 70 57 71 58 48 59 49 60 57 61 50 62 52 63 58 64 51 65
REMARK SMILES IDX 53 66 54 67 55 68 56 69 4 70 5 71 6 72 7 73 8 74 9 76 10 77
REMARK SMILES IDX 11 78 21 79 12 80 15 81 20 82 13 83 14 84 16 85 19 86 17 88
REMARK SMILES IDX 18 89
REMARK H PARENT 3 4 78 22 46 33 7 75 14 87
REMARK Flexibility Score: inf
ROOT
ATOM      1  O   UNL A   1      40.376  20.427  26.556  1.00  0.00    -0.269 OA
ATOM      2  C   UNL A   1      39.616  21.382  26.415  1.00  0.00     0.251 C 
ATOM      3  N   UNL A   1      38.387  21.175  25.840  1.00  0.00    -0.352 N 
ATOM      4  H   UNL A   1      38.140  20.229  25.725  1.00  0.00     0.163 HD
ENDROOT
BRANCH   2   5
ATOM      5  C   UNL A   1      40.032  22.732  26.862  1.00  0.00     0.039 A 
ATOM      6  C   UNL A   1      39.515  23.849  26.201  1.00  0.00     0.014 A 
ATOM      7  C   UNL A   1      40.975  22.903  27.878  1.00  0.00     0.014 A 
ATOM      8  C   UNL A   1      39.927  25.131  26.573  1.00  0.00     0.010 A 
ATOM      9  C   UNL A   1      41.306  24.181  28.317  1.00  0.00     0.010 A 
ATOM     10  C   UNL A   1      40.820  25.309  27.641  1.00  0.00    -0.014 A 
BRANCH  10  11
ATOM     11  C   UNL A   1      41.333  26.652  28.010  1.00  0.00     0.031 A 
ATOM     12  C   UNL A   1      42.755  27.023  27.673  1.00  0.00     0.074 A 
ATOM     13  C   UNL A   1      40.550  27.522  28.677  1.00  0.00     0.049 A 
ATOM     14  N   UNL A   1      43.415  28.112  27.970  1.00  0.00    -0.248 NA
ATOM     15  C   UNL A   1      43.551  26.032  26.924  1.00  0.00     0.031 C 
ATOM     16  C   UNL A   1      39.172  27.268  29.101  1.00  0.00     0.029 A 
ATOM     17  N   UNL A   1      40.810  28.791  29.129  1.00  0.00    -0.354 N 
ATOM     18  C   UNL A   1      44.703  27.920  27.485  1.00  0.00     0.074 A 
ATOM     19  C   UNL A   1      44.748  26.599  26.902  1.00  0.00     0.031 C 
ATOM     20  C   UNL A   1      38.701  28.356  29.733  1.00  0.00     0.029 A 
ATOM     21  C   UNL A   1      39.752  29.368  29.790  1.00  0.00     0.049 A 
ATOM     22  H   UNL A   1      41.673  29.246  28.992  1.00  0.00     0.167 HD
ATOM     23  C   UNL A   1      45.745  28.780  27.489  1.00  0.00     0.034 A 
ATOM     24  C   UNL A   1      39.640  30.575  30.381  1.00  0.00     0.034 A 
ATOM     25  C   UNL A   1      45.684  30.118  27.999  1.00  0.00     0.049 A 
ATOM     26  C   UNL A   1      40.805  31.524  30.348  1.00  0.00     0.074 A 
ATOM     27  C   UNL A   1      46.668  31.089  27.975  1.00  0.00     0.029 A 
ATOM     28  N   UNL A   1      44.578  30.678  28.616  1.00  0.00    -0.354 N 
ATOM     29  N   UNL A   1      41.985  31.357  29.802  1.00  0.00    -0.248 NA
ATOM     30  C   UNL A   1      40.621  32.835  30.990  1.00  0.00     0.031 C 
ATOM     31  C   UNL A   1      46.162  32.235  28.592  1.00  0.00     0.029 A 
ATOM     32  C   UNL A   1      44.856  31.982  28.980  1.00  0.00     0.049 A 
ATOM     33  H   UNL A   1      43.721  30.217  28.771  1.00  0.00     0.167 HD
ATOM     34  C   UNL A   1      42.674  32.545  30.010  1.00  0.00     0.074 A 
ATOM     35  C   UNL A   1      41.779  33.430  30.726  1.00  0.00     0.031 C 
ATOM     36  C   UNL A   1      43.939  32.867  29.648  1.00  0.00     0.034 A 
BRANCH  23  37
ATOM     37  C   UNL A   1      47.036  28.330  26.862  1.00  0.00     0.023 A 
ATOM     38  C   UNL A   1      48.098  27.920  27.691  1.00  0.00     0.012 A 
ATOM     39  C   UNL A   1      47.158  28.216  25.464  1.00  0.00     0.148 A 
ATOM     40  C   UNL A   1      49.269  27.407  27.137  1.00  0.00     0.002 A 
ATOM     41  C   UNL A   1      48.315  27.674  24.921  1.00  0.00     0.091 A 
ATOM     42  F   UNL A   1      46.136  28.627  24.699  1.00  0.00    -0.205 F 
ATOM     43  C   UNL A   1      49.373  27.273  25.755  1.00  0.00     0.022 A 
BRANCH  41  44
ATOM     44  S   UNL A   1      48.531  27.408  23.158  1.00  0.00     0.127 S 
ATOM     45  O   UNL A   1      49.898  27.887  22.953  1.00  0.00    -0.237 OA
ATOM     46  O   UNL A   1      48.369  25.960  23.045  1.00  0.00    -0.237 OA
ATOM     47  O   UNL A   1      47.498  28.196  22.499  1.00  0.00    -0.744 OA
ENDBRANCH  41  44
ENDBRANCH  23  37
BRANCH  24  48
ATOM     48  C   UNL A   1      38.343  30.968  30.992  1.00  0.00     0.023 A 
ATOM     49  C   UNL A   1      38.134  30.745  32.366  1.00  0.00     0.012 A 
ATOM     50  C   UNL A   1      37.349  31.625  30.240  1.00  0.00     0.148 A 
ATOM     51  C   UNL A   1      36.956  31.166  32.982  1.00  0.00     0.002 A 
ATOM     52  C   UNL A   1      36.193  32.074  30.866  1.00  0.00     0.091 A 
ATOM     53  F   UNL A   1      37.575  31.824  28.933  1.00  0.00    -0.205 F 
ATOM     54  C   UNL A   1      35.990  31.837  32.236  1.00  0.00     0.022 A 
BRANCH  52  55
ATOM     55  S   UNL A   1      34.936  33.031  30.013  1.00  0.00     0.127 S 
ATOM     56  O   UNL A   1      34.406  32.051  29.067  1.00  0.00    -0.237 OA
ATOM     57  O   UNL A   1      34.032  33.379  31.110  1.00  0.00    -0.237 OA
ATOM     58  O   UNL A   1      35.631  34.162  29.416  1.00  0.00    -0.744 OA
ENDBRANCH  52  55
ENDBRANCH  24  48
BRANCH  36  59
ATOM     59  C   UNL A   1      44.453  34.238  29.987  1.00  0.00     0.023 A 
ATOM     60  C   UNL A   1      45.207  34.423  31.160  1.00  0.00     0.012 A 
ATOM     61  C   UNL A   1      44.321  35.296  29.066  1.00  0.00     0.148 A 
ATOM     62  C   UNL A   1      45.824  35.647  31.415  1.00  0.00     0.002 A 
ATOM     63  C   UNL A   1      44.966  36.502  29.310  1.00  0.00     0.091 A 
ATOM     64  F   UNL A   1      43.595  35.089  27.958  1.00  0.00    -0.205 F 
ATOM     65  C   UNL A   1      45.715  36.680  30.486  1.00  0.00     0.022 A 
BRANCH  63  66
ATOM     66  S   UNL A   1      44.949  37.864  28.140  1.00  0.00     0.127 S 
ATOM     67  O   UNL A   1      43.548  38.282  28.191  1.00  0.00    -0.237 OA
ATOM     68  O   UNL A   1      45.889  38.805  28.748  1.00  0.00    -0.237 OA
ATOM     69  O   UNL A   1      45.380  37.309  26.864  1.00  0.00    -0.744 OA
ENDBRANCH  63  66
ENDBRANCH  36  59
ENDBRANCH  10  11
ENDBRANCH   2   5
BRANCH   3  70
ATOM     70  C   UNL A   1      37.390  22.126  25.371  1.00  0.00     0.118 C 
BRANCH  70  71
ATOM     71  C   UNL A   1      36.123  21.451  24.864  1.00  0.00     0.042 C 
BRANCH  71  72
ATOM     72  C   UNL A   1      35.008  21.352  25.894  1.00  0.00     0.118 C 
BRANCH  72  73
ATOM     73  N   UNL A   1      34.021  20.334  25.559  1.00  0.00    -0.352 N 
ATOM     74  C   UNL A   1      32.695  20.450  25.267  1.00  0.00     0.252 C 
ATOM     75  H   UNL A   1      34.369  19.413  25.540  1.00  0.00     0.163 HD
ATOM     76  O   UNL A   1      32.023  19.436  25.093  1.00  0.00    -0.269 OA
BRANCH  74  77
ATOM     77  C   UNL A   1      32.079  21.799  25.176  1.00  0.00     0.054 A 
ATOM     78  C   UNL A   1      31.394  22.217  26.252  1.00  0.00     0.086 A 
ATOM     79  C   UNL A   1      32.315  22.721  24.049  1.00  0.00     0.012 A 
ATOM     80  C   UNL A   1      30.740  23.537  26.281  1.00  0.00     0.249 A 
ATOM     81  C   UNL A   1      31.754  24.008  24.107  1.00  0.00     0.063 A 
ATOM     82  C   UNL A   1      33.081  22.372  22.926  1.00  0.00     0.011 A 
ATOM     83  O   UNL A   1      30.034  23.862  27.230  1.00  0.00    -0.270 OA
ATOM     84  N   UNL A   1      30.965  24.356  25.217  1.00  0.00    -0.321 N 
ATOM     85  C   UNL A   1      31.977  24.929  23.075  1.00  0.00     0.042 A 
ATOM     86  C   UNL A   1      33.300  23.294  21.898  1.00  0.00     0.002 A 
ATOM     87  H   UNL A   1      30.550  25.249  25.227  1.00  0.00     0.170 HD
ATOM     88  Br  UNL A   1      31.261  26.688  23.142  1.00  0.00    -0.049 Br
ATOM     89  C   UNL A   1      32.755  24.573  21.973  1.00  0.00     0.018 A 
ENDBRANCH  74  77
ENDBRANCH  72  73
ENDBRANCH  71  72
ENDBRANCH  70  71
ENDBRANCH   3  70
TORSDOF 13
ENDMDL
