MODEL 1
REMARK VINA RESULT:     -13.1      0.000      0.000
REMARK SMILES CCOc1ccc(C(=O)N2CCC(C(=O)NCCCNC(=O)c3ccc(-c4c5nc(c(-c6cccc(S(=O)(=O)[O-])c6F)c6ccc([nH]6)c(-c6cccc(S(=O)(=O)[O-])c6F)c6nc(c(-c7cccc(S(=O)(=O)[O-])c7F)c7ccc4[nH]7)C=C6)C=C5)cc3)(c3ccccc3)CC2)cc1OC
REMARK SMILES IDX 18 1 17 2 16 3 14 4 15 5 13 7 8 8 9 9 10 10 11 11 93 12
REMARK SMILES IDX 12 13 92 14 7 15 4 16 5 17 95 18 6 19 94 20 3 21 2 22 1 23
REMARK SMILES IDX 96 24 97 25 86 26 87 27 91 28 88 29 90 30 89 31 19 32 20 33
REMARK SMILES IDX 21 34 22 36 23 37 24 38 85 39 25 40 84 41 26 42 27 43 28 44
REMARK SMILES IDX 78 45 29 46 83 47 77 48 79 49 30 50 82 51 76 52 75 53 31 55
REMARK SMILES IDX 63 56 43 57 62 58 44 59 47 60 61 61 80 62 45 63 46 64 60 66
REMARK SMILES IDX 81 67 48 68 32 69 33 70 41 71 34 72 36 73 42 74 35 75 37 76
REMARK SMILES IDX 38 77 39 78 40 79 64 80 65 81 73 82 66 83 68 84 74 85 67 86
REMARK SMILES IDX 69 87 70 88 71 89 72 90 49 91 50 92 58 93 51 94 53 95 59 96
REMARK SMILES IDX 52 97 54 98 55 99 56 100 57 101
REMARK H PARENT 16 6 20 35 79 54 47 65
REMARK Flexibility Score: inf
ROOT
ATOM      1  C   UNL A   1      31.991  30.914  26.884  1.00  0.00     0.042 C 
ENDROOT
BRANCH   1   2
ATOM      2  C   UNL A   1      32.394  29.589  26.253  1.00  0.00     0.117 C 
BRANCH   2   3
ATOM      3  N   UNL A   1      33.067  29.773  24.970  1.00  0.00    -0.355 N 
ATOM      4  C   UNL A   1      33.251  28.971  23.879  1.00  0.00     0.230 C 
ATOM      5  O   UNL A   1      33.955  29.492  23.011  1.00  0.00    -0.274 OA
ATOM      6  H   UNL A   1      33.477  30.663  24.872  1.00  0.00     0.163 HD
BRANCH   4   7
ATOM      7  C   UNL A   1      32.598  27.548  23.770  1.00  0.00     0.077 C 
ATOM      8  C   UNL A   1      34.555  23.667  23.519  1.00  0.00     0.253 C 
ATOM      9  O   UNL A   1      35.589  23.644  22.855  1.00  0.00    -0.269 OA
ATOM     10  N   UNL A   1      33.820  24.855  23.666  1.00  0.00    -0.339 N 
ATOM     11  C   UNL A   1      33.361  25.439  22.419  1.00  0.00     0.121 C 
ATOM     12  C   UNL A   1      33.225  25.302  24.922  1.00  0.00     0.121 C 
ATOM     13  C   UNL A   1      33.132  26.941  22.444  1.00  0.00     0.043 C 
ATOM     14  C   UNL A   1      33.056  26.803  25.059  1.00  0.00     0.043 C 
BRANCH   8  15
ATOM     15  C   UNL A   1      34.002  22.369  24.030  1.00  0.00     0.043 A 
ATOM     16  C   UNL A   1      32.974  19.967  25.124  1.00  0.00     0.161 A 
ATOM     17  C   UNL A   1      32.124  21.049  24.841  1.00  0.00     0.051 A 
ATOM     18  C   UNL A   1      34.330  20.074  24.835  1.00  0.00     0.161 A 
ATOM     19  C   UNL A   1      32.631  22.237  24.282  1.00  0.00     0.018 A 
ATOM     20  C   UNL A   1      34.819  21.297  24.375  1.00  0.00     0.064 A 
BRANCH  16  21
ATOM     21  O   UNL A   1      32.449  18.801  25.603  1.00  0.00    -0.490 OA
BRANCH  21  22
ATOM     22  C   UNL A   1      32.390  17.760  24.619  1.00  0.00     0.226 C 
ATOM     23  C   UNL A   1      32.749  16.441  25.287  1.00  0.00     0.049 C 
ENDBRANCH  21  22
ENDBRANCH  16  21
BRANCH  18  24
ATOM     24  O   UNL A   1      35.338  19.159  24.906  1.00  0.00    -0.493 OA
ATOM     25  C   UNL A   1      36.685  19.573  24.883  1.00  0.00     0.278 C 
ENDBRANCH  18  24
ENDBRANCH   8  15
BRANCH   7  26
ATOM     26  C   UNL A   1      31.022  27.497  23.729  1.00  0.00    -0.032 A 
ATOM     27  C   UNL A   1      30.247  26.439  24.235  1.00  0.00     0.005 A 
ATOM     28  C   UNL A   1      30.285  28.553  23.143  1.00  0.00     0.005 A 
ATOM     29  C   UNL A   1      28.846  26.430  24.152  1.00  0.00     0.000 A 
ATOM     30  C   UNL A   1      28.888  28.545  23.047  1.00  0.00     0.000 A 
ATOM     31  C   UNL A   1      28.164  27.478  23.552  1.00  0.00     0.000 A 
ENDBRANCH   7  26
ENDBRANCH   4   7
ENDBRANCH   2   3
ENDBRANCH   1   2
BRANCH   1  32
ATOM     32  C   UNL A   1      33.150  31.880  27.085  1.00  0.00     0.118 C 
BRANCH  32  33
ATOM     33  N   UNL A   1      32.711  33.247  27.334  1.00  0.00    -0.352 N 
ATOM     34  C   UNL A   1      33.114  34.136  28.304  1.00  0.00     0.251 C 
ATOM     35  H   UNL A   1      32.023  33.585  26.716  1.00  0.00     0.163 HD
ATOM     36  O   UNL A   1      32.498  35.180  28.472  1.00  0.00    -0.269 OA
BRANCH  34  37
ATOM     37  C   UNL A   1      34.276  33.809  29.158  1.00  0.00     0.039 A 
ATOM     38  C   UNL A   1      34.090  32.980  30.267  1.00  0.00     0.014 A 
ATOM     39  C   UNL A   1      35.548  34.296  28.849  1.00  0.00     0.014 A 
ATOM     40  C   UNL A   1      35.198  32.563  31.009  1.00  0.00     0.010 A 
ATOM     41  C   UNL A   1      36.657  33.811  29.533  1.00  0.00     0.010 A 
ATOM     42  C   UNL A   1      36.495  32.932  30.615  1.00  0.00    -0.014 A 
BRANCH  42  43
ATOM     43  C   UNL A   1      37.700  32.374  31.280  1.00  0.00     0.031 A 
ATOM     44  C   UNL A   1      38.450  31.229  30.657  1.00  0.00     0.074 A 
ATOM     45  C   UNL A   1      38.048  32.822  32.504  1.00  0.00     0.049 A 
ATOM     46  N   UNL A   1      39.456  30.544  31.137  1.00  0.00    -0.248 NA
ATOM     47  C   UNL A   1      37.996  30.777  29.332  1.00  0.00     0.031 C 
ATOM     48  C   UNL A   1      37.354  33.878  33.246  1.00  0.00     0.029 A 
ATOM     49  N   UNL A   1      39.048  32.423  33.355  1.00  0.00    -0.354 N 
ATOM     50  C   UNL A   1      39.730  29.560  30.196  1.00  0.00     0.074 A 
ATOM     51  C   UNL A   1      38.768  29.719  29.127  1.00  0.00     0.031 C 
ATOM     52  C   UNL A   1      37.945  34.040  34.440  1.00  0.00     0.029 A 
ATOM     53  C   UNL A   1      39.031  33.073  34.568  1.00  0.00     0.049 A 
ATOM     54  H   UNL A   1      39.714  31.736  33.121  1.00  0.00     0.167 HD
ATOM     55  C   UNL A   1      40.709  28.624  30.208  1.00  0.00     0.034 A 
ATOM     56  C   UNL A   1      39.786  32.897  35.670  1.00  0.00     0.034 A 
ATOM     57  C   UNL A   1      41.683  28.491  31.258  1.00  0.00     0.049 A 
ATOM     58  C   UNL A   1      40.872  31.854  35.654  1.00  0.00     0.074 A 
ATOM     59  C   UNL A   1      42.768  27.636  31.319  1.00  0.00     0.029 A 
ATOM     60  N   UNL A   1      41.678  29.215  32.440  1.00  0.00    -0.354 N 
ATOM     61  N   UNL A   1      41.220  31.042  34.686  1.00  0.00    -0.248 NA
ATOM     62  C   UNL A   1      41.685  31.722  36.870  1.00  0.00     0.031 C 
ATOM     63  C   UNL A   1      43.399  27.817  32.553  1.00  0.00     0.029 A 
ATOM     64  C   UNL A   1      42.728  28.812  33.246  1.00  0.00     0.049 A 
ATOM     65  H   UNL A   1      41.025  29.915  32.671  1.00  0.00     0.167 HD
ATOM     66  C   UNL A   1      42.310  30.324  35.164  1.00  0.00     0.074 A 
ATOM     67  C   UNL A   1      42.580  30.814  36.499  1.00  0.00     0.031 C 
ATOM     68  C   UNL A   1      43.015  29.338  34.557  1.00  0.00     0.034 A 
BRANCH  55  69
ATOM     69  C   UNL A   1      40.803  27.690  29.029  1.00  0.00     0.023 A 
ATOM     70  C   UNL A   1      39.928  26.588  28.940  1.00  0.00     0.012 A 
ATOM     71  C   UNL A   1      41.708  27.939  27.979  1.00  0.00     0.148 A 
ATOM     72  C   UNL A   1      39.976  25.728  27.844  1.00  0.00     0.002 A 
ATOM     73  C   UNL A   1      41.718  27.105  26.867  1.00  0.00     0.091 A 
ATOM     74  F   UNL A   1      42.544  28.981  28.089  1.00  0.00    -0.205 F 
ATOM     75  C   UNL A   1      40.862  25.992  26.804  1.00  0.00     0.022 A 
BRANCH  73  76
ATOM     76  S   UNL A   1      42.763  27.405  25.438  1.00  0.00     0.127 S 
ATOM     77  O   UNL A   1      42.646  26.140  24.715  1.00  0.00    -0.237 OA
ATOM     78  O   UNL A   1      42.089  28.536  24.798  1.00  0.00    -0.237 OA
ATOM     79  O   UNL A   1      44.088  27.704  25.962  1.00  0.00    -0.744 OA
ENDBRANCH  73  76
ENDBRANCH  55  69
BRANCH  56  80
ATOM     80  C   UNL A   1      39.568  33.754  36.870  1.00  0.00     0.023 A 
ATOM     81  C   UNL A   1      39.975  35.103  36.840  1.00  0.00     0.012 A 
ATOM     82  C   UNL A   1      38.943  33.251  38.027  1.00  0.00     0.148 A 
ATOM     83  C   UNL A   1      39.791  35.925  37.952  1.00  0.00     0.002 A 
ATOM     84  C   UNL A   1      38.713  34.089  39.111  1.00  0.00     0.091 A 
ATOM     85  F   UNL A   1      38.572  31.962  38.039  1.00  0.00    -0.205 F 
ATOM     86  C   UNL A   1      39.152  35.423  39.083  1.00  0.00     0.022 A 
BRANCH  84  87
ATOM     87  S   UNL A   1      37.789  33.565  40.560  1.00  0.00     0.127 S 
ATOM     88  O   UNL A   1      36.554  33.064  39.961  1.00  0.00    -0.237 OA
ATOM     89  O   UNL A   1      38.665  32.534  41.118  1.00  0.00    -0.237 OA
ATOM     90  O   UNL A   1      37.651  34.754  41.389  1.00  0.00    -0.744 OA
ENDBRANCH  84  87
ENDBRANCH  56  80
BRANCH  68  91
ATOM     91  C   UNL A   1      44.170  28.733  35.312  1.00  0.00     0.023 A 
ATOM     92  C   UNL A   1      45.463  29.272  35.163  1.00  0.00     0.012 A 
ATOM     93  C   UNL A   1      43.956  27.692  36.237  1.00  0.00     0.148 A 
ATOM     94  C   UNL A   1      46.531  28.766  35.904  1.00  0.00     0.002 A 
ATOM     95  C   UNL A   1      45.014  27.228  37.009  1.00  0.00     0.091 A 
ATOM     96  F   UNL A   1      42.720  27.185  36.353  1.00  0.00    -0.205 F 
ATOM     97  C   UNL A   1      46.304  27.754  36.834  1.00  0.00     0.022 A 
BRANCH  95  98
ATOM     98  S   UNL A   1      44.803  25.997  38.301  1.00  0.00     0.127 S 
ATOM     99  O   UNL A   1      46.189  25.633  38.595  1.00  0.00    -0.237 OA
ATOM    100  O   UNL A   1      44.138  26.766  39.352  1.00  0.00    -0.237 OA
ATOM    101  O   UNL A   1      43.994  24.934  37.719  1.00  0.00    -0.744 OA
ENDBRANCH  95  98
ENDBRANCH  68  91
ENDBRANCH  42  43
ENDBRANCH  34  37
ENDBRANCH  32  33
ENDBRANCH   1  32
TORSDOF 18
ENDMDL
MODEL 2
REMARK VINA RESULT:     -12.6      2.025      7.465
REMARK SMILES CCOc1ccc(C(=O)N2CCC(C(=O)NCCCNC(=O)c3ccc(-c4c5nc(c(-c6cccc(S(=O)(=O)[O-])c6F)c6ccc([nH]6)c(-c6cccc(S(=O)(=O)[O-])c6F)c6nc(c(-c7cccc(S(=O)(=O)[O-])c7F)c7ccc4[nH]7)C=C6)C=C5)cc3)(c3ccccc3)CC2)cc1OC
REMARK SMILES IDX 18 1 17 2 16 3 14 4 15 5 13 7 8 8 9 9 10 10 11 11 93 12
REMARK SMILES IDX 12 13 92 14 7 15 4 16 5 17 95 18 6 19 94 20 3 21 2 22 1 23
REMARK SMILES IDX 96 24 97 25 86 26 87 27 91 28 88 29 90 30 89 31 19 32 20 33
REMARK SMILES IDX 21 34 22 36 23 37 24 38 85 39 25 40 84 41 26 42 27 43 28 44
REMARK SMILES IDX 78 45 29 46 83 47 77 48 79 49 30 50 82 51 76 52 75 53 31 55
REMARK SMILES IDX 63 56 43 57 62 58 44 59 47 60 61 61 80 62 45 63 46 64 60 66
REMARK SMILES IDX 81 67 48 68 32 69 33 70 41 71 34 72 36 73 42 74 35 75 37 76
REMARK SMILES IDX 38 77 39 78 40 79 64 80 65 81 73 82 66 83 68 84 74 85 67 86
REMARK SMILES IDX 69 87 70 88 71 89 72 90 49 91 50 92 58 93 51 94 53 95 59 96
REMARK SMILES IDX 52 97 54 98 55 99 56 100 57 101
REMARK H PARENT 16 6 20 35 79 54 47 65
REMARK Flexibility Score: inf
ROOT
ATOM      1  C   UNL A   1      31.354  31.201  26.146  1.00  0.00     0.042 C 
ENDROOT
BRANCH   1   2
ATOM      2  C   UNL A   1      31.676  29.802  25.641  1.00  0.00     0.117 C 
BRANCH   2   3
ATOM      3  N   UNL A   1      32.623  29.821  24.531  1.00  0.00    -0.355 N 
ATOM      4  C   UNL A   1      33.008  28.893  23.604  1.00  0.00     0.230 C 
ATOM      5  O   UNL A   1      33.908  29.296  22.864  1.00  0.00    -0.274 OA
ATOM      6  H   UNL A   1      33.083  30.686  24.429  1.00  0.00     0.163 HD
BRANCH   4   7
ATOM      7  C   UNL A   1      32.333  27.479  23.510  1.00  0.00     0.077 C 
ATOM      8  C   UNL A   1      34.230  23.571  23.220  1.00  0.00     0.253 C 
ATOM      9  O   UNL A   1      35.250  23.534  22.534  1.00  0.00    -0.269 OA
ATOM     10  N   UNL A   1      33.515  24.770  23.382  1.00  0.00    -0.339 N 
ATOM     11  C   UNL A   1      33.038  25.360  22.144  1.00  0.00     0.121 C 
ATOM     12  C   UNL A   1      32.952  25.225  24.649  1.00  0.00     0.121 C 
ATOM     13  C   UNL A   1      32.831  26.865  22.173  1.00  0.00     0.043 C 
ATOM     14  C   UNL A   1      32.807  26.728  24.789  1.00  0.00     0.043 C 
BRANCH   8  15
ATOM     15  C   UNL A   1      33.669  22.281  23.743  1.00  0.00     0.043 A 
ATOM     16  C   UNL A   1      32.494  19.914  24.760  1.00  0.00     0.161 A 
ATOM     17  C   UNL A   1      32.340  20.269  23.410  1.00  0.00     0.051 A 
ATOM     18  C   UNL A   1      33.255  20.724  25.594  1.00  0.00     0.161 A 
ATOM     19  C   UNL A   1      32.938  21.437  22.900  1.00  0.00     0.018 A 
ATOM     20  C   UNL A   1      33.752  21.925  25.085  1.00  0.00     0.064 A 
BRANCH  16  21
ATOM     21  O   UNL A   1      31.961  18.742  25.216  1.00  0.00    -0.490 OA
BRANCH  21  22
ATOM     22  C   UNL A   1      32.588  17.580  24.659  1.00  0.00     0.226 C 
ATOM     23  C   UNL A   1      32.931  16.624  25.792  1.00  0.00     0.049 C 
ENDBRANCH  21  22
ENDBRANCH  16  21
BRANCH  18  24
ATOM     24  O   UNL A   1      33.649  20.562  26.890  1.00  0.00    -0.493 OA
ATOM     25  C   UNL A   1      34.093  21.664  27.647  1.00  0.00     0.278 C 
ENDBRANCH  18  24
ENDBRANCH   8  15
BRANCH   7  26
ATOM     26  C   UNL A   1      30.756  27.451  23.501  1.00  0.00    -0.032 A 
ATOM     27  C   UNL A   1      29.947  28.413  22.872  1.00  0.00     0.005 A 
ATOM     28  C   UNL A   1      30.052  26.418  24.164  1.00  0.00     0.005 A 
ATOM     29  C   UNL A   1      28.545  28.357  22.913  1.00  0.00     0.000 A 
ATOM     30  C   UNL A   1      28.654  26.362  24.218  1.00  0.00     0.000 A 
ATOM     31  C   UNL A   1      27.896  27.337  23.592  1.00  0.00     0.000 A 
ENDBRANCH   7  26
ENDBRANCH   4   7
ENDBRANCH   2   3
ENDBRANCH   1   2
BRANCH   1  32
ATOM     32  C   UNL A   1      32.186  31.631  27.346  1.00  0.00     0.118 C 
BRANCH  32  33
ATOM     33  N   UNL A   1      32.522  33.049  27.324  1.00  0.00    -0.352 N 
ATOM     34  C   UNL A   1      33.649  33.693  27.783  1.00  0.00     0.251 C 
ATOM     35  H   UNL A   1      31.841  33.635  26.921  1.00  0.00     0.163 HD
ATOM     36  O   UNL A   1      33.674  34.914  27.846  1.00  0.00    -0.269 OA
BRANCH  34  37
ATOM     37  C   UNL A   1      34.816  32.897  28.223  1.00  0.00     0.039 A 
ATOM     38  C   UNL A   1      36.082  33.486  28.209  1.00  0.00     0.014 A 
ATOM     39  C   UNL A   1      34.654  31.586  28.675  1.00  0.00     0.014 A 
ATOM     40  C   UNL A   1      37.172  32.790  28.737  1.00  0.00     0.010 A 
ATOM     41  C   UNL A   1      35.721  30.929  29.280  1.00  0.00     0.010 A 
ATOM     42  C   UNL A   1      36.989  31.528  29.326  1.00  0.00    -0.014 A 
BRANCH  42  43
ATOM     43  C   UNL A   1      38.091  30.836  30.042  1.00  0.00     0.031 A 
ATOM     44  C   UNL A   1      38.453  31.235  31.446  1.00  0.00     0.074 A 
ATOM     45  C   UNL A   1      38.840  29.927  29.384  1.00  0.00     0.049 A 
ATOM     46  N   UNL A   1      39.446  30.820  32.191  1.00  0.00    -0.248 NA
ATOM     47  C   UNL A   1      37.605  32.251  32.090  1.00  0.00     0.031 C 
ATOM     48  C   UNL A   1      38.635  29.509  27.994  1.00  0.00     0.029 A 
ATOM     49  N   UNL A   1      39.947  29.220  29.781  1.00  0.00    -0.354 N 
ATOM     50  C   UNL A   1      39.366  31.549  33.370  1.00  0.00     0.074 A 
ATOM     51  C   UNL A   1      38.244  32.451  33.234  1.00  0.00     0.031 C 
ATOM     52  C   UNL A   1      39.584  28.623  27.655  1.00  0.00     0.029 A 
ATOM     53  C   UNL A   1      40.490  28.442  28.785  1.00  0.00     0.049 A 
ATOM     54  H   UNL A   1      40.318  29.265  30.692  1.00  0.00     0.167 HD
ATOM     55  C   UNL A   1      40.143  31.458  34.476  1.00  0.00     0.034 A 
ATOM     56  C   UNL A   1      41.606  27.686  28.770  1.00  0.00     0.034 A 
ATOM     57  C   UNL A   1      41.238  30.537  34.618  1.00  0.00     0.049 A 
ATOM     58  C   UNL A   1      42.447  27.598  30.015  1.00  0.00     0.074 A 
ATOM     59  C   UNL A   1      42.025  30.304  35.731  1.00  0.00     0.029 A 
ATOM     60  N   UNL A   1      41.716  29.712  33.612  1.00  0.00    -0.354 N 
ATOM     61  N   UNL A   1      42.259  28.171  31.179  1.00  0.00    -0.248 NA
ATOM     62  C   UNL A   1      43.636  26.737  29.955  1.00  0.00     0.031 C 
ATOM     63  C   UNL A   1      43.002  29.366  35.387  1.00  0.00     0.029 A 
ATOM     64  C   UNL A   1      42.801  28.986  34.071  1.00  0.00     0.049 A 
ATOM     65  H   UNL A   1      41.337  29.651  32.705  1.00  0.00     0.167 HD
ATOM     66  C   UNL A   1      43.288  27.720  31.997  1.00  0.00     0.074 A 
ATOM     67  C   UNL A   1      44.082  26.805  31.203  1.00  0.00     0.031 C 
ATOM     68  C   UNL A   1      43.558  28.045  33.285  1.00  0.00     0.034 A 
BRANCH  55  69
ATOM     69  C   UNL A   1      39.812  32.354  35.643  1.00  0.00     0.023 A 
ATOM     70  C   UNL A   1      39.047  31.849  36.715  1.00  0.00     0.012 A 
ATOM     71  C   UNL A   1      40.312  33.669  35.710  1.00  0.00     0.148 A 
ATOM     72  C   UNL A   1      38.755  32.650  37.818  1.00  0.00     0.002 A 
ATOM     73  C   UNL A   1      40.057  34.444  36.835  1.00  0.00     0.091 A 
ATOM     74  F   UNL A   1      41.022  34.136  34.674  1.00  0.00    -0.205 F 
ATOM     75  C   UNL A   1      39.269  33.942  37.883  1.00  0.00     0.022 A 
BRANCH  73  76
ATOM     76  S   UNL A   1      40.740  36.091  37.052  1.00  0.00     0.127 S 
ATOM     77  O   UNL A   1      39.941  36.869  36.106  1.00  0.00    -0.237 OA
ATOM     78  O   UNL A   1      40.447  36.361  38.461  1.00  0.00    -0.237 OA
ATOM     79  O   UNL A   1      42.157  35.987  36.735  1.00  0.00    -0.744 OA
ENDBRANCH  73  76
ENDBRANCH  55  69
BRANCH  56  80
ATOM     80  C   UNL A   1      41.973  26.920  27.544  1.00  0.00     0.023 A 
ATOM     81  C   UNL A   1      42.544  27.598  26.450  1.00  0.00     0.012 A 
ATOM     82  C   UNL A   1      41.782  25.527  27.466  1.00  0.00     0.148 A 
ATOM     83  C   UNL A   1      42.890  26.908  25.287  1.00  0.00     0.002 A 
ATOM     84  C   UNL A   1      42.179  24.837  26.326  1.00  0.00     0.091 A 
ATOM     85  F   UNL A   1      41.228  24.901  28.514  1.00  0.00    -0.205 F 
ATOM     86  C   UNL A   1      42.716  25.528  25.228  1.00  0.00     0.022 A 
BRANCH  84  87
ATOM     87  S   UNL A   1      42.108  23.046  26.207  1.00  0.00     0.127 S 
ATOM     88  O   UNL A   1      42.688  22.812  24.886  1.00  0.00    -0.237 OA
ATOM     89  O   UNL A   1      42.952  22.637  27.331  1.00  0.00    -0.237 OA
ATOM     90  O   UNL A   1      40.702  22.697  26.350  1.00  0.00    -0.744 OA
ENDBRANCH  84  87
ENDBRANCH  56  80
BRANCH  68  91
ATOM     91  C   UNL A   1      44.746  27.389  33.940  1.00  0.00     0.023 A 
ATOM     92  C   UNL A   1      46.018  27.989  33.845  1.00  0.00     0.012 A 
ATOM     93  C   UNL A   1      44.584  26.231  34.726  1.00  0.00     0.148 A 
ATOM     94  C   UNL A   1      47.115  27.429  34.499  1.00  0.00     0.002 A 
ATOM     95  C   UNL A   1      45.671  25.708  35.416  1.00  0.00     0.091 A 
ATOM     96  F   UNL A   1      43.368  25.669  34.791  1.00  0.00    -0.205 F 
ATOM     97  C   UNL A   1      46.939  26.298  35.293  1.00  0.00     0.022 A 
BRANCH  95  98
ATOM     98  S   UNL A   1      45.525  24.314  36.540  1.00  0.00     0.127 S 
ATOM     99  O   UNL A   1      45.558  23.182  35.615  1.00  0.00    -0.237 OA
ATOM    100  O   UNL A   1      46.722  24.461  37.368  1.00  0.00    -0.237 OA
ATOM    101  O   UNL A   1      44.267  24.497  37.250  1.00  0.00    -0.744 OA
ENDBRANCH  95  98
ENDBRANCH  68  91
ENDBRANCH  42  43
ENDBRANCH  34  37
ENDBRANCH  32  33
ENDBRANCH   1  32
TORSDOF 18
ENDMDL
MODEL 3
REMARK VINA RESULT:     -12.3      2.313      7.797
REMARK SMILES CCOc1ccc(C(=O)N2CCC(C(=O)NCCCNC(=O)c3ccc(-c4c5nc(c(-c6cccc(S(=O)(=O)[O-])c6F)c6ccc([nH]6)c(-c6cccc(S(=O)(=O)[O-])c6F)c6nc(c(-c7cccc(S(=O)(=O)[O-])c7F)c7ccc4[nH]7)C=C6)C=C5)cc3)(c3ccccc3)CC2)cc1OC
REMARK SMILES IDX 18 1 17 2 16 3 14 4 15 5 13 7 8 8 9 9 10 10 11 11 93 12
REMARK SMILES IDX 12 13 92 14 7 15 4 16 5 17 95 18 6 19 94 20 3 21 2 22 1 23
REMARK SMILES IDX 96 24 97 25 86 26 87 27 91 28 88 29 90 30 89 31 19 32 20 33
REMARK SMILES IDX 21 34 22 36 23 37 24 38 85 39 25 40 84 41 26 42 27 43 28 44
REMARK SMILES IDX 78 45 29 46 83 47 77 48 79 49 30 50 82 51 76 52 75 53 31 55
REMARK SMILES IDX 63 56 43 57 62 58 44 59 47 60 61 61 80 62 45 63 46 64 60 66
REMARK SMILES IDX 81 67 48 68 32 69 33 70 41 71 34 72 36 73 42 74 35 75 37 76
REMARK SMILES IDX 38 77 39 78 40 79 64 80 65 81 73 82 66 83 68 84 74 85 67 86
REMARK SMILES IDX 69 87 70 88 71 89 72 90 49 91 50 92 58 93 51 94 53 95 59 96
REMARK SMILES IDX 52 97 54 98 55 99 56 100 57 101
REMARK H PARENT 16 6 20 35 79 54 47 65
REMARK Flexibility Score: inf
ROOT
ATOM      1  C   UNL A   1      31.674  31.269  26.344  1.00  0.00     0.042 C 
ENDROOT
BRANCH   1   2
ATOM      2  C   UNL A   1      31.734  29.921  25.640  1.00  0.00     0.117 C 
BRANCH   2   3
ATOM      3  N   UNL A   1      32.731  29.901  24.574  1.00  0.00    -0.355 N 
ATOM      4  C   UNL A   1      33.188  28.927  23.730  1.00  0.00     0.230 C 
ATOM      5  O   UNL A   1      34.109  29.312  23.006  1.00  0.00    -0.274 OA
ATOM      6  H   UNL A   1      33.167  30.772  24.436  1.00  0.00     0.163 HD
BRANCH   4   7
ATOM      7  C   UNL A   1      32.563  27.488  23.701  1.00  0.00     0.077 C 
ATOM      8  C   UNL A   1      34.596  23.638  23.701  1.00  0.00     0.253 C 
ATOM      9  O   UNL A   1      35.637  23.595  23.049  1.00  0.00    -0.269 OA
ATOM     10  N   UNL A   1      33.837  24.818  23.770  1.00  0.00    -0.339 N 
ATOM     11  C   UNL A   1      33.380  25.318  22.486  1.00  0.00     0.121 C 
ATOM     12  C   UNL A   1      33.220  25.328  24.990  1.00  0.00     0.121 C 
ATOM     13  C   UNL A   1      33.122  26.814  22.418  1.00  0.00     0.043 C 
ATOM     14  C   UNL A   1      33.022  26.831  25.036  1.00  0.00     0.043 C 
BRANCH   8  15
ATOM     15  C   UNL A   1      34.062  22.362  24.283  1.00  0.00     0.043 A 
ATOM     16  C   UNL A   1      33.022  19.914  25.254  1.00  0.00     0.161 A 
ATOM     17  C   UNL A   1      34.368  20.019  24.867  1.00  0.00     0.051 A 
ATOM     18  C   UNL A   1      32.204  21.035  25.182  1.00  0.00     0.161 A 
ATOM     19  C   UNL A   1      34.890  21.240  24.401  1.00  0.00     0.018 A 
ATOM     20  C   UNL A   1      32.722  22.203  24.623  1.00  0.00     0.064 A 
BRANCH  16  21
ATOM     21  O   UNL A   1      32.555  18.737  25.767  1.00  0.00    -0.490 OA
BRANCH  21  22
ATOM     22  C   UNL A   1      33.169  17.581  25.182  1.00  0.00     0.226 C 
ATOM     23  C   UNL A   1      32.622  17.401  23.774  1.00  0.00     0.049 C 
ENDBRANCH  21  22
ENDBRANCH  16  21
BRANCH  18  24
ATOM     24  O   UNL A   1      30.917  21.236  25.587  1.00  0.00    -0.493 OA
ATOM     25  C   UNL A   1      30.525  22.471  26.141  1.00  0.00     0.278 C 
ENDBRANCH  18  24
ENDBRANCH   8  15
BRANCH   7  26
ATOM     26  C   UNL A   1      30.988  27.404  23.647  1.00  0.00    -0.032 A 
ATOM     27  C   UNL A   1      30.222  26.432  24.312  1.00  0.00     0.005 A 
ATOM     28  C   UNL A   1      30.246  28.336  22.885  1.00  0.00     0.005 A 
ATOM     29  C   UNL A   1      28.822  26.385  24.213  1.00  0.00     0.000 A 
ATOM     30  C   UNL A   1      28.850  28.289  22.774  1.00  0.00     0.000 A 
ATOM     31  C   UNL A   1      28.135  27.307  23.438  1.00  0.00     0.000 A 
ENDBRANCH   7  26
ENDBRANCH   4   7
ENDBRANCH   2   3
ENDBRANCH   1   2
BRANCH   1  32
ATOM     32  C   UNL A   1      32.815  31.505  27.324  1.00  0.00     0.118 C 
BRANCH  32  33
ATOM     33  N   UNL A   1      33.111  32.918  27.519  1.00  0.00    -0.352 N 
ATOM     34  C   UNL A   1      34.190  33.514  28.132  1.00  0.00     0.251 C 
ATOM     35  H   UNL A   1      32.439  33.541  27.158  1.00  0.00     0.163 HD
ATOM     36  O   UNL A   1      34.177  34.715  28.365  1.00  0.00    -0.269 OA
BRANCH  34  37
ATOM     37  C   UNL A   1      35.350  32.688  28.533  1.00  0.00     0.039 A 
ATOM     38  C   UNL A   1      36.637  33.210  28.386  1.00  0.00     0.014 A 
ATOM     39  C   UNL A   1      35.165  31.415  29.076  1.00  0.00     0.014 A 
ATOM     40  C   UNL A   1      37.732  32.492  28.874  1.00  0.00     0.010 A 
ATOM     41  C   UNL A   1      36.244  30.742  29.639  1.00  0.00     0.010 A 
ATOM     42  C   UNL A   1      37.538  31.277  29.552  1.00  0.00    -0.014 A 
BRANCH  42  43
ATOM     43  C   UNL A   1      38.659  30.574  30.225  1.00  0.00     0.031 A 
ATOM     44  C   UNL A   1      39.088  30.977  31.609  1.00  0.00     0.074 A 
ATOM     45  C   UNL A   1      39.365  29.649  29.542  1.00  0.00     0.049 A 
ATOM     46  N   UNL A   1      40.106  30.553  32.313  1.00  0.00    -0.248 NA
ATOM     47  C   UNL A   1      38.285  32.012  32.281  1.00  0.00     0.031 C 
ATOM     48  C   UNL A   1      39.093  29.224  28.167  1.00  0.00     0.029 A 
ATOM     49  N   UNL A   1      40.478  28.928  29.897  1.00  0.00    -0.354 N 
ATOM     50  C   UNL A   1      40.089  31.292  33.489  1.00  0.00     0.074 A 
ATOM     51  C   UNL A   1      38.975  32.210  33.395  1.00  0.00     0.031 C 
ATOM     52  C   UNL A   1      40.014  28.321  27.794  1.00  0.00     0.029 A 
ATOM     53  C   UNL A   1      40.965  28.134  28.884  1.00  0.00     0.049 A 
ATOM     54  H   UNL A   1      40.888  28.973  30.791  1.00  0.00     0.167 HD
ATOM     55  C   UNL A   1      40.911  31.197  34.561  1.00  0.00     0.034 A 
ATOM     56  C   UNL A   1      42.068  27.361  28.827  1.00  0.00     0.034 A 
ATOM     57  C   UNL A   1      41.998  30.261  34.663  1.00  0.00     0.049 A 
ATOM     58  C   UNL A   1      42.960  27.269  30.035  1.00  0.00     0.074 A 
ATOM     59  C   UNL A   1      42.829  30.024  35.743  1.00  0.00     0.029 A 
ATOM     60  N   UNL A   1      42.419  29.421  33.643  1.00  0.00    -0.354 N 
ATOM     61  N   UNL A   1      42.832  27.854  31.201  1.00  0.00    -0.248 NA
ATOM     62  C   UNL A   1      44.133  26.390  29.930  1.00  0.00     0.031 C 
ATOM     63  C   UNL A   1      43.776  29.068  35.364  1.00  0.00     0.029 A 
ATOM     64  C   UNL A   1      43.512  28.681  34.060  1.00  0.00     0.049 A 
ATOM     65  H   UNL A   1      42.000  29.359  32.754  1.00  0.00     0.167 HD
ATOM     66  C   UNL A   1      43.889  27.393  31.977  1.00  0.00     0.074 A 
ATOM     67  C   UNL A   1      44.634  26.461  31.158  1.00  0.00     0.031 C 
ATOM     68  C   UNL A   1      44.220  27.723  33.250  1.00  0.00     0.034 A 
BRANCH  55  69
ATOM     69  C   UNL A   1      40.645  32.106  35.733  1.00  0.00     0.023 A 
ATOM     70  C   UNL A   1      41.498  33.203  35.974  1.00  0.00     0.012 A 
ATOM     71  C   UNL A   1      39.516  31.916  36.555  1.00  0.00     0.148 A 
ATOM     72  C   UNL A   1      41.254  34.075  37.034  1.00  0.00     0.002 A 
ATOM     73  C   UNL A   1      39.253  32.818  37.580  1.00  0.00     0.091 A 
ATOM     74  F   UNL A   1      38.727  30.859  36.322  1.00  0.00    -0.205 F 
ATOM     75  C   UNL A   1      40.127  33.889  37.829  1.00  0.00     0.022 A 
BRANCH  73  76
ATOM     76  S   UNL A   1      37.785  32.714  38.609  1.00  0.00     0.127 S 
ATOM     77  O   UNL A   1      37.982  33.841  39.519  1.00  0.00    -0.237 OA
ATOM     78  O   UNL A   1      36.712  32.900  37.632  1.00  0.00    -0.237 OA
ATOM     79  O   UNL A   1      37.820  31.398  39.231  1.00  0.00    -0.744 OA
ENDBRANCH  73  76
ENDBRANCH  55  69
BRANCH  56  80
ATOM     80  C   UNL A   1      42.370  26.580  27.593  1.00  0.00     0.023 A 
ATOM     81  C   UNL A   1      43.014  27.216  26.513  1.00  0.00     0.012 A 
ATOM     82  C   UNL A   1      42.045  25.214  27.492  1.00  0.00     0.148 A 
ATOM     83  C   UNL A   1      43.301  26.512  25.343  1.00  0.00     0.002 A 
ATOM     84  C   UNL A   1      42.382  24.505  26.345  1.00  0.00     0.091 A 
ATOM     85  F   UNL A   1      41.423  24.631  28.526  1.00  0.00    -0.205 F 
ATOM     86  C   UNL A   1      42.994  25.156  25.262  1.00  0.00     0.022 A 
BRANCH  84  87
ATOM     87  S   UNL A   1      42.139  22.731  26.198  1.00  0.00     0.127 S 
ATOM     88  O   UNL A   1      42.775  22.448  24.914  1.00  0.00    -0.237 OA
ATOM     89  O   UNL A   1      42.864  22.231  27.367  1.00  0.00    -0.237 OA
ATOM     90  O   UNL A   1      40.698  22.526  26.247  1.00  0.00    -0.744 OA
ENDBRANCH  84  87
ENDBRANCH  56  80
BRANCH  68  91
ATOM     91  C   UNL A   1      45.426  27.054  33.858  1.00  0.00     0.023 A 
ATOM     92  C   UNL A   1      45.276  25.838  34.555  1.00  0.00     0.012 A 
ATOM     93  C   UNL A   1      46.716  27.583  33.658  1.00  0.00     0.148 A 
ATOM     94  C   UNL A   1      46.390  25.174  35.067  1.00  0.00     0.002 A 
ATOM     95  C   UNL A   1      47.826  26.890  34.126  1.00  0.00     0.091 A 
ATOM     96  F   UNL A   1      46.834  28.748  33.004  1.00  0.00    -0.205 F 
ATOM     97  C   UNL A   1      47.664  25.693  34.842  1.00  0.00     0.022 A 
BRANCH  95  98
ATOM     98  S   UNL A   1      49.509  27.425  33.802  1.00  0.00     0.127 S 
ATOM     99  O   UNL A   1      50.287  26.347  34.412  1.00  0.00    -0.237 OA
ATOM    100  O   UNL A   1      49.547  27.453  32.340  1.00  0.00    -0.237 OA
ATOM    101  O   UNL A   1      49.650  28.727  34.440  1.00  0.00    -0.744 OA
ENDBRANCH  95  98
ENDBRANCH  68  91
ENDBRANCH  42  43
ENDBRANCH  34  37
ENDBRANCH  32  33
ENDBRANCH   1  32
TORSDOF 18
ENDMDL
