MODEL 1
REMARK VINA RESULT:     -12.1      0.000      0.000
REMARK SMILES COCCS(=O)(=O)N1C[C@@H](C(=O)NCCCNC(=O)c2ccc(-c3c4nc(c(-c5cccc(S(=O)(=O)[O-])c5F)c5ccc([nH]5)c(-c5cccc(S(=O)(=O)[O-])c5F)c5nc(c(-c6cccc(S(=O)(=O)[O-])c6F)c6ccc3[nH]6)C=C5)C=C4)cc2)c2ccccc21
REMARK SMILES IDX 14 1 13 2 11 3 12 4 10 6 8 7 9 8 88 9 83 10 87 11 84 12
REMARK SMILES IDX 86 13 85 14 5 15 6 16 7 17 4 18 3 19 2 20 1 21 15 22 16 23
REMARK SMILES IDX 17 24 18 25 19 27 20 28 21 29 82 30 22 31 81 32 23 33 24 34
REMARK SMILES IDX 25 35 75 36 26 37 80 38 74 39 76 40 27 41 79 42 73 43 72 44
REMARK SMILES IDX 28 46 60 47 40 48 59 49 41 50 44 51 58 52 77 53 42 54 43 55
REMARK SMILES IDX 57 57 78 58 45 59 29 60 30 61 38 62 31 63 33 64 39 65 32 66
REMARK SMILES IDX 34 67 35 68 36 69 37 70 61 71 62 72 70 73 63 74 65 75 71 76
REMARK SMILES IDX 64 77 66 78 67 79 68 80 69 81 46 82 47 83 55 84 48 85 50 86
REMARK SMILES IDX 56 87 49 88 51 89 52 90 53 91 54 92
REMARK H PARENT 13 5 17 26 76 45 44 56
REMARK Flexibility Score: inf
ROOT
ATOM      1  C   UNL A   1      32.582  29.769  24.887  1.00  0.00     0.117 C 
ENDROOT
BRANCH   1   2
ATOM      2  N   UNL A   1      33.442  29.288  23.826  1.00  0.00    -0.355 N 
ATOM      3  C   UNL A   1      33.142  28.659  22.661  1.00  0.00     0.229 C 
ATOM      4  O   UNL A   1      34.090  28.399  21.910  1.00  0.00    -0.274 OA
ATOM      5  H   UNL A   1      34.403  29.443  23.975  1.00  0.00     0.163 HD
BRANCH   3   6
ATOM      6  C   UNL A   1      31.734  28.271  22.262  1.00  0.00     0.131 C 
ATOM      7  N   UNL A   1      29.416  28.879  22.421  1.00  0.00    -0.269 N 
ATOM      8  C   UNL A   1      30.743  29.425  22.006  1.00  0.00     0.153 C 
ATOM      9  C   UNL A   1      29.615  27.702  23.193  1.00  0.00     0.056 A 
ATOM     10  C   UNL A   1      30.979  27.386  23.217  1.00  0.00    -0.009 A 
ATOM     11  C   UNL A   1      28.698  26.900  23.842  1.00  0.00     0.027 A 
ATOM     12  C   UNL A   1      31.457  26.320  23.966  1.00  0.00     0.007 A 
ATOM     13  C   UNL A   1      29.173  25.853  24.638  1.00  0.00     0.002 A 
ATOM     14  C   UNL A   1      30.546  25.574  24.712  1.00  0.00     0.000 A 
BRANCH   7  15
ATOM     15  S   UNL A   1      28.016  29.769  22.289  1.00  0.00     0.237 S 
ATOM     16  O   UNL A   1      26.954  29.118  23.021  1.00  0.00    -0.206 OA
ATOM     17  O   UNL A   1      27.847  30.046  20.871  1.00  0.00    -0.206 OA
BRANCH  15  18
ATOM     18  C   UNL A   1      28.351  31.352  23.058  1.00  0.00     0.188 C 
BRANCH  18  19
ATOM     19  C   UNL A   1      28.170  32.543  22.133  1.00  0.00     0.178 C 
BRANCH  19  20
ATOM     20  O   UNL A   1      28.422  33.795  22.776  1.00  0.00    -0.384 OA
ATOM     21  C   UNL A   1      29.648  33.849  23.485  1.00  0.00     0.194 C 
ENDBRANCH  19  20
ENDBRANCH  18  19
ENDBRANCH  15  18
ENDBRANCH   7  15
ENDBRANCH   3   6
ENDBRANCH   1   2
BRANCH   1  22
ATOM     22  C   UNL A   1      32.781  29.035  26.205  1.00  0.00     0.042 C 
BRANCH  22  23
ATOM     23  C   UNL A   1      32.586  29.888  27.450  1.00  0.00     0.118 C 
BRANCH  23  24
ATOM     24  N   UNL A   1      32.841  31.302  27.214  1.00  0.00    -0.352 N 
ATOM     25  C   UNL A   1      33.915  32.087  27.559  1.00  0.00     0.251 C 
ATOM     26  H   UNL A   1      32.127  31.774  26.726  1.00  0.00     0.163 HD
ATOM     27  O   UNL A   1      33.833  33.304  27.406  1.00  0.00    -0.269 OA
BRANCH  25  28
ATOM     28  C   UNL A   1      35.148  31.493  28.126  1.00  0.00     0.039 A 
ATOM     29  C   UNL A   1      36.302  32.279  28.191  1.00  0.00     0.014 A 
ATOM     30  C   UNL A   1      35.188  30.168  28.566  1.00  0.00     0.014 A 
ATOM     31  C   UNL A   1      37.470  31.754  28.753  1.00  0.00     0.010 A 
ATOM     32  C   UNL A   1      36.320  29.681  29.217  1.00  0.00     0.010 A 
ATOM     33  C   UNL A   1      37.479  30.462  29.308  1.00  0.00    -0.014 A 
BRANCH  33  34
ATOM     34  C   UNL A   1      38.689  29.935  29.994  1.00  0.00     0.031 A 
ATOM     35  C   UNL A   1      39.071  30.419  31.370  1.00  0.00     0.074 A 
ATOM     36  C   UNL A   1      39.485  29.056  29.350  1.00  0.00     0.049 A 
ATOM     37  N   UNL A   1      40.086  30.064  32.115  1.00  0.00    -0.248 NA
ATOM     38  C   UNL A   1      38.219  31.454  31.980  1.00  0.00     0.031 C 
ATOM     39  C   UNL A   1      39.279  28.576  27.981  1.00  0.00     0.029 A 
ATOM     40  N   UNL A   1      40.632  28.420  29.752  1.00  0.00    -0.354 N 
ATOM     41  C   UNL A   1      40.012  30.845  33.263  1.00  0.00     0.074 A 
ATOM     42  C   UNL A   1      38.876  31.726  33.098  1.00  0.00     0.031 C 
ATOM     43  C   UNL A   1      40.253  27.706  27.667  1.00  0.00     0.029 A 
ATOM     44  C   UNL A   1      41.169  27.590  28.796  1.00  0.00     0.049 A 
ATOM     45  H   UNL A   1      41.033  28.546  30.643  1.00  0.00     0.167 HD
ATOM     46  C   UNL A   1      40.793  30.812  34.368  1.00  0.00     0.034 A 
ATOM     47  C   UNL A   1      42.275  26.822  28.822  1.00  0.00     0.034 A 
ATOM     48  C   UNL A   1      41.904  29.914  34.545  1.00  0.00     0.049 A 
ATOM     49  C   UNL A   1      43.102  26.776  30.078  1.00  0.00     0.074 A 
ATOM     50  C   UNL A   1      42.711  29.752  35.658  1.00  0.00     0.029 A 
ATOM     51  N   UNL A   1      42.371  29.034  33.583  1.00  0.00    -0.354 N 
ATOM     52  N   UNL A   1      42.921  27.410  31.212  1.00  0.00    -0.248 NA
ATOM     53  C   UNL A   1      44.261  25.871  30.075  1.00  0.00     0.031 C 
ATOM     54  C   UNL A   1      43.687  28.796  35.356  1.00  0.00     0.029 A 
ATOM     55  C   UNL A   1      43.460  28.329  34.072  1.00  0.00     0.049 A 
ATOM     56  H   UNL A   1      41.987  28.924  32.683  1.00  0.00     0.167 HD
ATOM     57  C   UNL A   1      43.916  26.950  32.067  1.00  0.00     0.074 A 
ATOM     58  C   UNL A   1      44.678  25.964  31.329  1.00  0.00     0.031 C 
ATOM     59  C   UNL A   1      44.182  27.318  33.346  1.00  0.00     0.034 A 
BRANCH  46  60
ATOM     60  C   UNL A   1      40.447  31.744  35.503  1.00  0.00     0.023 A 
ATOM     61  C   UNL A   1      41.191  32.929  35.685  1.00  0.00     0.012 A 
ATOM     62  C   UNL A   1      39.347  31.487  36.344  1.00  0.00     0.148 A 
ATOM     63  C   UNL A   1      40.869  33.823  36.705  1.00  0.00     0.002 A 
ATOM     64  C   UNL A   1      39.001  32.407  37.327  1.00  0.00     0.091 A 
ATOM     65  F   UNL A   1      38.661  30.349  36.169  1.00  0.00    -0.205 F 
ATOM     66  C   UNL A   1      39.768  33.568  37.517  1.00  0.00     0.022 A 
BRANCH  64  67
ATOM     67  S   UNL A   1      37.552  32.216  38.371  1.00  0.00     0.127 S 
ATOM     68  O   UNL A   1      38.055  32.686  39.661  1.00  0.00    -0.237 OA
ATOM     69  O   UNL A   1      36.591  33.114  37.728  1.00  0.00    -0.237 OA
ATOM     70  O   UNL A   1      37.199  30.806  38.319  1.00  0.00    -0.744 OA
ENDBRANCH  64  67
ENDBRANCH  46  60
BRANCH  47  71
ATOM     71  C   UNL A   1      42.637  25.984  27.643  1.00  0.00     0.023 A 
ATOM     72  C   UNL A   1      43.449  26.525  26.627  1.00  0.00     0.012 A 
ATOM     73  C   UNL A   1      42.183  24.657  27.525  1.00  0.00     0.148 A 
ATOM     74  C   UNL A   1      43.764  25.776  25.493  1.00  0.00     0.002 A 
ATOM     75  C   UNL A   1      42.550  23.896  26.422  1.00  0.00     0.091 A 
ATOM     76  F   UNL A   1      41.406  24.162  28.497  1.00  0.00    -0.205 F 
ATOM     77  C   UNL A   1      43.322  24.460  25.394  1.00  0.00     0.022 A 
BRANCH  75  78
ATOM     78  S   UNL A   1      42.139  22.153  26.277  1.00  0.00     0.127 S 
ATOM     79  O   UNL A   1      40.685  22.199  26.148  1.00  0.00    -0.237 OA
ATOM     80  O   UNL A   1      42.856  21.775  25.059  1.00  0.00    -0.237 OA
ATOM     81  O   UNL A   1      42.648  21.528  27.491  1.00  0.00    -0.744 OA
ENDBRANCH  75  78
ENDBRANCH  47  71
BRANCH  59  82
ATOM     82  C   UNL A   1      45.313  26.613  34.049  1.00  0.00     0.023 A 
ATOM     83  C   UNL A   1      46.630  27.110  33.953  1.00  0.00     0.012 A 
ATOM     84  C   UNL A   1      45.063  25.470  34.833  1.00  0.00     0.148 A 
ATOM     85  C   UNL A   1      47.685  26.448  34.581  1.00  0.00     0.002 A 
ATOM     86  C   UNL A   1      46.111  24.849  35.503  1.00  0.00     0.091 A 
ATOM     87  F   UNL A   1      43.809  25.000  34.900  1.00  0.00    -0.205 F 
ATOM     88  C   UNL A   1      47.424  25.325  35.363  1.00  0.00     0.022 A 
BRANCH  86  89
ATOM     89  S   UNL A   1      45.852  23.460  36.612  1.00  0.00     0.127 S 
ATOM     90  O   UNL A   1      47.223  23.118  36.985  1.00  0.00    -0.237 OA
ATOM     91  O   UNL A   1      45.060  24.063  37.685  1.00  0.00    -0.237 OA
ATOM     92  O   UNL A   1      45.144  22.453  35.833  1.00  0.00    -0.744 OA
ENDBRANCH  86  89
ENDBRANCH  59  82
ENDBRANCH  33  34
ENDBRANCH  25  28
ENDBRANCH  23  24
ENDBRANCH  22  23
ENDBRANCH   1  22
TORSDOF 17
ENDMDL
MODEL 2
REMARK VINA RESULT:     -11.8      3.189      8.907
REMARK SMILES COCCS(=O)(=O)N1C[C@@H](C(=O)NCCCNC(=O)c2ccc(-c3c4nc(c(-c5cccc(S(=O)(=O)[O-])c5F)c5ccc([nH]5)c(-c5cccc(S(=O)(=O)[O-])c5F)c5nc(c(-c6cccc(S(=O)(=O)[O-])c6F)c6ccc3[nH]6)C=C5)C=C4)cc2)c2ccccc21
REMARK SMILES IDX 14 1 13 2 11 3 12 4 10 6 8 7 9 8 88 9 83 10 87 11 84 12
REMARK SMILES IDX 86 13 85 14 5 15 6 16 7 17 4 18 3 19 2 20 1 21 15 22 16 23
REMARK SMILES IDX 17 24 18 25 19 27 20 28 21 29 82 30 22 31 81 32 23 33 24 34
REMARK SMILES IDX 25 35 75 36 26 37 80 38 74 39 76 40 27 41 79 42 73 43 72 44
REMARK SMILES IDX 28 46 60 47 40 48 59 49 41 50 44 51 58 52 77 53 42 54 43 55
REMARK SMILES IDX 57 57 78 58 45 59 29 60 30 61 38 62 31 63 33 64 39 65 32 66
REMARK SMILES IDX 34 67 35 68 36 69 37 70 61 71 62 72 70 73 63 74 65 75 71 76
REMARK SMILES IDX 64 77 66 78 67 79 68 80 69 81 46 82 47 83 55 84 48 85 50 86
REMARK SMILES IDX 56 87 49 88 51 89 52 90 53 91 54 92
REMARK H PARENT 13 5 17 26 76 45 44 56
REMARK Flexibility Score: inf
ROOT
ATOM      1  C   UNL A   1      31.374  30.817  26.369  1.00  0.00     0.117 C 
ENDROOT
BRANCH   1   2
ATOM      2  N   UNL A   1      32.581  30.160  26.827  1.00  0.00    -0.355 N 
ATOM      3  C   UNL A   1      33.023  28.890  26.637  1.00  0.00     0.229 C 
ATOM      4  O   UNL A   1      34.129  28.611  27.114  1.00  0.00    -0.274 OA
ATOM      5  H   UNL A   1      33.178  30.729  27.365  1.00  0.00     0.163 HD
BRANCH   3   6
ATOM      6  C   UNL A   1      32.233  27.835  25.892  1.00  0.00     0.131 C 
ATOM      7  N   UNL A   1      31.959  25.474  25.550  1.00  0.00    -0.269 N 
ATOM      8  C   UNL A   1      31.988  26.503  26.631  1.00  0.00     0.153 C 
ATOM      9  C   UNL A   1      32.502  26.031  24.360  1.00  0.00     0.056 A 
ATOM     10  C   UNL A   1      32.784  27.386  24.566  1.00  0.00    -0.009 A 
ATOM     11  C   UNL A   1      32.741  25.443  23.133  1.00  0.00     0.027 A 
ATOM     12  C   UNL A   1      33.395  28.152  23.582  1.00  0.00     0.007 A 
ATOM     13  C   UNL A   1      33.398  26.192  22.152  1.00  0.00     0.002 A 
ATOM     14  C   UNL A   1      33.738  27.533  22.381  1.00  0.00     0.000 A 
BRANCH   7  15
ATOM     15  S   UNL A   1      31.681  23.865  25.871  1.00  0.00     0.237 S 
ATOM     16  O   UNL A   1      30.781  23.318  24.880  1.00  0.00    -0.206 OA
ATOM     17  O   UNL A   1      31.329  23.790  27.281  1.00  0.00    -0.206 OA
BRANCH  15  18
ATOM     18  C   UNL A   1      33.265  23.041  25.718  1.00  0.00     0.188 C 
BRANCH  18  19
ATOM     19  C   UNL A   1      33.254  21.588  26.163  1.00  0.00     0.178 C 
BRANCH  19  20
ATOM     20  O   UNL A   1      34.372  20.844  25.672  1.00  0.00    -0.384 OA
ATOM     21  C   UNL A   1      34.025  19.756  24.834  1.00  0.00     0.194 C 
ENDBRANCH  19  20
ENDBRANCH  18  19
ENDBRANCH  15  18
ENDBRANCH   7  15
ENDBRANCH   3   6
ENDBRANCH   1   2
BRANCH   1  22
ATOM     22  C   UNL A   1      31.411  32.329  26.532  1.00  0.00     0.042 C 
BRANCH  22  23
ATOM     23  C   UNL A   1      32.609  32.862  27.307  1.00  0.00     0.118 C 
BRANCH  23  24
ATOM     24  N   UNL A   1      32.459  34.258  27.692  1.00  0.00    -0.352 N 
ATOM     25  C   UNL A   1      33.085  34.987  28.674  1.00  0.00     0.251 C 
ATOM     26  H   UNL A   1      31.801  34.764  27.161  1.00  0.00     0.163 HD
ATOM     27  O   UNL A   1      32.668  36.114  28.932  1.00  0.00    -0.269 OA
BRANCH  25  28
ATOM     28  C   UNL A   1      34.229  34.428  29.432  1.00  0.00     0.039 A 
ATOM     29  C   UNL A   1      33.976  33.761  30.634  1.00  0.00     0.014 A 
ATOM     30  C   UNL A   1      35.545  34.578  28.989  1.00  0.00     0.014 A 
ATOM     31  C   UNL A   1      35.034  33.194  31.352  1.00  0.00     0.010 A 
ATOM     32  C   UNL A   1      36.584  33.927  29.651  1.00  0.00     0.010 A 
ATOM     33  C   UNL A   1      36.345  33.237  30.846  1.00  0.00    -0.014 A 
BRANCH  33  34
ATOM     34  C   UNL A   1      37.459  32.552  31.556  1.00  0.00     0.031 A 
ATOM     35  C   UNL A   1      38.193  31.403  30.914  1.00  0.00     0.074 A 
ATOM     36  C   UNL A   1      37.774  32.929  32.811  1.00  0.00     0.049 A 
ATOM     37  N   UNL A   1      39.189  30.696  31.384  1.00  0.00    -0.248 NA
ATOM     38  C   UNL A   1      37.736  30.971  29.582  1.00  0.00     0.031 C 
ATOM     39  C   UNL A   1      37.082  33.967  33.582  1.00  0.00     0.029 A 
ATOM     40  N   UNL A   1      38.747  32.478  33.668  1.00  0.00    -0.354 N 
ATOM     41  C   UNL A   1      39.459  29.727  30.426  1.00  0.00     0.074 A 
ATOM     42  C   UNL A   1      38.493  29.906  29.364  1.00  0.00     0.031 C 
ATOM     43  C   UNL A   1      37.666  34.086  34.785  1.00  0.00     0.029 A 
ATOM     44  C   UNL A   1      38.750  33.115  34.887  1.00  0.00     0.049 A 
ATOM     45  H   UNL A   1      39.383  31.764  33.431  1.00  0.00     0.167 HD
ATOM     46  C   UNL A   1      40.441  28.794  30.410  1.00  0.00     0.034 A 
ATOM     47  C   UNL A   1      39.536  32.940  35.967  1.00  0.00     0.034 A 
ATOM     48  C   UNL A   1      41.421  28.636  31.453  1.00  0.00     0.049 A 
ATOM     49  C   UNL A   1      40.643  31.922  35.906  1.00  0.00     0.074 A 
ATOM     50  C   UNL A   1      42.500  27.770  31.495  1.00  0.00     0.029 A 
ATOM     51  N   UNL A   1      41.438  29.352  32.639  1.00  0.00    -0.354 N 
ATOM     52  N   UNL A   1      40.977  31.121  34.923  1.00  0.00    -0.248 NA
ATOM     53  C   UNL A   1      41.511  31.818  37.088  1.00  0.00     0.031 C 
ATOM     54  C   UNL A   1      43.150  27.940  32.723  1.00  0.00     0.029 A 
ATOM     55  C   UNL A   1      42.504  28.944  33.424  1.00  0.00     0.049 A 
ATOM     56  H   UNL A   1      40.788  30.049  32.888  1.00  0.00     0.167 HD
ATOM     57  C   UNL A   1      42.116  30.449  35.351  1.00  0.00     0.074 A 
ATOM     58  C   UNL A   1      42.430  30.959  36.670  1.00  0.00     0.031 C 
ATOM     59  C   UNL A   1      42.833  29.489  34.715  1.00  0.00     0.034 A 
BRANCH  46  60
ATOM     60  C   UNL A   1      40.539  27.895  29.203  1.00  0.00     0.023 A 
ATOM     61  C   UNL A   1      39.674  26.786  29.086  1.00  0.00     0.012 A 
ATOM     62  C   UNL A   1      41.434  28.183  28.154  1.00  0.00     0.148 A 
ATOM     63  C   UNL A   1      39.721  25.961  27.963  1.00  0.00     0.002 A 
ATOM     64  C   UNL A   1      41.441  27.385  27.016  1.00  0.00     0.091 A 
ATOM     65  F   UNL A   1      42.261  29.229  28.288  1.00  0.00    -0.205 F 
ATOM     66  C   UNL A   1      40.595  26.267  26.924  1.00  0.00     0.022 A 
BRANCH  64  67
ATOM     67  S   UNL A   1      42.468  27.740  25.586  1.00  0.00     0.127 S 
ATOM     68  O   UNL A   1      42.236  26.558  24.756  1.00  0.00    -0.237 OA
ATOM     69  O   UNL A   1      41.865  28.972  25.074  1.00  0.00    -0.237 OA
ATOM     70  O   UNL A   1      43.825  27.889  26.089  1.00  0.00    -0.744 OA
ENDBRANCH  64  67
ENDBRANCH  46  60
BRANCH  47  71
ATOM     71  C   UNL A   1      39.347  33.786  37.180  1.00  0.00     0.023 A 
ATOM     72  C   UNL A   1      39.847  35.103  37.195  1.00  0.00     0.012 A 
ATOM     73  C   UNL A   1      38.675  33.296  38.314  1.00  0.00     0.148 A 
ATOM     74  C   UNL A   1      39.723  35.899  38.333  1.00  0.00     0.002 A 
ATOM     75  C   UNL A   1      38.500  34.114  39.423  1.00  0.00     0.091 A 
ATOM     76  F   UNL A   1      38.212  32.038  38.284  1.00  0.00    -0.205 F 
ATOM     77  C   UNL A   1      39.042  35.408  39.444  1.00  0.00     0.022 A 
BRANCH  75  78
ATOM     78  S   UNL A   1      37.522  33.612  40.843  1.00  0.00     0.127 S 
ATOM     79  O   UNL A   1      38.378  32.599  41.454  1.00  0.00    -0.237 OA
ATOM     80  O   UNL A   1      37.413  34.864  41.593  1.00  0.00    -0.237 OA
ATOM     81  O   UNL A   1      36.259  33.128  40.299  1.00  0.00    -0.744 OA
ENDBRANCH  75  78
ENDBRANCH  47  71
BRANCH  59  82
ATOM     82  C   UNL A   1      44.061  28.964  35.414  1.00  0.00     0.023 A 
ATOM     83  C   UNL A   1      45.327  29.524  35.146  1.00  0.00     0.012 A 
ATOM     84  C   UNL A   1      43.952  27.930  36.366  1.00  0.00     0.148 A 
ATOM     85  C   UNL A   1      46.470  29.026  35.770  1.00  0.00     0.002 A 
ATOM     86  C   UNL A   1      45.088  27.479  37.028  1.00  0.00     0.091 A 
ATOM     87  F   UNL A   1      42.744  27.397  36.597  1.00  0.00    -0.205 F 
ATOM     88  C   UNL A   1      46.349  28.012  36.718  1.00  0.00     0.022 A 
BRANCH  86  89
ATOM     89  S   UNL A   1      45.012  26.249  38.334  1.00  0.00     0.127 S 
ATOM     90  O   UNL A   1      44.471  25.093  37.623  1.00  0.00    -0.237 OA
ATOM     91  O   UNL A   1      46.417  26.123  38.724  1.00  0.00    -0.237 OA
ATOM     92  O   UNL A   1      44.149  26.812  39.364  1.00  0.00    -0.744 OA
ENDBRANCH  86  89
ENDBRANCH  59  82
ENDBRANCH  33  34
ENDBRANCH  25  28
ENDBRANCH  23  24
ENDBRANCH  22  23
ENDBRANCH   1  22
TORSDOF 17
ENDMDL
MODEL 3
REMARK VINA RESULT:     -11.7      6.804     10.040
REMARK SMILES COCCS(=O)(=O)N1C[C@@H](C(=O)NCCCNC(=O)c2ccc(-c3c4nc(c(-c5cccc(S(=O)(=O)[O-])c5F)c5ccc([nH]5)c(-c5cccc(S(=O)(=O)[O-])c5F)c5nc(c(-c6cccc(S(=O)(=O)[O-])c6F)c6ccc3[nH]6)C=C5)C=C4)cc2)c2ccccc21
REMARK SMILES IDX 14 1 13 2 11 3 12 4 10 6 8 7 9 8 88 9 83 10 87 11 84 12
REMARK SMILES IDX 86 13 85 14 5 15 6 16 7 17 4 18 3 19 2 20 1 21 15 22 16 23
REMARK SMILES IDX 17 24 18 25 19 27 20 28 21 29 82 30 22 31 81 32 23 33 24 34
REMARK SMILES IDX 25 35 75 36 26 37 80 38 74 39 76 40 27 41 79 42 73 43 72 44
REMARK SMILES IDX 28 46 60 47 40 48 59 49 41 50 44 51 58 52 77 53 42 54 43 55
REMARK SMILES IDX 57 57 78 58 45 59 29 60 30 61 38 62 31 63 33 64 39 65 32 66
REMARK SMILES IDX 34 67 35 68 36 69 37 70 61 71 62 72 70 73 63 74 65 75 71 76
REMARK SMILES IDX 64 77 66 78 67 79 68 80 69 81 46 82 47 83 55 84 48 85 50 86
REMARK SMILES IDX 56 87 49 88 51 89 52 90 53 91 54 92
REMARK H PARENT 13 5 17 26 76 45 44 56
REMARK Flexibility Score: inf
ROOT
ATOM      1  C   UNL A   1      37.645  20.552  24.510  1.00  0.00     0.117 C 
ENDROOT
BRANCH   1   2
ATOM      2  N   UNL A   1      37.646  21.829  25.191  1.00  0.00    -0.355 N 
ATOM      3  C   UNL A   1      36.619  22.573  25.678  1.00  0.00     0.229 C 
ATOM      4  O   UNL A   1      36.920  23.620  26.263  1.00  0.00    -0.274 OA
ATOM      5  H   UNL A   1      38.539  22.224  25.322  1.00  0.00     0.163 HD
BRANCH   3   6
ATOM      6  C   UNL A   1      35.163  22.182  25.531  1.00  0.00     0.131 C 
ATOM      7  N   UNL A   1      33.657  20.569  24.584  1.00  0.00    -0.269 N 
ATOM      8  C   UNL A   1      34.855  20.672  25.469  1.00  0.00     0.153 C 
ATOM      9  C   UNL A   1      33.489  21.794  23.880  1.00  0.00     0.056 A 
ATOM     10  C   UNL A   1      34.435  22.722  24.329  1.00  0.00    -0.009 A 
ATOM     11  C   UNL A   1      32.570  22.142  22.911  1.00  0.00     0.027 A 
ATOM     12  C   UNL A   1      34.540  23.980  23.752  1.00  0.00     0.007 A 
ATOM     13  C   UNL A   1      32.697  23.389  22.289  1.00  0.00     0.002 A 
ATOM     14  C   UNL A   1      33.686  24.296  22.696  1.00  0.00     0.000 A 
BRANCH   7  15
ATOM     15  S   UNL A   1      32.929  19.111  24.249  1.00  0.00     0.237 S 
ATOM     16  O   UNL A   1      32.337  19.152  22.932  1.00  0.00    -0.206 OA
ATOM     17  O   UNL A   1      32.097  18.801  25.402  1.00  0.00    -0.206 OA
BRANCH  15  18
ATOM     18  C   UNL A   1      34.236  17.885  24.248  1.00  0.00     0.188 C 
BRANCH  18  19
ATOM     19  C   UNL A   1      33.807  16.520  23.738  1.00  0.00     0.178 C 
BRANCH  19  20
ATOM     20  O   UNL A   1      33.903  15.496  24.731  1.00  0.00    -0.384 OA
ATOM     21  C   UNL A   1      32.683  15.212  25.393  1.00  0.00     0.194 C 
ENDBRANCH  19  20
ENDBRANCH  18  19
ENDBRANCH  15  18
ENDBRANCH   7  15
ENDBRANCH   3   6
ENDBRANCH   1   2
BRANCH   1  22
ATOM     22  C   UNL A   1      38.370  19.457  25.279  1.00  0.00     0.042 C 
BRANCH  22  23
ATOM     23  C   UNL A   1      39.586  19.924  26.066  1.00  0.00     0.118 C 
BRANCH  23  24
ATOM     24  N   UNL A   1      40.692  18.979  26.013  1.00  0.00    -0.352 N 
ATOM     25  C   UNL A   1      42.050  19.189  26.044  1.00  0.00     0.251 C 
ATOM     26  H   UNL A   1      40.424  18.034  25.944  1.00  0.00     0.163 HD
ATOM     27  O   UNL A   1      42.801  18.244  25.809  1.00  0.00    -0.269 OA
BRANCH  25  28
ATOM     28  C   UNL A   1      42.613  20.528  26.333  1.00  0.00     0.039 A 
ATOM     29  C   UNL A   1      43.191  21.253  25.287  1.00  0.00     0.014 A 
ATOM     30  C   UNL A   1      42.604  21.065  27.622  1.00  0.00     0.014 A 
ATOM     31  C   UNL A   1      43.698  22.534  25.525  1.00  0.00     0.010 A 
ATOM     32  C   UNL A   1      43.016  22.379  27.836  1.00  0.00     0.010 A 
ATOM     33  C   UNL A   1      43.580  23.126  26.794  1.00  0.00    -0.014 A 
BRANCH  33  34
ATOM     34  C   UNL A   1      44.029  24.524  27.029  1.00  0.00     0.031 A 
ATOM     35  C   UNL A   1      43.078  25.561  27.570  1.00  0.00     0.074 A 
ATOM     36  C   UNL A   1      45.288  24.879  26.699  1.00  0.00     0.049 A 
ATOM     37  N   UNL A   1      43.301  26.823  27.840  1.00  0.00    -0.248 NA
ATOM     38  C   UNL A   1      41.689  25.139  27.817  1.00  0.00     0.031 C 
ATOM     39  C   UNL A   1      46.282  23.995  26.082  1.00  0.00     0.029 A 
ATOM     40  N   UNL A   1      45.945  26.078  26.820  1.00  0.00    -0.354 N 
ATOM     41  C   UNL A   1      42.084  27.347  28.260  1.00  0.00     0.074 A 
ATOM     42  C   UNL A   1      41.113  26.279  28.167  1.00  0.00     0.031 C 
ATOM     43  C   UNL A   1      47.425  24.675  25.902  1.00  0.00     0.029 A 
ATOM     44  C   UNL A   1      47.240  26.048  26.356  1.00  0.00     0.049 A 
ATOM     45  H   UNL A   1      45.528  26.884  27.204  1.00  0.00     0.167 HD
ATOM     46  C   UNL A   1      41.804  28.592  28.713  1.00  0.00     0.034 A 
ATOM     47  C   UNL A   1      48.175  27.017  26.302  1.00  0.00     0.034 A 
ATOM     48  C   UNL A   1      42.777  29.645  28.834  1.00  0.00     0.049 A 
ATOM     49  C   UNL A   1      47.846  28.379  26.849  1.00  0.00     0.074 A 
ATOM     50  C   UNL A   1      42.608  30.918  29.352  1.00  0.00     0.029 A 
ATOM     51  N   UNL A   1      44.098  29.554  28.425  1.00  0.00    -0.354 N 
ATOM     52  N   UNL A   1      46.730  28.808  27.387  1.00  0.00    -0.248 NA
ATOM     53  C   UNL A   1      48.924  29.380  26.825  1.00  0.00     0.031 C 
ATOM     54  C   UNL A   1      43.819  31.606  29.226  1.00  0.00     0.029 A 
ATOM     55  C   UNL A   1      44.755  30.748  28.672  1.00  0.00     0.049 A 
ATOM     56  H   UNL A   1      44.510  28.758  28.018  1.00  0.00     0.167 HD
ATOM     57  C   UNL A   1      46.983  30.110  27.801  1.00  0.00     0.074 A 
ATOM     58  C   UNL A   1      48.367  30.390  27.478  1.00  0.00     0.031 C 
ATOM     59  C   UNL A   1      46.143  31.001  28.388  1.00  0.00     0.034 A 
BRANCH  46  60
ATOM     60  C   UNL A   1      40.392  28.875  29.162  1.00  0.00     0.023 A 
ATOM     61  C   UNL A   1      39.412  29.220  28.208  1.00  0.00     0.012 A 
ATOM     62  C   UNL A   1      40.018  28.734  30.513  1.00  0.00     0.148 A 
ATOM     63  C   UNL A   1      38.092  29.453  28.594  1.00  0.00     0.002 A 
ATOM     64  C   UNL A   1      38.690  28.920  30.883  1.00  0.00     0.091 A 
ATOM     65  F   UNL A   1      40.964  28.424  31.410  1.00  0.00    -0.205 F 
ATOM     66  C   UNL A   1      37.730  29.291  29.928  1.00  0.00     0.022 A 
BRANCH  64  67
ATOM     67  S   UNL A   1      38.102  28.655  32.559  1.00  0.00     0.127 S 
ATOM     68  O   UNL A   1      36.730  29.153  32.472  1.00  0.00    -0.237 OA
ATOM     69  O   UNL A   1      38.215  27.202  32.697  1.00  0.00    -0.237 OA
ATOM     70  O   UNL A   1      38.987  29.420  33.424  1.00  0.00    -0.744 OA
ENDBRANCH  64  67
ENDBRANCH  46  60
BRANCH  47  71
ATOM     71  C   UNL A   1      49.533  26.721  25.763  1.00  0.00     0.023 A 
ATOM     72  C   UNL A   1      50.469  26.042  26.568  1.00  0.00     0.012 A 
ATOM     73  C   UNL A   1      49.901  27.106  24.461  1.00  0.00     0.148 A 
ATOM     74  C   UNL A   1      51.761  25.794  26.104  1.00  0.00     0.002 A 
ATOM     75  C   UNL A   1      51.169  26.802  23.981  1.00  0.00     0.091 A 
ATOM     76  F   UNL A   1      48.999  27.757  23.712  1.00  0.00    -0.205 F 
ATOM     77  C   UNL A   1      52.108  26.166  24.807  1.00  0.00     0.022 A 
BRANCH  75  78
ATOM     78  S   UNL A   1      51.655  27.122  22.282  1.00  0.00     0.127 S 
ATOM     79  O   UNL A   1      52.830  26.267  22.141  1.00  0.00    -0.237 OA
ATOM     80  O   UNL A   1      50.475  26.678  21.541  1.00  0.00    -0.237 OA
ATOM     81  O   UNL A   1      51.904  28.556  22.209  1.00  0.00    -0.744 OA
ENDBRANCH  75  78
ENDBRANCH  47  71
BRANCH  59  82
ATOM     82  C   UNL A   1      46.712  32.344  28.767  1.00  0.00     0.023 A 
ATOM     83  C   UNL A   1      47.255  32.548  30.052  1.00  0.00     0.012 A 
ATOM     84  C   UNL A   1      46.738  33.397  27.832  1.00  0.00     0.148 A 
ATOM     85  C   UNL A   1      47.760  33.795  30.419  1.00  0.00     0.002 A 
ATOM     86  C   UNL A   1      47.297  34.620  28.186  1.00  0.00     0.091 A 
ATOM     87  F   UNL A   1      46.202  33.192  26.620  1.00  0.00    -0.205 F 
ATOM     88  C   UNL A   1      47.791  34.826  29.483  1.00  0.00     0.022 A 
BRANCH  86  89
ATOM     89  S   UNL A   1      47.469  35.970  27.014  1.00  0.00     0.127 S 
ATOM     90  O   UNL A   1      48.248  36.937  27.786  1.00  0.00    -0.237 OA
ATOM     91  O   UNL A   1      48.199  35.336  25.915  1.00  0.00    -0.237 OA
ATOM     92  O   UNL A   1      46.113  36.383  26.678  1.00  0.00    -0.744 OA
ENDBRANCH  86  89
ENDBRANCH  59  82
ENDBRANCH  33  34
ENDBRANCH  25  28
ENDBRANCH  23  24
ENDBRANCH  22  23
ENDBRANCH   1  22
TORSDOF 17
ENDMDL
