MODEL 1
REMARK VINA RESULT:     -11.7      0.000      0.000
REMARK SMILES CC[NH2+][C@@]1(C(=O)NCCCNC(=O)c2ccc(-c3c4nc(c(-c5cccc(S(=O)(=O)[O-])c5F)c5ccc([nH]5)c(-c5cccc(S(=O)(=O)[O-])c5F)c5nc(c(-c6cccc(S(=O)(=O)[O-])c6F)c6ccc3[nH]6)C=C5)C=C4)cc2)CC[C@H]([NH+]2CCS(=O)(=O)CC2)C1
REMARK SMILES IDX 9 1 8 2 7 3 5 4 6 5 4 7 77 8 88 9 78 10 79 11 3 12 2 15 1 16
REMARK SMILES IDX 80 17 81 18 87 19 82 21 86 22 83 23 84 24 85 25 10 26 11 27
REMARK SMILES IDX 12 28 13 30 14 31 15 32 76 33 16 34 75 35 17 36 18 37 19 38
REMARK SMILES IDX 69 39 20 40 74 41 68 42 70 43 21 44 73 45 67 46 66 47 22 49
REMARK SMILES IDX 54 50 34 51 53 52 35 53 38 54 52 55 71 56 36 57 37 58 51 60
REMARK SMILES IDX 72 61 39 62 23 63 24 64 32 65 25 66 27 67 33 68 26 69 28 70
REMARK SMILES IDX 29 71 30 72 31 73 55 74 56 75 64 76 57 77 59 78 65 79 58 80
REMARK SMILES IDX 60 81 61 82 62 83 63 84 40 85 41 86 49 87 42 88 44 89 50 90
REMARK SMILES IDX 43 91 45 92 46 93 47 94 48 95
REMARK H PARENT 7 6 3 13 3 14 80 20 11 29 70 48 38 59
REMARK Flexibility Score: inf
ROOT
ATOM      1  C   UNL A   1      31.604  28.910  27.260  1.00  0.00     0.042 C 
ENDROOT
BRANCH   1   2
ATOM      2  C   UNL A   1      32.151  27.471  27.245  1.00  0.00     0.118 C 
BRANCH   2   3
ATOM      3  N   UNL A   1      31.819  26.763  25.974  1.00  0.00    -0.351 N 
ATOM      4  C   UNL A   1      32.780  26.071  25.246  1.00  0.00     0.281 C 
ATOM      5  O   UNL A   1      33.523  25.293  25.856  1.00  0.00    -0.268 OA
ATOM      6  H   UNL A   1      30.892  26.788  25.641  1.00  0.00     0.163 HD
BRANCH   4   7
ATOM      7  C   UNL A   1      32.871  26.227  23.619  1.00  0.00     0.181 C 
ATOM      8  C   UNL A   1      33.413  27.659  23.306  1.00  0.00     0.085 C 
ATOM      9  C   UNL A   1      31.521  26.199  22.835  1.00  0.00     0.144 C 
ATOM     10  C   UNL A   1      32.428  28.370  22.366  1.00  0.00     0.072 C 
ATOM     11  C   UNL A   1      31.082  27.668  22.493  1.00  0.00     0.191 C 
BRANCH   7  12
ATOM     12  N   UNL A   1      33.788  25.127  23.184  1.00  0.00    -0.334 N 
ATOM     13  H   UNL A   1      34.453  25.530  22.525  1.00  0.00     0.347 HD
ATOM     14  H   UNL A   1      34.186  24.769  24.052  1.00  0.00     0.347 HD
BRANCH  12  15
ATOM     15  C   UNL A   1      33.194  23.953  22.541  1.00  0.00     0.257 C 
ATOM     16  C   UNL A   1      33.665  22.662  23.197  1.00  0.00     0.071 C 
ENDBRANCH  12  15
ENDBRANCH   7  12
BRANCH  11  17
ATOM     17  N   UNL A   1      30.097  28.292  23.382  1.00  0.00    -0.331 N 
ATOM     18  C   UNL A   1      28.701  27.867  23.398  1.00  0.00     0.278 C 
ATOM     19  C   UNL A   1      30.203  29.696  23.664  1.00  0.00     0.278 C 
ATOM     20  H   UNL A   1      30.510  27.781  24.162  1.00  0.00     0.348 HD
ATOM     21  C   UNL A   1      27.706  28.651  22.543  1.00  0.00     0.198 C 
ATOM     22  C   UNL A   1      29.652  30.615  22.613  1.00  0.00     0.198 C 
ATOM     23  S   UNL A   1      27.915  30.419  22.569  1.00  0.00     0.161 S 
ATOM     24  O   UNL A   1      27.468  30.941  21.282  1.00  0.00    -0.228 OA
ATOM     25  O   UNL A   1      27.387  30.947  23.802  1.00  0.00    -0.228 OA
ENDBRANCH  11  17
ENDBRANCH   4   7
ENDBRANCH   2   3
ENDBRANCH   1   2
BRANCH   1  26
ATOM     26  C   UNL A   1      32.385  29.985  26.490  1.00  0.00     0.118 C 
BRANCH  26  27
ATOM     27  N   UNL A   1      32.275  31.387  26.895  1.00  0.00    -0.352 N 
ATOM     28  C   UNL A   1      33.246  32.224  27.443  1.00  0.00     0.251 C 
ATOM     29  H   UNL A   1      31.389  31.796  26.764  1.00  0.00     0.163 HD
ATOM     30  O   UNL A   1      33.026  33.429  27.550  1.00  0.00    -0.269 OA
BRANCH  28  31
ATOM     31  C   UNL A   1      34.545  31.684  27.921  1.00  0.00     0.039 A 
ATOM     32  C   UNL A   1      35.633  32.541  28.133  1.00  0.00     0.014 A 
ATOM     33  C   UNL A   1      34.682  30.331  28.200  1.00  0.00     0.014 A 
ATOM     34  C   UNL A   1      36.805  32.051  28.728  1.00  0.00     0.010 A 
ATOM     35  C   UNL A   1      35.766  29.885  28.939  1.00  0.00     0.010 A 
ATOM     36  C   UNL A   1      36.859  30.726  29.191  1.00  0.00    -0.014 A 
BRANCH  36  37
ATOM     37  C   UNL A   1      38.037  30.160  29.905  1.00  0.00     0.031 A 
ATOM     38  C   UNL A   1      38.326  30.596  31.323  1.00  0.00     0.074 A 
ATOM     39  C   UNL A   1      38.916  29.375  29.248  1.00  0.00     0.049 A 
ATOM     40  N   UNL A   1      39.375  30.361  32.067  1.00  0.00    -0.248 NA
ATOM     41  C   UNL A   1      37.331  31.473  31.967  1.00  0.00     0.031 C 
ATOM     42  C   UNL A   1      38.814  28.977  27.841  1.00  0.00     0.029 A 
ATOM     43  N   UNL A   1      40.087  28.793  29.667  1.00  0.00    -0.354 N 
ATOM     44  C   UNL A   1      39.193  31.111  33.224  1.00  0.00     0.074 A 
ATOM     45  C   UNL A   1      37.979  31.870  33.051  1.00  0.00     0.031 C 
ATOM     46  C   UNL A   1      39.860  28.200  27.523  1.00  0.00     0.029 A 
ATOM     47  C   UNL A   1      40.730  28.074  28.685  1.00  0.00     0.049 A 
ATOM     48  H   UNL A   1      40.434  28.882  30.584  1.00  0.00     0.167 HD
ATOM     49  C   UNL A   1      39.937  31.129  34.356  1.00  0.00     0.034 A 
ATOM     50  C   UNL A   1      41.895  27.397  28.720  1.00  0.00     0.034 A 
ATOM     51  C   UNL A   1      41.098  30.306  34.546  1.00  0.00     0.049 A 
ATOM     52  C   UNL A   1      42.661  27.352  30.013  1.00  0.00     0.074 A 
ATOM     53  C   UNL A   1      41.868  30.148  35.683  1.00  0.00     0.029 A 
ATOM     54  N   UNL A   1      41.650  29.491  33.568  1.00  0.00    -0.354 N 
ATOM     55  N   UNL A   1      42.392  27.949  31.150  1.00  0.00    -0.248 NA
ATOM     56  C   UNL A   1      43.865  26.512  30.045  1.00  0.00     0.031 C 
ATOM     57  C   UNL A   1      42.905  29.258  35.382  1.00  0.00     0.029 A 
ATOM     58  C   UNL A   1      42.757  28.833  34.070  1.00  0.00     0.049 A 
ATOM     59  H   UNL A   1      41.304  29.396  32.651  1.00  0.00     0.167 HD
ATOM     60  C   UNL A   1      43.376  27.538  32.040  1.00  0.00     0.074 A 
ATOM     61  C   UNL A   1      44.232  26.618  31.316  1.00  0.00     0.031 C 
ATOM     62  C   UNL A   1      43.568  27.896  33.335  1.00  0.00     0.034 A 
BRANCH  49  63
ATOM     63  C   UNL A   1      39.474  32.021  35.484  1.00  0.00     0.023 A 
ATOM     64  C   UNL A   1      38.567  31.523  36.445  1.00  0.00     0.012 A 
ATOM     65  C   UNL A   1      39.937  33.346  35.601  1.00  0.00     0.148 A 
ATOM     66  C   UNL A   1      38.081  32.344  37.462  1.00  0.00     0.002 A 
ATOM     67  C   UNL A   1      39.494  34.141  36.652  1.00  0.00     0.091 A 
ATOM     68  F   UNL A   1      40.783  33.812  34.672  1.00  0.00    -0.205 F 
ATOM     69  C   UNL A   1      38.551  33.649  37.570  1.00  0.00     0.022 A 
BRANCH  67  70
ATOM     70  S   UNL A   1      40.102  35.806  36.934  1.00  0.00     0.127 S 
ATOM     71  O   UNL A   1      39.409  36.168  38.171  1.00  0.00    -0.237 OA
ATOM     72  O   UNL A   1      41.540  35.585  37.084  1.00  0.00    -0.237 OA
ATOM     73  O   UNL A   1      39.724  36.577  35.760  1.00  0.00    -0.744 OA
ENDBRANCH  67  70
ENDBRANCH  49  63
BRANCH  50  74
ATOM     74  C   UNL A   1      42.356  26.650  27.513  1.00  0.00     0.023 A 
ATOM     75  C   UNL A   1      43.142  27.307  26.546  1.00  0.00     0.012 A 
ATOM     76  C   UNL A   1      42.074  25.280  27.348  1.00  0.00     0.148 A 
ATOM     77  C   UNL A   1      43.616  26.622  25.426  1.00  0.00     0.002 A 
ATOM     78  C   UNL A   1      42.597  24.589  26.260  1.00  0.00     0.091 A 
ATOM     79  F   UNL A   1      41.319  24.673  28.275  1.00  0.00    -0.205 F 
ATOM     80  C   UNL A   1      43.354  25.261  25.289  1.00  0.00     0.022 A 
BRANCH  78  81
ATOM     81  S   UNL A   1      42.430  22.809  26.075  1.00  0.00     0.127 S 
ATOM     82  O   UNL A   1      43.145  22.317  27.249  1.00  0.00    -0.237 OA
ATOM     83  O   UNL A   1      40.978  22.638  26.120  1.00  0.00    -0.237 OA
ATOM     84  O   UNL A   1      43.034  22.487  24.788  1.00  0.00    -0.744 OA
ENDBRANCH  78  81
ENDBRANCH  50  74
BRANCH  62  85
ATOM     85  C   UNL A   1      44.727  27.270  34.061  1.00  0.00     0.023 A 
ATOM     86  C   UNL A   1      45.996  27.880  34.018  1.00  0.00     0.012 A 
ATOM     87  C   UNL A   1      44.536  26.117  34.848  1.00  0.00     0.148 A 
ATOM     88  C   UNL A   1      47.068  27.328  34.717  1.00  0.00     0.002 A 
ATOM     89  C   UNL A   1      45.595  25.606  35.586  1.00  0.00     0.091 A 
ATOM     90  F   UNL A   1      43.323  25.546  34.861  1.00  0.00    -0.205 F 
ATOM     91  C   UNL A   1      46.865  26.201  35.509  1.00  0.00     0.022 A 
BRANCH  89  92
ATOM     92  S   UNL A   1      45.401  24.223  36.714  1.00  0.00     0.127 S 
ATOM     93  O   UNL A   1      44.978  23.158  35.808  1.00  0.00    -0.237 OA
ATOM     94  O   UNL A   1      46.754  24.069  37.248  1.00  0.00    -0.237 OA
ATOM     95  O   UNL A   1      44.408  24.640  37.695  1.00  0.00    -0.744 OA
ENDBRANCH  89  92
ENDBRANCH  62  85
ENDBRANCH  36  37
ENDBRANCH  28  31
ENDBRANCH  26  27
ENDBRANCH   1  26
TORSDOF 16
ENDMDL
MODEL 2
REMARK VINA RESULT:     -11.6      2.503      4.058
REMARK SMILES CC[NH2+][C@@]1(C(=O)NCCCNC(=O)c2ccc(-c3c4nc(c(-c5cccc(S(=O)(=O)[O-])c5F)c5ccc([nH]5)c(-c5cccc(S(=O)(=O)[O-])c5F)c5nc(c(-c6cccc(S(=O)(=O)[O-])c6F)c6ccc3[nH]6)C=C5)C=C4)cc2)CC[C@H]([NH+]2CCS(=O)(=O)CC2)C1
REMARK SMILES IDX 9 1 8 2 7 3 5 4 6 5 4 7 77 8 88 9 78 10 79 11 3 12 2 15 1 16
REMARK SMILES IDX 80 17 81 18 87 19 82 21 86 22 83 23 84 24 85 25 10 26 11 27
REMARK SMILES IDX 12 28 13 30 14 31 15 32 76 33 16 34 75 35 17 36 18 37 19 38
REMARK SMILES IDX 69 39 20 40 74 41 68 42 70 43 21 44 73 45 67 46 66 47 22 49
REMARK SMILES IDX 54 50 34 51 53 52 35 53 38 54 52 55 71 56 36 57 37 58 51 60
REMARK SMILES IDX 72 61 39 62 23 63 24 64 32 65 25 66 27 67 33 68 26 69 28 70
REMARK SMILES IDX 29 71 30 72 31 73 55 74 56 75 64 76 57 77 59 78 65 79 58 80
REMARK SMILES IDX 60 81 61 82 62 83 63 84 40 85 41 86 49 87 42 88 44 89 50 90
REMARK SMILES IDX 43 91 45 92 46 93 47 94 48 95
REMARK H PARENT 7 6 3 13 3 14 80 20 11 29 70 48 38 59
REMARK Flexibility Score: inf
ROOT
ATOM      1  C   UNL A   1      31.729  28.712  26.602  1.00  0.00     0.042 C 
ENDROOT
BRANCH   1   2
ATOM      2  C   UNL A   1      32.231  27.283  26.879  1.00  0.00     0.118 C 
BRANCH   2   3
ATOM      3  N   UNL A   1      32.078  26.398  25.687  1.00  0.00    -0.351 N 
ATOM      4  C   UNL A   1      32.838  25.246  25.525  1.00  0.00     0.281 C 
ATOM      5  O   UNL A   1      32.932  24.471  26.484  1.00  0.00    -0.268 OA
ATOM      6  H   UNL A   1      31.418  26.638  24.996  1.00  0.00     0.163 HD
BRANCH   4   7
ATOM      7  C   UNL A   1      33.525  24.893  24.081  1.00  0.00     0.181 C 
ATOM      8  C   UNL A   1      32.411  24.316  23.151  1.00  0.00     0.085 C 
ATOM      9  C   UNL A   1      34.595  23.756  24.072  1.00  0.00     0.144 C 
ATOM     10  C   UNL A   1      32.862  22.944  22.627  1.00  0.00     0.072 C 
ATOM     11  C   UNL A   1      33.938  22.421  23.569  1.00  0.00     0.191 C 
BRANCH   7  12
ATOM     12  N   UNL A   1      34.093  26.194  23.605  1.00  0.00    -0.334 N 
ATOM     13  H   UNL A   1      33.992  26.865  24.365  1.00  0.00     0.347 HD
ATOM     14  H   UNL A   1      35.052  25.970  23.337  1.00  0.00     0.347 HD
BRANCH  12  15
ATOM     15  C   UNL A   1      33.510  26.799  22.407  1.00  0.00     0.257 C 
ATOM     16  C   UNL A   1      32.945  28.182  22.702  1.00  0.00     0.071 C 
ENDBRANCH  12  15
ENDBRANCH   7  12
BRANCH  11  17
ATOM     17  N   UNL A   1      33.506  21.466  24.594  1.00  0.00    -0.331 N 
ATOM     18  C   UNL A   1      34.446  20.555  25.239  1.00  0.00     0.278 C 
ATOM     19  C   UNL A   1      32.210  20.857  24.478  1.00  0.00     0.278 C 
ATOM     20  H   UNL A   1      33.434  22.239  25.254  1.00  0.00     0.348 HD
ATOM     21  C   UNL A   1      34.578  19.142  24.669  1.00  0.00     0.198 C 
ATOM     22  C   UNL A   1      32.117  19.695  23.532  1.00  0.00     0.198 C 
ATOM     23  S   UNL A   1      33.044  18.371  24.200  1.00  0.00     0.161 S 
ATOM     24  O   UNL A   1      33.322  17.458  23.096  1.00  0.00    -0.228 OA
ATOM     25  O   UNL A   1      32.357  17.911  25.381  1.00  0.00    -0.228 OA
ENDBRANCH  11  17
ENDBRANCH   4   7
ENDBRANCH   2   3
ENDBRANCH   1   2
BRANCH   1  26
ATOM     26  C   UNL A   1      32.772  29.791  26.279  1.00  0.00     0.118 C 
BRANCH  26  27
ATOM     27  N   UNL A   1      32.617  31.134  26.837  1.00  0.00    -0.352 N 
ATOM     28  C   UNL A   1      33.552  31.924  27.504  1.00  0.00     0.251 C 
ATOM     29  H   UNL A   1      31.726  31.538  26.727  1.00  0.00     0.163 HD
ATOM     30  O   UNL A   1      33.301  33.104  27.742  1.00  0.00    -0.269 OA
BRANCH  28  31
ATOM     31  C   UNL A   1      34.850  31.361  27.956  1.00  0.00     0.039 A 
ATOM     32  C   UNL A   1      35.984  32.180  28.049  1.00  0.00     0.014 A 
ATOM     33  C   UNL A   1      34.944  30.027  28.330  1.00  0.00     0.014 A 
ATOM     34  C   UNL A   1      37.164  31.680  28.620  1.00  0.00     0.010 A 
ATOM     35  C   UNL A   1      36.046  29.587  29.046  1.00  0.00     0.010 A 
ATOM     36  C   UNL A   1      37.186  30.392  29.178  1.00  0.00    -0.014 A 
BRANCH  36  37
ATOM     37  C   UNL A   1      38.375  29.826  29.873  1.00  0.00     0.031 A 
ATOM     38  C   UNL A   1      38.728  30.314  31.259  1.00  0.00     0.074 A 
ATOM     39  C   UNL A   1      39.208  28.989  29.220  1.00  0.00     0.049 A 
ATOM     40  N   UNL A   1      39.799  30.083  31.974  1.00  0.00    -0.248 NA
ATOM     41  C   UNL A   1      37.781  31.246  31.899  1.00  0.00     0.031 C 
ATOM     42  C   UNL A   1      39.042  28.533  27.837  1.00  0.00     0.029 A 
ATOM     43  N   UNL A   1      40.378  28.394  29.622  1.00  0.00    -0.354 N 
ATOM     44  C   UNL A   1      39.680  30.888  33.102  1.00  0.00     0.074 A 
ATOM     45  C   UNL A   1      38.480  31.672  32.939  1.00  0.00     0.031 C 
ATOM     46  C   UNL A   1      40.055  27.714  27.516  1.00  0.00     0.029 A 
ATOM     47  C   UNL A   1      40.966  27.615  28.651  1.00  0.00     0.049 A 
ATOM     48  H   UNL A   1      40.762  28.513  30.521  1.00  0.00     0.167 HD
ATOM     49  C   UNL A   1      40.466  30.935  34.204  1.00  0.00     0.034 A 
ATOM     50  C   UNL A   1      42.113  26.908  28.673  1.00  0.00     0.034 A 
ATOM     51  C   UNL A   1      41.611  30.089  34.388  1.00  0.00     0.049 A 
ATOM     52  C   UNL A   1      42.926  26.899  29.938  1.00  0.00     0.074 A 
ATOM     53  C   UNL A   1      42.419  29.961  35.502  1.00  0.00     0.029 A 
ATOM     54  N   UNL A   1      42.105  29.218  33.429  1.00  0.00    -0.354 N 
ATOM     55  N   UNL A   1      42.716  27.552  31.056  1.00  0.00    -0.248 NA
ATOM     56  C   UNL A   1      44.108  26.028  29.963  1.00  0.00     0.031 C 
ATOM     57  C   UNL A   1      43.421  29.030  35.204  1.00  0.00     0.029 A 
ATOM     58  C   UNL A   1      43.212  28.552  33.918  1.00  0.00     0.049 A 
ATOM     59  H   UNL A   1      41.722  29.093  32.530  1.00  0.00     0.167 HD
ATOM     60  C   UNL A   1      43.722  27.153  31.927  1.00  0.00     0.074 A 
ATOM     61  C   UNL A   1      44.525  26.179  31.214  1.00  0.00     0.031 C 
ATOM     62  C   UNL A   1      43.971  27.562  33.197  1.00  0.00     0.034 A 
BRANCH  49  63
ATOM     63  C   UNL A   1      40.069  31.888  35.307  1.00  0.00     0.023 A 
ATOM     64  C   UNL A   1      40.710  33.142  35.416  1.00  0.00     0.012 A 
ATOM     65  C   UNL A   1      39.061  31.551  36.231  1.00  0.00     0.148 A 
ATOM     66  C   UNL A   1      40.401  34.014  36.460  1.00  0.00     0.002 A 
ATOM     67  C   UNL A   1      38.717  32.451  37.234  1.00  0.00     0.091 A 
ATOM     68  F   UNL A   1      38.473  30.351  36.128  1.00  0.00    -0.205 F 
ATOM     69  C   UNL A   1      39.399  33.672  37.362  1.00  0.00     0.022 A 
BRANCH  67  70
ATOM     70  S   UNL A   1      37.381  32.147  38.395  1.00  0.00     0.127 S 
ATOM     71  O   UNL A   1      37.237  30.694  38.306  1.00  0.00    -0.237 OA
ATOM     72  O   UNL A   1      37.954  32.628  39.652  1.00  0.00    -0.237 OA
ATOM     73  O   UNL A   1      36.244  32.917  37.911  1.00  0.00    -0.744 OA
ENDBRANCH  67  70
ENDBRANCH  49  63
BRANCH  50  74
ATOM     74  C   UNL A   1      42.508  26.097  27.485  1.00  0.00     0.023 A 
ATOM     75  C   UNL A   1      43.347  26.663  26.504  1.00  0.00     0.012 A 
ATOM     76  C   UNL A   1      42.112  24.752  27.351  1.00  0.00     0.148 A 
ATOM     77  C   UNL A   1      43.761  25.914  25.400  1.00  0.00     0.002 A 
ATOM     78  C   UNL A   1      42.574  23.994  26.281  1.00  0.00     0.091 A 
ATOM     79  F   UNL A   1      41.309  24.233  28.291  1.00  0.00    -0.205 F 
ATOM     80  C   UNL A   1      43.385  24.577  25.295  1.00  0.00     0.022 A 
BRANCH  78  81
ATOM     81  S   UNL A   1      42.258  22.231  26.136  1.00  0.00     0.127 S 
ATOM     82  O   UNL A   1      40.808  22.200  25.965  1.00  0.00    -0.237 OA
ATOM     83  O   UNL A   1      43.028  21.885  24.941  1.00  0.00    -0.237 OA
ATOM     84  O   UNL A   1      42.761  21.637  27.368  1.00  0.00    -0.744 OA
ENDBRANCH  78  81
ENDBRANCH  50  74
BRANCH  62  85
ATOM     85  C   UNL A   1      45.140  26.936  33.908  1.00  0.00     0.023 A 
ATOM     86  C   UNL A   1      46.411  27.541  33.836  1.00  0.00     0.012 A 
ATOM     87  C   UNL A   1      44.958  25.791  34.707  1.00  0.00     0.148 A 
ATOM     88  C   UNL A   1      47.493  26.990  34.520  1.00  0.00     0.002 A 
ATOM     89  C   UNL A   1      46.027  25.282  35.430  1.00  0.00     0.091 A 
ATOM     90  F   UNL A   1      43.743  25.226  34.747  1.00  0.00    -0.205 F 
ATOM     91  C   UNL A   1      47.299  25.870  35.326  1.00  0.00     0.022 A 
BRANCH  89  92
ATOM     92  S   UNL A   1      45.848  23.909  36.574  1.00  0.00     0.127 S 
ATOM     93  O   UNL A   1      47.222  23.728  37.038  1.00  0.00    -0.237 OA
ATOM     94  O   UNL A   1      44.933  24.458  37.573  1.00  0.00    -0.237 OA
ATOM     95  O   UNL A   1      45.302  22.806  35.795  1.00  0.00    -0.744 OA
ENDBRANCH  89  92
ENDBRANCH  62  85
ENDBRANCH  36  37
ENDBRANCH  28  31
ENDBRANCH  26  27
ENDBRANCH   1  26
TORSDOF 16
ENDMDL
MODEL 3
REMARK VINA RESULT:     -11.3      4.989      9.998
REMARK SMILES CC[NH2+][C@@]1(C(=O)NCCCNC(=O)c2ccc(-c3c4nc(c(-c5cccc(S(=O)(=O)[O-])c5F)c5ccc([nH]5)c(-c5cccc(S(=O)(=O)[O-])c5F)c5nc(c(-c6cccc(S(=O)(=O)[O-])c6F)c6ccc3[nH]6)C=C5)C=C4)cc2)CC[C@H]([NH+]2CCS(=O)(=O)CC2)C1
REMARK SMILES IDX 9 1 8 2 7 3 5 4 6 5 4 7 77 8 88 9 78 10 79 11 3 12 2 15 1 16
REMARK SMILES IDX 80 17 81 18 87 19 82 21 86 22 83 23 84 24 85 25 10 26 11 27
REMARK SMILES IDX 12 28 13 30 14 31 15 32 76 33 16 34 75 35 17 36 18 37 19 38
REMARK SMILES IDX 69 39 20 40 74 41 68 42 70 43 21 44 73 45 67 46 66 47 22 49
REMARK SMILES IDX 54 50 34 51 53 52 35 53 38 54 52 55 71 56 36 57 37 58 51 60
REMARK SMILES IDX 72 61 39 62 23 63 24 64 32 65 25 66 27 67 33 68 26 69 28 70
REMARK SMILES IDX 29 71 30 72 31 73 55 74 56 75 64 76 57 77 59 78 65 79 58 80
REMARK SMILES IDX 60 81 61 82 62 83 63 84 40 85 41 86 49 87 42 88 44 89 50 90
REMARK SMILES IDX 43 91 45 92 46 93 47 94 48 95
REMARK H PARENT 7 6 3 13 3 14 80 20 11 29 70 48 38 59
REMARK Flexibility Score: inf
ROOT
ATOM      1  C   UNL A   1      36.352  21.676  25.353  1.00  0.00     0.042 C 
ENDROOT
BRANCH   1   2
ATOM      2  C   UNL A   1      35.864  22.921  26.116  1.00  0.00     0.118 C 
BRANCH   2   3
ATOM      3  N   UNL A   1      34.402  23.152  25.928  1.00  0.00    -0.351 N 
ATOM      4  C   UNL A   1      33.457  22.189  26.263  1.00  0.00     0.281 C 
ATOM      5  O   UNL A   1      33.550  21.643  27.368  1.00  0.00    -0.268 OA
ATOM      6  H   UNL A   1      34.099  24.012  25.555  1.00  0.00     0.163 HD
BRANCH   4   7
ATOM      7  C   UNL A   1      32.215  21.848  25.252  1.00  0.00     0.181 C 
ATOM      8  C   UNL A   1      32.695  22.135  23.793  1.00  0.00     0.085 C 
ATOM      9  C   UNL A   1      30.945  22.748  25.373  1.00  0.00     0.144 C 
ATOM     10  C   UNL A   1      31.716  23.116  23.131  1.00  0.00     0.072 C 
ATOM     11  C   UNL A   1      30.965  23.839  24.242  1.00  0.00     0.191 C 
BRANCH   7  12
ATOM     12  N   UNL A   1      31.901  20.408  25.511  1.00  0.00    -0.334 N 
ATOM     13  H   UNL A   1      31.776  20.302  26.518  1.00  0.00     0.347 HD
ATOM     14  H   UNL A   1      31.076  20.221  24.941  1.00  0.00     0.347 HD
BRANCH  12  15
ATOM     15  C   UNL A   1      32.878  19.405  25.084  1.00  0.00     0.257 C 
ATOM     16  C   UNL A   1      32.628  18.063  25.758  1.00  0.00     0.071 C 
ENDBRANCH  12  15
ENDBRANCH   7  12
BRANCH  11  17
ATOM     17  N   UNL A   1      31.458  25.169  24.610  1.00  0.00    -0.331 N 
ATOM     18  C   UNL A   1      30.586  26.172  25.212  1.00  0.00     0.278 C 
ATOM     19  C   UNL A   1      32.457  25.794  23.789  1.00  0.00     0.278 C 
ATOM     20  H   UNL A   1      31.927  24.750  25.413  1.00  0.00     0.348 HD
ATOM     21  C   UNL A   1      29.936  27.201  24.287  1.00  0.00     0.198 C 
ATOM     22  C   UNL A   1      31.953  26.463  22.543  1.00  0.00     0.198 C 
ATOM     23  S   UNL A   1      30.999  27.851  23.015  1.00  0.00     0.161 S 
ATOM     24  O   UNL A   1      30.165  28.193  21.868  1.00  0.00    -0.228 OA
ATOM     25  O   UNL A   1      31.897  28.821  23.589  1.00  0.00    -0.228 OA
ENDBRANCH  11  17
ENDBRANCH   4   7
ENDBRANCH   2   3
ENDBRANCH   1   2
BRANCH   1  26
ATOM     26  C   UNL A   1      37.815  21.644  24.887  1.00  0.00     0.118 C 
BRANCH  26  27
ATOM     27  N   UNL A   1      38.731  20.653  25.450  1.00  0.00    -0.352 N 
ATOM     28  C   UNL A   1      39.690  20.807  26.449  1.00  0.00     0.251 C 
ATOM     29  H   UNL A   1      38.660  19.747  25.068  1.00  0.00     0.163 HD
ATOM     30  O   UNL A   1      40.243  19.818  26.926  1.00  0.00    -0.269 OA
BRANCH  28  31
ATOM     31  C   UNL A   1      40.077  22.154  26.941  1.00  0.00     0.039 A 
ATOM     32  C   UNL A   1      41.067  22.293  27.923  1.00  0.00     0.014 A 
ATOM     33  C   UNL A   1      39.489  23.292  26.403  1.00  0.00     0.014 A 
ATOM     34  C   UNL A   1      41.533  23.570  28.271  1.00  0.00     0.010 A 
ATOM     35  C   UNL A   1      40.066  24.534  26.620  1.00  0.00     0.010 A 
ATOM     36  C   UNL A   1      41.076  24.701  27.577  1.00  0.00    -0.014 A 
BRANCH  36  37
ATOM     37  C   UNL A   1      41.586  26.076  27.835  1.00  0.00     0.031 A 
ATOM     38  C   UNL A   1      42.996  26.434  27.426  1.00  0.00     0.074 A 
ATOM     39  C   UNL A   1      40.848  26.951  28.549  1.00  0.00     0.049 A 
ATOM     40  N   UNL A   1      43.693  27.506  27.698  1.00  0.00    -0.248 NA
ATOM     41  C   UNL A   1      43.750  25.418  26.668  1.00  0.00     0.031 C 
ATOM     42  C   UNL A   1      39.517  26.686  29.104  1.00  0.00     0.029 A 
ATOM     43  N   UNL A   1      41.123  28.232  28.959  1.00  0.00    -0.354 N 
ATOM     44  C   UNL A   1      44.972  27.260  27.207  1.00  0.00     0.074 A 
ATOM     45  C   UNL A   1      44.977  25.911  26.696  1.00  0.00     0.031 C 
ATOM     46  C   UNL A   1      39.084  27.776  29.757  1.00  0.00     0.029 A 
ATOM     47  C   UNL A   1      40.117  28.803  29.706  1.00  0.00     0.049 A 
ATOM     48  H   UNL A   1      41.962  28.698  28.740  1.00  0.00     0.167 HD
ATOM     49  C   UNL A   1      46.034  28.097  27.135  1.00  0.00     0.034 A 
ATOM     50  C   UNL A   1      40.042  30.016  30.288  1.00  0.00     0.034 A 
ATOM     51  C   UNL A   1      45.989  29.464  27.572  1.00  0.00     0.049 A 
ATOM     52  C   UNL A   1      41.196  30.966  30.119  1.00  0.00     0.074 A 
ATOM     53  C   UNL A   1      46.957  30.442  27.449  1.00  0.00     0.029 A 
ATOM     54  N   UNL A   1      44.905  30.046  28.213  1.00  0.00    -0.354 N 
ATOM     55  N   UNL A   1      42.344  30.767  29.516  1.00  0.00    -0.248 NA
ATOM     56  C   UNL A   1      41.031  32.317  30.670  1.00  0.00     0.031 C 
ATOM     57  C   UNL A   1      46.467  31.611  28.043  1.00  0.00     0.029 A 
ATOM     58  C   UNL A   1      45.180  31.370  28.500  1.00  0.00     0.049 A 
ATOM     59  H   UNL A   1      44.063  29.585  28.430  1.00  0.00     0.167 HD
ATOM     60  C   UNL A   1      43.029  31.973  29.592  1.00  0.00     0.074 A 
ATOM     61  C   UNL A   1      42.154  32.905  30.275  1.00  0.00     0.031 C 
ATOM     62  C   UNL A   1      44.275  32.283  29.150  1.00  0.00     0.034 A 
BRANCH  49  63
ATOM     63  C   UNL A   1      47.301  27.567  26.506  1.00  0.00     0.023 A 
ATOM     64  C   UNL A   1      47.598  27.873  25.160  1.00  0.00     0.012 A 
ATOM     65  C   UNL A   1      48.202  26.773  27.243  1.00  0.00     0.148 A 
ATOM     66  C   UNL A   1      48.732  27.349  24.541  1.00  0.00     0.002 A 
ATOM     67  C   UNL A   1      49.361  26.302  26.636  1.00  0.00     0.091 A 
ATOM     68  F   UNL A   1      47.899  26.474  28.514  1.00  0.00    -0.205 F 
ATOM     69  C   UNL A   1      49.617  26.571  25.281  1.00  0.00     0.022 A 
BRANCH  67  70
ATOM     70  S   UNL A   1      50.610  25.365  27.523  1.00  0.00     0.127 S 
ATOM     71  O   UNL A   1      51.568  25.068  26.458  1.00  0.00    -0.237 OA
ATOM     72  O   UNL A   1      51.078  26.339  28.509  1.00  0.00    -0.237 OA
ATOM     73  O   UNL A   1      49.925  24.212  28.085  1.00  0.00    -0.744 OA
ENDBRANCH  67  70
ENDBRANCH  49  63
BRANCH  50  74
ATOM     74  C   UNL A   1      38.802  30.416  31.014  1.00  0.00     0.023 A 
ATOM     75  C   UNL A   1      38.693  30.166  32.397  1.00  0.00     0.012 A 
ATOM     76  C   UNL A   1      37.757  31.096  30.359  1.00  0.00     0.148 A 
ATOM     77  C   UNL A   1      37.558  30.562  33.107  1.00  0.00     0.002 A 
ATOM     78  C   UNL A   1      36.655  31.539  31.083  1.00  0.00     0.091 A 
ATOM     79  F   UNL A   1      37.875  31.319  29.043  1.00  0.00    -0.205 F 
ATOM     80  C   UNL A   1      36.545  31.259  32.453  1.00  0.00     0.022 A 
BRANCH  78  81
ATOM     81  S   UNL A   1      35.370  32.564  30.356  1.00  0.00     0.127 S 
ATOM     82  O   UNL A   1      36.113  33.771  30.003  1.00  0.00    -0.237 OA
ATOM     83  O   UNL A   1      34.943  31.748  29.219  1.00  0.00    -0.237 OA
ATOM     84  O   UNL A   1      34.359  32.727  31.393  1.00  0.00    -0.744 OA
ENDBRANCH  78  81
ENDBRANCH  50  74
BRANCH  62  85
ATOM     85  C   UNL A   1      44.753  33.693  29.364  1.00  0.00     0.023 A 
ATOM     86  C   UNL A   1      45.394  34.042  30.569  1.00  0.00     0.012 A 
ATOM     87  C   UNL A   1      44.632  34.650  28.337  1.00  0.00     0.148 A 
ATOM     88  C   UNL A   1      45.874  35.337  30.763  1.00  0.00     0.002 A 
ATOM     89  C   UNL A   1      45.163  35.919  28.516  1.00  0.00     0.091 A 
ATOM     90  F   UNL A   1      44.006  34.297  27.206  1.00  0.00    -0.205 F 
ATOM     91  C   UNL A   1      45.770  36.270  29.734  1.00  0.00     0.022 A 
BRANCH  89  92
ATOM     92  S   UNL A   1      45.170  37.152  27.210  1.00  0.00     0.127 S 
ATOM     93  O   UNL A   1      46.000  36.505  26.196  1.00  0.00    -0.237 OA
ATOM     94  O   UNL A   1      43.751  37.246  26.868  1.00  0.00    -0.237 OA
ATOM     95  O   UNL A   1      45.732  38.359  27.799  1.00  0.00    -0.744 OA
ENDBRANCH  89  92
ENDBRANCH  62  85
ENDBRANCH  36  37
ENDBRANCH  28  31
ENDBRANCH  26  27
ENDBRANCH   1  26
TORSDOF 16
ENDMDL
