MODEL 1
REMARK VINA RESULT:     -12.5      0.000      0.000
REMARK SMILES C[C@H]1[C@@H](C(=O)NCCCNC(=O)c2ccc(-c3c4nc(c(-c5cccc(S(=O)(=O)[O-])c5F)c5ccc([nH]5)c(-c5cccc(S(=O)(=O)[O-])c5F)c5nc(c(-c6cccc(S(=O)(=O)[O-])c6F)c6ccc3[nH]6)C=C5)C=C4)cc2)CCN1C(=O)c1cc2cc(F)ccc2s1
REMARK SMILES IDX 8 1 7 2 6 3 4 4 5 5 3 7 1 8 2 9 78 10 76 11 77 12 79 13
REMARK SMILES IDX 80 14 81 15 82 16 90 17 83 18 89 19 84 20 88 21 85 22 87 23
REMARK SMILES IDX 86 24 9 25 10 26 11 27 12 29 13 30 14 31 75 32 15 33 74 34
REMARK SMILES IDX 16 35 17 36 18 37 68 38 19 39 73 40 67 41 69 42 20 43 72 44
REMARK SMILES IDX 66 45 65 46 21 48 53 49 33 50 52 51 34 52 37 53 51 54 70 55
REMARK SMILES IDX 35 56 36 57 50 59 71 60 38 61 22 62 23 63 31 64 24 65 26 66
REMARK SMILES IDX 32 67 25 68 27 69 28 70 29 71 30 72 54 73 55 74 63 75 56 76
REMARK SMILES IDX 58 77 64 78 57 79 59 80 60 81 61 82 62 83 39 84 40 85 48 86
REMARK SMILES IDX 41 87 43 88 49 89 42 90 44 91 45 92 46 93 47 94
REMARK H PARENT 6 6 10 28 69 47 37 58
REMARK Flexibility Score: inf
ROOT
ATOM      1  C   UNL A   1      31.411  31.903  26.480  1.00  0.00     0.042 C 
ENDROOT
BRANCH   1   2
ATOM      2  C   UNL A   1      31.416  30.394  26.245  1.00  0.00     0.117 C 
BRANCH   2   3
ATOM      3  N   UNL A   1      32.180  30.081  25.053  1.00  0.00    -0.356 N 
ATOM      4  C   UNL A   1      32.184  28.986  24.250  1.00  0.00     0.225 C 
ATOM      5  O   UNL A   1      33.071  28.952  23.392  1.00  0.00    -0.275 OA
ATOM      6  H   UNL A   1      32.808  30.788  24.777  1.00  0.00     0.163 HD
BRANCH   4   7
ATOM      7  C   UNL A   1      31.070  27.937  24.317  1.00  0.00     0.102 C 
ATOM      8  C   UNL A   1      32.382  26.200  25.799  1.00  0.00     0.032 C 
ATOM      9  C   UNL A   1      31.410  26.473  24.673  1.00  0.00     0.094 C 
ATOM     10  N   UNL A   1      31.777  25.826  23.411  1.00  0.00    -0.334 N 
ATOM     11  C   UNL A   1      30.505  27.736  22.894  1.00  0.00     0.037 C 
ATOM     12  C   UNL A   1      31.464  26.710  22.301  1.00  0.00     0.121 C 
BRANCH  10  13
ATOM     13  C   UNL A   1      31.492  24.473  23.256  1.00  0.00     0.264 C 
ATOM     14  O   UNL A   1      30.327  24.088  23.162  1.00  0.00    -0.268 OA
BRANCH  13  15
ATOM     15  C   UNL A   1      32.602  23.546  23.189  1.00  0.00     0.093 A 
ATOM     16  C   UNL A   1      33.915  23.867  22.924  1.00  0.00     0.034 A 
ATOM     17  S   UNL A   1      32.456  21.929  23.715  1.00  0.00    -0.130 S 
ATOM     18  C   UNL A   1      34.816  22.967  23.578  1.00  0.00    -0.004 A 
ATOM     19  C   UNL A   1      34.139  21.862  24.106  1.00  0.00     0.035 A 
ATOM     20  C   UNL A   1      36.196  23.105  23.842  1.00  0.00     0.048 A 
ATOM     21  C   UNL A   1      34.802  20.894  24.885  1.00  0.00     0.022 A 
ATOM     22  C   UNL A   1      36.822  22.199  24.695  1.00  0.00     0.123 A 
ATOM     23  C   UNL A   1      36.145  21.107  25.210  1.00  0.00     0.041 A 
ATOM     24  F   UNL A   1      38.091  22.427  25.062  1.00  0.00    -0.207 F 
ENDBRANCH  13  15
ENDBRANCH  10  13
ENDBRANCH   4   7
ENDBRANCH   2   3
ENDBRANCH   1   2
BRANCH   1  25
ATOM     25  C   UNL A   1      32.710  32.438  27.070  1.00  0.00     0.118 C 
BRANCH  25  26
ATOM     26  N   UNL A   1      32.587  33.834  27.445  1.00  0.00    -0.352 N 
ATOM     27  C   UNL A   1      33.143  34.518  28.500  1.00  0.00     0.251 C 
ATOM     28  H   UNL A   1      32.018  34.375  26.852  1.00  0.00     0.163 HD
ATOM     29  O   UNL A   1      32.687  35.625  28.781  1.00  0.00    -0.269 OA
BRANCH  27  30
ATOM     30  C   UNL A   1      34.263  33.958  29.301  1.00  0.00     0.039 A 
ATOM     31  C   UNL A   1      35.575  34.264  28.916  1.00  0.00     0.014 A 
ATOM     32  C   UNL A   1      34.057  33.071  30.362  1.00  0.00     0.014 A 
ATOM     33  C   UNL A   1      36.662  33.702  29.597  1.00  0.00     0.010 A 
ATOM     34  C   UNL A   1      35.141  32.582  31.097  1.00  0.00     0.010 A 
ATOM     35  C   UNL A   1      36.457  32.863  30.704  1.00  0.00    -0.014 A 
BRANCH  35  36
ATOM     36  C   UNL A   1      37.603  32.241  31.423  1.00  0.00     0.031 A 
ATOM     37  C   UNL A   1      38.384  31.117  30.788  1.00  0.00     0.074 A 
ATOM     38  C   UNL A   1      37.914  32.643  32.671  1.00  0.00     0.049 A 
ATOM     39  N   UNL A   1      39.398  30.442  31.269  1.00  0.00    -0.248 NA
ATOM     40  C   UNL A   1      37.955  30.676  29.450  1.00  0.00     0.031 C 
ATOM     41  C   UNL A   1      37.188  33.656  33.439  1.00  0.00     0.029 A 
ATOM     42  N   UNL A   1      38.910  32.232  33.523  1.00  0.00    -0.354 N 
ATOM     43  C   UNL A   1      39.700  29.476  30.315  1.00  0.00     0.074 A 
ATOM     44  C   UNL A   1      38.741  29.629  29.243  1.00  0.00     0.031 C 
ATOM     45  C   UNL A   1      37.765  33.791  34.644  1.00  0.00     0.029 A 
ATOM     46  C   UNL A   1      38.891  32.866  34.743  1.00  0.00     0.049 A 
ATOM     47  H   UNL A   1      39.575  31.547  33.282  1.00  0.00     0.167 HD
ATOM     48  C   UNL A   1      40.708  28.570  30.306  1.00  0.00     0.034 A 
ATOM     49  C   UNL A   1      39.692  32.725  35.818  1.00  0.00     0.034 A 
ATOM     50  C   UNL A   1      41.705  28.459  31.336  1.00  0.00     0.049 A 
ATOM     51  C   UNL A   1      40.854  31.772  35.752  1.00  0.00     0.074 A 
ATOM     52  C   UNL A   1      42.817  27.635  31.374  1.00  0.00     0.029 A 
ATOM     53  N   UNL A   1      41.718  29.200  32.507  1.00  0.00    -0.354 N 
ATOM     54  N   UNL A   1      41.219  30.985  34.769  1.00  0.00    -0.248 NA
ATOM     55  C   UNL A   1      41.740  31.718  36.925  1.00  0.00     0.031 C 
ATOM     56  C   UNL A   1      43.502  27.878  32.570  1.00  0.00     0.029 A 
ATOM     57  C   UNL A   1      42.818  28.857  33.274  1.00  0.00     0.049 A 
ATOM     58  H   UNL A   1      41.043  29.872  32.757  1.00  0.00     0.167 HD
ATOM     59  C   UNL A   1      42.389  30.363  35.193  1.00  0.00     0.074 A 
ATOM     60  C   UNL A   1      42.686  30.886  36.510  1.00  0.00     0.031 C 
ATOM     61  C   UNL A   1      43.135  29.424  34.559  1.00  0.00     0.034 A 
BRANCH  48  62
ATOM     62  C   UNL A   1      40.829  27.675  29.100  1.00  0.00     0.023 A 
ATOM     63  C   UNL A   1      40.029  26.516  29.022  1.00  0.00     0.012 A 
ATOM     64  C   UNL A   1      41.685  27.995  28.029  1.00  0.00     0.148 A 
ATOM     65  C   UNL A   1      40.105  25.671  27.916  1.00  0.00     0.002 A 
ATOM     66  C   UNL A   1      41.726  27.168  26.911  1.00  0.00     0.091 A 
ATOM     67  F   UNL A   1      42.456  29.087  28.129  1.00  0.00    -0.205 F 
ATOM     68  C   UNL A   1      40.945  26.002  26.857  1.00  0.00     0.022 A 
BRANCH  66  69
ATOM     69  S   UNL A   1      42.724  27.550  25.466  1.00  0.00     0.127 S 
ATOM     70  O   UNL A   1      44.056  27.686  26.055  1.00  0.00    -0.237 OA
ATOM     71  O   UNL A   1      42.545  26.356  24.638  1.00  0.00    -0.237 OA
ATOM     72  O   UNL A   1      42.156  28.766  24.901  1.00  0.00    -0.744 OA
ENDBRANCH  66  69
ENDBRANCH  48  62
BRANCH  49  73
ATOM     73  C   UNL A   1      39.469  33.580  37.017  1.00  0.00     0.023 A 
ATOM     74  C   UNL A   1      39.896  34.922  36.997  1.00  0.00     0.012 A 
ATOM     75  C   UNL A   1      38.798  33.091  38.154  1.00  0.00     0.148 A 
ATOM     76  C   UNL A   1      39.679  35.755  38.094  1.00  0.00     0.002 A 
ATOM     77  C   UNL A   1      38.539  33.941  39.224  1.00  0.00     0.091 A 
ATOM     78  F   UNL A   1      38.415  31.806  38.163  1.00  0.00    -0.205 F 
ATOM     79  C   UNL A   1      38.991  35.269  39.202  1.00  0.00     0.022 A 
BRANCH  77  80
ATOM     80  S   UNL A   1      37.540  33.432  40.628  1.00  0.00     0.127 S 
ATOM     81  O   UNL A   1      38.369  32.388  41.223  1.00  0.00    -0.237 OA
ATOM     82  O   UNL A   1      37.453  34.669  41.406  1.00  0.00    -0.237 OA
ATOM     83  O   UNL A   1      36.271  32.993  40.063  1.00  0.00    -0.744 OA
ENDBRANCH  77  80
ENDBRANCH  49  73
BRANCH  61  84
ATOM     84  C   UNL A   1      44.357  28.907  35.271  1.00  0.00     0.023 A 
ATOM     85  C   UNL A   1      45.605  29.515  35.030  1.00  0.00     0.012 A 
ATOM     86  C   UNL A   1      44.263  27.874  36.222  1.00  0.00     0.148 A 
ATOM     87  C   UNL A   1      46.745  29.083  35.706  1.00  0.00     0.002 A 
ATOM     88  C   UNL A   1      45.397  27.476  36.921  1.00  0.00     0.091 A 
ATOM     89  F   UNL A   1      43.071  27.291  36.422  1.00  0.00    -0.205 F 
ATOM     90  C   UNL A   1      46.641  28.073  36.658  1.00  0.00     0.022 A 
BRANCH  88  91
ATOM     91  S   UNL A   1      45.326  26.241  38.224  1.00  0.00     0.127 S 
ATOM     92  O   UNL A   1      44.343  26.822  39.136  1.00  0.00    -0.237 OA
ATOM     93  O   UNL A   1      44.865  25.051  37.509  1.00  0.00    -0.237 OA
ATOM     94  O   UNL A   1      46.685  26.138  38.740  1.00  0.00    -0.744 OA
ENDBRANCH  88  91
ENDBRANCH  61  84
ENDBRANCH  35  36
ENDBRANCH  27  30
ENDBRANCH  25  26
ENDBRANCH   1  25
TORSDOF 15
ENDMDL
MODEL 2
REMARK VINA RESULT:     -12.4      2.425      8.118
REMARK SMILES C[C@H]1[C@@H](C(=O)NCCCNC(=O)c2ccc(-c3c4nc(c(-c5cccc(S(=O)(=O)[O-])c5F)c5ccc([nH]5)c(-c5cccc(S(=O)(=O)[O-])c5F)c5nc(c(-c6cccc(S(=O)(=O)[O-])c6F)c6ccc3[nH]6)C=C5)C=C4)cc2)CCN1C(=O)c1cc2cc(F)ccc2s1
REMARK SMILES IDX 8 1 7 2 6 3 4 4 5 5 3 7 1 8 2 9 78 10 76 11 77 12 79 13
REMARK SMILES IDX 80 14 81 15 82 16 90 17 83 18 89 19 84 20 88 21 85 22 87 23
REMARK SMILES IDX 86 24 9 25 10 26 11 27 12 29 13 30 14 31 75 32 15 33 74 34
REMARK SMILES IDX 16 35 17 36 18 37 68 38 19 39 73 40 67 41 69 42 20 43 72 44
REMARK SMILES IDX 66 45 65 46 21 48 53 49 33 50 52 51 34 52 37 53 51 54 70 55
REMARK SMILES IDX 35 56 36 57 50 59 71 60 38 61 22 62 23 63 31 64 24 65 26 66
REMARK SMILES IDX 32 67 25 68 27 69 28 70 29 71 30 72 54 73 55 74 63 75 56 76
REMARK SMILES IDX 58 77 64 78 57 79 59 80 60 81 61 82 62 83 39 84 40 85 48 86
REMARK SMILES IDX 41 87 43 88 49 89 42 90 44 91 45 92 46 93 47 94
REMARK H PARENT 6 6 10 28 69 47 37 58
REMARK Flexibility Score: inf
ROOT
ATOM      1  C   UNL A   1      31.791  30.174  25.654  1.00  0.00     0.042 C 
ENDROOT
BRANCH   1   2
ATOM      2  C   UNL A   1      32.666  29.352  24.711  1.00  0.00     0.117 C 
BRANCH   2   3
ATOM      3  N   UNL A   1      31.853  28.390  23.993  1.00  0.00    -0.356 N 
ATOM      4  C   UNL A   1      31.474  27.123  24.304  1.00  0.00     0.225 C 
ATOM      5  O   UNL A   1      30.905  26.497  23.407  1.00  0.00    -0.275 OA
ATOM      6  H   UNL A   1      31.515  28.712  23.126  1.00  0.00     0.163 HD
BRANCH   4   7
ATOM      7  C   UNL A   1      31.620  26.568  25.724  1.00  0.00     0.102 C 
ATOM      8  C   UNL A   1      34.000  25.494  25.385  1.00  0.00     0.032 C 
ATOM      9  C   UNL A   1      32.624  25.429  26.008  1.00  0.00     0.094 C 
ATOM     10  N   UNL A   1      31.909  24.182  25.724  1.00  0.00    -0.334 N 
ATOM     11  C   UNL A   1      30.303  25.857  26.105  1.00  0.00     0.037 C 
ATOM     12  C   UNL A   1      30.499  24.464  25.518  1.00  0.00     0.121 C 
BRANCH  10  13
ATOM     13  C   UNL A   1      32.238  23.050  26.462  1.00  0.00     0.264 C 
ATOM     14  O   UNL A   1      32.035  23.017  27.677  1.00  0.00    -0.268 OA
BRANCH  13  15
ATOM     15  C   UNL A   1      32.801  21.917  25.760  1.00  0.00     0.093 A 
ATOM     16  C   UNL A   1      33.193  20.723  26.324  1.00  0.00     0.034 A 
ATOM     17  S   UNL A   1      32.794  21.820  24.056  1.00  0.00    -0.130 S 
ATOM     18  C   UNL A   1      33.038  19.634  25.407  1.00  0.00    -0.004 A 
ATOM     19  C   UNL A   1      32.769  20.093  24.113  1.00  0.00     0.035 A 
ATOM     20  C   UNL A   1      33.009  18.244  25.653  1.00  0.00     0.048 A 
ATOM     21  C   UNL A   1      32.474  19.203  23.062  1.00  0.00     0.022 A 
ATOM     22  C   UNL A   1      32.619  17.379  24.634  1.00  0.00     0.123 A 
ATOM     23  C   UNL A   1      32.357  17.841  23.356  1.00  0.00     0.041 A 
ATOM     24  F   UNL A   1      32.444  16.081  24.919  1.00  0.00    -0.207 F 
ENDBRANCH  13  15
ENDBRANCH  10  13
ENDBRANCH   4   7
ENDBRANCH   2   3
ENDBRANCH   1   2
BRANCH   1  25
ATOM     25  C   UNL A   1      32.497  30.594  26.937  1.00  0.00     0.118 C 
BRANCH  25  26
ATOM     26  N   UNL A   1      32.651  32.035  27.011  1.00  0.00    -0.352 N 
ATOM     27  C   UNL A   1      33.583  32.791  27.682  1.00  0.00     0.251 C 
ATOM     28  H   UNL A   1      31.985  32.550  26.502  1.00  0.00     0.163 HD
ATOM     29  O   UNL A   1      33.361  33.992  27.827  1.00  0.00    -0.269 OA
BRANCH  27  30
ATOM     30  C   UNL A   1      34.832  32.201  28.230  1.00  0.00     0.039 A 
ATOM     31  C   UNL A   1      34.773  30.917  28.786  1.00  0.00     0.014 A 
ATOM     32  C   UNL A   1      36.034  32.913  28.292  1.00  0.00     0.014 A 
ATOM     33  C   UNL A   1      35.908  30.349  29.379  1.00  0.00     0.010 A 
ATOM     34  C   UNL A   1      37.187  32.311  28.803  1.00  0.00     0.010 A 
ATOM     35  C   UNL A   1      37.132  31.036  29.383  1.00  0.00    -0.014 A 
BRANCH  35  36
ATOM     36  C   UNL A   1      38.340  30.454  30.030  1.00  0.00     0.031 A 
ATOM     37  C   UNL A   1      38.751  30.890  31.416  1.00  0.00     0.074 A 
ATOM     38  C   UNL A   1      39.107  29.574  29.357  1.00  0.00     0.049 A 
ATOM     39  N   UNL A   1      39.780  30.509  32.129  1.00  0.00    -0.248 NA
ATOM     40  C   UNL A   1      37.912  31.904  32.074  1.00  0.00     0.031 C 
ATOM     41  C   UNL A   1      38.879  29.132  27.980  1.00  0.00     0.029 A 
ATOM     42  N   UNL A   1      40.248  28.907  29.734  1.00  0.00    -0.354 N 
ATOM     43  C   UNL A   1      39.735  31.261  33.298  1.00  0.00     0.074 A 
ATOM     44  C   UNL A   1      38.596  32.147  33.183  1.00  0.00     0.031 C 
ATOM     45  C   UNL A   1      39.844  28.267  27.630  1.00  0.00     0.029 A 
ATOM     46  C   UNL A   1      40.768  28.101  28.748  1.00  0.00     0.049 A 
ATOM     47  H   UNL A   1      40.655  29.000  30.625  1.00  0.00     0.167 HD
ATOM     48  C   UNL A   1      40.537  31.198  34.388  1.00  0.00     0.034 A 
ATOM     49  C   UNL A   1      41.861  27.313  28.746  1.00  0.00     0.034 A 
ATOM     50  C   UNL A   1      41.627  30.272  34.536  1.00  0.00     0.049 A 
ATOM     51  C   UNL A   1      42.689  27.196  29.996  1.00  0.00     0.074 A 
ATOM     52  C   UNL A   1      42.441  30.068  35.637  1.00  0.00     0.029 A 
ATOM     53  N   UNL A   1      42.054  29.389  33.557  1.00  0.00    -0.354 N 
ATOM     54  N   UNL A   1      42.527  27.796  31.151  1.00  0.00    -0.248 NA
ATOM     55  C   UNL A   1      43.824  26.260  29.960  1.00  0.00     0.031 C 
ATOM     56  C   UNL A   1      43.360  29.060  35.322  1.00  0.00     0.029 A 
ATOM     57  C   UNL A   1      43.115  28.635  34.026  1.00  0.00     0.049 A 
ATOM     58  H   UNL A   1      41.658  29.309  32.658  1.00  0.00     0.167 HD
ATOM     59  C   UNL A   1      43.521  27.293  31.984  1.00  0.00     0.074 A 
ATOM     60  C   UNL A   1      44.261  26.319  31.211  1.00  0.00     0.031 C 
ATOM     61  C   UNL A   1      43.810  27.628  33.266  1.00  0.00     0.034 A 
BRANCH  48  62
ATOM     62  C   UNL A   1      40.213  32.105  35.546  1.00  0.00     0.023 A 
ATOM     63  C   UNL A   1      40.953  33.294  35.714  1.00  0.00     0.012 A 
ATOM     64  C   UNL A   1      39.158  31.818  36.433  1.00  0.00     0.148 A 
ATOM     65  C   UNL A   1      40.673  34.165  36.766  1.00  0.00     0.002 A 
ATOM     66  C   UNL A   1      38.859  32.712  37.457  1.00  0.00     0.091 A 
ATOM     67  F   UNL A   1      38.480  30.673  36.274  1.00  0.00    -0.205 F 
ATOM     68  C   UNL A   1      39.621  33.879  37.631  1.00  0.00     0.022 A 
BRANCH  66  69
ATOM     69  S   UNL A   1      37.476  32.465  38.578  1.00  0.00     0.127 S 
ATOM     70  O   UNL A   1      36.353  32.937  37.769  1.00  0.00    -0.237 OA
ATOM     71  O   UNL A   1      37.504  31.017  38.794  1.00  0.00    -0.237 OA
ATOM     72  O   UNL A   1      37.778  33.256  39.762  1.00  0.00    -0.744 OA
ENDBRANCH  66  69
ENDBRANCH  48  62
BRANCH  49  73
ATOM     73  C   UNL A   1      42.180  26.502  27.537  1.00  0.00     0.023 A 
ATOM     74  C   UNL A   1      42.877  27.099  26.469  1.00  0.00     0.012 A 
ATOM     75  C   UNL A   1      41.842  25.137  27.458  1.00  0.00     0.148 A 
ATOM     76  C   UNL A   1      43.213  26.360  25.335  1.00  0.00     0.002 A 
ATOM     77  C   UNL A   1      42.226  24.392  26.348  1.00  0.00     0.091 A 
ATOM     78  F   UNL A   1      41.163  24.589  28.477  1.00  0.00    -0.205 F 
ATOM     79  C   UNL A   1      42.898  25.005  25.280  1.00  0.00     0.022 A 
BRANCH  77  80
ATOM     80  S   UNL A   1      41.981  22.614  26.260  1.00  0.00     0.127 S 
ATOM     81  O   UNL A   1      42.635  22.284  24.997  1.00  0.00    -0.237 OA
ATOM     82  O   UNL A   1      42.683  22.149  27.457  1.00  0.00    -0.237 OA
ATOM     83  O   UNL A   1      40.538  22.419  26.301  1.00  0.00    -0.744 OA
ENDBRANCH  77  80
ENDBRANCH  49  73
BRANCH  61  84
ATOM     84  C   UNL A   1      44.967  26.927  33.926  1.00  0.00     0.023 A 
ATOM     85  C   UNL A   1      46.269  27.440  33.764  1.00  0.00     0.012 A 
ATOM     86  C   UNL A   1      44.764  25.810  34.758  1.00  0.00     0.148 A 
ATOM     87  C   UNL A   1      47.353  26.835  34.397  1.00  0.00     0.002 A 
ATOM     88  C   UNL A   1      45.845  25.235  35.418  1.00  0.00     0.091 A 
ATOM     89  F   UNL A   1      43.521  25.319  34.882  1.00  0.00    -0.205 F 
ATOM     90  C   UNL A   1      47.142  25.741  35.231  1.00  0.00     0.022 A 
BRANCH  88  91
ATOM     91  S   UNL A   1      45.640  23.878  36.576  1.00  0.00     0.127 S 
ATOM     92  O   UNL A   1      46.994  23.725  37.103  1.00  0.00    -0.237 OA
ATOM     93  O   UNL A   1      44.673  24.419  37.532  1.00  0.00    -0.237 OA
ATOM     94  O   UNL A   1      45.138  22.761  35.786  1.00  0.00    -0.744 OA
ENDBRANCH  88  91
ENDBRANCH  61  84
ENDBRANCH  35  36
ENDBRANCH  27  30
ENDBRANCH  25  26
ENDBRANCH   1  25
TORSDOF 15
ENDMDL
MODEL 3
REMARK VINA RESULT:     -12.4      1.073      7.782
REMARK SMILES C[C@H]1[C@@H](C(=O)NCCCNC(=O)c2ccc(-c3c4nc(c(-c5cccc(S(=O)(=O)[O-])c5F)c5ccc([nH]5)c(-c5cccc(S(=O)(=O)[O-])c5F)c5nc(c(-c6cccc(S(=O)(=O)[O-])c6F)c6ccc3[nH]6)C=C5)C=C4)cc2)CCN1C(=O)c1cc2cc(F)ccc2s1
REMARK SMILES IDX 8 1 7 2 6 3 4 4 5 5 3 7 1 8 2 9 78 10 76 11 77 12 79 13
REMARK SMILES IDX 80 14 81 15 82 16 90 17 83 18 89 19 84 20 88 21 85 22 87 23
REMARK SMILES IDX 86 24 9 25 10 26 11 27 12 29 13 30 14 31 75 32 15 33 74 34
REMARK SMILES IDX 16 35 17 36 18 37 68 38 19 39 73 40 67 41 69 42 20 43 72 44
REMARK SMILES IDX 66 45 65 46 21 48 53 49 33 50 52 51 34 52 37 53 51 54 70 55
REMARK SMILES IDX 35 56 36 57 50 59 71 60 38 61 22 62 23 63 31 64 24 65 26 66
REMARK SMILES IDX 32 67 25 68 27 69 28 70 29 71 30 72 54 73 55 74 63 75 56 76
REMARK SMILES IDX 58 77 64 78 57 79 59 80 60 81 61 82 62 83 39 84 40 85 48 86
REMARK SMILES IDX 41 87 43 88 49 89 42 90 44 91 45 92 46 93 47 94
REMARK H PARENT 6 6 10 28 69 47 37 58
REMARK Flexibility Score: inf
ROOT
ATOM      1  C   UNL A   1      31.424  32.061  26.551  1.00  0.00     0.042 C 
ENDROOT
BRANCH   1   2
ATOM      2  C   UNL A   1      31.411  30.542  26.397  1.00  0.00     0.117 C 
BRANCH   2   3
ATOM      3  N   UNL A   1      31.452  30.186  24.992  1.00  0.00    -0.356 N 
ATOM      4  C   UNL A   1      31.372  28.983  24.367  1.00  0.00     0.225 C 
ATOM      5  O   UNL A   1      31.599  28.991  23.155  1.00  0.00    -0.275 OA
ATOM      6  H   UNL A   1      31.555  30.952  24.383  1.00  0.00     0.163 HD
BRANCH   4   7
ATOM      7  C   UNL A   1      30.890  27.727  25.100  1.00  0.00     0.102 C 
ATOM      8  C   UNL A   1      33.093  27.324  26.486  1.00  0.00     0.032 C 
ATOM      9  C   UNL A   1      31.918  26.756  25.724  1.00  0.00     0.094 C 
ATOM     10  N   UNL A   1      32.303  25.834  24.652  1.00  0.00    -0.334 N 
ATOM     11  C   UNL A   1      30.231  26.785  24.070  1.00  0.00     0.037 C 
ATOM     12  C   UNL A   1      31.426  26.023  23.509  1.00  0.00     0.121 C 
BRANCH  10  13
ATOM     13  C   UNL A   1      32.642  24.529  24.994  1.00  0.00     0.264 C 
ATOM     14  O   UNL A   1      31.831  23.806  25.573  1.00  0.00    -0.268 OA
BRANCH  13  15
ATOM     15  C   UNL A   1      33.958  24.050  24.632  1.00  0.00     0.093 A 
ATOM     16  C   UNL A   1      35.160  24.594  25.028  1.00  0.00     0.034 A 
ATOM     17  S   UNL A   1      34.188  22.543  23.865  1.00  0.00    -0.130 S 
ATOM     18  C   UNL A   1      36.182  23.595  25.122  1.00  0.00    -0.004 A 
ATOM     19  C   UNL A   1      35.765  22.386  24.553  1.00  0.00     0.035 A 
ATOM     20  C   UNL A   1      37.431  23.641  25.777  1.00  0.00     0.048 A 
ATOM     21  C   UNL A   1      36.563  21.227  24.620  1.00  0.00     0.022 A 
ATOM     22  C   UNL A   1      38.167  22.468  25.926  1.00  0.00     0.123 A 
ATOM     23  C   UNL A   1      37.749  21.277  25.358  1.00  0.00     0.041 A 
ATOM     24  F   UNL A   1      39.273  22.490  26.683  1.00  0.00    -0.207 F 
ENDBRANCH  13  15
ENDBRANCH  10  13
ENDBRANCH   4   7
ENDBRANCH   2   3
ENDBRANCH   1   2
BRANCH   1  25
ATOM     25  C   UNL A   1      32.739  32.613  27.086  1.00  0.00     0.118 C 
BRANCH  25  26
ATOM     26  N   UNL A   1      32.573  33.951  27.623  1.00  0.00    -0.352 N 
ATOM     27  C   UNL A   1      33.146  34.538  28.726  1.00  0.00     0.251 C 
ATOM     28  H   UNL A   1      31.955  34.527  27.118  1.00  0.00     0.163 HD
ATOM     29  O   UNL A   1      32.655  35.584  29.149  1.00  0.00    -0.269 OA
BRANCH  27  30
ATOM     30  C   UNL A   1      34.323  33.947  29.413  1.00  0.00     0.039 A 
ATOM     31  C   UNL A   1      35.602  34.284  28.952  1.00  0.00     0.014 A 
ATOM     32  C   UNL A   1      34.199  33.002  30.437  1.00  0.00     0.014 A 
ATOM     33  C   UNL A   1      36.738  33.696  29.522  1.00  0.00     0.010 A 
ATOM     34  C   UNL A   1      35.335  32.484  31.065  1.00  0.00     0.010 A 
ATOM     35  C   UNL A   1      36.617  32.798  30.594  1.00  0.00    -0.014 A 
BRANCH  35  36
ATOM     36  C   UNL A   1      37.815  32.148  31.194  1.00  0.00     0.031 A 
ATOM     37  C   UNL A   1      38.408  32.675  32.479  1.00  0.00     0.074 A 
ATOM     38  C   UNL A   1      38.412  31.118  30.562  1.00  0.00     0.049 A 
ATOM     39  N   UNL A   1      39.457  32.252  33.138  1.00  0.00    -0.248 NA
ATOM     40  C   UNL A   1      37.753  33.844  33.087  1.00  0.00     0.031 C 
ATOM     41  C   UNL A   1      37.999  30.565  29.271  1.00  0.00     0.029 A 
ATOM     42  N   UNL A   1      39.507  30.365  30.911  1.00  0.00    -0.354 N 
ATOM     43  C   UNL A   1      39.610  33.123  34.211  1.00  0.00     0.074 A 
ATOM     44  C   UNL A   1      38.568  34.120  34.096  1.00  0.00     0.031 C 
ATOM     45  C   UNL A   1      38.826  29.560  28.939  1.00  0.00     0.029 A 
ATOM     46  C   UNL A   1      39.835  29.404  29.984  1.00  0.00     0.049 A 
ATOM     47  H   UNL A   1      40.009  30.502  31.746  1.00  0.00     0.167 HD
ATOM     48  C   UNL A   1      40.507  33.080  35.226  1.00  0.00     0.034 A 
ATOM     49  C   UNL A   1      40.832  28.497  29.975  1.00  0.00     0.034 A 
ATOM     50  C   UNL A   1      41.501  32.053  35.383  1.00  0.00     0.049 A 
ATOM     51  C   UNL A   1      41.764  28.415  31.153  1.00  0.00     0.074 A 
ATOM     52  C   UNL A   1      42.395  31.871  36.424  1.00  0.00     0.029 A 
ATOM     53  N   UNL A   1      41.729  31.028  34.478  1.00  0.00    -0.354 N 
ATOM     54  N   UNL A   1      41.785  29.147  32.240  1.00  0.00    -0.248 NA
ATOM     55  C   UNL A   1      42.782  27.354  31.125  1.00  0.00     0.031 C 
ATOM     56  C   UNL A   1      43.164  30.735  36.148  1.00  0.00     0.029 A 
ATOM     57  C   UNL A   1      42.746  30.208  34.936  1.00  0.00     0.049 A 
ATOM     58  H   UNL A   1      41.239  30.902  33.634  1.00  0.00     0.167 HD
ATOM     59  C   UNL A   1      42.798  28.622  33.035  1.00  0.00     0.074 A 
ATOM     60  C   UNL A   1      43.347  27.491  32.317  1.00  0.00     0.031 C 
ATOM     61  C   UNL A   1      43.248  29.052  34.240  1.00  0.00     0.034 A 
BRANCH  48  62
ATOM     62  C   UNL A   1      40.400  34.136  36.296  1.00  0.00     0.023 A 
ATOM     63  C   UNL A   1      40.834  35.447  36.011  1.00  0.00     0.012 A 
ATOM     64  C   UNL A   1      39.834  33.855  37.553  1.00  0.00     0.148 A 
ATOM     65  C   UNL A   1      40.739  36.453  36.971  1.00  0.00     0.002 A 
ATOM     66  C   UNL A   1      39.706  34.873  38.493  1.00  0.00     0.091 A 
ATOM     67  F   UNL A   1      39.447  32.598  37.817  1.00  0.00    -0.205 F 
ATOM     68  C   UNL A   1      40.166  36.169  38.207  1.00  0.00     0.022 A 
BRANCH  66  69
ATOM     69  S   UNL A   1      38.915  34.620  40.087  1.00  0.00     0.127 S 
ATOM     70  O   UNL A   1      40.002  34.025  40.863  1.00  0.00    -0.237 OA
ATOM     71  O   UNL A   1      38.563  35.986  40.481  1.00  0.00    -0.237 OA
ATOM     72  O   UNL A   1      37.773  33.754  39.830  1.00  0.00    -0.744 OA
ENDBRANCH  66  69
ENDBRANCH  48  62
BRANCH  49  73
ATOM     73  C   UNL A   1      40.938  27.532  28.845  1.00  0.00     0.023 A 
ATOM     74  C   UNL A   1      40.043  26.446  28.779  1.00  0.00     0.012 A 
ATOM     75  C   UNL A   1      41.881  27.707  27.815  1.00  0.00     0.148 A 
ATOM     76  C   UNL A   1      40.100  25.540  27.721  1.00  0.00     0.002 A 
ATOM     77  C   UNL A   1      41.898  26.831  26.735  1.00  0.00     0.091 A 
ATOM     78  F   UNL A   1      42.736  28.737  27.903  1.00  0.00    -0.205 F 
ATOM     79  C   UNL A   1      41.019  25.738  26.693  1.00  0.00     0.022 A 
BRANCH  77  80
ATOM     80  S   UNL A   1      42.956  27.095  25.307  1.00  0.00     0.127 S 
ATOM     81  O   UNL A   1      42.868  25.806  24.627  1.00  0.00    -0.237 OA
ATOM     82  O   UNL A   1      42.278  28.199  24.625  1.00  0.00    -0.237 OA
ATOM     83  O   UNL A   1      44.262  27.441  25.850  1.00  0.00    -0.744 OA
ENDBRANCH  77  80
ENDBRANCH  49  73
BRANCH  61  84
ATOM     84  C   UNL A   1      44.385  28.293  34.871  1.00  0.00     0.023 A 
ATOM     85  C   UNL A   1      45.697  28.791  34.755  1.00  0.00     0.012 A 
ATOM     86  C   UNL A   1      44.151  27.133  35.634  1.00  0.00     0.148 A 
ATOM     87  C   UNL A   1      46.763  28.130  35.364  1.00  0.00     0.002 A 
ATOM     88  C   UNL A   1      45.213  26.502  36.272  1.00  0.00     0.091 A 
ATOM     89  F   UNL A   1      42.898  26.659  35.715  1.00  0.00    -0.205 F 
ATOM     90  C   UNL A   1      46.521  26.993  36.130  1.00  0.00     0.022 A 
BRANCH  88  91
ATOM     91  S   UNL A   1      44.969  25.083  37.347  1.00  0.00     0.127 S 
ATOM     92  O   UNL A   1      46.337  24.784  37.765  1.00  0.00    -0.237 OA
ATOM     93  O   UNL A   1      44.114  25.628  38.403  1.00  0.00    -0.237 OA
ATOM     94  O   UNL A   1      44.324  24.071  36.520  1.00  0.00    -0.744 OA
ENDBRANCH  88  91
ENDBRANCH  61  84
ENDBRANCH  35  36
ENDBRANCH  27  30
ENDBRANCH  25  26
ENDBRANCH   1  25
TORSDOF 15
ENDMDL
