MODEL 1
REMARK VINA RESULT:     -12.3      0.000      0.000
REMARK SMILES CCc1cccc(C)c1Nc1ccccc1CC(=O)NCCCNC(=O)c1ccc(-c2c3nc(c(-c4cccc(S(=O)(=O)[O-])c4F)c4ccc([nH]4)c(-c4cccc(S(=O)(=O)[O-])c4F)c4nc(c(-c5cccc(S(=O)(=O)[O-])c5F)c5ccc2[nH]5)C=C4)C=C3)cc1
REMARK SMILES IDX 21 1 20 2 18 3 19 4 17 6 16 7 11 8 12 9 13 10 15 11 14 12
REMARK SMILES IDX 10 13 9 15 3 16 4 17 5 18 7 19 6 20 8 21 2 22 1 23 22 24
REMARK SMILES IDX 23 25 24 26 25 27 26 29 27 30 28 31 89 32 29 33 88 34 30 35
REMARK SMILES IDX 31 36 32 37 82 38 33 39 87 40 81 41 83 42 34 43 86 44 80 45
REMARK SMILES IDX 79 46 35 48 67 49 47 50 66 51 48 52 51 53 65 54 84 55 49 56
REMARK SMILES IDX 50 57 64 59 85 60 52 61 36 62 37 63 45 64 38 65 40 66 46 67
REMARK SMILES IDX 39 68 41 69 42 70 43 71 44 72 68 73 69 74 77 75 70 76 72 77
REMARK SMILES IDX 78 78 71 79 73 80 74 81 75 82 76 83 53 84 54 85 62 86 55 87
REMARK SMILES IDX 57 88 63 89 56 90 58 91 59 92 60 93 61 94
REMARK H PARENT 20 5 10 14 24 28 83 47 51 58
REMARK Flexibility Score: inf
ROOT
ATOM      1  C   UNL A   1      36.478  23.906  25.784  1.00  0.00     0.117 C 
ENDROOT
BRANCH   1   2
ATOM      2  N   UNL A   1      35.827  23.712  24.502  1.00  0.00    -0.356 N 
ATOM      3  C   UNL A   1      34.703  24.291  23.983  1.00  0.00     0.224 C 
ATOM      4  O   UNL A   1      34.629  24.375  22.753  1.00  0.00    -0.275 OA
ATOM      5  H   UNL A   1      36.265  23.058  23.911  1.00  0.00     0.163 HD
BRANCH   3   6
ATOM      6  C   UNL A   1      33.656  24.949  24.857  1.00  0.00     0.137 C 
BRANCH   6   7
ATOM      7  C   UNL A   1      32.479  24.113  25.317  1.00  0.00    -0.015 A 
ATOM      8  C   UNL A   1      31.390  24.616  26.064  1.00  0.00     0.042 A 
ATOM      9  C   UNL A   1      30.405  23.712  26.518  1.00  0.00     0.026 A 
ATOM     10  C   UNL A   1      30.467  22.351  26.227  1.00  0.00     0.002 A 
ATOM     11  C   UNL A   1      32.543  22.722  25.072  1.00  0.00     0.006 A 
ATOM     12  C   UNL A   1      31.539  21.855  25.501  1.00  0.00     0.000 A 
BRANCH   8  13
ATOM     13  N   UNL A   1      31.174  25.981  26.355  1.00  0.00    -0.355 N 
ATOM     14  H   UNL A   1      31.033  26.174  27.309  1.00  0.00     0.167 HD
BRANCH  13  15
ATOM     15  C   UNL A   1      31.124  27.124  25.515  1.00  0.00     0.045 A 
ATOM     16  C   UNL A   1      31.972  28.237  25.745  1.00  0.00    -0.024 A 
ATOM     17  C   UNL A   1      32.114  29.207  24.720  1.00  0.00     0.006 A 
ATOM     18  C   UNL A   1      31.406  29.131  23.530  1.00  0.00     0.001 A 
ATOM     19  C   UNL A   1      30.267  27.175  24.385  1.00  0.00    -0.027 A 
ATOM     20  C   UNL A   1      30.460  28.136  23.378  1.00  0.00     0.005 A 
ATOM     21  C   UNL A   1      29.063  26.291  24.256  1.00  0.00     0.046 C 
BRANCH  16  22
ATOM     22  C   UNL A   1      32.770  28.573  26.994  1.00  0.00     0.034 C 
ATOM     23  C   UNL A   1      33.309  29.971  27.249  1.00  0.00     0.009 C 
ENDBRANCH  16  22
ENDBRANCH  13  15
ENDBRANCH   8  13
ENDBRANCH   6   7
ENDBRANCH   3   6
ENDBRANCH   1   2
BRANCH   1  24
ATOM     24  C   UNL A   1      37.339  22.746  26.269  1.00  0.00     0.042 C 
BRANCH  24  25
ATOM     25  C   UNL A   1      38.764  22.713  25.721  1.00  0.00     0.118 C 
BRANCH  25  26
ATOM     26  N   UNL A   1      39.773  22.580  26.764  1.00  0.00    -0.352 N 
ATOM     27  C   UNL A   1      40.409  23.560  27.506  1.00  0.00     0.251 C 
ATOM     28  H   UNL A   1      40.042  21.657  26.972  1.00  0.00     0.163 HD
ATOM     29  O   UNL A   1      41.389  23.257  28.181  1.00  0.00    -0.269 OA
BRANCH  27  30
ATOM     30  C   UNL A   1      39.813  24.913  27.589  1.00  0.00     0.039 A 
ATOM     31  C   UNL A   1      40.369  25.912  26.781  1.00  0.00     0.014 A 
ATOM     32  C   UNL A   1      38.908  25.249  28.590  1.00  0.00     0.014 A 
ATOM     33  C   UNL A   1      40.238  27.249  27.149  1.00  0.00     0.010 A 
ATOM     34  C   UNL A   1      38.825  26.567  28.995  1.00  0.00     0.010 A 
ATOM     35  C   UNL A   1      39.561  27.549  28.326  1.00  0.00    -0.014 A 
BRANCH  35  36
ATOM     36  C   UNL A   1      39.625  28.838  28.993  1.00  0.00     0.031 A 
ATOM     37  C   UNL A   1      38.642  29.890  28.692  1.00  0.00     0.074 A 
ATOM     38  C   UNL A   1      40.521  29.014  29.991  1.00  0.00     0.049 A 
ATOM     39  N   UNL A   1      38.806  31.129  29.002  1.00  0.00    -0.248 NA
ATOM     40  C   UNL A   1      37.398  29.622  27.986  1.00  0.00     0.031 C 
ATOM     41  C   UNL A   1      40.515  30.051  31.016  1.00  0.00     0.029 A 
ATOM     42  N   UNL A   1      41.764  28.392  30.141  1.00  0.00    -0.354 N 
ATOM     43  C   UNL A   1      37.609  31.771  28.787  1.00  0.00     0.074 A 
ATOM     44  C   UNL A   1      36.787  30.807  28.091  1.00  0.00     0.031 C 
ATOM     45  C   UNL A   1      41.761  30.191  31.492  1.00  0.00     0.029 A 
ATOM     46  C   UNL A   1      42.628  29.372  30.664  1.00  0.00     0.049 A 
ATOM     47  H   UNL A   1      41.989  27.459  29.926  1.00  0.00     0.167 HD
ATOM     48  C   UNL A   1      37.408  32.997  29.347  1.00  0.00     0.034 A 
ATOM     49  C   UNL A   1      43.758  29.799  30.028  1.00  0.00     0.034 A 
ATOM     50  C   UNL A   1      38.607  33.463  30.059  1.00  0.00     0.049 A 
ATOM     51  C   UNL A   1      43.769  31.296  29.742  1.00  0.00     0.074 A 
ATOM     52  C   UNL A   1      39.005  33.475  31.387  1.00  0.00     0.029 A 
ATOM     53  N   UNL A   1      39.737  33.771  29.322  1.00  0.00    -0.354 N 
ATOM     54  N   UNL A   1      42.846  32.139  30.120  1.00  0.00    -0.248 NA
ATOM     55  C   UNL A   1      44.784  31.936  28.906  1.00  0.00     0.031 C 
ATOM     56  C   UNL A   1      40.392  33.801  31.435  1.00  0.00     0.029 A 
ATOM     57  C   UNL A   1      40.831  34.006  30.140  1.00  0.00     0.049 A 
ATOM     58  H   UNL A   1      39.762  33.817  28.339  1.00  0.00     0.167 HD
ATOM     59  C   UNL A   1      43.025  33.340  29.474  1.00  0.00     0.074 A 
ATOM     60  C   UNL A   1      44.277  33.171  28.757  1.00  0.00     0.031 C 
ATOM     61  C   UNL A   1      42.097  34.350  29.510  1.00  0.00     0.034 A 
BRANCH  48  62
ATOM     62  C   UNL A   1      36.050  33.658  29.494  1.00  0.00     0.023 A 
ATOM     63  C   UNL A   1      35.402  34.078  28.311  1.00  0.00     0.012 A 
ATOM     64  C   UNL A   1      35.385  33.951  30.705  1.00  0.00     0.148 A 
ATOM     65  C   UNL A   1      34.232  34.843  28.325  1.00  0.00     0.002 A 
ATOM     66  C   UNL A   1      34.260  34.783  30.726  1.00  0.00     0.091 A 
ATOM     67  F   UNL A   1      35.782  33.362  31.838  1.00  0.00    -0.205 F 
ATOM     68  C   UNL A   1      33.684  35.234  29.536  1.00  0.00     0.022 A 
BRANCH  66  69
ATOM     69  S   UNL A   1      33.552  35.418  32.256  1.00  0.00     0.127 S 
ATOM     70  O   UNL A   1      32.537  36.352  31.761  1.00  0.00    -0.237 OA
ATOM     71  O   UNL A   1      33.012  34.214  32.882  1.00  0.00    -0.237 OA
ATOM     72  O   UNL A   1      34.648  36.063  32.970  1.00  0.00    -0.744 OA
ENDBRANCH  66  69
ENDBRANCH  48  62
BRANCH  49  73
ATOM     73  C   UNL A   1      44.379  28.750  29.165  1.00  0.00     0.023 A 
ATOM     74  C   UNL A   1      44.881  27.596  29.816  1.00  0.00     0.012 A 
ATOM     75  C   UNL A   1      44.135  28.696  27.783  1.00  0.00     0.148 A 
ATOM     76  C   UNL A   1      45.001  26.385  29.134  1.00  0.00     0.002 A 
ATOM     77  C   UNL A   1      44.269  27.485  27.108  1.00  0.00     0.091 A 
ATOM     78  F   UNL A   1      43.699  29.798  27.162  1.00  0.00    -0.205 F 
ATOM     79  C   UNL A   1      44.660  26.321  27.788  1.00  0.00     0.022 A 
BRANCH  77  80
ATOM     80  S   UNL A   1      43.821  27.338  25.374  1.00  0.00     0.127 S 
ATOM     81  O   UNL A   1      42.681  28.246  25.291  1.00  0.00    -0.237 OA
ATOM     82  O   UNL A   1      45.029  27.804  24.695  1.00  0.00    -0.237 OA
ATOM     83  O   UNL A   1      43.540  25.922  25.186  1.00  0.00    -0.744 OA
ENDBRANCH  77  80
ENDBRANCH  49  73
BRANCH  61  84
ATOM     84  C   UNL A   1      42.270  35.726  28.874  1.00  0.00     0.023 A 
ATOM     85  C   UNL A   1      41.789  36.003  27.580  1.00  0.00     0.012 A 
ATOM     86  C   UNL A   1      43.009  36.768  29.501  1.00  0.00     0.148 A 
ATOM     87  C   UNL A   1      41.906  37.272  26.998  1.00  0.00     0.002 A 
ATOM     88  C   UNL A   1      43.151  38.021  28.911  1.00  0.00     0.091 A 
ATOM     89  F   UNL A   1      43.623  36.547  30.667  1.00  0.00    -0.205 F 
ATOM     90  C   UNL A   1      42.571  38.287  27.670  1.00  0.00     0.022 A 
BRANCH  88  91
ATOM     91  S   UNL A   1      44.101  39.348  29.671  1.00  0.00     0.127 S 
ATOM     92  O   UNL A   1      43.423  39.493  30.959  1.00  0.00    -0.237 OA
ATOM     93  O   UNL A   1      45.436  38.755  29.749  1.00  0.00    -0.237 OA
ATOM     94  O   UNL A   1      43.993  40.492  28.779  1.00  0.00    -0.744 OA
ENDBRANCH  88  91
ENDBRANCH  61  84
ENDBRANCH  35  36
ENDBRANCH  27  30
ENDBRANCH  25  26
ENDBRANCH  24  25
ENDBRANCH   1  24
TORSDOF 17
ENDMDL
MODEL 2
REMARK VINA RESULT:     -12.2      3.905     10.017
REMARK SMILES CCc1cccc(C)c1Nc1ccccc1CC(=O)NCCCNC(=O)c1ccc(-c2c3nc(c(-c4cccc(S(=O)(=O)[O-])c4F)c4ccc([nH]4)c(-c4cccc(S(=O)(=O)[O-])c4F)c4nc(c(-c5cccc(S(=O)(=O)[O-])c5F)c5ccc2[nH]5)C=C4)C=C3)cc1
REMARK SMILES IDX 21 1 20 2 18 3 19 4 17 6 16 7 11 8 12 9 13 10 15 11 14 12
REMARK SMILES IDX 10 13 9 15 3 16 4 17 5 18 7 19 6 20 8 21 2 22 1 23 22 24
REMARK SMILES IDX 23 25 24 26 25 27 26 29 27 30 28 31 89 32 29 33 88 34 30 35
REMARK SMILES IDX 31 36 32 37 82 38 33 39 87 40 81 41 83 42 34 43 86 44 80 45
REMARK SMILES IDX 79 46 35 48 67 49 47 50 66 51 48 52 51 53 65 54 84 55 49 56
REMARK SMILES IDX 50 57 64 59 85 60 52 61 36 62 37 63 45 64 38 65 40 66 46 67
REMARK SMILES IDX 39 68 41 69 42 70 43 71 44 72 68 73 69 74 77 75 70 76 72 77
REMARK SMILES IDX 78 78 71 79 73 80 74 81 75 82 76 83 53 84 54 85 62 86 55 87
REMARK SMILES IDX 57 88 63 89 56 90 58 91 59 92 60 93 61 94
REMARK H PARENT 20 5 10 14 24 28 83 47 51 58
REMARK Flexibility Score: inf
ROOT
ATOM      1  C   UNL A   1      33.195  28.919  27.417  1.00  0.00     0.117 C 
ENDROOT
BRANCH   1   2
ATOM      2  N   UNL A   1      32.198  27.904  27.130  1.00  0.00    -0.356 N 
ATOM      3  C   UNL A   1      32.324  26.686  26.525  1.00  0.00     0.224 C 
ATOM      4  O   UNL A   1      31.507  25.814  26.839  1.00  0.00    -0.275 OA
ATOM      5  H   UNL A   1      31.284  28.130  27.417  1.00  0.00     0.163 HD
BRANCH   3   6
ATOM      6  C   UNL A   1      33.496  26.346  25.630  1.00  0.00     0.137 C 
BRANCH   6   7
ATOM      7  C   UNL A   1      33.211  25.966  24.190  1.00  0.00    -0.015 A 
ATOM      8  C   UNL A   1      33.126  24.636  23.721  1.00  0.00     0.042 A 
ATOM      9  C   UNL A   1      32.954  24.416  22.337  1.00  0.00     0.026 A 
ATOM     10  C   UNL A   1      32.842  25.471  21.434  1.00  0.00     0.002 A 
ATOM     11  C   UNL A   1      33.139  27.019  23.250  1.00  0.00     0.006 A 
ATOM     12  C   UNL A   1      32.934  26.776  21.892  1.00  0.00     0.000 A 
BRANCH   8  13
ATOM     13  N   UNL A   1      33.145  23.487  24.544  1.00  0.00    -0.355 N 
ATOM     14  H   UNL A   1      32.431  23.463  25.221  1.00  0.00     0.167 HD
BRANCH  13  15
ATOM     15  C   UNL A   1      34.010  22.363  24.567  1.00  0.00     0.045 A 
ATOM     16  C   UNL A   1      35.362  22.491  24.978  1.00  0.00    -0.024 A 
ATOM     17  C   UNL A   1      36.093  21.315  25.285  1.00  0.00     0.006 A 
ATOM     18  C   UNL A   1      35.547  20.047  25.139  1.00  0.00     0.001 A 
ATOM     19  C   UNL A   1      33.545  21.064  24.236  1.00  0.00    -0.027 A 
ATOM     20  C   UNL A   1      34.288  19.923  24.584  1.00  0.00     0.005 A 
ATOM     21  C   UNL A   1      32.309  20.844  23.416  1.00  0.00     0.046 C 
BRANCH  16  22
ATOM     22  C   UNL A   1      36.189  23.757  25.122  1.00  0.00     0.034 C 
ATOM     23  C   UNL A   1      37.601  23.732  25.682  1.00  0.00     0.009 C 
ENDBRANCH  16  22
ENDBRANCH  13  15
ENDBRANCH   8  13
ENDBRANCH   6   7
ENDBRANCH   3   6
ENDBRANCH   1   2
BRANCH   1  24
ATOM     24  C   UNL A   1      32.718  30.363  27.306  1.00  0.00     0.042 C 
BRANCH  24  25
ATOM     25  C   UNL A   1      33.818  31.404  27.109  1.00  0.00     0.118 C 
BRANCH  25  26
ATOM     26  N   UNL A   1      34.197  32.073  28.347  1.00  0.00    -0.352 N 
ATOM     27  C   UNL A   1      35.021  31.636  29.369  1.00  0.00     0.251 C 
ATOM     28  H   UNL A   1      33.809  32.968  28.475  1.00  0.00     0.163 HD
ATOM     29  O   UNL A   1      35.038  32.255  30.430  1.00  0.00    -0.269 OA
BRANCH  27  30
ATOM     30  C   UNL A   1      35.970  30.528  29.117  1.00  0.00     0.039 A 
ATOM     31  C   UNL A   1      36.321  29.721  30.206  1.00  0.00     0.014 A 
ATOM     32  C   UNL A   1      36.674  30.430  27.921  1.00  0.00     0.014 A 
ATOM     33  C   UNL A   1      37.529  29.029  30.191  1.00  0.00     0.010 A 
ATOM     34  C   UNL A   1      37.901  29.796  27.923  1.00  0.00     0.010 A 
ATOM     35  C   UNL A   1      38.362  29.174  29.087  1.00  0.00    -0.014 A 
BRANCH  35  36
ATOM     36  C   UNL A   1      39.763  28.788  29.069  1.00  0.00     0.031 A 
ATOM     37  C   UNL A   1      40.158  27.408  28.751  1.00  0.00     0.074 A 
ATOM     38  C   UNL A   1      40.707  29.745  29.221  1.00  0.00     0.049 A 
ATOM     39  N   UNL A   1      41.323  26.922  29.007  1.00  0.00    -0.248 NA
ATOM     40  C   UNL A   1      39.247  26.453  28.137  1.00  0.00     0.031 C 
ATOM     41  C   UNL A   1      42.121  29.658  28.879  1.00  0.00     0.029 A 
ATOM     42  N   UNL A   1      40.602  30.941  29.937  1.00  0.00    -0.354 N 
ATOM     43  C   UNL A   1      41.414  25.707  28.371  1.00  0.00     0.074 A 
ATOM     44  C   UNL A   1      40.075  25.429  27.901  1.00  0.00     0.031 C 
ATOM     45  C   UNL A   1      42.793  30.569  29.597  1.00  0.00     0.029 A 
ATOM     46  C   UNL A   1      41.855  31.142  30.544  1.00  0.00     0.049 A 
ATOM     47  H   UNL A   1      39.811  31.525  30.002  1.00  0.00     0.167 HD
ATOM     48  C   UNL A   1      42.642  25.143  28.197  1.00  0.00     0.034 A 
ATOM     49  C   UNL A   1      42.035  31.223  31.895  1.00  0.00     0.034 A 
ATOM     50  C   UNL A   1      43.696  25.955  28.822  1.00  0.00     0.049 A 
ATOM     51  C   UNL A   1      42.995  30.176  32.446  1.00  0.00     0.074 A 
ATOM     52  C   UNL A   1      44.610  26.888  28.355  1.00  0.00     0.029 A 
ATOM     53  N   UNL A   1      43.725  26.054  30.202  1.00  0.00    -0.354 N 
ATOM     54  N   UNL A   1      43.662  29.316  31.724  1.00  0.00    -0.248 NA
ATOM     55  C   UNL A   1      43.189  29.953  33.879  1.00  0.00     0.031 C 
ATOM     56  C   UNL A   1      45.192  27.545  29.480  1.00  0.00     0.029 A 
ATOM     57  C   UNL A   1      44.646  26.998  30.626  1.00  0.00     0.049 A 
ATOM     58  H   UNL A   1      43.160  25.521  30.807  1.00  0.00     0.167 HD
ATOM     59  C   UNL A   1      44.214  28.357  32.542  1.00  0.00     0.074 A 
ATOM     60  C   UNL A   1      43.920  28.827  33.885  1.00  0.00     0.031 C 
ATOM     61  C   UNL A   1      44.797  27.214  32.058  1.00  0.00     0.034 A 
BRANCH  48  62
ATOM     62  C   UNL A   1      42.935  24.012  27.228  1.00  0.00     0.023 A 
ATOM     63  C   UNL A   1      43.636  24.337  26.045  1.00  0.00     0.012 A 
ATOM     64  C   UNL A   1      42.529  22.667  27.359  1.00  0.00     0.148 A 
ATOM     65  C   UNL A   1      43.820  23.422  25.004  1.00  0.00     0.002 A 
ATOM     66  C   UNL A   1      42.640  21.772  26.289  1.00  0.00     0.091 A 
ATOM     67  F   UNL A   1      42.107  22.215  28.546  1.00  0.00    -0.205 F 
ATOM     68  C   UNL A   1      43.282  22.150  25.108  1.00  0.00     0.022 A 
BRANCH  66  69
ATOM     69  S   UNL A   1      41.879  20.139  26.306  1.00  0.00     0.127 S 
ATOM     70  O   UNL A   1      42.257  19.637  27.629  1.00  0.00    -0.237 OA
ATOM     71  O   UNL A   1      40.459  20.448  26.160  1.00  0.00    -0.237 OA
ATOM     72  O   UNL A   1      42.481  19.402  25.201  1.00  0.00    -0.744 OA
ENDBRANCH  66  69
ENDBRANCH  48  62
BRANCH  49  73
ATOM     73  C   UNL A   1      40.847  31.770  32.615  1.00  0.00     0.023 A 
ATOM     74  C   UNL A   1      39.792  30.867  32.894  1.00  0.00     0.012 A 
ATOM     75  C   UNL A   1      40.913  32.975  33.333  1.00  0.00     0.148 A 
ATOM     76  C   UNL A   1      38.913  31.097  33.952  1.00  0.00     0.002 A 
ATOM     77  C   UNL A   1      40.024  33.202  34.381  1.00  0.00     0.091 A 
ATOM     78  F   UNL A   1      41.887  33.846  33.042  1.00  0.00    -0.205 F 
ATOM     79  C   UNL A   1      39.052  32.248  34.719  1.00  0.00     0.022 A 
BRANCH  77  80
ATOM     80  S   UNL A   1      40.172  34.661  35.420  1.00  0.00     0.127 S 
ATOM     81  O   UNL A   1      39.369  35.629  34.679  1.00  0.00    -0.237 OA
ATOM     82  O   UNL A   1      39.583  34.211  36.681  1.00  0.00    -0.237 OA
ATOM     83  O   UNL A   1      41.603  34.918  35.489  1.00  0.00    -0.744 OA
ENDBRANCH  77  80
ENDBRANCH  49  73
BRANCH  61  84
ATOM     84  C   UNL A   1      45.486  26.150  32.908  1.00  0.00     0.023 A 
ATOM     85  C   UNL A   1      46.853  25.851  32.746  1.00  0.00     0.012 A 
ATOM     86  C   UNL A   1      44.774  25.333  33.831  1.00  0.00     0.148 A 
ATOM     87  C   UNL A   1      47.508  24.905  33.546  1.00  0.00     0.002 A 
ATOM     88  C   UNL A   1      45.419  24.371  34.605  1.00  0.00     0.091 A 
ATOM     89  F   UNL A   1      43.448  25.448  33.944  1.00  0.00    -0.205 F 
ATOM     90  C   UNL A   1      46.795  24.177  34.487  1.00  0.00     0.022 A 
BRANCH  88  91
ATOM     91  S   UNL A   1      44.539  23.308  35.761  1.00  0.00     0.127 S 
ATOM     92  O   UNL A   1      44.117  24.270  36.779  1.00  0.00    -0.237 OA
ATOM     93  O   UNL A   1      43.454  22.791  34.926  1.00  0.00    -0.237 OA
ATOM     94  O   UNL A   1      45.496  22.308  36.207  1.00  0.00    -0.744 OA
ENDBRANCH  88  91
ENDBRANCH  61  84
ENDBRANCH  35  36
ENDBRANCH  27  30
ENDBRANCH  25  26
ENDBRANCH  24  25
ENDBRANCH   1  24
TORSDOF 17
ENDMDL
MODEL 3
REMARK VINA RESULT:     -12.1      4.029     10.182
REMARK SMILES CCc1cccc(C)c1Nc1ccccc1CC(=O)NCCCNC(=O)c1ccc(-c2c3nc(c(-c4cccc(S(=O)(=O)[O-])c4F)c4ccc([nH]4)c(-c4cccc(S(=O)(=O)[O-])c4F)c4nc(c(-c5cccc(S(=O)(=O)[O-])c5F)c5ccc2[nH]5)C=C4)C=C3)cc1
REMARK SMILES IDX 21 1 20 2 18 3 19 4 17 6 16 7 11 8 12 9 13 10 15 11 14 12
REMARK SMILES IDX 10 13 9 15 3 16 4 17 5 18 7 19 6 20 8 21 2 22 1 23 22 24
REMARK SMILES IDX 23 25 24 26 25 27 26 29 27 30 28 31 89 32 29 33 88 34 30 35
REMARK SMILES IDX 31 36 32 37 82 38 33 39 87 40 81 41 83 42 34 43 86 44 80 45
REMARK SMILES IDX 79 46 35 48 67 49 47 50 66 51 48 52 51 53 65 54 84 55 49 56
REMARK SMILES IDX 50 57 64 59 85 60 52 61 36 62 37 63 45 64 38 65 40 66 46 67
REMARK SMILES IDX 39 68 41 69 42 70 43 71 44 72 68 73 69 74 77 75 70 76 72 77
REMARK SMILES IDX 78 78 71 79 73 80 74 81 75 82 76 83 53 84 54 85 62 86 55 87
REMARK SMILES IDX 57 88 63 89 56 90 58 91 59 92 60 93 61 94
REMARK H PARENT 20 5 10 14 24 28 83 47 51 58
REMARK Flexibility Score: inf
ROOT
ATOM      1  C   UNL A   1      33.511  29.785  26.724  1.00  0.00     0.117 C 
ENDROOT
BRANCH   1   2
ATOM      2  N   UNL A   1      32.429  28.821  26.670  1.00  0.00    -0.356 N 
ATOM      3  C   UNL A   1      32.460  27.458  26.582  1.00  0.00     0.224 C 
ATOM      4  O   UNL A   1      31.502  26.840  27.055  1.00  0.00    -0.275 OA
ATOM      5  H   UNL A   1      31.525  29.211  26.702  1.00  0.00     0.163 HD
BRANCH   3   6
ATOM      6  C   UNL A   1      33.675  26.710  26.075  1.00  0.00     0.137 C 
BRANCH   6   7
ATOM      7  C   UNL A   1      33.572  25.994  24.743  1.00  0.00    -0.015 A 
ATOM      8  C   UNL A   1      33.978  24.658  24.524  1.00  0.00     0.042 A 
ATOM      9  C   UNL A   1      33.922  24.139  23.213  1.00  0.00     0.026 A 
ATOM     10  C   UNL A   1      33.454  24.898  22.142  1.00  0.00     0.002 A 
ATOM     11  C   UNL A   1      33.142  26.758  23.634  1.00  0.00     0.006 A 
ATOM     12  C   UNL A   1      33.062  26.211  22.354  1.00  0.00     0.000 A 
BRANCH   8  13
ATOM     13  N   UNL A   1      34.395  23.766  25.538  1.00  0.00    -0.355 N 
ATOM     14  H   UNL A   1      34.065  23.993  26.437  1.00  0.00     0.167 HD
BRANCH  13  15
ATOM     15  C   UNL A   1      35.205  22.601  25.490  1.00  0.00     0.045 A 
ATOM     16  C   UNL A   1      34.623  21.312  25.382  1.00  0.00    -0.024 A 
ATOM     17  C   UNL A   1      35.454  20.220  25.025  1.00  0.00     0.006 A 
ATOM     18  C   UNL A   1      36.821  20.363  24.837  1.00  0.00     0.001 A 
ATOM     19  C   UNL A   1      36.621  22.684  25.491  1.00  0.00    -0.027 A 
ATOM     20  C   UNL A   1      37.406  21.586  25.103  1.00  0.00     0.005 A 
ATOM     21  C   UNL A   1      37.349  23.892  26.000  1.00  0.00     0.046 C 
BRANCH  16  22
ATOM     22  C   UNL A   1      33.180  20.905  25.628  1.00  0.00     0.034 C 
ATOM     23  C   UNL A   1      32.333  20.262  24.542  1.00  0.00     0.009 C 
ENDBRANCH  16  22
ENDBRANCH  13  15
ENDBRANCH   8  13
ENDBRANCH   6   7
ENDBRANCH   3   6
ENDBRANCH   1   2
BRANCH   1  24
ATOM     24  C   UNL A   1      33.277  30.991  27.627  1.00  0.00     0.042 C 
BRANCH  24  25
ATOM     25  C   UNL A   1      34.388  32.038  27.625  1.00  0.00     0.118 C 
BRANCH  25  26
ATOM     26  N   UNL A   1      34.786  32.449  28.965  1.00  0.00    -0.352 N 
ATOM     27  C   UNL A   1      35.523  31.765  29.915  1.00  0.00     0.251 C 
ATOM     28  H   UNL A   1      34.488  33.348  29.234  1.00  0.00     0.163 HD
ATOM     29  O   UNL A   1      35.563  32.195  31.065  1.00  0.00    -0.269 OA
BRANCH  27  30
ATOM     30  C   UNL A   1      36.363  30.618  29.499  1.00  0.00     0.039 A 
ATOM     31  C   UNL A   1      36.667  29.658  30.471  1.00  0.00     0.014 A 
ATOM     32  C   UNL A   1      37.024  30.607  28.276  1.00  0.00     0.014 A 
ATOM     33  C   UNL A   1      37.809  28.873  30.331  1.00  0.00     0.010 A 
ATOM     34  C   UNL A   1      38.191  29.875  28.159  1.00  0.00     0.010 A 
ATOM     35  C   UNL A   1      38.624  29.079  29.223  1.00  0.00    -0.014 A 
BRANCH  35  36
ATOM     36  C   UNL A   1      39.983  28.580  29.109  1.00  0.00     0.031 A 
ATOM     37  C   UNL A   1      40.243  27.146  28.910  1.00  0.00     0.074 A 
ATOM     38  C   UNL A   1      41.003  29.467  29.059  1.00  0.00     0.049 A 
ATOM     39  N   UNL A   1      41.392  26.596  29.102  1.00  0.00    -0.248 NA
ATOM     40  C   UNL A   1      39.206  26.211  28.499  1.00  0.00     0.031 C 
ATOM     41  C   UNL A   1      42.362  29.230  28.589  1.00  0.00     0.029 A 
ATOM     42  N   UNL A   1      41.061  30.736  29.643  1.00  0.00    -0.354 N 
ATOM     43  C   UNL A   1      41.327  25.318  28.599  1.00  0.00     0.074 A 
ATOM     44  C   UNL A   1      39.929  25.103  28.298  1.00  0.00     0.031 C 
ATOM     45  C   UNL A   1      43.171  30.152  29.130  1.00  0.00     0.029 A 
ATOM     46  C   UNL A   1      42.383  30.895  30.096  1.00  0.00     0.049 A 
ATOM     47  H   UNL A   1      40.325  31.385  29.721  1.00  0.00     0.167 HD
ATOM     48  C   UNL A   1      42.487  24.641  28.367  1.00  0.00     0.034 A 
ATOM     49  C   UNL A   1      42.713  31.101  31.405  1.00  0.00     0.034 A 
ATOM     50  C   UNL A   1      43.657  25.424  28.791  1.00  0.00     0.049 A 
ATOM     51  C   UNL A   1      43.650  30.041  31.971  1.00  0.00     0.074 A 
ATOM     52  C   UNL A   1      44.578  26.225  28.134  1.00  0.00     0.029 A 
ATOM     53  N   UNL A   1      43.841  25.663  30.141  1.00  0.00    -0.354 N 
ATOM     54  N   UNL A   1      44.174  29.060  31.288  1.00  0.00    -0.248 NA
ATOM     55  C   UNL A   1      43.981  29.954  33.394  1.00  0.00     0.031 C 
ATOM     56  C   UNL A   1      45.323  26.946  29.114  1.00  0.00     0.029 A 
ATOM     57  C   UNL A   1      44.867  26.567  30.364  1.00  0.00     0.049 A 
ATOM     58  H   UNL A   1      43.308  25.243  30.855  1.00  0.00     0.167 HD
ATOM     59  C   UNL A   1      44.741  28.149  32.148  1.00  0.00     0.074 A 
ATOM     60  C   UNL A   1      44.627  28.778  33.453  1.00  0.00     0.031 C 
ATOM     61  C   UNL A   1      45.186  26.917  31.740  1.00  0.00     0.034 A 
BRANCH  48  62
ATOM     62  C   UNL A   1      42.593  23.395  27.507  1.00  0.00     0.023 A 
ATOM     63  C   UNL A   1      41.857  22.260  27.917  1.00  0.00     0.012 A 
ATOM     64  C   UNL A   1      43.402  23.231  26.362  1.00  0.00     0.148 A 
ATOM     65  C   UNL A   1      42.000  21.010  27.307  1.00  0.00     0.002 A 
ATOM     66  C   UNL A   1      43.608  21.966  25.799  1.00  0.00     0.091 A 
ATOM     67  F   UNL A   1      43.913  24.306  25.752  1.00  0.00    -0.205 F 
ATOM     68  C   UNL A   1      42.910  20.852  26.275  1.00  0.00     0.022 A 
BRANCH  66  69
ATOM     69  S   UNL A   1      44.847  21.659  24.528  1.00  0.00     0.127 S 
ATOM     70  O   UNL A   1      46.092  21.988  25.226  1.00  0.00    -0.237 OA
ATOM     71  O   UNL A   1      44.669  20.237  24.245  1.00  0.00    -0.237 OA
ATOM     72  O   UNL A   1      44.529  22.565  23.429  1.00  0.00    -0.744 OA
ENDBRANCH  66  69
ENDBRANCH  48  62
BRANCH  49  73
ATOM     73  C   UNL A   1      41.651  31.815  32.174  1.00  0.00     0.023 A 
ATOM     74  C   UNL A   1      41.358  33.145  31.784  1.00  0.00     0.012 A 
ATOM     75  C   UNL A   1      40.716  31.118  32.958  1.00  0.00     0.148 A 
ATOM     76  C   UNL A   1      40.111  33.711  32.049  1.00  0.00     0.002 A 
ATOM     77  C   UNL A   1      39.478  31.696  33.228  1.00  0.00     0.091 A 
ATOM     78  F   UNL A   1      41.010  29.876  33.360  1.00  0.00    -0.205 F 
ATOM     79  C   UNL A   1      39.157  32.973  32.740  1.00  0.00     0.022 A 
BRANCH  77  80
ATOM     80  S   UNL A   1      38.199  30.779  34.096  1.00  0.00     0.127 S 
ATOM     81  O   UNL A   1      38.558  31.027  35.489  1.00  0.00    -0.237 OA
ATOM     82  O   UNL A   1      36.976  31.444  33.649  1.00  0.00    -0.237 OA
ATOM     83  O   UNL A   1      38.341  29.411  33.620  1.00  0.00    -0.744 OA
ENDBRANCH  77  80
ENDBRANCH  49  73
BRANCH  61  84
ATOM     84  C   UNL A   1      45.886  25.895  32.631  1.00  0.00     0.023 A 
ATOM     85  C   UNL A   1      47.284  25.733  32.606  1.00  0.00     0.012 A 
ATOM     86  C   UNL A   1      45.167  24.982  33.453  1.00  0.00     0.148 A 
ATOM     87  C   UNL A   1      47.945  24.826  33.446  1.00  0.00     0.002 A 
ATOM     88  C   UNL A   1      45.821  24.060  34.266  1.00  0.00     0.091 A 
ATOM     89  F   UNL A   1      43.831  24.966  33.429  1.00  0.00    -0.205 F 
ATOM     90  C   UNL A   1      47.214  24.001  34.289  1.00  0.00     0.022 A 
BRANCH  88  91
ATOM     91  S   UNL A   1      44.936  22.878  35.297  1.00  0.00     0.127 S 
ATOM     92  O   UNL A   1      44.240  23.766  36.228  1.00  0.00    -0.237 OA
ATOM     93  O   UNL A   1      44.068  22.219  34.320  1.00  0.00    -0.237 OA
ATOM     94  O   UNL A   1      45.946  22.018  35.894  1.00  0.00    -0.744 OA
ENDBRANCH  88  91
ENDBRANCH  61  84
ENDBRANCH  35  36
ENDBRANCH  27  30
ENDBRANCH  25  26
ENDBRANCH  24  25
ENDBRANCH   1  24
TORSDOF 17
ENDMDL
