MODEL 1
REMARK VINA RESULT:     -12.4      0.000      0.000
REMARK SMILES CN(C(=O)C[C@H]1SC(=O)N(c2cccc(O)c2)C1=O)c1ccccc1C(=O)NCCCNC(=O)c1ccc(-c2c3nc(c(-c4cccc(S(=O)(=O)[O-])c4F)c4ccc([nH]4)c(-c4cccc(S(=O)(=O)[O-])c4F)c4nc(c(-c5cccc(S(=O)(=O)[O-])c5F)c5ccc2[nH]5)C=C4)C=C3)cc1
REMARK SMILES IDX 26 1 27 2 28 3 25 5 20 6 21 7 22 8 24 9 23 10 2 11 1 12 3 13
REMARK SMILES IDX 4 14 5 15 6 16 7 17 18 18 8 19 10 20 19 21 9 22 11 23 12 24
REMARK SMILES IDX 17 25 13 26 15 27 14 28 16 29 29 31 30 32 31 33 32 34 33 35
REMARK SMILES IDX 34 37 35 38 36 39 97 40 37 41 96 42 38 43 39 44 40 45 90 46
REMARK SMILES IDX 41 47 95 48 89 49 91 50 42 51 94 52 88 53 87 54 43 56 75 57
REMARK SMILES IDX 55 58 74 59 56 60 59 61 73 62 92 63 57 64 58 65 72 67 93 68
REMARK SMILES IDX 60 69 44 70 45 71 53 72 46 73 48 74 54 75 47 76 49 77 50 78
REMARK SMILES IDX 51 79 52 80 76 81 77 82 85 83 78 84 80 85 86 86 79 87 81 88
REMARK SMILES IDX 82 89 83 90 84 91 61 92 62 93 70 94 63 95 65 96 71 97 64 98
REMARK SMILES IDX 66 99 67 100 68 101 69 102
REMARK H PARENT 28 4 16 30 32 36 91 55 59 66
REMARK Flexibility Score: inf
ROOT
ATOM      1  C   UNL A   1      36.511  22.466  23.853  1.00  0.00     0.253 C 
ATOM      2  O   UNL A   1      36.655  22.947  22.717  1.00  0.00    -0.269 OA
ATOM      3  N   UNL A   1      37.573  22.749  24.666  1.00  0.00    -0.352 N 
ATOM      4  H   UNL A   1      38.303  23.181  24.167  1.00  0.00     0.163 HD
ENDROOT
BRANCH   1   5
ATOM      5  C   UNL A   1      35.215  21.747  24.137  1.00  0.00     0.063 A 
ATOM      6  C   UNL A   1      33.868  22.159  24.115  1.00  0.00     0.056 A 
ATOM      7  C   UNL A   1      32.853  21.282  24.602  1.00  0.00     0.027 A 
ATOM      8  C   UNL A   1      33.135  20.035  25.141  1.00  0.00     0.002 A 
ATOM      9  C   UNL A   1      35.452  20.442  24.663  1.00  0.00     0.016 A 
ATOM     10  C   UNL A   1      34.445  19.609  25.168  1.00  0.00     0.001 A 
BRANCH   6  11
ATOM     11  N   UNL A   1      33.365  23.449  23.753  1.00  0.00    -0.315 N 
ATOM     12  C   UNL A   1      32.144  23.403  22.943  1.00  0.00     0.153 C 
BRANCH  11  13
ATOM     13  C   UNL A   1      33.575  24.458  24.717  1.00  0.00     0.228 C 
ATOM     14  O   UNL A   1      33.627  24.214  25.924  1.00  0.00    -0.274 OA
BRANCH  13  15
ATOM     15  C   UNL A   1      33.717  25.896  24.254  1.00  0.00     0.125 C 
BRANCH  15  16
ATOM     16  C   UNL A   1      32.475  26.665  24.628  1.00  0.00     0.156 C 
ATOM     17  S   UNL A   1      32.879  28.108  25.622  1.00  0.00    -0.050 SA
ATOM     18  C   UNL A   1      31.608  27.156  23.498  1.00  0.00     0.248 C 
ATOM     19  C   UNL A   1      31.652  29.080  24.833  1.00  0.00     0.293 C 
ATOM     20  N   UNL A   1      31.048  28.374  23.822  1.00  0.00    -0.240 N 
ATOM     21  O   UNL A   1      31.402  26.503  22.484  1.00  0.00    -0.273 OA
ATOM     22  O   UNL A   1      31.438  30.204  25.241  1.00  0.00    -0.261 OA
BRANCH  20  23
ATOM     23  C   UNL A   1      29.975  28.904  23.074  1.00  0.00     0.056 A 
ATOM     24  C   UNL A   1      30.200  29.937  22.171  1.00  0.00     0.027 A 
ATOM     25  C   UNL A   1      28.666  28.435  23.269  1.00  0.00     0.073 A 
ATOM     26  C   UNL A   1      29.128  30.507  21.491  1.00  0.00     0.006 A 
ATOM     27  C   UNL A   1      27.601  29.064  22.623  1.00  0.00     0.117 A 
ATOM     28  C   UNL A   1      27.823  30.098  21.728  1.00  0.00     0.046 A 
BRANCH  27  29
ATOM     29  O   UNL A   1      26.331  28.669  22.925  1.00  0.00    -0.508 OA
ATOM     30  H   UNL A   1      25.730  28.457  22.238  1.00  0.00     0.293 HD
ENDBRANCH  27  29
ENDBRANCH  20  23
ENDBRANCH  15  16
ENDBRANCH  13  15
ENDBRANCH  11  13
ENDBRANCH   6  11
ENDBRANCH   1   5
BRANCH   3  31
ATOM     31  C   UNL A   1      37.912  22.587  26.060  1.00  0.00     0.118 C 
BRANCH  31  32
ATOM     32  C   UNL A   1      39.209  21.810  26.232  1.00  0.00     0.042 C 
BRANCH  32  33
ATOM     33  C   UNL A   1      39.258  20.367  25.722  1.00  0.00     0.118 C 
BRANCH  33  34
ATOM     34  N   UNL A   1      40.492  19.704  26.131  1.00  0.00    -0.352 N 
ATOM     35  C   UNL A   1      41.760  20.149  26.433  1.00  0.00     0.251 C 
ATOM     36  H   UNL A   1      40.397  18.726  26.210  1.00  0.00     0.163 HD
ATOM     37  O   UNL A   1      42.637  19.286  26.511  1.00  0.00    -0.269 OA
BRANCH  35  38
ATOM     38  C   UNL A   1      42.131  21.579  26.670  1.00  0.00     0.039 A 
ATOM     39  C   UNL A   1      42.165  22.051  27.997  1.00  0.00     0.014 A 
ATOM     40  C   UNL A   1      42.341  22.502  25.650  1.00  0.00     0.014 A 
ATOM     41  C   UNL A   1      42.423  23.405  28.293  1.00  0.00     0.010 A 
ATOM     42  C   UNL A   1      42.683  23.828  25.951  1.00  0.00     0.010 A 
ATOM     43  C   UNL A   1      42.705  24.316  27.272  1.00  0.00    -0.014 A 
BRANCH  43  44
ATOM     44  C   UNL A   1      42.939  25.782  27.494  1.00  0.00     0.031 A 
ATOM     45  C   UNL A   1      44.363  26.281  27.621  1.00  0.00     0.074 A 
ATOM     46  C   UNL A   1      41.927  26.650  27.725  1.00  0.00     0.049 A 
ATOM     47  N   UNL A   1      44.805  27.444  28.028  1.00  0.00    -0.248 NA
ATOM     48  C   UNL A   1      45.434  25.337  27.252  1.00  0.00     0.031 C 
ATOM     49  C   UNL A   1      40.502  26.354  27.624  1.00  0.00     0.029 A 
ATOM     50  N   UNL A   1      41.947  27.946  28.204  1.00  0.00    -0.354 N 
ATOM     51  C   UNL A   1      46.191  27.374  27.949  1.00  0.00     0.074 A 
ATOM     52  C   UNL A   1      46.525  26.021  27.565  1.00  0.00     0.031 C 
ATOM     53  C   UNL A   1      39.793  27.350  28.183  1.00  0.00     0.029 A 
ATOM     54  C   UNL A   1      40.713  28.377  28.653  1.00  0.00     0.049 A 
ATOM     55  H   UNL A   1      42.758  28.504  28.225  1.00  0.00     0.167 HD
ATOM     56  C   UNL A   1      47.104  28.365  28.100  1.00  0.00     0.034 A 
ATOM     57  C   UNL A   1      40.366  29.443  29.404  1.00  0.00     0.034 A 
ATOM     58  C   UNL A   1      46.763  29.724  28.419  1.00  0.00     0.049 A 
ATOM     59  C   UNL A   1      41.398  30.492  29.685  1.00  0.00     0.074 A 
ATOM     60  C   UNL A   1      47.579  30.840  28.428  1.00  0.00     0.029 A 
ATOM     61  N   UNL A   1      45.499  30.147  28.796  1.00  0.00    -0.354 N 
ATOM     62  N   UNL A   1      42.681  30.471  29.428  1.00  0.00    -0.248 NA
ATOM     63  C   UNL A   1      40.913  31.757  30.254  1.00  0.00     0.031 C 
ATOM     64  C   UNL A   1      46.811  31.938  28.834  1.00  0.00     0.029 A 
ATOM     65  C   UNL A   1      45.514  31.505  29.057  1.00  0.00     0.049 A 
ATOM     66  H   UNL A   1      44.707  29.567  28.867  1.00  0.00     0.167 HD
ATOM     67  C   UNL A   1      43.137  31.757  29.691  1.00  0.00     0.074 A 
ATOM     68  C   UNL A   1      42.004  32.510  30.189  1.00  0.00     0.031 C 
ATOM     69  C   UNL A   1      44.374  32.269  29.491  1.00  0.00     0.034 A 
BRANCH  56  70
ATOM     70  C   UNL A   1      48.546  28.039  27.800  1.00  0.00     0.023 A 
ATOM     71  C   UNL A   1      49.396  27.654  28.861  1.00  0.00     0.012 A 
ATOM     72  C   UNL A   1      49.049  28.048  26.486  1.00  0.00     0.148 A 
ATOM     73  C   UNL A   1      50.731  27.331  28.627  1.00  0.00     0.002 A 
ATOM     74  C   UNL A   1      50.371  27.680  26.254  1.00  0.00     0.091 A 
ATOM     75  F   UNL A   1      48.236  28.429  25.491  1.00  0.00    -0.205 F 
ATOM     76  C   UNL A   1      51.216  27.334  27.323  1.00  0.00     0.022 A 
BRANCH  74  77
ATOM     77  S   UNL A   1      51.073  27.571  24.604  1.00  0.00     0.127 S 
ATOM     78  O   UNL A   1      52.392  27.003  24.882  1.00  0.00    -0.237 OA
ATOM     79  O   UNL A   1      50.146  26.658  23.934  1.00  0.00    -0.237 OA
ATOM     80  O   UNL A   1      51.074  28.929  24.079  1.00  0.00    -0.744 OA
ENDBRANCH  74  77
ENDBRANCH  56  70
BRANCH  57  81
ATOM     81  C   UNL A   1      38.964  29.625  29.882  1.00  0.00     0.023 A 
ATOM     82  C   UNL A   1      38.595  29.154  31.153  1.00  0.00     0.012 A 
ATOM     83  C   UNL A   1      37.990  30.250  29.078  1.00  0.00     0.148 A 
ATOM     84  C   UNL A   1      37.285  29.310  31.616  1.00  0.00     0.002 A 
ATOM     85  C   UNL A   1      36.710  30.472  29.574  1.00  0.00     0.091 A 
ATOM     86  F   UNL A   1      38.301  30.555  27.814  1.00  0.00    -0.205 F 
ATOM     87  C   UNL A   1      36.350  29.990  30.838  1.00  0.00     0.022 A 
BRANCH  85  88
ATOM     88  S   UNL A   1      35.501  31.460  28.685  1.00  0.00     0.127 S 
ATOM     89  O   UNL A   1      36.344  32.460  28.036  1.00  0.00    -0.237 OA
ATOM     90  O   UNL A   1      34.908  30.472  27.782  1.00  0.00    -0.237 OA
ATOM     91  O   UNL A   1      34.589  31.957  29.706  1.00  0.00    -0.744 OA
ENDBRANCH  85  88
ENDBRANCH  57  81
BRANCH  69  92
ATOM     92  C   UNL A   1      44.559  33.747  29.698  1.00  0.00     0.023 A 
ATOM     93  C   UNL A   1      44.940  34.249  30.955  1.00  0.00     0.012 A 
ATOM     94  C   UNL A   1      44.419  34.630  28.608  1.00  0.00     0.148 A 
ATOM     95  C   UNL A   1      45.152  35.616  31.132  1.00  0.00     0.002 A 
ATOM     96  C   UNL A   1      44.684  35.982  28.779  1.00  0.00     0.091 A 
ATOM     97  F   UNL A   1      44.028  34.132  27.426  1.00  0.00    -0.205 F 
ATOM     98  C   UNL A   1      45.038  36.480  30.043  1.00  0.00     0.022 A 
BRANCH  96  99
ATOM     99  S   UNL A   1      44.662  37.142  27.408  1.00  0.00     0.127 S 
ATOM    100  O   UNL A   1      45.050  38.389  28.065  1.00  0.00    -0.237 OA
ATOM    101  O   UNL A   1      45.675  36.583  26.512  1.00  0.00    -0.237 OA
ATOM    102  O   UNL A   1      43.306  37.109  26.876  1.00  0.00    -0.744 OA
ENDBRANCH  96  99
ENDBRANCH  69  92
ENDBRANCH  43  44
ENDBRANCH  35  38
ENDBRANCH  33  34
ENDBRANCH  32  33
ENDBRANCH  31  32
ENDBRANCH   3  31
TORSDOF 19
ENDMDL
MODEL 2
REMARK VINA RESULT:     -12.3      5.128     10.908
REMARK SMILES CN(C(=O)C[C@H]1SC(=O)N(c2cccc(O)c2)C1=O)c1ccccc1C(=O)NCCCNC(=O)c1ccc(-c2c3nc(c(-c4cccc(S(=O)(=O)[O-])c4F)c4ccc([nH]4)c(-c4cccc(S(=O)(=O)[O-])c4F)c4nc(c(-c5cccc(S(=O)(=O)[O-])c5F)c5ccc2[nH]5)C=C4)C=C3)cc1
REMARK SMILES IDX 26 1 27 2 28 3 25 5 20 6 21 7 22 8 24 9 23 10 2 11 1 12 3 13
REMARK SMILES IDX 4 14 5 15 6 16 7 17 18 18 8 19 10 20 19 21 9 22 11 23 12 24
REMARK SMILES IDX 17 25 13 26 15 27 14 28 16 29 29 31 30 32 31 33 32 34 33 35
REMARK SMILES IDX 34 37 35 38 36 39 97 40 37 41 96 42 38 43 39 44 40 45 90 46
REMARK SMILES IDX 41 47 95 48 89 49 91 50 42 51 94 52 88 53 87 54 43 56 75 57
REMARK SMILES IDX 55 58 74 59 56 60 59 61 73 62 92 63 57 64 58 65 72 67 93 68
REMARK SMILES IDX 60 69 44 70 45 71 53 72 46 73 48 74 54 75 47 76 49 77 50 78
REMARK SMILES IDX 51 79 52 80 76 81 77 82 85 83 78 84 80 85 86 86 79 87 81 88
REMARK SMILES IDX 82 89 83 90 84 91 61 92 62 93 70 94 63 95 65 96 71 97 64 98
REMARK SMILES IDX 66 99 67 100 68 101 69 102
REMARK H PARENT 28 4 16 30 32 36 91 55 59 66
REMARK Flexibility Score: inf
ROOT
ATOM      1  C   UNL A   1      31.879  29.266  24.281  1.00  0.00     0.253 C 
ATOM      2  O   UNL A   1      32.749  29.082  23.415  1.00  0.00    -0.269 OA
ATOM      3  N   UNL A   1      32.363  29.965  25.352  1.00  0.00    -0.352 N 
ATOM      4  H   UNL A   1      33.337  30.090  25.289  1.00  0.00     0.163 HD
ENDROOT
BRANCH   1   5
ATOM      5  C   UNL A   1      30.487  28.768  23.976  1.00  0.00     0.063 A 
ATOM      6  C   UNL A   1      29.882  27.500  24.072  1.00  0.00     0.056 A 
ATOM      7  C   UNL A   1      28.572  27.299  23.543  1.00  0.00     0.027 A 
ATOM      8  C   UNL A   1      27.865  28.301  22.893  1.00  0.00     0.002 A 
ATOM      9  C   UNL A   1      29.707  29.776  23.334  1.00  0.00     0.016 A 
ATOM     10  C   UNL A   1      28.435  29.551  22.791  1.00  0.00     0.001 A 
BRANCH   6  11
ATOM     11  N   UNL A   1      30.479  26.292  24.557  1.00  0.00    -0.315 N 
ATOM     12  C   UNL A   1      29.803  25.725  25.726  1.00  0.00     0.153 C 
BRANCH  11  13
ATOM     13  C   UNL A   1      31.046  25.471  23.559  1.00  0.00     0.228 C 
ATOM     14  O   UNL A   1      31.377  25.908  22.456  1.00  0.00    -0.274 OA
BRANCH  13  15
ATOM     15  C   UNL A   1      31.231  23.992  23.846  1.00  0.00     0.125 C 
BRANCH  15  16
ATOM     16  C   UNL A   1      32.295  23.818  24.901  1.00  0.00     0.156 C 
ATOM     17  S   UNL A   1      31.792  22.616  26.140  1.00  0.00    -0.050 SA
ATOM     18  C   UNL A   1      33.663  23.398  24.431  1.00  0.00     0.248 C 
ATOM     19  C   UNL A   1      33.416  21.969  26.269  1.00  0.00     0.293 C 
ATOM     20  N   UNL A   1      34.252  22.570  25.362  1.00  0.00    -0.240 N 
ATOM     21  O   UNL A   1      34.168  23.812  23.396  1.00  0.00    -0.273 OA
ATOM     22  O   UNL A   1      33.648  21.125  27.112  1.00  0.00    -0.261 OA
BRANCH  20  23
ATOM     23  C   UNL A   1      35.632  22.279  25.307  1.00  0.00     0.056 A 
ATOM     24  C   UNL A   1      36.061  21.007  24.944  1.00  0.00     0.027 A 
ATOM     25  C   UNL A   1      36.583  23.247  25.668  1.00  0.00     0.073 A 
ATOM     26  C   UNL A   1      37.419  20.703  24.964  1.00  0.00     0.006 A 
ATOM     27  C   UNL A   1      37.932  22.901  25.741  1.00  0.00     0.117 A 
ATOM     28  C   UNL A   1      38.361  21.632  25.386  1.00  0.00     0.046 A 
BRANCH  27  29
ATOM     29  O   UNL A   1      38.818  23.825  26.213  1.00  0.00    -0.508 OA
ATOM     30  H   UNL A   1      39.099  23.792  27.106  1.00  0.00     0.293 HD
ENDBRANCH  27  29
ENDBRANCH  20  23
ENDBRANCH  15  16
ENDBRANCH  13  15
ENDBRANCH  11  13
ENDBRANCH   6  11
ENDBRANCH   1   5
BRANCH   3  31
ATOM     31  C   UNL A   1      31.831  30.570  26.550  1.00  0.00     0.118 C 
BRANCH  31  32
ATOM     32  C   UNL A   1      31.941  32.087  26.505  1.00  0.00     0.042 C 
BRANCH  32  33
ATOM     33  C   UNL A   1      32.186  32.832  27.820  1.00  0.00     0.118 C 
BRANCH  33  34
ATOM     34  N   UNL A   1      32.975  34.041  27.603  1.00  0.00    -0.352 N 
ATOM     35  C   UNL A   1      34.241  34.433  27.976  1.00  0.00     0.251 C 
ATOM     36  H   UNL A   1      32.499  34.723  27.075  1.00  0.00     0.163 HD
ATOM     37  O   UNL A   1      34.509  35.628  27.827  1.00  0.00    -0.269 OA
BRANCH  35  38
ATOM     38  C   UNL A   1      35.290  33.524  28.534  1.00  0.00     0.039 A 
ATOM     39  C   UNL A   1      34.878  32.411  29.292  1.00  0.00     0.014 A 
ATOM     40  C   UNL A   1      36.656  33.771  28.440  1.00  0.00     0.014 A 
ATOM     41  C   UNL A   1      35.809  31.557  29.919  1.00  0.00     0.010 A 
ATOM     42  C   UNL A   1      37.582  32.873  28.991  1.00  0.00     0.010 A 
ATOM     43  C   UNL A   1      37.182  31.766  29.764  1.00  0.00    -0.014 A 
BRANCH  43  44
ATOM     44  C   UNL A   1      38.239  30.939  30.437  1.00  0.00     0.031 A 
ATOM     45  C   UNL A   1      38.742  31.370  31.799  1.00  0.00     0.074 A 
ATOM     46  C   UNL A   1      38.857  29.908  29.816  1.00  0.00     0.049 A 
ATOM     47  N   UNL A   1      39.785  30.954  32.471  1.00  0.00    -0.248 NA
ATOM     48  C   UNL A   1      37.972  32.420  32.491  1.00  0.00     0.031 C 
ATOM     49  C   UNL A   1      38.494  29.344  28.521  1.00  0.00     0.029 A 
ATOM     50  N   UNL A   1      40.005  29.216  30.152  1.00  0.00    -0.354 N 
ATOM     51  C   UNL A   1      39.786  31.676  33.659  1.00  0.00     0.074 A 
ATOM     52  C   UNL A   1      38.707  32.635  33.571  1.00  0.00     0.031 C 
ATOM     53  C   UNL A   1      39.475  28.531  28.091  1.00  0.00     0.029 A 
ATOM     54  C   UNL A   1      40.526  28.488  29.099  1.00  0.00     0.049 A 
ATOM     55  H   UNL A   1      40.410  29.240  31.049  1.00  0.00     0.167 HD
ATOM     56  C   UNL A   1      40.557  31.504  34.760  1.00  0.00     0.034 A 
ATOM     57  C   UNL A   1      41.730  27.901  28.938  1.00  0.00     0.034 A 
ATOM     58  C   UNL A   1      41.585  30.506  34.867  1.00  0.00     0.049 A 
ATOM     59  C   UNL A   1      42.650  27.809  30.116  1.00  0.00     0.074 A 
ATOM     60  C   UNL A   1      42.309  30.127  35.983  1.00  0.00     0.029 A 
ATOM     61  N   UNL A   1      42.042  29.734  33.812  1.00  0.00    -0.354 N 
ATOM     62  N   UNL A   1      42.528  28.360  31.298  1.00  0.00    -0.248 NA
ATOM     63  C   UNL A   1      43.814  26.924  29.976  1.00  0.00     0.031 C 
ATOM     64  C   UNL A   1      43.222  29.140  35.596  1.00  0.00     0.029 A 
ATOM     65  C   UNL A   1      43.050  28.891  34.244  1.00  0.00     0.049 A 
ATOM     66  H   UNL A   1      41.699  29.779  32.890  1.00  0.00     0.167 HD
ATOM     67  C   UNL A   1      43.529  27.795  32.079  1.00  0.00     0.074 A 
ATOM     68  C   UNL A   1      44.286  26.911  31.216  1.00  0.00     0.031 C 
ATOM     69  C   UNL A   1      43.761  27.965  33.402  1.00  0.00     0.034 A 
BRANCH  56  70
ATOM     70  C   UNL A   1      40.233  32.334  35.978  1.00  0.00     0.023 A 
ATOM     71  C   UNL A   1      40.984  33.504  36.229  1.00  0.00     0.012 A 
ATOM     72  C   UNL A   1      39.165  32.007  36.833  1.00  0.00     0.148 A 
ATOM     73  C   UNL A   1      40.710  34.306  37.334  1.00  0.00     0.002 A 
ATOM     74  C   UNL A   1      38.868  32.839  37.909  1.00  0.00     0.091 A 
ATOM     75  F   UNL A   1      38.470  30.887  36.592  1.00  0.00    -0.205 F 
ATOM     76  C   UNL A   1      39.646  33.979  38.168  1.00  0.00     0.022 A 
BRANCH  74  77
ATOM     77  S   UNL A   1      37.467  32.554  38.998  1.00  0.00     0.127 S 
ATOM     78  O   UNL A   1      37.633  31.140  39.329  1.00  0.00    -0.237 OA
ATOM     79  O   UNL A   1      37.743  33.474  40.102  1.00  0.00    -0.237 OA
ATOM     80  O   UNL A   1      36.281  32.880  38.218  1.00  0.00    -0.744 OA
ENDBRANCH  74  77
ENDBRANCH  56  70
BRANCH  57  81
ATOM     81  C   UNL A   1      42.117  27.279  27.637  1.00  0.00     0.023 A 
ATOM     82  C   UNL A   1      42.477  28.097  26.553  1.00  0.00     0.012 A 
ATOM     83  C   UNL A   1      42.115  25.881  27.463  1.00  0.00     0.148 A 
ATOM     84  C   UNL A   1      42.836  27.534  25.326  1.00  0.00     0.002 A 
ATOM     85  C   UNL A   1      42.548  25.324  26.265  1.00  0.00     0.091 A 
ATOM     86  F   UNL A   1      41.623  25.114  28.441  1.00  0.00    -0.205 F 
ATOM     87  C   UNL A   1      42.895  26.149  25.189  1.00  0.00     0.022 A 
BRANCH  85  88
ATOM     88  S   UNL A   1      42.781  23.553  26.065  1.00  0.00     0.127 S 
ATOM     89  O   UNL A   1      43.857  23.281  27.014  1.00  0.00    -0.237 OA
ATOM     90  O   UNL A   1      41.469  23.030  26.451  1.00  0.00    -0.237 OA
ATOM     91  O   UNL A   1      43.107  23.368  24.657  1.00  0.00    -0.744 OA
ENDBRANCH  85  88
ENDBRANCH  57  81
BRANCH  69  92
ATOM     92  C   UNL A   1      44.809  27.099  34.044  1.00  0.00     0.023 A 
ATOM     93  C   UNL A   1      46.160  27.488  34.036  1.00  0.00     0.012 A 
ATOM     94  C   UNL A   1      44.427  25.922  34.719  1.00  0.00     0.148 A 
ATOM     95  C   UNL A   1      47.123  26.702  34.669  1.00  0.00     0.002 A 
ATOM     96  C   UNL A   1      45.382  25.173  35.393  1.00  0.00     0.091 A 
ATOM     97  F   UNL A   1      43.137  25.556  34.690  1.00  0.00    -0.205 F 
ATOM     98  C   UNL A   1      46.733  25.554  35.359  1.00  0.00     0.022 A 
BRANCH  96  99
ATOM     99  S   UNL A   1      44.949  23.744  36.390  1.00  0.00     0.127 S 
ATOM    100  O   UNL A   1      46.263  23.268  36.818  1.00  0.00    -0.237 OA
ATOM    101  O   UNL A   1      44.140  24.340  37.454  1.00  0.00    -0.237 OA
ATOM    102  O   UNL A   1      44.214  22.847  35.508  1.00  0.00    -0.744 OA
ENDBRANCH  96  99
ENDBRANCH  69  92
ENDBRANCH  43  44
ENDBRANCH  35  38
ENDBRANCH  33  34
ENDBRANCH  32  33
ENDBRANCH  31  32
ENDBRANCH   3  31
TORSDOF 19
ENDMDL
MODEL 3
REMARK VINA RESULT:     -12.0      1.761      7.428
REMARK SMILES CN(C(=O)C[C@H]1SC(=O)N(c2cccc(O)c2)C1=O)c1ccccc1C(=O)NCCCNC(=O)c1ccc(-c2c3nc(c(-c4cccc(S(=O)(=O)[O-])c4F)c4ccc([nH]4)c(-c4cccc(S(=O)(=O)[O-])c4F)c4nc(c(-c5cccc(S(=O)(=O)[O-])c5F)c5ccc2[nH]5)C=C4)C=C3)cc1
REMARK SMILES IDX 26 1 27 2 28 3 25 5 20 6 21 7 22 8 24 9 23 10 2 11 1 12 3 13
REMARK SMILES IDX 4 14 5 15 6 16 7 17 18 18 8 19 10 20 19 21 9 22 11 23 12 24
REMARK SMILES IDX 17 25 13 26 15 27 14 28 16 29 29 31 30 32 31 33 32 34 33 35
REMARK SMILES IDX 34 37 35 38 36 39 97 40 37 41 96 42 38 43 39 44 40 45 90 46
REMARK SMILES IDX 41 47 95 48 89 49 91 50 42 51 94 52 88 53 87 54 43 56 75 57
REMARK SMILES IDX 55 58 74 59 56 60 59 61 73 62 92 63 57 64 58 65 72 67 93 68
REMARK SMILES IDX 60 69 44 70 45 71 53 72 46 73 48 74 54 75 47 76 49 77 50 78
REMARK SMILES IDX 51 79 52 80 76 81 77 82 85 83 78 84 80 85 86 86 79 87 81 88
REMARK SMILES IDX 82 89 83 90 84 91 61 92 62 93 70 94 63 95 65 96 71 97 64 98
REMARK SMILES IDX 66 99 67 100 68 101 69 102
REMARK H PARENT 28 4 16 30 32 36 91 55 59 66
REMARK Flexibility Score: inf
ROOT
ATOM      1  C   UNL A   1      36.556  22.439  23.984  1.00  0.00     0.253 C 
ATOM      2  O   UNL A   1      36.652  22.579  22.754  1.00  0.00    -0.269 OA
ATOM      3  N   UNL A   1      37.750  22.650  24.616  1.00  0.00    -0.352 N 
ATOM      4  H   UNL A   1      38.484  22.759  23.971  1.00  0.00     0.163 HD
ENDROOT
BRANCH   1   5
ATOM      5  C   UNL A   1      35.184  22.143  24.538  1.00  0.00     0.063 A 
ATOM      6  C   UNL A   1      33.883  22.379  24.051  1.00  0.00     0.056 A 
ATOM      7  C   UNL A   1      32.757  22.133  24.892  1.00  0.00     0.027 A 
ATOM      8  C   UNL A   1      32.883  21.700  26.204  1.00  0.00     0.002 A 
ATOM      9  C   UNL A   1      35.261  21.661  25.879  1.00  0.00     0.016 A 
ATOM     10  C   UNL A   1      34.145  21.458  26.701  1.00  0.00     0.001 A 
BRANCH   6  11
ATOM     11  N   UNL A   1      33.525  22.968  22.796  1.00  0.00    -0.315 N 
ATOM     12  C   UNL A   1      32.529  22.200  22.044  1.00  0.00     0.153 C 
BRANCH  11  13
ATOM     13  C   UNL A   1      33.537  24.379  22.780  1.00  0.00     0.228 C 
ATOM     14  O   UNL A   1      34.143  25.042  23.624  1.00  0.00    -0.274 OA
BRANCH  13  15
ATOM     15  C   UNL A   1      32.757  25.107  21.700  1.00  0.00     0.125 C 
BRANCH  15  16
ATOM     16  C   UNL A   1      31.670  25.932  22.342  1.00  0.00     0.156 C 
ATOM     17  S   UNL A   1      30.706  24.949  23.500  1.00  0.00    -0.050 SA
ATOM     18  C   UNL A   1      32.099  27.169  23.088  1.00  0.00     0.248 C 
ATOM     19  C   UNL A   1      30.567  26.287  24.624  1.00  0.00     0.293 C 
ATOM     20  N   UNL A   1      31.286  27.370  24.182  1.00  0.00    -0.240 N 
ATOM     21  O   UNL A   1      33.002  27.899  22.702  1.00  0.00    -0.273 OA
ATOM     22  O   UNL A   1      29.871  26.157  25.611  1.00  0.00    -0.261 OA
BRANCH  20  23
ATOM     23  C   UNL A   1      31.284  28.603  24.870  1.00  0.00     0.056 A 
ATOM     24  C   UNL A   1      30.591  29.689  24.349  1.00  0.00     0.027 A 
ATOM     25  C   UNL A   1      32.023  28.763  26.054  1.00  0.00     0.073 A 
ATOM     26  C   UNL A   1      30.654  30.923  24.992  1.00  0.00     0.006 A 
ATOM     27  C   UNL A   1      32.122  30.022  26.644  1.00  0.00     0.117 A 
ATOM     28  C   UNL A   1      31.437  31.108  26.123  1.00  0.00     0.046 A 
BRANCH  27  29
ATOM     29  O   UNL A   1      32.945  30.174  27.722  1.00  0.00    -0.508 OA
ATOM     30  H   UNL A   1      33.144  29.439  28.267  1.00  0.00     0.293 HD
ENDBRANCH  27  29
ENDBRANCH  20  23
ENDBRANCH  15  16
ENDBRANCH  13  15
ENDBRANCH  11  13
ENDBRANCH   6  11
ENDBRANCH   1   5
BRANCH   3  31
ATOM     31  C   UNL A   1      38.222  22.758  25.976  1.00  0.00     0.118 C 
BRANCH  31  32
ATOM     32  C   UNL A   1      38.912  21.480  26.429  1.00  0.00     0.042 C 
BRANCH  32  33
ATOM     33  C   UNL A   1      38.897  20.277  25.482  1.00  0.00     0.118 C 
BRANCH  33  34
ATOM     34  N   UNL A   1      40.016  19.379  25.749  1.00  0.00    -0.352 N 
ATOM     35  C   UNL A   1      41.353  19.575  26.015  1.00  0.00     0.251 C 
ATOM     36  H   UNL A   1      39.760  18.428  25.737  1.00  0.00     0.163 HD
ATOM     37  O   UNL A   1      42.074  18.575  25.956  1.00  0.00    -0.269 OA
BRANCH  35  38
ATOM     38  C   UNL A   1      41.972  20.890  26.369  1.00  0.00     0.039 A 
ATOM     39  C   UNL A   1      42.195  21.182  27.729  1.00  0.00     0.014 A 
ATOM     40  C   UNL A   1      42.243  21.890  25.440  1.00  0.00     0.014 A 
ATOM     41  C   UNL A   1      42.696  22.433  28.144  1.00  0.00     0.010 A 
ATOM     42  C   UNL A   1      42.823  23.101  25.848  1.00  0.00     0.010 A 
ATOM     43  C   UNL A   1      43.036  23.411  27.205  1.00  0.00    -0.014 A 
BRANCH  43  44
ATOM     44  C   UNL A   1      43.525  24.785  27.562  1.00  0.00     0.031 A 
ATOM     45  C   UNL A   1      42.518  25.819  28.018  1.00  0.00     0.074 A 
ATOM     46  C   UNL A   1      44.805  25.174  27.358  1.00  0.00     0.049 A 
ATOM     47  N   UNL A   1      42.661  27.111  28.167  1.00  0.00    -0.248 NA
ATOM     48  C   UNL A   1      41.163  25.334  28.338  1.00  0.00     0.031 C 
ATOM     49  C   UNL A   1      45.908  24.313  26.946  1.00  0.00     0.029 A 
ATOM     50  N   UNL A   1      45.372  26.433  27.366  1.00  0.00    -0.354 N 
ATOM     51  C   UNL A   1      41.430  27.584  28.607  1.00  0.00     0.074 A 
ATOM     52  C   UNL A   1      40.518  26.462  28.595  1.00  0.00     0.031 C 
ATOM     53  C   UNL A   1      46.956  25.069  26.576  1.00  0.00     0.029 A 
ATOM     54  C   UNL A   1      46.612  26.473  26.758  1.00  0.00     0.049 A 
ATOM     55  H   UNL A   1      44.937  27.222  27.765  1.00  0.00     0.167 HD
ATOM     56  C   UNL A   1      41.104  28.819  29.061  1.00  0.00     0.034 A 
ATOM     57  C   UNL A   1      47.362  27.515  26.342  1.00  0.00     0.034 A 
ATOM     58  C   UNL A   1      42.031  29.914  29.133  1.00  0.00     0.049 A 
ATOM     59  C   UNL A   1      46.949  28.901  26.732  1.00  0.00     0.074 A 
ATOM     60  C   UNL A   1      41.863  31.151  29.730  1.00  0.00     0.029 A 
ATOM     61  N   UNL A   1      43.300  29.905  28.578  1.00  0.00    -0.354 N 
ATOM     62  N   UNL A   1      45.847  29.295  27.320  1.00  0.00    -0.248 NA
ATOM     63  C   UNL A   1      47.932  29.969  26.506  1.00  0.00     0.031 C 
ATOM     64  C   UNL A   1      43.026  31.899  29.514  1.00  0.00     0.029 A 
ATOM     65  C   UNL A   1      43.922  31.119  28.802  1.00  0.00     0.049 A 
ATOM     66  H   UNL A   1      43.699  29.146  28.096  1.00  0.00     0.167 HD
ATOM     67  C   UNL A   1      46.052  30.630  27.642  1.00  0.00     0.074 A 
ATOM     68  C   UNL A   1      47.356  30.992  27.125  1.00  0.00     0.031 C 
ATOM     69  C   UNL A   1      45.245  31.460  28.344  1.00  0.00     0.034 A 
BRANCH  56  70
ATOM     70  C   UNL A   1      39.720  29.012  29.631  1.00  0.00     0.023 A 
ATOM     71  C   UNL A   1      39.453  28.570  30.946  1.00  0.00     0.012 A 
ATOM     72  C   UNL A   1      38.709  29.674  28.911  1.00  0.00     0.148 A 
ATOM     73  C   UNL A   1      38.194  28.741  31.516  1.00  0.00     0.002 A 
ATOM     74  C   UNL A   1      37.467  29.882  29.504  1.00  0.00     0.091 A 
ATOM     75  F   UNL A   1      38.971  30.075  27.659  1.00  0.00    -0.205 F 
ATOM     76  C   UNL A   1      37.204  29.406  30.799  1.00  0.00     0.022 A 
BRANCH  74  77
ATOM     77  S   UNL A   1      36.148  30.800  28.699  1.00  0.00     0.127 S 
ATOM     78  O   UNL A   1      35.153  30.883  29.766  1.00  0.00    -0.237 OA
ATOM     79  O   UNL A   1      36.805  32.068  28.379  1.00  0.00    -0.237 OA
ATOM     80  O   UNL A   1      35.760  30.008  27.540  1.00  0.00    -0.744 OA
ENDBRANCH  74  77
ENDBRANCH  56  70
BRANCH  57  81
ATOM     81  C   UNL A   1      48.624  27.299  25.575  1.00  0.00     0.023 A 
ATOM     82  C   UNL A   1      49.802  26.948  26.257  1.00  0.00     0.012 A 
ATOM     83  C   UNL A   1      48.668  27.453  24.176  1.00  0.00     0.148 A 
ATOM     84  C   UNL A   1      50.995  26.747  25.557  1.00  0.00     0.002 A 
ATOM     85  C   UNL A   1      49.838  27.175  23.477  1.00  0.00     0.091 A 
ATOM     86  F   UNL A   1      47.590  27.938  23.550  1.00  0.00    -0.205 F 
ATOM     87  C   UNL A   1      51.008  26.836  24.167  1.00  0.00     0.022 A 
BRANCH  85  88
ATOM     88  S   UNL A   1      49.889  27.135  21.681  1.00  0.00     0.127 S 
ATOM     89  O   UNL A   1      48.808  26.205  21.368  1.00  0.00    -0.237 OA
ATOM     90  O   UNL A   1      49.621  28.533  21.339  1.00  0.00    -0.237 OA
ATOM     91  O   UNL A   1      51.235  26.688  21.348  1.00  0.00    -0.744 OA
ENDBRANCH  85  88
ENDBRANCH  57  81
BRANCH  69  92
ATOM     92  C   UNL A   1      45.782  32.817  28.705  1.00  0.00     0.023 A 
ATOM     93  C   UNL A   1      46.575  32.988  29.853  1.00  0.00     0.012 A 
ATOM     94  C   UNL A   1      45.546  33.913  27.851  1.00  0.00     0.148 A 
ATOM     95  C   UNL A   1      47.106  34.241  30.162  1.00  0.00     0.002 A 
ATOM     96  C   UNL A   1      46.122  35.144  28.135  1.00  0.00     0.091 A 
ATOM     97  F   UNL A   1      44.764  33.733  26.777  1.00  0.00    -0.205 F 
ATOM     98  C   UNL A   1      46.892  35.314  29.297  1.00  0.00     0.022 A 
BRANCH  96  99
ATOM     99  S   UNL A   1      45.983  36.546  27.021  1.00  0.00     0.127 S 
ATOM    100  O   UNL A   1      46.738  37.573  27.737  1.00  0.00    -0.237 OA
ATOM    101  O   UNL A   1      46.632  36.045  25.809  1.00  0.00    -0.237 OA
ATOM    102  O   UNL A   1      44.557  36.803  26.877  1.00  0.00    -0.744 OA
ENDBRANCH  96  99
ENDBRANCH  69  92
ENDBRANCH  43  44
ENDBRANCH  35  38
ENDBRANCH  33  34
ENDBRANCH  32  33
ENDBRANCH  31  32
ENDBRANCH   3  31
TORSDOF 19
ENDMDL
