MODEL 1
REMARK VINA RESULT:     -13.0      0.000      0.000
REMARK SMILES CCN1C(=O)c2ccccc2[S@@](=O)c2ccc(C(=O)NCCCNC(=O)c3ccc(-c4c5nc(c(-c6cccc(S(=O)(=O)[O-])c6F)c6ccc([nH]6)c(-c6cccc(S(=O)(=O)[O-])c6F)c6nc(c(-c7cccc(S(=O)(=O)[O-])c7F)c7ccc4[nH]7)C=C6)C=C5)cc3)cc21
REMARK SMILES IDX 23 1 22 2 21 3 20 4 18 5 19 6 17 8 3 9 4 10 91 11 5 12 6 13
REMARK SMILES IDX 14 14 90 15 7 16 11 17 12 18 15 19 8 20 10 21 13 22 16 23
REMARK SMILES IDX 9 24 2 25 1 26 24 27 25 28 26 30 27 31 28 32 89 33 29 34
REMARK SMILES IDX 88 35 30 36 31 37 32 38 82 39 33 40 87 41 81 42 83 43 34 44
REMARK SMILES IDX 86 45 80 46 79 47 35 49 67 50 47 51 66 52 48 53 51 54 65 55
REMARK SMILES IDX 84 56 49 57 50 58 64 60 85 61 52 62 36 63 37 64 45 65 38 66
REMARK SMILES IDX 40 67 46 68 39 69 41 70 42 71 43 72 44 73 68 74 69 75 77 76
REMARK SMILES IDX 70 77 72 78 78 79 71 80 73 81 74 82 75 83 76 84 53 85 54 86
REMARK SMILES IDX 62 87 55 88 57 89 63 90 56 91 58 92 59 93 60 94 61 95
REMARK H PARENT 20 7 24 29 83 48 51 59
REMARK Flexibility Score: inf
ROOT
ATOM      1  C   UNL A   1      32.934  29.114  25.465  1.00  0.00     0.118 C 
ENDROOT
BRANCH   1   2
ATOM      2  C   UNL A   1      33.129  29.069  23.955  1.00  0.00     0.042 C 
BRANCH   2   3
ATOM      3  C   UNL A   1      32.061  28.248  23.233  1.00  0.00     0.118 C 
BRANCH   3   4
ATOM      4  N   UNL A   1      32.586  27.652  22.016  1.00  0.00    -0.352 N 
ATOM      5  C   UNL A   1      32.864  26.355  21.664  1.00  0.00     0.251 C 
ATOM      6  O   UNL A   1      33.226  26.146  20.505  1.00  0.00    -0.269 OA
ATOM      7  H   UNL A   1      32.781  28.306  21.306  1.00  0.00     0.163 HD
BRANCH   5   8
ATOM      8  C   UNL A   1      32.701  25.193  22.583  1.00  0.00     0.041 A 
ATOM      9  N   UNL A   1      34.768  22.852  24.710  1.00  0.00    -0.307 N 
ATOM     10  C   UNL A   1      34.795  21.764  25.592  1.00  0.00     0.259 C 
ATOM     11  C   UNL A   1      33.586  23.400  24.069  1.00  0.00     0.061 A 
ATOM     12  O   UNL A   1      35.586  21.657  26.528  1.00  0.00    -0.269 OA
ATOM     13  C   UNL A   1      34.120  20.544  25.135  1.00  0.00     0.056 A 
ATOM     14  C   UNL A   1      32.251  23.032  24.352  1.00  0.00     0.068 A 
ATOM     15  C   UNL A   1      33.758  24.453  23.132  1.00  0.00     0.041 A 
ATOM     16  C   UNL A   1      34.941  19.449  24.824  1.00  0.00     0.015 A 
ATOM     17  C   UNL A   1      32.748  20.479  24.960  1.00  0.00     0.057 A 
ATOM     18  S   UNL A   1      31.678  21.787  25.528  1.00  0.00     0.088 S 
ATOM     19  C   UNL A   1      31.182  23.732  23.744  1.00  0.00     0.021 A 
ATOM     20  C   UNL A   1      34.385  18.291  24.291  1.00  0.00     0.001 A 
ATOM     21  C   UNL A   1      32.193  19.314  24.411  1.00  0.00     0.019 A 
ATOM     22  O   UNL A   1      32.208  22.228  26.858  1.00  0.00    -0.249 OA
ATOM     23  C   UNL A   1      31.401  24.803  22.884  1.00  0.00     0.015 A 
ATOM     24  C   UNL A   1      33.011  18.230  24.070  1.00  0.00     0.001 A 
BRANCH   9  25
ATOM     25  C   UNL A   1      36.089  23.466  24.527  1.00  0.00     0.122 C 
ATOM     26  C   UNL A   1      36.956  22.754  23.504  1.00  0.00     0.028 C 
ENDBRANCH   9  25
ENDBRANCH   5   8
ENDBRANCH   3   4
ENDBRANCH   2   3
ENDBRANCH   1   2
BRANCH   1  27
ATOM     27  N   UNL A   1      32.530  30.432  25.930  1.00  0.00    -0.352 N 
ATOM     28  C   UNL A   1      33.085  31.219  26.914  1.00  0.00     0.251 C 
ATOM     29  H   UNL A   1      31.746  30.816  25.475  1.00  0.00     0.163 HD
ATOM     30  O   UNL A   1      32.491  32.223  27.288  1.00  0.00    -0.269 OA
BRANCH  28  31
ATOM     31  C   UNL A   1      34.373  30.834  27.534  1.00  0.00     0.039 A 
ATOM     32  C   UNL A   1      34.602  29.524  27.962  1.00  0.00     0.014 A 
ATOM     33  C   UNL A   1      35.369  31.803  27.692  1.00  0.00     0.014 A 
ATOM     34  C   UNL A   1      35.751  29.223  28.686  1.00  0.00     0.010 A 
ATOM     35  C   UNL A   1      36.558  31.478  28.351  1.00  0.00     0.010 A 
ATOM     36  C   UNL A   1      36.740  30.197  28.896  1.00  0.00    -0.014 A 
BRANCH  36  37
ATOM     37  C   UNL A   1      37.954  29.858  29.683  1.00  0.00     0.031 A 
ATOM     38  C   UNL A   1      39.032  28.984  29.099  1.00  0.00     0.074 A 
ATOM     39  C   UNL A   1      38.099  30.363  30.924  1.00  0.00     0.049 A 
ATOM     40  N   UNL A   1      40.153  28.589  29.646  1.00  0.00    -0.248 NA
ATOM     41  C   UNL A   1      38.828  28.486  27.728  1.00  0.00     0.031 C 
ATOM     42  C   UNL A   1      37.117  31.204  31.610  1.00  0.00     0.029 A 
ATOM     43  N   UNL A   1      39.126  30.248  31.826  1.00  0.00    -0.354 N 
ATOM     44  C   UNL A   1      40.763  27.761  28.712  1.00  0.00     0.074 A 
ATOM     45  C   UNL A   1      39.893  27.712  27.558  1.00  0.00     0.031 C 
ATOM     46  C   UNL A   1      37.602  31.557  32.809  1.00  0.00     0.029 A 
ATOM     47  C   UNL A   1      38.906  30.929  32.999  1.00  0.00     0.049 A 
ATOM     48  H   UNL A   1      39.942  29.726  31.650  1.00  0.00     0.167 HD
ATOM     49  C   UNL A   1      41.951  27.117  28.798  1.00  0.00     0.034 A 
ATOM     50  C   UNL A   1      39.660  31.033  34.110  1.00  0.00     0.034 A 
ATOM     51  C   UNL A   1      42.848  27.215  29.917  1.00  0.00     0.049 A 
ATOM     52  C   UNL A   1      40.984  30.329  34.170  1.00  0.00     0.074 A 
ATOM     53  C   UNL A   1      44.100  26.643  30.064  1.00  0.00     0.029 A 
ATOM     54  N   UNL A   1      42.596  27.932  31.075  1.00  0.00    -0.354 N 
ATOM     55  N   UNL A   1      41.576  29.619  33.243  1.00  0.00    -0.248 NA
ATOM     56  C   UNL A   1      41.747  30.448  35.421  1.00  0.00     0.031 C 
ATOM     57  C   UNL A   1      44.605  27.014  31.314  1.00  0.00     0.029 A 
ATOM     58  C   UNL A   1      43.667  27.817  31.943  1.00  0.00     0.049 A 
ATOM     59  H   UNL A   1      41.776  28.447  31.254  1.00  0.00     0.167 HD
ATOM     60  C   UNL A   1      42.783  29.206  33.795  1.00  0.00     0.074 A 
ATOM     61  C   UNL A   1      42.850  29.771  35.128  1.00  0.00     0.031 C 
ATOM     62  C   UNL A   1      43.738  28.414  33.251  1.00  0.00     0.034 A 
BRANCH  49  63
ATOM     63  C   UNL A   1      42.387  26.280  27.627  1.00  0.00     0.023 A 
ATOM     64  C   UNL A   1      43.267  26.834  26.677  1.00  0.00     0.012 A 
ATOM     65  C   UNL A   1      42.006  24.929  27.521  1.00  0.00     0.148 A 
ATOM     66  C   UNL A   1      43.755  26.056  25.628  1.00  0.00     0.002 A 
ATOM     67  C   UNL A   1      42.518  24.153  26.488  1.00  0.00     0.091 A 
ATOM     68  F   UNL A   1      41.156  24.432  28.430  1.00  0.00    -0.205 F 
ATOM     69  C   UNL A   1      43.389  24.716  25.539  1.00  0.00     0.022 A 
BRANCH  67  70
ATOM     70  S   UNL A   1      42.153  22.403  26.310  1.00  0.00     0.127 S 
ATOM     71  O   UNL A   1      42.867  22.078  25.075  1.00  0.00    -0.237 OA
ATOM     72  O   UNL A   1      42.745  21.842  27.524  1.00  0.00    -0.237 OA
ATOM     73  O   UNL A   1      40.703  22.299  26.233  1.00  0.00    -0.744 OA
ENDBRANCH  67  70
ENDBRANCH  49  63
BRANCH  50  74
ATOM     74  C   UNL A   1      39.180  31.883  35.232  1.00  0.00     0.023 A 
ATOM     75  C   UNL A   1      38.342  31.318  36.211  1.00  0.00     0.012 A 
ATOM     76  C   UNL A   1      39.627  33.210  35.383  1.00  0.00     0.148 A 
ATOM     77  C   UNL A   1      37.957  32.063  37.327  1.00  0.00     0.002 A 
ATOM     78  C   UNL A   1      39.276  33.930  36.518  1.00  0.00     0.091 A 
ATOM     79  F   UNL A   1      40.418  33.723  34.430  1.00  0.00    -0.205 F 
ATOM     80  C   UNL A   1      38.434  33.361  37.486  1.00  0.00     0.022 A 
BRANCH  78  81
ATOM     81  S   UNL A   1      39.939  35.561  36.873  1.00  0.00     0.127 S 
ATOM     82  O   UNL A   1      39.281  35.881  38.137  1.00  0.00    -0.237 OA
ATOM     83  O   UNL A   1      41.371  35.284  36.976  1.00  0.00    -0.237 OA
ATOM     84  O   UNL A   1      39.563  36.397  35.741  1.00  0.00    -0.744 OA
ENDBRANCH  78  81
ENDBRANCH  50  74
BRANCH  62  85
ATOM     85  C   UNL A   1      44.940  28.090  34.090  1.00  0.00     0.023 A 
ATOM     86  C   UNL A   1      46.049  28.958  34.063  1.00  0.00     0.012 A 
ATOM     87  C   UNL A   1      44.930  27.000  34.982  1.00  0.00     0.148 A 
ATOM     88  C   UNL A   1      47.137  28.741  34.907  1.00  0.00     0.002 A 
ATOM     89  C   UNL A   1      46.004  26.808  35.842  1.00  0.00     0.091 A 
ATOM     90  F   UNL A   1      43.868  26.182  34.977  1.00  0.00    -0.205 F 
ATOM     91  C   UNL A   1      47.109  27.674  35.803  1.00  0.00     0.022 A 
BRANCH  89  92
ATOM     92  S   UNL A   1      46.028  25.507  37.080  1.00  0.00     0.127 S 
ATOM     93  O   UNL A   1      47.389  25.617  37.602  1.00  0.00    -0.237 OA
ATOM     94  O   UNL A   1      44.983  25.940  38.007  1.00  0.00    -0.237 OA
ATOM     95  O   UNL A   1      45.731  24.270  36.370  1.00  0.00    -0.744 OA
ENDBRANCH  89  92
ENDBRANCH  62  85
ENDBRANCH  36  37
ENDBRANCH  28  31
ENDBRANCH   1  27
TORSDOF 14
ENDMDL
MODEL 2
REMARK VINA RESULT:     -13.0      0.261      7.666
REMARK SMILES CCN1C(=O)c2ccccc2[S@@](=O)c2ccc(C(=O)NCCCNC(=O)c3ccc(-c4c5nc(c(-c6cccc(S(=O)(=O)[O-])c6F)c6ccc([nH]6)c(-c6cccc(S(=O)(=O)[O-])c6F)c6nc(c(-c7cccc(S(=O)(=O)[O-])c7F)c7ccc4[nH]7)C=C6)C=C5)cc3)cc21
REMARK SMILES IDX 23 1 22 2 21 3 20 4 18 5 19 6 17 8 3 9 4 10 91 11 5 12 6 13
REMARK SMILES IDX 14 14 90 15 7 16 11 17 12 18 15 19 8 20 10 21 13 22 16 23
REMARK SMILES IDX 9 24 2 25 1 26 24 27 25 28 26 30 27 31 28 32 89 33 29 34
REMARK SMILES IDX 88 35 30 36 31 37 32 38 82 39 33 40 87 41 81 42 83 43 34 44
REMARK SMILES IDX 86 45 80 46 79 47 35 49 67 50 47 51 66 52 48 53 51 54 65 55
REMARK SMILES IDX 84 56 49 57 50 58 64 60 85 61 52 62 36 63 37 64 45 65 38 66
REMARK SMILES IDX 40 67 46 68 39 69 41 70 42 71 43 72 44 73 68 74 69 75 77 76
REMARK SMILES IDX 70 77 72 78 78 79 71 80 73 81 74 82 75 83 76 84 53 85 54 86
REMARK SMILES IDX 62 87 55 88 57 89 63 90 56 91 58 92 59 93 60 94 61 95
REMARK H PARENT 20 7 24 29 83 48 51 59
REMARK Flexibility Score: inf
ROOT
ATOM      1  C   UNL A   1      32.999  29.087  25.484  1.00  0.00     0.118 C 
ENDROOT
BRANCH   1   2
ATOM      2  C   UNL A   1      33.228  29.024  23.979  1.00  0.00     0.042 C 
BRANCH   2   3
ATOM      3  C   UNL A   1      32.141  28.250  23.235  1.00  0.00     0.118 C 
BRANCH   3   4
ATOM      4  N   UNL A   1      32.659  27.653  22.015  1.00  0.00    -0.352 N 
ATOM      5  C   UNL A   1      32.917  26.354  21.656  1.00  0.00     0.251 C 
ATOM      6  O   UNL A   1      33.278  26.146  20.497  1.00  0.00    -0.269 OA
ATOM      7  H   UNL A   1      32.864  28.308  21.310  1.00  0.00     0.163 HD
BRANCH   5   8
ATOM      8  C   UNL A   1      32.736  25.189  22.568  1.00  0.00     0.041 A 
ATOM      9  N   UNL A   1      34.766  22.815  24.694  1.00  0.00    -0.307 N 
ATOM     10  C   UNL A   1      34.775  21.721  25.571  1.00  0.00     0.259 C 
ATOM     11  C   UNL A   1      33.593  23.379  24.050  1.00  0.00     0.061 A 
ATOM     12  O   UNL A   1      35.560  21.601  26.511  1.00  0.00    -0.269 OA
ATOM     13  C   UNL A   1      34.090  20.511  25.104  1.00  0.00     0.056 A 
ATOM     14  C   UNL A   1      32.253  23.025  24.324  1.00  0.00     0.068 A 
ATOM     15  C   UNL A   1      33.782  24.435  23.120  1.00  0.00     0.041 A 
ATOM     16  C   UNL A   1      34.900  19.409  24.792  1.00  0.00     0.015 A 
ATOM     17  C   UNL A   1      32.718  20.463  24.921  1.00  0.00     0.057 A 
ATOM     18  S   UNL A   1      31.660  21.780  25.490  1.00  0.00     0.088 S 
ATOM     19  C   UNL A   1      31.195  23.739  23.713  1.00  0.00     0.021 A 
ATOM     20  C   UNL A   1      34.334  18.260  24.250  1.00  0.00     0.001 A 
ATOM     21  C   UNL A   1      32.153  19.307  24.363  1.00  0.00     0.019 A 
ATOM     22  O   UNL A   1      32.187  22.208  26.825  1.00  0.00    -0.249 OA
ATOM     23  C   UNL A   1      31.431  24.812  22.861  1.00  0.00     0.015 A 
ATOM     24  C   UNL A   1      32.960  18.216  24.021  1.00  0.00     0.001 A 
BRANCH   9  25
ATOM     25  C   UNL A   1      36.095  23.414  24.522  1.00  0.00     0.122 C 
ATOM     26  C   UNL A   1      36.963  22.691  23.507  1.00  0.00     0.028 C 
ENDBRANCH   9  25
ENDBRANCH   5   8
ENDBRANCH   3   4
ENDBRANCH   2   3
ENDBRANCH   1   2
BRANCH   1  27
ATOM     27  N   UNL A   1      32.617  30.419  25.928  1.00  0.00    -0.352 N 
ATOM     28  C   UNL A   1      33.194  31.219  26.889  1.00  0.00     0.251 C 
ATOM     29  H   UNL A   1      31.832  30.805  25.475  1.00  0.00     0.163 HD
ATOM     30  O   UNL A   1      32.617  32.237  27.251  1.00  0.00    -0.269 OA
BRANCH  28  31
ATOM     31  C   UNL A   1      34.485  30.829  27.501  1.00  0.00     0.039 A 
ATOM     32  C   UNL A   1      34.729  29.509  27.886  1.00  0.00     0.014 A 
ATOM     33  C   UNL A   1      35.467  31.806  27.695  1.00  0.00     0.014 A 
ATOM     34  C   UNL A   1      35.880  29.198  28.604  1.00  0.00     0.010 A 
ATOM     35  C   UNL A   1      36.658  31.474  28.348  1.00  0.00     0.010 A 
ATOM     36  C   UNL A   1      36.855  30.178  28.851  1.00  0.00    -0.014 A 
BRANCH  36  37
ATOM     37  C   UNL A   1      38.071  29.829  29.630  1.00  0.00     0.031 A 
ATOM     38  C   UNL A   1      38.276  30.367  31.021  1.00  0.00     0.074 A 
ATOM     39  C   UNL A   1      38.986  29.001  29.090  1.00  0.00     0.049 A 
ATOM     40  N   UNL A   1      39.277  30.165  31.840  1.00  0.00    -0.248 NA
ATOM     41  C   UNL A   1      37.227  31.246  31.566  1.00  0.00     0.031 C 
ATOM     42  C   UNL A   1      38.913  28.430  27.744  1.00  0.00     0.029 A 
ATOM     43  N   UNL A   1      40.150  28.490  29.606  1.00  0.00    -0.354 N 
ATOM     44  C   UNL A   1      39.006  30.925  32.970  1.00  0.00     0.074 A 
ATOM     45  C   UNL A   1      37.743  31.591  32.740  1.00  0.00     0.031 C 
ATOM     46  C   UNL A   1      39.967  27.622  27.553  1.00  0.00     0.029 A 
ATOM     47  C   UNL A   1      40.814  27.654  28.740  1.00  0.00     0.049 A 
ATOM     48  H   UNL A   1      40.478  28.702  30.509  1.00  0.00     0.167 HD
ATOM     49  C   UNL A   1      39.732  31.042  34.107  1.00  0.00     0.034 A 
ATOM     50  C   UNL A   1      41.980  26.993  28.877  1.00  0.00     0.034 A 
ATOM     51  C   UNL A   1      40.955  30.332  34.365  1.00  0.00     0.049 A 
ATOM     52  C   UNL A   1      42.753  27.121  30.156  1.00  0.00     0.074 A 
ATOM     53  C   UNL A   1      41.726  30.345  35.515  1.00  0.00     0.029 A 
ATOM     54  N   UNL A   1      41.582  29.481  33.471  1.00  0.00    -0.354 N 
ATOM     55  N   UNL A   1      42.436  27.781  31.243  1.00  0.00    -0.248 NA
ATOM     56  C   UNL A   1      44.036  26.407  30.235  1.00  0.00     0.031 C 
ATOM     57  C   UNL A   1      42.822  29.500  35.313  1.00  0.00     0.029 A 
ATOM     58  C   UNL A   1      42.731  28.963  34.039  1.00  0.00     0.049 A 
ATOM     59  H   UNL A   1      41.257  29.275  32.564  1.00  0.00     0.167 HD
ATOM     60  C   UNL A   1      43.477  27.561  32.137  1.00  0.00     0.074 A 
ATOM     61  C   UNL A   1      44.421  26.683  31.475  1.00  0.00     0.031 C 
ATOM     62  C   UNL A   1      43.642  28.061  33.385  1.00  0.00     0.034 A 
BRANCH  49  63
ATOM     63  C   UNL A   1      39.203  31.936  35.194  1.00  0.00     0.023 A 
ATOM     64  C   UNL A   1      38.226  31.438  36.078  1.00  0.00     0.012 A 
ATOM     65  C   UNL A   1      39.736  33.223  35.398  1.00  0.00     0.148 A 
ATOM     66  C   UNL A   1      37.779  32.213  37.147  1.00  0.00     0.002 A 
ATOM     67  C   UNL A   1      39.305  33.979  36.481  1.00  0.00     0.091 A 
ATOM     68  F   UNL A   1      40.653  33.678  34.532  1.00  0.00    -0.205 F 
ATOM     69  C   UNL A   1      38.324  33.478  37.354  1.00  0.00     0.022 A 
BRANCH  67  70
ATOM     70  S   UNL A   1      39.979  35.599  36.869  1.00  0.00     0.127 S 
ATOM     71  O   UNL A   1      39.277  35.919  38.112  1.00  0.00    -0.237 OA
ATOM     72  O   UNL A   1      41.403  35.307  37.029  1.00  0.00    -0.237 OA
ATOM     73  O   UNL A   1      39.653  36.453  35.735  1.00  0.00    -0.744 OA
ENDBRANCH  67  70
ENDBRANCH  49  63
BRANCH  50  74
ATOM     74  C   UNL A   1      42.447  26.117  27.770  1.00  0.00     0.023 A 
ATOM     75  C   UNL A   1      43.472  26.572  26.919  1.00  0.00     0.012 A 
ATOM     76  C   UNL A   1      41.953  24.807  27.620  1.00  0.00     0.148 A 
ATOM     77  C   UNL A   1      43.998  25.734  25.936  1.00  0.00     0.002 A 
ATOM     78  C   UNL A   1      42.512  23.964  26.669  1.00  0.00     0.091 A 
ATOM     79  F   UNL A   1      40.972  24.404  28.441  1.00  0.00    -0.205 F 
ATOM     80  C   UNL A   1      43.527  24.428  25.820  1.00  0.00     0.022 A 
BRANCH  78  81
ATOM     81  S   UNL A   1      42.061  22.231  26.527  1.00  0.00     0.127 S 
ATOM     82  O   UNL A   1      42.815  21.824  25.344  1.00  0.00    -0.237 OA
ATOM     83  O   UNL A   1      42.558  21.690  27.792  1.00  0.00    -0.237 OA
ATOM     84  O   UNL A   1      40.612  22.208  26.385  1.00  0.00    -0.744 OA
ENDBRANCH  78  81
ENDBRANCH  50  74
BRANCH  62  85
ATOM     85  C   UNL A   1      44.894  27.689  34.127  1.00  0.00     0.023 A 
ATOM     86  C   UNL A   1      46.008  28.548  34.065  1.00  0.00     0.012 A 
ATOM     87  C   UNL A   1      44.930  26.560  34.969  1.00  0.00     0.148 A 
ATOM     88  C   UNL A   1      47.147  28.283  34.824  1.00  0.00     0.002 A 
ATOM     89  C   UNL A   1      46.056  26.320  35.746  1.00  0.00     0.091 A 
ATOM     90  F   UNL A   1      43.860  25.752  34.998  1.00  0.00    -0.205 F 
ATOM     91  C   UNL A   1      47.166  27.177  35.672  1.00  0.00     0.022 A 
BRANCH  89  92
ATOM     92  S   UNL A   1      46.146  24.965  36.922  1.00  0.00     0.127 S 
ATOM     93  O   UNL A   1      46.167  23.802  36.035  1.00  0.00    -0.237 OA
ATOM     94  O   UNL A   1      47.409  25.232  37.609  1.00  0.00    -0.237 OA
ATOM     95  O   UNL A   1      44.963  25.084  37.764  1.00  0.00    -0.744 OA
ENDBRANCH  89  92
ENDBRANCH  62  85
ENDBRANCH  36  37
ENDBRANCH  28  31
ENDBRANCH   1  27
TORSDOF 14
ENDMDL
MODEL 3
REMARK VINA RESULT:     -13.0      5.097      7.799
REMARK SMILES CCN1C(=O)c2ccccc2[S@@](=O)c2ccc(C(=O)NCCCNC(=O)c3ccc(-c4c5nc(c(-c6cccc(S(=O)(=O)[O-])c6F)c6ccc([nH]6)c(-c6cccc(S(=O)(=O)[O-])c6F)c6nc(c(-c7cccc(S(=O)(=O)[O-])c7F)c7ccc4[nH]7)C=C6)C=C5)cc3)cc21
REMARK SMILES IDX 23 1 22 2 21 3 20 4 18 5 19 6 17 8 3 9 4 10 91 11 5 12 6 13
REMARK SMILES IDX 14 14 90 15 7 16 11 17 12 18 15 19 8 20 10 21 13 22 16 23
REMARK SMILES IDX 9 24 2 25 1 26 24 27 25 28 26 30 27 31 28 32 89 33 29 34
REMARK SMILES IDX 88 35 30 36 31 37 32 38 82 39 33 40 87 41 81 42 83 43 34 44
REMARK SMILES IDX 86 45 80 46 79 47 35 49 67 50 47 51 66 52 48 53 51 54 65 55
REMARK SMILES IDX 84 56 49 57 50 58 64 60 85 61 52 62 36 63 37 64 45 65 38 66
REMARK SMILES IDX 40 67 46 68 39 69 41 70 42 71 43 72 44 73 68 74 69 75 77 76
REMARK SMILES IDX 70 77 72 78 78 79 71 80 73 81 74 82 75 83 76 84 53 85 54 86
REMARK SMILES IDX 62 87 55 88 57 89 63 90 56 91 58 92 59 93 60 94 61 95
REMARK H PARENT 20 7 24 29 83 48 51 59
REMARK Flexibility Score: inf
ROOT
ATOM      1  C   UNL A   1      35.899  22.105  25.753  1.00  0.00     0.118 C 
ENDROOT
BRANCH   1   2
ATOM      2  C   UNL A   1      34.743  21.642  26.631  1.00  0.00     0.042 C 
BRANCH   2   3
ATOM      3  C   UNL A   1      33.404  21.606  25.896  1.00  0.00     0.118 C 
BRANCH   3   4
ATOM      4  N   UNL A   1      32.305  21.950  26.783  1.00  0.00    -0.352 N 
ATOM      5  C   UNL A   1      31.384  22.966  26.768  1.00  0.00     0.251 C 
ATOM      6  O   UNL A   1      30.500  22.945  27.625  1.00  0.00    -0.269 OA
ATOM      7  H   UNL A   1      32.202  21.333  27.543  1.00  0.00     0.163 HD
BRANCH   5   8
ATOM      8  C   UNL A   1      31.365  24.054  25.748  1.00  0.00     0.041 A 
ATOM      9  N   UNL A   1      32.224  27.715  25.382  1.00  0.00    -0.307 N 
ATOM     10  C   UNL A   1      32.273  28.844  24.554  1.00  0.00     0.259 C 
ATOM     11  C   UNL A   1      31.714  26.407  25.011  1.00  0.00     0.061 A 
ATOM     12  O   UNL A   1      33.153  29.703  24.614  1.00  0.00    -0.269 OA
ATOM     13  C   UNL A   1      31.025  29.202  23.872  1.00  0.00     0.056 A 
ATOM     14  C   UNL A   1      31.335  26.012  23.708  1.00  0.00     0.068 A 
ATOM     15  C   UNL A   1      31.659  25.400  26.010  1.00  0.00     0.041 A 
ATOM     16  C   UNL A   1      30.388  30.377  24.300  1.00  0.00     0.015 A 
ATOM     17  C   UNL A   1      30.461  28.401  22.893  1.00  0.00     0.057 A 
ATOM     18  S   UNL A   1      31.347  27.015  22.205  1.00  0.00     0.088 S 
ATOM     19  C   UNL A   1      30.970  24.668  23.456  1.00  0.00     0.021 A 
ATOM     20  C   UNL A   1      29.151  30.731  23.771  1.00  0.00     0.001 A 
ATOM     21  C   UNL A   1      29.208  28.756  22.372  1.00  0.00     0.019 A 
ATOM     22  O   UNL A   1      32.769  27.454  22.037  1.00  0.00    -0.249 OA
ATOM     23  C   UNL A   1      30.998  23.702  24.456  1.00  0.00     0.015 A 
ATOM     24  C   UNL A   1      28.554  29.910  22.817  1.00  0.00     0.001 A 
BRANCH   9  25
ATOM     25  C   UNL A   1      32.818  27.956  26.703  1.00  0.00     0.122 C 
ATOM     26  C   UNL A   1      31.841  28.526  27.716  1.00  0.00     0.028 C 
ENDBRANCH   9  25
ENDBRANCH   5   8
ENDBRANCH   3   4
ENDBRANCH   2   3
ENDBRANCH   1   2
BRANCH   1  27
ATOM     27  N   UNL A   1      36.917  21.077  25.595  1.00  0.00    -0.352 N 
ATOM     28  C   UNL A   1      38.284  21.175  25.728  1.00  0.00     0.251 C 
ATOM     29  H   UNL A   1      36.580  20.183  25.360  1.00  0.00     0.163 HD
ATOM     30  O   UNL A   1      38.992  20.239  25.375  1.00  0.00    -0.269 OA
BRANCH  28  31
ATOM     31  C   UNL A   1      38.892  22.416  26.261  1.00  0.00     0.039 A 
ATOM     32  C   UNL A   1      38.353  23.669  25.957  1.00  0.00     0.014 A 
ATOM     33  C   UNL A   1      40.022  22.322  27.080  1.00  0.00     0.014 A 
ATOM     34  C   UNL A   1      39.032  24.824  26.333  1.00  0.00     0.010 A 
ATOM     35  C   UNL A   1      40.658  23.485  27.523  1.00  0.00     0.010 A 
ATOM     36  C   UNL A   1      40.196  24.747  27.114  1.00  0.00    -0.014 A 
BRANCH  36  37
ATOM     37  C   UNL A   1      40.913  25.992  27.495  1.00  0.00     0.031 A 
ATOM     38  C   UNL A   1      42.323  26.241  27.033  1.00  0.00     0.074 A 
ATOM     39  C   UNL A   1      40.278  26.916  28.242  1.00  0.00     0.049 A 
ATOM     40  N   UNL A   1      43.095  27.271  27.274  1.00  0.00    -0.248 NA
ATOM     41  C   UNL A   1      42.953  25.205  26.197  1.00  0.00     0.031 C 
ATOM     42  C   UNL A   1      38.918  26.783  28.769  1.00  0.00     0.029 A 
ATOM     43  N   UNL A   1      40.686  28.150  28.682  1.00  0.00    -0.354 N 
ATOM     44  C   UNL A   1      44.311  26.987  26.665  1.00  0.00     0.074 A 
ATOM     45  C   UNL A   1      44.178  25.692  26.036  1.00  0.00     0.031 C 
ATOM     46  C   UNL A   1      38.593  27.903  29.432  1.00  0.00     0.029 A 
ATOM     47  C   UNL A   1      39.735  28.813  29.419  1.00  0.00     0.049 A 
ATOM     48  H   UNL A   1      41.576  28.523  28.489  1.00  0.00     0.167 HD
ATOM     49  C   UNL A   1      45.431  27.747  26.614  1.00  0.00     0.034 A 
ATOM     50  C   UNL A   1      39.773  30.014  30.028  1.00  0.00     0.034 A 
ATOM     51  C   UNL A   1      45.546  29.062  27.183  1.00  0.00     0.049 A 
ATOM     52  C   UNL A   1      41.018  30.846  29.936  1.00  0.00     0.074 A 
ATOM     53  C   UNL A   1      46.624  29.928  27.127  1.00  0.00     0.029 A 
ATOM     54  N   UNL A   1      44.552  29.705  27.903  1.00  0.00    -0.354 N 
ATOM     55  N   UNL A   1      42.126  30.593  29.285  1.00  0.00    -0.248 NA
ATOM     56  C   UNL A   1      41.016  32.131  30.650  1.00  0.00     0.031 C 
ATOM     57  C   UNL A   1      46.282  31.096  27.817  1.00  0.00     0.029 A 
ATOM     58  C   UNL A   1      44.991  30.955  28.299  1.00  0.00     0.049 A 
ATOM     59  H   UNL A   1      43.665  29.327  28.102  1.00  0.00     0.167 HD
ATOM     60  C   UNL A   1      42.955  31.686  29.508  1.00  0.00     0.074 A 
ATOM     61  C   UNL A   1      42.209  32.618  30.331  1.00  0.00     0.031 C 
ATOM     62  C   UNL A   1      44.226  31.888  29.085  1.00  0.00     0.034 A 
BRANCH  49  63
ATOM     63  C   UNL A   1      46.620  27.202  25.874  1.00  0.00     0.023 A 
ATOM     64  C   UNL A   1      47.372  26.161  26.453  1.00  0.00     0.012 A 
ATOM     65  C   UNL A   1      46.933  27.649  24.576  1.00  0.00     0.148 A 
ATOM     66  C   UNL A   1      48.428  25.578  25.754  1.00  0.00     0.002 A 
ATOM     67  C   UNL A   1      47.969  27.044  23.874  1.00  0.00     0.091 A 
ATOM     68  F   UNL A   1      46.211  28.651  24.054  1.00  0.00    -0.205 F 
ATOM     69  C   UNL A   1      48.720  26.012  24.463  1.00  0.00     0.022 A 
BRANCH  67  70
ATOM     70  S   UNL A   1      48.396  27.491  22.188  1.00  0.00     0.127 S 
ATOM     71  O   UNL A   1      49.588  28.314  22.395  1.00  0.00    -0.237 OA
ATOM     72  O   UNL A   1      48.653  26.185  21.581  1.00  0.00    -0.237 OA
ATOM     73  O   UNL A   1      47.240  28.197  21.653  1.00  0.00    -0.744 OA
ENDBRANCH  67  70
ENDBRANCH  49  63
BRANCH  50  74
ATOM     74  C   UNL A   1      38.561  30.503  30.738  1.00  0.00     0.023 A 
ATOM     75  C   UNL A   1      38.468  30.338  32.132  1.00  0.00     0.012 A 
ATOM     76  C   UNL A   1      37.555  31.213  30.055  1.00  0.00     0.148 A 
ATOM     77  C   UNL A   1      37.390  30.874  32.837  1.00  0.00     0.002 A 
ATOM     78  C   UNL A   1      36.508  31.782  30.769  1.00  0.00     0.091 A 
ATOM     79  F   UNL A   1      37.667  31.348  28.726  1.00  0.00    -0.205 F 
ATOM     80  C   UNL A   1      36.419  31.606  32.158  1.00  0.00     0.022 A 
BRANCH  78  81
ATOM     81  S   UNL A   1      35.279  32.845  30.003  1.00  0.00     0.127 S 
ATOM     82  O   UNL A   1      36.109  33.917  29.460  1.00  0.00    -0.237 OA
ATOM     83  O   UNL A   1      34.695  31.951  29.004  1.00  0.00    -0.237 OA
ATOM     84  O   UNL A   1      34.371  33.236  31.072  1.00  0.00    -0.744 OA
ENDBRANCH  78  81
ENDBRANCH  50  74
BRANCH  62  85
ATOM     85  C   UNL A   1      44.911  33.156  29.507  1.00  0.00     0.023 A 
ATOM     86  C   UNL A   1      45.722  33.146  30.659  1.00  0.00     0.012 A 
ATOM     87  C   UNL A   1      44.846  34.315  28.710  1.00  0.00     0.148 A 
ATOM     88  C   UNL A   1      46.452  34.277  31.018  1.00  0.00     0.002 A 
ATOM     89  C   UNL A   1      45.600  35.429  29.058  1.00  0.00     0.091 A 
ATOM     90  F   UNL A   1      44.055  34.301  27.627  1.00  0.00    -0.205 F 
ATOM     91  C   UNL A   1      46.400  35.413  30.212  1.00  0.00     0.022 A 
BRANCH  89  92
ATOM     92  S   UNL A   1      45.657  36.910  28.044  1.00  0.00     0.127 S 
ATOM     93  O   UNL A   1      44.276  37.383  28.130  1.00  0.00    -0.237 OA
ATOM     94  O   UNL A   1      46.630  37.738  28.755  1.00  0.00    -0.237 OA
ATOM     95  O   UNL A   1      46.085  36.476  26.720  1.00  0.00    -0.744 OA
ENDBRANCH  89  92
ENDBRANCH  62  85
ENDBRANCH  36  37
ENDBRANCH  28  31
ENDBRANCH   1  27
TORSDOF 14
ENDMDL
