MODEL 1
REMARK VINA RESULT:     -10.7      0.000      0.000
REMARK SMILES COCCN(CC(=O)NCCCNC(=O)c1ccc(-c2c3nc(c(-c4cccc(S(=O)(=O)[O-])c4F)c4ccc([nH]4)c(-c4cccc(S(=O)(=O)[O-])c4F)c4nc(c(-c5cccc(S(=O)(=O)[O-])c5F)c5ccc2[nH]5)C=C4)C=C3)cc1)C(=O)N1CCC[C@@H]1C
REMARK SMILES IDX 10 1 9 2 7 3 8 4 6 6 5 7 4 8 3 9 2 10 1 11 79 12 80 13 81 14
REMARK SMILES IDX 82 15 85 16 83 17 84 18 86 19 11 20 12 21 13 22 14 23 15 25
REMARK SMILES IDX 16 26 17 27 78 28 18 29 77 30 19 31 20 32 21 33 71 34 22 35
REMARK SMILES IDX 76 36 70 37 72 38 23 39 75 40 69 41 68 42 24 44 56 45 36 46
REMARK SMILES IDX 55 47 37 48 40 49 54 50 73 51 38 52 39 53 53 55 74 56 41 57
REMARK SMILES IDX 25 58 26 59 34 60 27 61 29 62 35 63 28 64 30 65 31 66 32 67
REMARK SMILES IDX 33 68 57 69 58 70 66 71 59 72 61 73 67 74 60 75 62 76 63 77
REMARK SMILES IDX 64 78 65 79 42 80 43 81 51 82 44 83 46 84 52 85 45 86 47 87
REMARK SMILES IDX 48 88 49 89 50 90
REMARK H PARENT 9 5 13 24 72 43 40 54
REMARK Flexibility Score: inf
ROOT
ATOM      1  C   UNL A   1      32.313  28.227  23.168  1.00  0.00     0.117 C 
ENDROOT
BRANCH   1   2
ATOM      2  N   UNL A   1      33.002  27.476  22.142  1.00  0.00    -0.354 N 
ATOM      3  C   UNL A   1      32.932  26.150  21.841  1.00  0.00     0.239 C 
ATOM      4  O   UNL A   1      33.211  25.838  20.676  1.00  0.00    -0.273 OA
ATOM      5  H   UNL A   1      33.615  28.002  21.577  1.00  0.00     0.163 HD
BRANCH   3   6
ATOM      6  C   UNL A   1      32.381  25.089  22.814  1.00  0.00     0.221 C 
BRANCH   6   7
ATOM      7  N   UNL A   1      33.311  24.510  23.786  1.00  0.00    -0.313 N 
BRANCH   7   8
ATOM      8  C   UNL A   1      33.066  24.815  25.212  1.00  0.00     0.150 C 
BRANCH   8   9
ATOM      9  C   UNL A   1      31.581  24.914  25.614  1.00  0.00     0.181 C 
BRANCH   9  10
ATOM     10  O   UNL A   1      31.316  24.349  26.892  1.00  0.00    -0.383 OA
ATOM     11  C   UNL A   1      30.364  23.299  26.874  1.00  0.00     0.194 C 
ENDBRANCH   9  10
ENDBRANCH   8   9
ENDBRANCH   7   8
BRANCH   7  12
ATOM     12  C   UNL A   1      34.219  23.494  23.523  1.00  0.00     0.320 C 
ATOM     13  O   UNL A   1      35.359  23.740  23.128  1.00  0.00    -0.248 OA
BRANCH  12  14
ATOM     14  N   UNL A   1      33.892  22.205  23.868  1.00  0.00    -0.322 N 
ATOM     15  C   UNL A   1      32.490  21.831  23.854  1.00  0.00     0.122 C 
ATOM     16  C   UNL A   1      34.614  21.326  24.790  1.00  0.00     0.083 C 
ATOM     17  C   UNL A   1      32.525  20.332  24.062  1.00  0.00     0.024 C 
ATOM     18  C   UNL A   1      33.639  20.168  25.086  1.00  0.00     0.027 C 
ATOM     19  C   UNL A   1      35.008  22.031  26.085  1.00  0.00     0.031 C 
ENDBRANCH  12  14
ENDBRANCH   7  12
ENDBRANCH   6   7
ENDBRANCH   3   6
ENDBRANCH   1   2
BRANCH   1  20
ATOM     20  C   UNL A   1      33.219  28.847  24.223  1.00  0.00     0.042 C 
BRANCH  20  21
ATOM     21  C   UNL A   1      32.578  29.019  25.596  1.00  0.00     0.118 C 
BRANCH  21  22
ATOM     22  N   UNL A   1      32.345  30.414  25.943  1.00  0.00    -0.352 N 
ATOM     23  C   UNL A   1      32.959  31.226  26.865  1.00  0.00     0.251 C 
ATOM     24  H   UNL A   1      31.627  30.849  25.431  1.00  0.00     0.163 HD
ATOM     25  O   UNL A   1      32.458  32.320  27.116  1.00  0.00    -0.269 OA
BRANCH  23  26
ATOM     26  C   UNL A   1      34.196  30.805  27.558  1.00  0.00     0.039 A 
ATOM     27  C   UNL A   1      35.222  31.741  27.727  1.00  0.00     0.014 A 
ATOM     28  C   UNL A   1      34.380  29.490  27.993  1.00  0.00     0.014 A 
ATOM     29  C   UNL A   1      36.402  31.374  28.381  1.00  0.00     0.010 A 
ATOM     30  C   UNL A   1      35.524  29.146  28.712  1.00  0.00     0.010 A 
ATOM     31  C   UNL A   1      36.550  30.081  28.908  1.00  0.00    -0.014 A 
BRANCH  31  32
ATOM     32  C   UNL A   1      37.766  29.691  29.671  1.00  0.00     0.031 A 
ATOM     33  C   UNL A   1      38.031  30.277  31.033  1.00  0.00     0.074 A 
ATOM     34  C   UNL A   1      38.672  28.872  29.102  1.00  0.00     0.049 A 
ATOM     35  N   UNL A   1      39.067  30.112  31.815  1.00  0.00    -0.248 NA
ATOM     36  C   UNL A   1      37.009  31.185  31.580  1.00  0.00     0.031 C 
ATOM     37  C   UNL A   1      38.566  28.296  27.759  1.00  0.00     0.029 A 
ATOM     38  N   UNL A   1      39.875  28.403  29.567  1.00  0.00    -0.354 N 
ATOM     39  C   UNL A   1      38.837  30.913  32.928  1.00  0.00     0.074 A 
ATOM     40  C   UNL A   1      37.580  31.594  32.704  1.00  0.00     0.031 C 
ATOM     41  C   UNL A   1      39.657  27.553  27.510  1.00  0.00     0.029 A 
ATOM     42  C   UNL A   1      40.553  27.624  28.659  1.00  0.00     0.049 A 
ATOM     43  H   UNL A   1      40.221  28.607  30.467  1.00  0.00     0.167 HD
ATOM     44  C   UNL A   1      39.585  31.045  34.051  1.00  0.00     0.034 A 
ATOM     45  C   UNL A   1      41.766  27.039  28.739  1.00  0.00     0.034 A 
ATOM     46  C   UNL A   1      40.815  30.339  34.286  1.00  0.00     0.049 A 
ATOM     47  C   UNL A   1      42.564  27.186  30.006  1.00  0.00     0.074 A 
ATOM     48  C   UNL A   1      41.615  30.357  35.415  1.00  0.00     0.029 A 
ATOM     49  N   UNL A   1      41.427  29.489  33.377  1.00  0.00    -0.354 N 
ATOM     50  N   UNL A   1      42.260  27.832  31.105  1.00  0.00    -0.248 NA
ATOM     51  C   UNL A   1      43.859  26.493  30.058  1.00  0.00     0.031 C 
ATOM     52  C   UNL A   1      42.719  29.528  35.183  1.00  0.00     0.029 A 
ATOM     53  C   UNL A   1      42.593  28.976  33.919  1.00  0.00     0.049 A 
ATOM     54  H   UNL A   1      41.082  29.281  32.479  1.00  0.00     0.167 HD
ATOM     55  C   UNL A   1      43.302  27.590  31.992  1.00  0.00     0.074 A 
ATOM     56  C   UNL A   1      44.237  26.719  31.309  1.00  0.00     0.031 C 
ATOM     57  C   UNL A   1      43.481  28.059  33.251  1.00  0.00     0.034 A 
BRANCH  44  58
ATOM     58  C   UNL A   1      39.056  31.940  35.143  1.00  0.00     0.023 A 
ATOM     59  C   UNL A   1      39.112  33.340  34.972  1.00  0.00     0.012 A 
ATOM     60  C   UNL A   1      38.450  31.410  36.298  1.00  0.00     0.148 A 
ATOM     61  C   UNL A   1      38.606  34.196  35.949  1.00  0.00     0.002 A 
ATOM     62  C   UNL A   1      37.907  32.270  37.246  1.00  0.00     0.091 A 
ATOM     63  F   UNL A   1      38.420  30.078  36.451  1.00  0.00    -0.205 F 
ATOM     64  C   UNL A   1      37.996  33.662  37.079  1.00  0.00     0.022 A 
BRANCH  62  65
ATOM     65  S   UNL A   1      37.031  31.685  38.702  1.00  0.00     0.127 S 
ATOM     66  O   UNL A   1      38.018  31.922  39.755  1.00  0.00    -0.237 OA
ATOM     67  O   UNL A   1      35.872  32.577  38.741  1.00  0.00    -0.237 OA
ATOM     68  O   UNL A   1      36.716  30.287  38.447  1.00  0.00    -0.744 OA
ENDBRANCH  62  65
ENDBRANCH  44  58
BRANCH  45  69
ATOM     69  C   UNL A   1      42.274  26.208  27.610  1.00  0.00     0.023 A 
ATOM     70  C   UNL A   1      43.130  26.792  26.655  1.00  0.00     0.012 A 
ATOM     71  C   UNL A   1      41.923  24.851  27.477  1.00  0.00     0.148 A 
ATOM     72  C   UNL A   1      43.592  26.052  25.566  1.00  0.00     0.002 A 
ATOM     73  C   UNL A   1      42.434  24.104  26.421  1.00  0.00     0.091 A 
ATOM     74  F   UNL A   1      41.098  24.315  28.388  1.00  0.00    -0.205 F 
ATOM     75  C   UNL A   1      43.253  24.708  25.454  1.00  0.00     0.022 A 
BRANCH  73  76
ATOM     76  S   UNL A   1      42.150  22.337  26.270  1.00  0.00     0.127 S 
ATOM     77  O   UNL A   1      42.656  21.843  27.550  1.00  0.00    -0.237 OA
ATOM     78  O   UNL A   1      40.693  22.277  26.123  1.00  0.00    -0.237 OA
ATOM     79  O   UNL A   1      42.888  21.924  25.089  1.00  0.00    -0.744 OA
ENDBRANCH  73  76
ENDBRANCH  45  69
BRANCH  57  80
ATOM     80  C   UNL A   1      44.707  27.606  33.998  1.00  0.00     0.023 A 
ATOM     81  C   UNL A   1      45.880  28.385  33.960  1.00  0.00     0.012 A 
ATOM     82  C   UNL A   1      44.675  26.444  34.793  1.00  0.00     0.148 A 
ATOM     83  C   UNL A   1      47.013  27.998  34.674  1.00  0.00     0.002 A 
ATOM     84  C   UNL A   1      45.791  26.090  35.543  1.00  0.00     0.091 A 
ATOM     85  F   UNL A   1      43.556  25.706  34.803  1.00  0.00    -0.205 F 
ATOM     86  C   UNL A   1      46.964  26.858  35.474  1.00  0.00     0.022 A 
BRANCH  84  87
ATOM     87  S   UNL A   1      45.789  24.695  36.674  1.00  0.00     0.127 S 
ATOM     88  O   UNL A   1      47.123  24.785  37.264  1.00  0.00    -0.237 OA
ATOM     89  O   UNL A   1      44.695  25.035  37.585  1.00  0.00    -0.237 OA
ATOM     90  O   UNL A   1      45.547  23.514  35.855  1.00  0.00    -0.744 OA
ENDBRANCH  84  87
ENDBRANCH  57  80
ENDBRANCH  31  32
ENDBRANCH  23  26
ENDBRANCH  21  22
ENDBRANCH  20  21
ENDBRANCH   1  20
TORSDOF 19
ENDMDL
MODEL 2
REMARK VINA RESULT:     -10.6      2.555      8.466
REMARK SMILES COCCN(CC(=O)NCCCNC(=O)c1ccc(-c2c3nc(c(-c4cccc(S(=O)(=O)[O-])c4F)c4ccc([nH]4)c(-c4cccc(S(=O)(=O)[O-])c4F)c4nc(c(-c5cccc(S(=O)(=O)[O-])c5F)c5ccc2[nH]5)C=C4)C=C3)cc1)C(=O)N1CCC[C@@H]1C
REMARK SMILES IDX 10 1 9 2 7 3 8 4 6 6 5 7 4 8 3 9 2 10 1 11 79 12 80 13 81 14
REMARK SMILES IDX 82 15 85 16 83 17 84 18 86 19 11 20 12 21 13 22 14 23 15 25
REMARK SMILES IDX 16 26 17 27 78 28 18 29 77 30 19 31 20 32 21 33 71 34 22 35
REMARK SMILES IDX 76 36 70 37 72 38 23 39 75 40 69 41 68 42 24 44 56 45 36 46
REMARK SMILES IDX 55 47 37 48 40 49 54 50 73 51 38 52 39 53 53 55 74 56 41 57
REMARK SMILES IDX 25 58 26 59 34 60 27 61 29 62 35 63 28 64 30 65 31 66 32 67
REMARK SMILES IDX 33 68 57 69 58 70 66 71 59 72 61 73 67 74 60 75 62 76 63 77
REMARK SMILES IDX 64 78 65 79 42 80 43 81 51 82 44 83 46 84 52 85 45 86 47 87
REMARK SMILES IDX 48 88 49 89 50 90
REMARK H PARENT 9 5 13 24 72 43 40 54
REMARK Flexibility Score: inf
ROOT
ATOM      1  C   UNL A   1      31.389  30.658  26.333  1.00  0.00     0.117 C 
ENDROOT
BRANCH   1   2
ATOM      2  N   UNL A   1      32.545  30.168  25.615  1.00  0.00    -0.354 N 
ATOM      3  C   UNL A   1      32.643  29.145  24.722  1.00  0.00     0.239 C 
ATOM      4  O   UNL A   1      33.570  29.218  23.905  1.00  0.00    -0.273 OA
ATOM      5  H   UNL A   1      33.387  30.644  25.800  1.00  0.00     0.163 HD
BRANCH   3   6
ATOM      6  C   UNL A   1      31.586  28.029  24.593  1.00  0.00     0.221 C 
BRANCH   6   7
ATOM      7  N   UNL A   1      31.516  27.301  23.324  1.00  0.00    -0.313 N 
BRANCH   7   8
ATOM      8  C   UNL A   1      30.546  27.790  22.322  1.00  0.00     0.150 C 
BRANCH   8   9
ATOM      9  C   UNL A   1      30.246  29.301  22.386  1.00  0.00     0.181 C 
BRANCH   9  10
ATOM     10  O   UNL A   1      29.453  29.753  21.295  1.00  0.00    -0.383 OA
ATOM     11  C   UNL A   1      28.199  30.293  21.676  1.00  0.00     0.194 C 
ENDBRANCH   9  10
ENDBRANCH   8   9
ENDBRANCH   7   8
BRANCH   7  12
ATOM     12  C   UNL A   1      32.453  26.381  22.873  1.00  0.00     0.320 C 
ATOM     13  O   UNL A   1      33.310  26.692  22.045  1.00  0.00    -0.248 OA
BRANCH  12  14
ATOM     14  N   UNL A   1      32.527  25.154  23.487  1.00  0.00    -0.322 N 
ATOM     15  C   UNL A   1      31.287  24.525  23.902  1.00  0.00     0.122 C 
ATOM     16  C   UNL A   1      33.625  24.641  24.308  1.00  0.00     0.083 C 
ATOM     17  C   UNL A   1      31.721  23.137  24.321  1.00  0.00     0.024 C 
ATOM     18  C   UNL A   1      33.043  23.405  25.026  1.00  0.00     0.027 C 
ATOM     19  C   UNL A   1      34.121  25.661  25.329  1.00  0.00     0.031 C 
ENDBRANCH  12  14
ENDBRANCH   7  12
ENDBRANCH   6   7
ENDBRANCH   3   6
ENDBRANCH   1   2
BRANCH   1  20
ATOM     20  C   UNL A   1      31.389  32.159  26.592  1.00  0.00     0.042 C 
BRANCH  20  21
ATOM     21  C   UNL A   1      32.651  32.692  27.264  1.00  0.00     0.118 C 
BRANCH  21  22
ATOM     22  N   UNL A   1      32.552  34.101  27.620  1.00  0.00    -0.352 N 
ATOM     23  C   UNL A   1      33.201  34.833  28.583  1.00  0.00     0.251 C 
ATOM     24  H   UNL A   1      31.911  34.616  27.079  1.00  0.00     0.163 HD
ATOM     25  O   UNL A   1      32.809  35.973  28.825  1.00  0.00    -0.269 OA
BRANCH  23  26
ATOM     26  C   UNL A   1      34.349  34.274  29.331  1.00  0.00     0.039 A 
ATOM     27  C   UNL A   1      34.096  33.410  30.401  1.00  0.00     0.014 A 
ATOM     28  C   UNL A   1      35.665  34.634  29.028  1.00  0.00     0.014 A 
ATOM     29  C   UNL A   1      35.160  32.864  31.126  1.00  0.00     0.010 A 
ATOM     30  C   UNL A   1      36.726  34.029  29.700  1.00  0.00     0.010 A 
ATOM     31  C   UNL A   1      36.486  33.143  30.760  1.00  0.00    -0.014 A 
BRANCH  31  32
ATOM     32  C   UNL A   1      37.633  32.516  31.469  1.00  0.00     0.031 A 
ATOM     33  C   UNL A   1      38.369  31.357  30.850  1.00  0.00     0.074 A 
ATOM     34  C   UNL A   1      37.959  32.938  32.706  1.00  0.00     0.049 A 
ATOM     35  N   UNL A   1      39.343  30.638  31.346  1.00  0.00    -0.248 NA
ATOM     36  C   UNL A   1      37.939  30.934  29.507  1.00  0.00     0.031 C 
ATOM     37  C   UNL A   1      37.277  34.004  33.444  1.00  0.00     0.029 A 
ATOM     38  N   UNL A   1      38.929  32.505  33.576  1.00  0.00    -0.354 N 
ATOM     39  C   UNL A   1      39.623  29.665  30.395  1.00  0.00     0.074 A 
ATOM     40  C   UNL A   1      38.691  29.860  29.306  1.00  0.00     0.031 C 
ATOM     41  C   UNL A   1      37.848  34.141  34.652  1.00  0.00     0.029 A 
ATOM     42  C   UNL A   1      38.914  33.154  34.789  1.00  0.00     0.049 A 
ATOM     43  H   UNL A   1      39.574  31.794  33.353  1.00  0.00     0.167 HD
ATOM     44  C   UNL A   1      40.591  28.716  30.407  1.00  0.00     0.034 A 
ATOM     45  C   UNL A   1      39.668  32.970  35.891  1.00  0.00     0.034 A 
ATOM     46  C   UNL A   1      41.540  28.548  31.474  1.00  0.00     0.049 A 
ATOM     47  C   UNL A   1      40.749  31.922  35.868  1.00  0.00     0.074 A 
ATOM     48  C   UNL A   1      42.596  27.657  31.554  1.00  0.00     0.029 A 
ATOM     49  N   UNL A   1      41.549  29.284  32.649  1.00  0.00    -0.354 N 
ATOM     50  N   UNL A   1      41.092  31.109  34.899  1.00  0.00    -0.248 NA
ATOM     51  C   UNL A   1      41.572  31.792  37.079  1.00  0.00     0.031 C 
ATOM     52  C   UNL A   1      43.236  27.845  32.785  1.00  0.00     0.029 A 
ATOM     53  C   UNL A   1      42.591  28.868  33.460  1.00  0.00     0.049 A 
ATOM     54  H   UNL A   1      40.908  29.996  32.873  1.00  0.00     0.167 HD
ATOM     55  C   UNL A   1      42.193  30.401  35.366  1.00  0.00     0.074 A 
ATOM     56  C   UNL A   1      42.474  30.898  36.698  1.00  0.00     0.031 C 
ATOM     57  C   UNL A   1      42.898  29.416  34.756  1.00  0.00     0.034 A 
BRANCH  44  58
ATOM     58  C   UNL A   1      40.715  27.827  29.196  1.00  0.00     0.023 A 
ATOM     59  C   UNL A   1      39.917  26.666  29.111  1.00  0.00     0.012 A 
ATOM     60  C   UNL A   1      41.560  28.163  28.121  1.00  0.00     0.148 A 
ATOM     61  C   UNL A   1      39.985  25.837  27.992  1.00  0.00     0.002 A 
ATOM     62  C   UNL A   1      41.589  27.355  26.989  1.00  0.00     0.091 A 
ATOM     63  F   UNL A   1      42.323  29.260  28.226  1.00  0.00    -0.205 F 
ATOM     64  C   UNL A   1      40.812  26.186  26.929  1.00  0.00     0.022 A 
BRANCH  62  65
ATOM     65  S   UNL A   1      42.561  27.754  25.533  1.00  0.00     0.127 S 
ATOM     66  O   UNL A   1      42.289  26.603  24.671  1.00  0.00    -0.237 OA
ATOM     67  O   UNL A   1      41.948  29.006  25.088  1.00  0.00    -0.237 OA
ATOM     68  O   UNL A   1      43.938  27.879  25.989  1.00  0.00    -0.744 OA
ENDBRANCH  62  65
ENDBRANCH  44  58
BRANCH  45  69
ATOM     69  C   UNL A   1      39.473  33.836  37.088  1.00  0.00     0.023 A 
ATOM     70  C   UNL A   1      39.948  35.163  37.064  1.00  0.00     0.012 A 
ATOM     71  C   UNL A   1      38.823  33.362  38.243  1.00  0.00     0.148 A 
ATOM     72  C   UNL A   1      39.816  35.987  38.181  1.00  0.00     0.002 A 
ATOM     73  C   UNL A   1      38.643  34.207  39.332  1.00  0.00     0.091 A 
ATOM     74  F   UNL A   1      38.389  32.094  38.254  1.00  0.00    -0.205 F 
ATOM     75  C   UNL A   1      39.156  35.514  39.311  1.00  0.00     0.022 A 
BRANCH  73  76
ATOM     76  S   UNL A   1      37.696  33.721  40.779  1.00  0.00     0.127 S 
ATOM     77  O   UNL A   1      37.552  34.994  41.483  1.00  0.00    -0.237 OA
ATOM     78  O   UNL A   1      36.462  33.211  40.174  1.00  0.00    -0.237 OA
ATOM     79  O   UNL A   1      38.497  32.709  41.446  1.00  0.00    -0.744 OA
ENDBRANCH  73  76
ENDBRANCH  45  69
BRANCH  57  80
ATOM     80  C   UNL A   1      44.075  28.838  35.498  1.00  0.00     0.023 A 
ATOM     81  C   UNL A   1      45.355  29.403  35.334  1.00  0.00     0.012 A 
ATOM     82  C   UNL A   1      43.898  27.780  36.410  1.00  0.00     0.148 A 
ATOM     83  C   UNL A   1      46.447  28.902  36.041  1.00  0.00     0.002 A 
ATOM     84  C   UNL A   1      44.981  27.318  37.149  1.00  0.00     0.091 A 
ATOM     85  F   UNL A   1      42.676  27.243  36.540  1.00  0.00    -0.205 F 
ATOM     86  C   UNL A   1      46.258  27.869  36.956  1.00  0.00     0.022 A 
BRANCH  84  87
ATOM     87  S   UNL A   1      44.815  26.058  38.419  1.00  0.00     0.127 S 
ATOM     88  O   UNL A   1      43.870  26.684  39.341  1.00  0.00    -0.237 OA
ATOM     89  O   UNL A   1      44.272  24.928  37.663  1.00  0.00    -0.237 OA
ATOM     90  O   UNL A   1      46.155  25.842  38.948  1.00  0.00    -0.744 OA
ENDBRANCH  84  87
ENDBRANCH  57  80
ENDBRANCH  31  32
ENDBRANCH  23  26
ENDBRANCH  21  22
ENDBRANCH  20  21
ENDBRANCH   1  20
TORSDOF 19
ENDMDL
MODEL 3
REMARK VINA RESULT:     -10.5      0.885      2.014
REMARK SMILES COCCN(CC(=O)NCCCNC(=O)c1ccc(-c2c3nc(c(-c4cccc(S(=O)(=O)[O-])c4F)c4ccc([nH]4)c(-c4cccc(S(=O)(=O)[O-])c4F)c4nc(c(-c5cccc(S(=O)(=O)[O-])c5F)c5ccc2[nH]5)C=C4)C=C3)cc1)C(=O)N1CCC[C@@H]1C
REMARK SMILES IDX 10 1 9 2 7 3 8 4 6 6 5 7 4 8 3 9 2 10 1 11 79 12 80 13 81 14
REMARK SMILES IDX 82 15 85 16 83 17 84 18 86 19 11 20 12 21 13 22 14 23 15 25
REMARK SMILES IDX 16 26 17 27 78 28 18 29 77 30 19 31 20 32 21 33 71 34 22 35
REMARK SMILES IDX 76 36 70 37 72 38 23 39 75 40 69 41 68 42 24 44 56 45 36 46
REMARK SMILES IDX 55 47 37 48 40 49 54 50 73 51 38 52 39 53 53 55 74 56 41 57
REMARK SMILES IDX 25 58 26 59 34 60 27 61 29 62 35 63 28 64 30 65 31 66 32 67
REMARK SMILES IDX 33 68 57 69 58 70 66 71 59 72 61 73 67 74 60 75 62 76 63 77
REMARK SMILES IDX 64 78 65 79 42 80 43 81 51 82 44 83 46 84 52 85 45 86 47 87
REMARK SMILES IDX 48 88 49 89 50 90
REMARK H PARENT 9 5 13 24 72 43 40 54
REMARK Flexibility Score: inf
ROOT
ATOM      1  C   UNL A   1      31.782  27.832  27.069  1.00  0.00     0.117 C 
ENDROOT
BRANCH   1   2
ATOM      2  N   UNL A   1      30.997  26.630  26.887  1.00  0.00    -0.354 N 
ATOM      3  C   UNL A   1      31.390  25.389  26.490  1.00  0.00     0.239 C 
ATOM      4  O   UNL A   1      30.682  24.446  26.863  1.00  0.00    -0.273 OA
ATOM      5  H   UNL A   1      30.036  26.725  27.078  1.00  0.00     0.163 HD
BRANCH   3   6
ATOM      6  C   UNL A   1      32.721  25.115  25.761  1.00  0.00     0.221 C 
BRANCH   6   7
ATOM      7  N   UNL A   1      32.661  24.790  24.334  1.00  0.00    -0.313 N 
BRANCH   7   8
ATOM      8  C   UNL A   1      32.609  25.925  23.389  1.00  0.00     0.150 C 
BRANCH   8   9
ATOM      9  C   UNL A   1      33.913  26.185  22.608  1.00  0.00     0.181 C 
BRANCH   9  10
ATOM     10  O   UNL A   1      33.821  27.310  21.741  1.00  0.00    -0.383 OA
ATOM     11  C   UNL A   1      33.713  28.553  22.415  1.00  0.00     0.194 C 
ENDBRANCH   9  10
ENDBRANCH   8   9
ENDBRANCH   7   8
BRANCH   7  12
ATOM     12  C   UNL A   1      32.924  23.543  23.783  1.00  0.00     0.320 C 
ATOM     13  O   UNL A   1      32.525  23.244  22.657  1.00  0.00    -0.248 OA
BRANCH  12  14
ATOM     14  N   UNL A   1      33.783  22.695  24.439  1.00  0.00    -0.322 N 
ATOM     15  C   UNL A   1      35.069  22.421  23.825  1.00  0.00     0.122 C 
ATOM     16  C   UNL A   1      33.426  21.584  25.323  1.00  0.00     0.083 C 
ATOM     17  C   UNL A   1      35.813  21.655  24.897  1.00  0.00     0.024 C 
ATOM     18  C   UNL A   1      34.724  20.766  25.482  1.00  0.00     0.027 C 
ATOM     19  C   UNL A   1      32.316  20.710  24.747  1.00  0.00     0.031 C 
ENDBRANCH  12  14
ENDBRANCH   7  12
ENDBRANCH   6   7
ENDBRANCH   3   6
ENDBRANCH   1   2
BRANCH   1  20
ATOM     20  C   UNL A   1      31.593  28.887  25.987  1.00  0.00     0.042 C 
BRANCH  20  21
ATOM     21  C   UNL A   1      32.803  29.786  25.752  1.00  0.00     0.118 C 
BRANCH  21  22
ATOM     22  N   UNL A   1      32.601  31.146  26.235  1.00  0.00    -0.352 N 
ATOM     23  C   UNL A   1      33.239  31.853  27.224  1.00  0.00     0.251 C 
ATOM     24  H   UNL A   1      31.887  31.642  25.775  1.00  0.00     0.163 HD
ATOM     25  O   UNL A   1      32.763  32.927  27.585  1.00  0.00    -0.269 OA
BRANCH  23  26
ATOM     26  C   UNL A   1      34.474  31.343  27.860  1.00  0.00     0.039 A 
ATOM     27  C   UNL A   1      35.573  32.202  27.975  1.00  0.00     0.014 A 
ATOM     28  C   UNL A   1      34.583  30.019  28.291  1.00  0.00     0.014 A 
ATOM     29  C   UNL A   1      36.753  31.751  28.573  1.00  0.00     0.010 A 
ATOM     30  C   UNL A   1      35.732  29.594  28.957  1.00  0.00     0.010 A 
ATOM     31  C   UNL A   1      36.832  30.452  29.099  1.00  0.00    -0.014 A 
BRANCH  31  32
ATOM     32  C   UNL A   1      38.051  29.975  29.805  1.00  0.00     0.031 A 
ATOM     33  C   UNL A   1      38.395  30.504  31.172  1.00  0.00     0.074 A 
ATOM     34  C   UNL A   1      38.890  29.126  29.180  1.00  0.00     0.049 A 
ATOM     35  N   UNL A   1      39.448  30.261  31.910  1.00  0.00    -0.248 NA
ATOM     36  C   UNL A   1      37.444  31.449  31.782  1.00  0.00     0.031 C 
ATOM     37  C   UNL A   1      38.705  28.596  27.827  1.00  0.00     0.029 A 
ATOM     38  N   UNL A   1      40.082  28.580  29.587  1.00  0.00    -0.354 N 
ATOM     39  C   UNL A   1      39.302  31.039  33.052  1.00  0.00     0.074 A 
ATOM     40  C   UNL A   1      38.077  31.793  32.895  1.00  0.00     0.031 C 
ATOM     41  C   UNL A   1      39.744  27.804  27.517  1.00  0.00     0.029 A 
ATOM     42  C   UNL A   1      40.684  27.792  28.633  1.00  0.00     0.049 A 
ATOM     43  H   UNL A   1      40.470  28.737  30.479  1.00  0.00     0.167 HD
ATOM     44  C   UNL A   1      40.095  31.098  34.150  1.00  0.00     0.034 A 
ATOM     45  C   UNL A   1      41.864  27.142  28.651  1.00  0.00     0.034 A 
ATOM     46  C   UNL A   1      41.293  30.321  34.319  1.00  0.00     0.049 A 
ATOM     47  C   UNL A   1      42.715  27.208  29.891  1.00  0.00     0.074 A 
ATOM     48  C   UNL A   1      42.132  30.262  35.419  1.00  0.00     0.029 A 
ATOM     49  N   UNL A   1      41.825  29.467  33.365  1.00  0.00    -0.354 N 
ATOM     50  N   UNL A   1      42.485  27.836  31.019  1.00  0.00    -0.248 NA
ATOM     51  C   UNL A   1      43.971  26.446  29.876  1.00  0.00     0.031 C 
ATOM     52  C   UNL A   1      43.181  29.383  35.123  1.00  0.00     0.029 A 
ATOM     53  C   UNL A   1      42.980  28.877  33.849  1.00  0.00     0.049 A 
ATOM     54  H   UNL A   1      41.437  29.304  32.475  1.00  0.00     0.167 HD
ATOM     55  C   UNL A   1      43.544  27.512  31.859  1.00  0.00     0.074 A 
ATOM     56  C   UNL A   1      44.405  26.614  31.117  1.00  0.00     0.031 C 
ATOM     57  C   UNL A   1      43.792  27.934  33.124  1.00  0.00     0.034 A 
BRANCH  44  58
ATOM     58  C   UNL A   1      39.655  31.987  35.285  1.00  0.00     0.023 A 
ATOM     59  C   UNL A   1      40.019  33.350  35.272  1.00  0.00     0.012 A 
ATOM     60  C   UNL A   1      38.837  31.502  36.323  1.00  0.00     0.148 A 
ATOM     61  C   UNL A   1      39.604  34.207  36.291  1.00  0.00     0.002 A 
ATOM     62  C   UNL A   1      38.390  32.372  37.312  1.00  0.00     0.091 A 
ATOM     63  F   UNL A   1      38.514  30.201  36.329  1.00  0.00    -0.205 F 
ATOM     64  C   UNL A   1      38.784  33.721  37.303  1.00  0.00     0.022 A 
BRANCH  62  65
ATOM     65  S   UNL A   1      37.266  31.867  38.619  1.00  0.00     0.127 S 
ATOM     66  O   UNL A   1      38.078  32.101  39.813  1.00  0.00    -0.237 OA
ATOM     67  O   UNL A   1      36.154  32.801  38.446  1.00  0.00    -0.237 OA
ATOM     68  O   UNL A   1      36.940  30.474  38.352  1.00  0.00    -0.744 OA
ENDBRANCH  62  65
ENDBRANCH  44  58
BRANCH  45  69
ATOM     69  C   UNL A   1      42.287  26.319  27.482  1.00  0.00     0.023 A 
ATOM     70  C   UNL A   1      43.034  26.920  26.449  1.00  0.00     0.012 A 
ATOM     71  C   UNL A   1      41.960  24.953  27.385  1.00  0.00     0.148 A 
ATOM     72  C   UNL A   1      43.412  26.187  25.324  1.00  0.00     0.002 A 
ATOM     73  C   UNL A   1      42.388  24.215  26.287  1.00  0.00     0.091 A 
ATOM     74  F   UNL A   1      41.237  24.401  28.370  1.00  0.00    -0.205 F 
ATOM     75  C   UNL A   1      43.097  24.834  25.247  1.00  0.00     0.022 A 
BRANCH  73  76
ATOM     76  S   UNL A   1      42.136  22.441  26.167  1.00  0.00     0.127 S 
ATOM     77  O   UNL A   1      40.677  22.348  26.124  1.00  0.00    -0.237 OA
ATOM     78  O   UNL A   1      42.808  22.124  24.904  1.00  0.00    -0.237 OA
ATOM     79  O   UNL A   1      42.776  21.876  27.343  1.00  0.00    -0.744 OA
ENDBRANCH  73  76
ENDBRANCH  45  69
BRANCH  57  80
ATOM     80  C   UNL A   1      45.018  27.394  33.811  1.00  0.00     0.023 A 
ATOM     81  C   UNL A   1      46.235  28.099  33.732  1.00  0.00     0.012 A 
ATOM     82  C   UNL A   1      44.946  26.225  34.593  1.00  0.00     0.148 A 
ATOM     83  C   UNL A   1      47.371  27.631  34.392  1.00  0.00     0.002 A 
ATOM     84  C   UNL A   1      46.068  25.791  35.290  1.00  0.00     0.091 A 
ATOM     85  F   UNL A   1      43.784  25.558  34.641  1.00  0.00    -0.205 F 
ATOM     86  C   UNL A   1      47.284  26.485  35.180  1.00  0.00     0.022 A 
BRANCH  84  87
ATOM     87  S   UNL A   1      46.026  24.381  36.403  1.00  0.00     0.127 S 
ATOM     88  O   UNL A   1      45.524  23.324  35.528  1.00  0.00    -0.237 OA
ATOM     89  O   UNL A   1      47.433  24.244  36.781  1.00  0.00    -0.237 OA
ATOM     90  O   UNL A   1      45.141  24.760  37.497  1.00  0.00    -0.744 OA
ENDBRANCH  84  87
ENDBRANCH  57  80
ENDBRANCH  31  32
ENDBRANCH  23  26
ENDBRANCH  21  22
ENDBRANCH  20  21
ENDBRANCH   1  20
TORSDOF 19
ENDMDL
