MODEL 1
REMARK VINA RESULT:     -11.4      0.000      0.000
REMARK SMILES C/C(=N\Nc1ccncc1[N+](=O)[O-])C(=O)NCCCNC(=O)c1ccc(-c2c3nc(c(-c4cccc(S(=O)(=O)[O-])c4F)c4ccc([nH]4)c(-c4cccc(S(=O)(=O)[O-])c4F)c4nc(c(-c5cccc(S(=O)(=O)[O-])c5F)c5ccc2[nH]5)C=C4)C=C3)cc1
REMARK SMILES IDX 18 1 17 2 16 3 14 4 15 5 2 7 1 8 3 9 4 10 5 12 6 13 10 14
REMARK SMILES IDX 7 15 9 16 8 17 11 18 12 19 13 20 19 21 20 22 21 23 22 25
REMARK SMILES IDX 23 26 24 27 85 28 25 29 84 30 26 31 27 32 28 33 78 34 29 35
REMARK SMILES IDX 83 36 77 37 79 38 30 39 82 40 76 41 75 42 31 44 63 45 43 46
REMARK SMILES IDX 62 47 44 48 47 49 61 50 80 51 45 52 46 53 60 55 81 56 48 57
REMARK SMILES IDX 32 58 33 59 41 60 34 61 36 62 42 63 35 64 37 65 38 66 39 67
REMARK SMILES IDX 40 68 64 69 65 70 73 71 66 72 68 73 74 74 67 75 69 76 70 77
REMARK SMILES IDX 71 78 72 79 49 80 50 81 58 82 51 83 53 84 59 85 52 86 54 87
REMARK SMILES IDX 55 88 56 89 57 90
REMARK H PARENT 16 6 4 11 20 24 79 43 47 54
REMARK Flexibility Score: inf
ROOT
ATOM      1  C   UNL A   1      31.529  32.049  26.590  1.00  0.00     0.042 C 
ENDROOT
BRANCH   1   2
ATOM      2  C   UNL A   1      31.794  30.615  26.137  1.00  0.00     0.118 C 
BRANCH   2   3
ATOM      3  N   UNL A   1      33.094  30.156  26.600  1.00  0.00    -0.351 N 
ATOM      4  C   UNL A   1      33.739  28.966  26.351  1.00  0.00     0.267 C 
ATOM      5  O   UNL A   1      34.771  28.671  26.924  1.00  0.00    -0.268 OA
ATOM      6  H   UNL A   1      33.584  30.789  27.173  1.00  0.00     0.163 HD
BRANCH   4   7
ATOM      7  C   UNL A   1      33.245  28.076  25.220  1.00  0.00     0.122 C 
ATOM      8  C   UNL A   1      33.694  28.543  23.858  1.00  0.00     0.075 C 
ATOM      9  N   UNL A   1      32.518  27.033  25.509  1.00  0.00    -0.175 NA
BRANCH   9  10
ATOM     10  N   UNL A   1      31.862  26.364  24.533  1.00  0.00    -0.271 N 
ATOM     11  H   UNL A   1      31.112  26.835  24.102  1.00  0.00     0.190 HD
BRANCH  10  12
ATOM     12  C   UNL A   1      32.142  25.067  24.070  1.00  0.00     0.137 A 
ATOM     13  C   UNL A   1      32.243  23.989  24.955  1.00  0.00     0.055 A 
ATOM     14  C   UNL A   1      32.488  24.832  22.728  1.00  0.00     0.312 A 
ATOM     15  C   UNL A   1      32.712  22.770  24.488  1.00  0.00     0.113 A 
ATOM     16  C   UNL A   1      32.969  23.587  22.351  1.00  0.00     0.198 A 
ATOM     17  N   UNL A   1      33.093  22.549  23.209  1.00  0.00    -0.257 NA
BRANCH  14  18
ATOM     18  N   UNL A   1      32.420  25.879  21.721  1.00  0.00     0.066 N 
ATOM     19  O   UNL A   1      33.403  26.028  20.980  1.00  0.00    -0.258 OA
ATOM     20  O   UNL A   1      31.381  26.552  21.651  1.00  0.00    -0.258 OA
ENDBRANCH  14  18
ENDBRANCH  10  12
ENDBRANCH   9  10
ENDBRANCH   4   7
ENDBRANCH   2   3
ENDBRANCH   1   2
BRANCH   1  21
ATOM     21  C   UNL A   1      32.740  32.717  27.243  1.00  0.00     0.118 C 
BRANCH  21  22
ATOM     22  N   UNL A   1      32.468  34.090  27.652  1.00  0.00    -0.352 N 
ATOM     23  C   UNL A   1      33.031  34.836  28.657  1.00  0.00     0.251 C 
ATOM     24  H   UNL A   1      31.775  34.552  27.127  1.00  0.00     0.163 HD
ATOM     25  O   UNL A   1      32.532  35.918  28.956  1.00  0.00    -0.269 OA
BRANCH  23  26
ATOM     26  C   UNL A   1      34.218  34.341  29.384  1.00  0.00     0.039 A 
ATOM     27  C   UNL A   1      34.059  33.868  30.690  1.00  0.00     0.014 A 
ATOM     28  C   UNL A   1      35.486  34.361  28.798  1.00  0.00     0.014 A 
ATOM     29  C   UNL A   1      35.160  33.360  31.384  1.00  0.00     0.010 A 
ATOM     30  C   UNL A   1      36.569  33.792  29.465  1.00  0.00     0.010 A 
ATOM     31  C   UNL A   1      36.418  33.287  30.765  1.00  0.00    -0.014 A 
BRANCH  31  32
ATOM     32  C   UNL A   1      37.581  32.663  31.450  1.00  0.00     0.031 A 
ATOM     33  C   UNL A   1      38.305  31.504  30.820  1.00  0.00     0.074 A 
ATOM     34  C   UNL A   1      37.923  33.081  32.686  1.00  0.00     0.049 A 
ATOM     35  N   UNL A   1      39.290  30.790  31.301  1.00  0.00    -0.248 NA
ATOM     36  C   UNL A   1      37.848  31.073  29.488  1.00  0.00     0.031 C 
ATOM     37  C   UNL A   1      37.247  34.141  33.438  1.00  0.00     0.029 A 
ATOM     38  N   UNL A   1      38.903  32.644  33.541  1.00  0.00    -0.354 N 
ATOM     39  C   UNL A   1      39.544  29.804  30.355  1.00  0.00     0.074 A 
ATOM     40  C   UNL A   1      38.594  29.997  29.280  1.00  0.00     0.031 C 
ATOM     41  C   UNL A   1      37.827  34.266  34.642  1.00  0.00     0.029 A 
ATOM     42  C   UNL A   1      38.895  33.280  34.762  1.00  0.00     0.049 A 
ATOM     43  H   UNL A   1      39.551  31.941  33.304  1.00  0.00     0.167 HD
ATOM     44  C   UNL A   1      40.497  28.843  30.366  1.00  0.00     0.034 A 
ATOM     45  C   UNL A   1      39.652  33.082  35.859  1.00  0.00     0.034 A 
ATOM     46  C   UNL A   1      41.473  28.687  31.412  1.00  0.00     0.049 A 
ATOM     47  C   UNL A   1      40.736  32.038  35.822  1.00  0.00     0.074 A 
ATOM     48  C   UNL A   1      42.542  27.808  31.465  1.00  0.00     0.029 A 
ATOM     49  N   UNL A   1      41.497  29.417  32.588  1.00  0.00    -0.354 N 
ATOM     50  N   UNL A   1      41.071  31.231  34.845  1.00  0.00    -0.248 NA
ATOM     51  C   UNL A   1      41.571  31.902  37.025  1.00  0.00     0.031 C 
ATOM     52  C   UNL A   1      43.198  27.992  32.686  1.00  0.00     0.029 A 
ATOM     53  C   UNL A   1      42.555  29.003  33.379  1.00  0.00     0.049 A 
ATOM     54  H   UNL A   1      40.857  30.126  32.827  1.00  0.00     0.167 HD
ATOM     55  C   UNL A   1      42.175  30.519  35.299  1.00  0.00     0.074 A 
ATOM     56  C   UNL A   1      42.468  31.008  36.630  1.00  0.00     0.031 C 
ATOM     57  C   UNL A   1      42.873  29.538  34.677  1.00  0.00     0.034 A 
BRANCH  44  58
ATOM     58  C   UNL A   1      40.577  27.909  29.187  1.00  0.00     0.023 A 
ATOM     59  C   UNL A   1      39.666  26.838  29.087  1.00  0.00     0.012 A 
ATOM     60  C   UNL A   1      41.488  28.143  28.138  1.00  0.00     0.148 A 
ATOM     61  C   UNL A   1      39.677  26.000  27.973  1.00  0.00     0.002 A 
ATOM     62  C   UNL A   1      41.463  27.330  27.011  1.00  0.00     0.091 A 
ATOM     63  F   UNL A   1      42.359  29.157  28.261  1.00  0.00    -0.205 F 
ATOM     64  C   UNL A   1      40.565  26.252  26.931  1.00  0.00     0.022 A 
BRANCH  62  65
ATOM     65  S   UNL A   1      42.509  27.619  25.580  1.00  0.00     0.127 S 
ATOM     66  O   UNL A   1      42.201  26.455  24.749  1.00  0.00    -0.237 OA
ATOM     67  O   UNL A   1      41.988  28.887  25.069  1.00  0.00    -0.237 OA
ATOM     68  O   UNL A   1      43.874  27.678  26.083  1.00  0.00    -0.744 OA
ENDBRANCH  62  65
ENDBRANCH  44  58
BRANCH  45  69
ATOM     69  C   UNL A   1      39.449  33.925  37.072  1.00  0.00     0.023 A 
ATOM     70  C   UNL A   1      39.900  35.260  37.070  1.00  0.00     0.012 A 
ATOM     71  C   UNL A   1      38.807  33.420  38.218  1.00  0.00     0.148 A 
ATOM     72  C   UNL A   1      39.752  36.062  38.202  1.00  0.00     0.002 A 
ATOM     73  C   UNL A   1      38.612  34.242  39.322  1.00  0.00     0.091 A 
ATOM     74  F   UNL A   1      38.397  32.143  38.208  1.00  0.00    -0.205 F 
ATOM     75  C   UNL A   1      39.101  35.557  39.324  1.00  0.00     0.022 A 
BRANCH  73  76
ATOM     76  S   UNL A   1      37.666  33.713  40.754  1.00  0.00     0.127 S 
ATOM     77  O   UNL A   1      38.566  32.738  41.365  1.00  0.00    -0.237 OA
ATOM     78  O   UNL A   1      37.514  34.964  41.499  1.00  0.00    -0.237 OA
ATOM     79  O   UNL A   1      36.418  33.183  40.220  1.00  0.00    -0.744 OA
ENDBRANCH  73  76
ENDBRANCH  45  69
BRANCH  57  80
ATOM     80  C   UNL A   1      44.053  28.948  35.406  1.00  0.00     0.023 A 
ATOM     81  C   UNL A   1      45.330  29.520  35.249  1.00  0.00     0.012 A 
ATOM     82  C   UNL A   1      43.879  27.878  36.305  1.00  0.00     0.148 A 
ATOM     83  C   UNL A   1      46.424  29.015  35.952  1.00  0.00     0.002 A 
ATOM     84  C   UNL A   1      44.963  27.412  37.039  1.00  0.00     0.091 A 
ATOM     85  F   UNL A   1      42.658  27.336  36.426  1.00  0.00    -0.205 F 
ATOM     86  C   UNL A   1      46.237  27.970  36.855  1.00  0.00     0.022 A 
BRANCH  84  87
ATOM     87  S   UNL A   1      44.798  26.137  38.294  1.00  0.00     0.127 S 
ATOM     88  O   UNL A   1      46.183  25.971  38.731  1.00  0.00    -0.237 OA
ATOM     89  O   UNL A   1      43.923  26.780  39.276  1.00  0.00    -0.237 OA
ATOM     90  O   UNL A   1      44.211  24.986  37.623  1.00  0.00    -0.744 OA
ENDBRANCH  84  87
ENDBRANCH  57  80
ENDBRANCH  31  32
ENDBRANCH  23  26
ENDBRANCH  21  22
ENDBRANCH   1  21
TORSDOF 16
ENDMDL
MODEL 2
REMARK VINA RESULT:     -11.3      6.680     11.970
REMARK SMILES C/C(=N\Nc1ccncc1[N+](=O)[O-])C(=O)NCCCNC(=O)c1ccc(-c2c3nc(c(-c4cccc(S(=O)(=O)[O-])c4F)c4ccc([nH]4)c(-c4cccc(S(=O)(=O)[O-])c4F)c4nc(c(-c5cccc(S(=O)(=O)[O-])c5F)c5ccc2[nH]5)C=C4)C=C3)cc1
REMARK SMILES IDX 18 1 17 2 16 3 14 4 15 5 2 7 1 8 3 9 4 10 5 12 6 13 10 14
REMARK SMILES IDX 7 15 9 16 8 17 11 18 12 19 13 20 19 21 20 22 21 23 22 25
REMARK SMILES IDX 23 26 24 27 85 28 25 29 84 30 26 31 27 32 28 33 78 34 29 35
REMARK SMILES IDX 83 36 77 37 79 38 30 39 82 40 76 41 75 42 31 44 63 45 43 46
REMARK SMILES IDX 62 47 44 48 47 49 61 50 80 51 45 52 46 53 60 55 81 56 48 57
REMARK SMILES IDX 32 58 33 59 41 60 34 61 36 62 42 63 35 64 37 65 38 66 39 67
REMARK SMILES IDX 40 68 64 69 65 70 73 71 66 72 68 73 74 74 67 75 69 76 70 77
REMARK SMILES IDX 71 78 72 79 49 80 50 81 58 82 51 83 53 84 59 85 52 86 54 87
REMARK SMILES IDX 55 88 56 89 57 90
REMARK H PARENT 16 6 4 11 20 24 79 43 47 54
REMARK Flexibility Score: inf
ROOT
ATOM      1  C   UNL A   1      37.680  19.351  24.596  1.00  0.00     0.042 C 
ENDROOT
BRANCH   1   2
ATOM      2  C   UNL A   1      36.213  19.480  24.998  1.00  0.00     0.118 C 
BRANCH   2   3
ATOM      3  N   UNL A   1      35.538  18.194  24.920  1.00  0.00    -0.351 N 
ATOM      4  C   UNL A   1      34.191  17.913  24.919  1.00  0.00     0.267 C 
ATOM      5  O   UNL A   1      33.780  16.770  24.986  1.00  0.00    -0.268 OA
ATOM      6  H   UNL A   1      36.132  17.411  24.858  1.00  0.00     0.163 HD
BRANCH   4   7
ATOM      7  C   UNL A   1      33.198  19.038  24.662  1.00  0.00     0.122 C 
ATOM      8  C   UNL A   1      32.617  19.010  23.271  1.00  0.00     0.075 C 
ATOM      9  N   UNL A   1      32.941  19.883  25.621  1.00  0.00    -0.175 NA
BRANCH   9  10
ATOM     10  N   UNL A   1      32.263  21.025  25.363  1.00  0.00    -0.271 N 
ATOM     11  H   UNL A   1      31.283  20.985  25.442  1.00  0.00     0.190 HD
BRANCH  10  12
ATOM     12  C   UNL A   1      32.816  22.264  24.994  1.00  0.00     0.137 A 
ATOM     13  C   UNL A   1      33.536  22.409  23.804  1.00  0.00     0.055 A 
ATOM     14  C   UNL A   1      32.805  23.357  25.877  1.00  0.00     0.312 A 
ATOM     15  C   UNL A   1      34.229  23.588  23.571  1.00  0.00     0.113 A 
ATOM     16  C   UNL A   1      33.545  24.491  25.575  1.00  0.00     0.198 A 
ATOM     17  N   UNL A   1      34.264  24.626  24.437  1.00  0.00    -0.257 NA
BRANCH  14  18
ATOM     18  N   UNL A   1      32.089  23.319  27.142  1.00  0.00     0.066 N 
ATOM     19  O   UNL A   1      31.075  24.024  27.250  1.00  0.00    -0.258 OA
ATOM     20  O   UNL A   1      32.525  22.576  28.035  1.00  0.00    -0.258 OA
ENDBRANCH  14  18
ENDBRANCH  10  12
ENDBRANCH   9  10
ENDBRANCH   4   7
ENDBRANCH   2   3
ENDBRANCH   1   2
BRANCH   1  21
ATOM     21  C   UNL A   1      38.647  19.963  25.611  1.00  0.00     0.118 C 
BRANCH  21  22
ATOM     22  N   UNL A   1      39.813  19.121  25.849  1.00  0.00    -0.352 N 
ATOM     23  C   UNL A   1      41.108  19.474  26.140  1.00  0.00     0.251 C 
ATOM     24  H   UNL A   1      39.647  18.153  25.793  1.00  0.00     0.163 HD
ATOM     25  O   UNL A   1      41.984  18.614  26.126  1.00  0.00    -0.269 OA
BRANCH  23  26
ATOM     26  C   UNL A   1      41.450  20.877  26.456  1.00  0.00     0.039 A 
ATOM     27  C   UNL A   1      41.815  21.202  27.765  1.00  0.00     0.014 A 
ATOM     28  C   UNL A   1      41.391  21.873  25.478  1.00  0.00     0.014 A 
ATOM     29  C   UNL A   1      42.178  22.514  28.079  1.00  0.00     0.010 A 
ATOM     30  C   UNL A   1      41.819  23.164  25.776  1.00  0.00     0.010 A 
ATOM     31  C   UNL A   1      42.216  23.500  27.080  1.00  0.00    -0.014 A 
BRANCH  31  32
ATOM     32  C   UNL A   1      42.691  24.878  27.371  1.00  0.00     0.031 A 
ATOM     33  C   UNL A   1      41.770  25.884  28.006  1.00  0.00     0.074 A 
ATOM     34  C   UNL A   1      43.926  25.249  26.975  1.00  0.00     0.049 A 
ATOM     35  N   UNL A   1      41.987  27.147  28.267  1.00  0.00    -0.248 NA
ATOM     36  C   UNL A   1      40.421  25.420  28.373  1.00  0.00     0.031 C 
ATOM     37  C   UNL A   1      44.884  24.390  26.276  1.00  0.00     0.029 A 
ATOM     38  N   UNL A   1      44.575  26.455  27.073  1.00  0.00    -0.354 N 
ATOM     39  C   UNL A   1      40.795  27.639  28.789  1.00  0.00     0.074 A 
ATOM     40  C   UNL A   1      39.850  26.542  28.786  1.00  0.00     0.031 C 
ATOM     41  C   UNL A   1      45.993  25.096  26.002  1.00  0.00     0.029 A 
ATOM     42  C   UNL A   1      45.816  26.464  26.479  1.00  0.00     0.049 A 
ATOM     43  H   UNL A   1      44.188  27.240  27.525  1.00  0.00     0.167 HD
ATOM     44  C   UNL A   1      40.520  28.881  29.251  1.00  0.00     0.034 A 
ATOM     45  C   UNL A   1      46.705  27.463  26.321  1.00  0.00     0.034 A 
ATOM     46  C   UNL A   1      41.478  29.953  29.300  1.00  0.00     0.049 A 
ATOM     47  C   UNL A   1      46.390  28.821  26.891  1.00  0.00     0.074 A 
ATOM     48  C   UNL A   1      41.323  31.218  29.845  1.00  0.00     0.029 A 
ATOM     49  N   UNL A   1      42.760  29.896  28.781  1.00  0.00    -0.354 N 
ATOM     50  N   UNL A   1      45.320  29.216  27.537  1.00  0.00    -0.248 NA
ATOM     51  C   UNL A   1      47.419  29.861  26.744  1.00  0.00     0.031 C 
ATOM     52  C   UNL A   1      42.507  31.931  29.633  1.00  0.00     0.029 A 
ATOM     53  C   UNL A   1      43.406  31.103  28.983  1.00  0.00     0.049 A 
ATOM     54  H   UNL A   1      43.154  29.111  28.335  1.00  0.00     0.167 HD
ATOM     55  C   UNL A   1      45.561  30.534  27.904  1.00  0.00     0.074 A 
ATOM     56  C   UNL A   1      46.889  30.864  27.430  1.00  0.00     0.031 C 
ATOM     57  C   UNL A   1      44.750  31.400  28.560  1.00  0.00     0.034 A 
BRANCH  44  58
ATOM     58  C   UNL A   1      39.142  29.145  29.799  1.00  0.00     0.023 A 
ATOM     59  C   UNL A   1      38.855  28.822  31.140  1.00  0.00     0.012 A 
ATOM     60  C   UNL A   1      38.164  29.793  29.018  1.00  0.00     0.148 A 
ATOM     61  C   UNL A   1      37.608  29.118  31.690  1.00  0.00     0.002 A 
ATOM     62  C   UNL A   1      36.940  30.123  29.586  1.00  0.00     0.091 A 
ATOM     63  F   UNL A   1      38.451  30.075  27.739  1.00  0.00    -0.205 F 
ATOM     64  C   UNL A   1      36.656  29.778  30.918  1.00  0.00     0.022 A 
BRANCH  62  65
ATOM     65  S   UNL A   1      35.676  31.046  28.703  1.00  0.00     0.127 S 
ATOM     66  O   UNL A   1      36.477  32.048  28.002  1.00  0.00    -0.237 OA
ATOM     67  O   UNL A   1      35.093  30.019  27.840  1.00  0.00    -0.237 OA
ATOM     68  O   UNL A   1      34.776  31.571  29.720  1.00  0.00    -0.744 OA
ENDBRANCH  62  65
ENDBRANCH  44  58
BRANCH  45  69
ATOM     69  C   UNL A   1      48.006  27.209  25.638  1.00  0.00     0.023 A 
ATOM     70  C   UNL A   1      49.107  26.757  26.393  1.00  0.00     0.012 A 
ATOM     71  C   UNL A   1      48.158  27.401  24.252  1.00  0.00     0.148 A 
ATOM     72  C   UNL A   1      50.345  26.541  25.787  1.00  0.00     0.002 A 
ATOM     73  C   UNL A   1      49.379  27.129  23.645  1.00  0.00     0.091 A 
ATOM     74  F   UNL A   1      47.104  27.845  23.552  1.00  0.00    -0.205 F 
ATOM     75  C   UNL A   1      50.479  26.718  24.412  1.00  0.00     0.022 A 
BRANCH  73  76
ATOM     76  S   UNL A   1      49.598  27.202  21.864  1.00  0.00     0.127 S 
ATOM     77  O   UNL A   1      48.652  26.189  21.403  1.00  0.00    -0.237 OA
ATOM     78  O   UNL A   1      49.215  28.584  21.565  1.00  0.00    -0.237 OA
ATOM     79  O   UNL A   1      51.007  26.913  21.634  1.00  0.00    -0.744 OA
ENDBRANCH  73  76
ENDBRANCH  45  69
BRANCH  57  80
ATOM     80  C   UNL A   1      45.283  32.780  28.846  1.00  0.00     0.023 A 
ATOM     81  C   UNL A   1      46.039  33.011  30.011  1.00  0.00     0.012 A 
ATOM     82  C   UNL A   1      45.102  33.825  27.920  1.00  0.00     0.148 A 
ATOM     83  C   UNL A   1      46.578  34.271  30.268  1.00  0.00     0.002 A 
ATOM     84  C   UNL A   1      45.683  35.065  28.157  1.00  0.00     0.091 A 
ATOM     85  F   UNL A   1      44.363  33.590  26.825  1.00  0.00    -0.205 F 
ATOM     86  C   UNL A   1      46.411  35.293  29.336  1.00  0.00     0.022 A 
BRANCH  84  87
ATOM     87  S   UNL A   1      45.603  36.409  26.968  1.00  0.00     0.127 S 
ATOM     88  O   UNL A   1      46.192  35.791  25.781  1.00  0.00    -0.237 OA
ATOM     89  O   UNL A   1      44.164  36.657  26.876  1.00  0.00    -0.237 OA
ATOM     90  O   UNL A   1      46.370  37.504  27.548  1.00  0.00    -0.744 OA
ENDBRANCH  84  87
ENDBRANCH  57  80
ENDBRANCH  31  32
ENDBRANCH  23  26
ENDBRANCH  21  22
ENDBRANCH   1  21
TORSDOF 16
ENDMDL
MODEL 3
REMARK VINA RESULT:     -11.2      6.549     11.748
REMARK SMILES C/C(=N\Nc1ccncc1[N+](=O)[O-])C(=O)NCCCNC(=O)c1ccc(-c2c3nc(c(-c4cccc(S(=O)(=O)[O-])c4F)c4ccc([nH]4)c(-c4cccc(S(=O)(=O)[O-])c4F)c4nc(c(-c5cccc(S(=O)(=O)[O-])c5F)c5ccc2[nH]5)C=C4)C=C3)cc1
REMARK SMILES IDX 18 1 17 2 16 3 14 4 15 5 2 7 1 8 3 9 4 10 5 12 6 13 10 14
REMARK SMILES IDX 7 15 9 16 8 17 11 18 12 19 13 20 19 21 20 22 21 23 22 25
REMARK SMILES IDX 23 26 24 27 85 28 25 29 84 30 26 31 27 32 28 33 78 34 29 35
REMARK SMILES IDX 83 36 77 37 79 38 30 39 82 40 76 41 75 42 31 44 63 45 43 46
REMARK SMILES IDX 62 47 44 48 47 49 61 50 80 51 45 52 46 53 60 55 81 56 48 57
REMARK SMILES IDX 32 58 33 59 41 60 34 61 36 62 42 63 35 64 37 65 38 66 39 67
REMARK SMILES IDX 40 68 64 69 65 70 73 71 66 72 68 73 74 74 67 75 69 76 70 77
REMARK SMILES IDX 71 78 72 79 49 80 50 81 58 82 51 83 53 84 59 85 52 86 54 87
REMARK SMILES IDX 55 88 56 89 57 90
REMARK H PARENT 16 6 4 11 20 24 79 43 47 54
REMARK Flexibility Score: inf
ROOT
ATOM      1  C   UNL A   1      38.144  19.812  24.791  1.00  0.00     0.042 C 
ENDROOT
BRANCH   1   2
ATOM      2  C   UNL A   1      37.067  20.894  24.754  1.00  0.00     0.118 C 
BRANCH   2   3
ATOM      3  N   UNL A   1      35.750  20.324  24.985  1.00  0.00    -0.351 N 
ATOM      4  C   UNL A   1      34.618  20.918  25.495  1.00  0.00     0.267 C 
ATOM      5  O   UNL A   1      33.622  20.269  25.756  1.00  0.00    -0.268 OA
ATOM      6  H   UNL A   1      35.653  19.376  24.739  1.00  0.00     0.163 HD
BRANCH   4   7
ATOM      7  C   UNL A   1      34.551  22.436  25.578  1.00  0.00     0.122 C 
ATOM      8  C   UNL A   1      34.659  22.959  26.988  1.00  0.00     0.075 C 
ATOM      9  N   UNL A   1      34.420  23.122  24.478  1.00  0.00    -0.175 NA
BRANCH   9  10
ATOM     10  N   UNL A   1      34.112  24.439  24.525  1.00  0.00    -0.271 N 
ATOM     11  H   UNL A   1      34.858  25.062  24.682  1.00  0.00     0.190 HD
BRANCH  10  12
ATOM     12  C   UNL A   1      32.837  25.009  24.370  1.00  0.00     0.137 A 
ATOM     13  C   UNL A   1      31.972  25.156  25.459  1.00  0.00     0.055 A 
ATOM     14  C   UNL A   1      32.322  25.304  23.096  1.00  0.00     0.312 A 
ATOM     15  C   UNL A   1      30.658  25.537  25.235  1.00  0.00     0.113 A 
ATOM     16  C   UNL A   1      30.987  25.659  22.960  1.00  0.00     0.198 A 
ATOM     17  N   UNL A   1      30.141  25.777  24.009  1.00  0.00    -0.257 NA
BRANCH  14  18
ATOM     18  N   UNL A   1      33.130  25.189  21.892  1.00  0.00     0.066 N 
ATOM     19  O   UNL A   1      33.276  24.059  21.405  1.00  0.00    -0.258 OA
ATOM     20  O   UNL A   1      33.615  26.226  21.416  1.00  0.00    -0.258 OA
ENDBRANCH  14  18
ENDBRANCH  10  12
ENDBRANCH   9  10
ENDBRANCH   4   7
ENDBRANCH   2   3
ENDBRANCH   1   2
BRANCH   1  21
ATOM     21  C   UNL A   1      38.872  19.720  26.133  1.00  0.00     0.118 C 
BRANCH  21  22
ATOM     22  N   UNL A   1      40.114  18.961  26.044  1.00  0.00    -0.352 N 
ATOM     23  C   UNL A   1      41.415  19.397  26.066  1.00  0.00     0.251 C 
ATOM     24  H   UNL A   1      40.001  17.987  25.955  1.00  0.00     0.163 HD
ATOM     25  O   UNL A   1      42.319  18.611  25.795  1.00  0.00    -0.269 OA
BRANCH  23  26
ATOM     26  C   UNL A   1      41.729  20.802  26.400  1.00  0.00     0.039 A 
ATOM     27  C   UNL A   1      42.094  21.116  27.713  1.00  0.00     0.014 A 
ATOM     28  C   UNL A   1      41.643  21.811  25.438  1.00  0.00     0.014 A 
ATOM     29  C   UNL A   1      42.432  22.431  28.044  1.00  0.00     0.010 A 
ATOM     30  C   UNL A   1      42.045  23.107  25.753  1.00  0.00     0.010 A 
ATOM     31  C   UNL A   1      42.442  23.432  27.059  1.00  0.00    -0.014 A 
BRANCH  31  32
ATOM     32  C   UNL A   1      42.890  24.815  27.368  1.00  0.00     0.031 A 
ATOM     33  C   UNL A   1      41.947  25.797  28.010  1.00  0.00     0.074 A 
ATOM     34  C   UNL A   1      44.119  25.215  26.982  1.00  0.00     0.049 A 
ATOM     35  N   UNL A   1      42.138  27.061  28.286  1.00  0.00    -0.248 NA
ATOM     36  C   UNL A   1      40.605  25.302  28.365  1.00  0.00     0.031 C 
ATOM     37  C   UNL A   1      45.097  24.382  26.278  1.00  0.00     0.029 A 
ATOM     38  N   UNL A   1      44.744  26.431  27.096  1.00  0.00    -0.354 N 
ATOM     39  C   UNL A   1      40.934  27.523  28.807  1.00  0.00     0.074 A 
ATOM     40  C   UNL A   1      40.011  26.409  28.788  1.00  0.00     0.031 C 
ATOM     41  C   UNL A   1      46.193  25.113  26.018  1.00  0.00     0.029 A 
ATOM     42  C   UNL A   1      45.987  26.471  26.509  1.00  0.00     0.049 A 
ATOM     43  H   UNL A   1      44.340  27.204  27.556  1.00  0.00     0.167 HD
ATOM     44  C   UNL A   1      40.634  28.755  29.283  1.00  0.00     0.034 A 
ATOM     45  C   UNL A   1      46.858  27.489  26.366  1.00  0.00     0.034 A 
ATOM     46  C   UNL A   1      41.570  29.845  29.348  1.00  0.00     0.049 A 
ATOM     47  C   UNL A   1      46.514  28.834  26.949  1.00  0.00     0.074 A 
ATOM     48  C   UNL A   1      41.389  31.100  29.906  1.00  0.00     0.029 A 
ATOM     49  N   UNL A   1      42.856  29.818  28.835  1.00  0.00    -0.354 N 
ATOM     50  N   UNL A   1      45.434  29.201  27.595  1.00  0.00    -0.248 NA
ATOM     51  C   UNL A   1      47.524  29.895  26.819  1.00  0.00     0.031 C 
ATOM     52  C   UNL A   1      42.560  31.838  29.708  1.00  0.00     0.029 A 
ATOM     53  C   UNL A   1      43.478  31.035  29.053  1.00  0.00     0.049 A 
ATOM     54  H   UNL A   1      43.267  29.046  28.382  1.00  0.00     0.167 HD
ATOM     55  C   UNL A   1      45.648  30.520  27.978  1.00  0.00     0.074 A 
ATOM     56  C   UNL A   1      46.971  30.880  27.514  1.00  0.00     0.031 C 
ATOM     57  C   UNL A   1      44.817  31.362  28.639  1.00  0.00     0.034 A 
BRANCH  44  58
ATOM     58  C   UNL A   1      39.248  28.986  29.826  1.00  0.00     0.023 A 
ATOM     59  C   UNL A   1      38.936  28.563  31.134  1.00  0.00     0.012 A 
ATOM     60  C   UNL A   1      38.288  29.701  29.082  1.00  0.00     0.148 A 
ATOM     61  C   UNL A   1      37.682  28.824  31.684  1.00  0.00     0.002 A 
ATOM     62  C   UNL A   1      37.056  29.995  29.654  1.00  0.00     0.091 A 
ATOM     63  F   UNL A   1      38.598  30.079  27.834  1.00  0.00    -0.205 F 
ATOM     64  C   UNL A   1      36.748  29.550  30.951  1.00  0.00     0.022 A 
BRANCH  62  65
ATOM     65  S   UNL A   1      35.813  30.993  28.825  1.00  0.00     0.127 S 
ATOM     66  O   UNL A   1      35.083  29.981  28.062  1.00  0.00    -0.237 OA
ATOM     67  O   UNL A   1      35.071  31.558  29.953  1.00  0.00    -0.237 OA
ATOM     68  O   UNL A   1      36.544  31.966  28.026  1.00  0.00    -0.744 OA
ENDBRANCH  62  65
ENDBRANCH  44  58
BRANCH  45  69
ATOM     69  C   UNL A   1      48.167  27.267  25.687  1.00  0.00     0.023 A 
ATOM     70  C   UNL A   1      49.276  26.839  26.444  1.00  0.00     0.012 A 
ATOM     71  C   UNL A   1      48.319  27.467  24.302  1.00  0.00     0.148 A 
ATOM     72  C   UNL A   1      50.520  26.654  25.841  1.00  0.00     0.002 A 
ATOM     73  C   UNL A   1      49.547  27.226  23.698  1.00  0.00     0.091 A 
ATOM     74  F   UNL A   1      47.257  27.888  23.600  1.00  0.00    -0.205 F 
ATOM     75  C   UNL A   1      50.654  26.838  24.468  1.00  0.00     0.022 A 
BRANCH  73  76
ATOM     76  S   UNL A   1      49.770  27.309  21.918  1.00  0.00     0.127 S 
ATOM     77  O   UNL A   1      49.440  28.704  21.639  1.00  0.00    -0.237 OA
ATOM     78  O   UNL A   1      51.187  26.969  21.771  1.00  0.00    -0.237 OA
ATOM     79  O   UNL A   1      48.860  26.314  21.365  1.00  0.00    -0.744 OA
ENDBRANCH  73  76
ENDBRANCH  45  69
BRANCH  57  80
ATOM     80  C   UNL A   1      45.322  32.748  28.943  1.00  0.00     0.023 A 
ATOM     81  C   UNL A   1      46.014  32.994  30.146  1.00  0.00     0.012 A 
ATOM     82  C   UNL A   1      45.181  33.786  28.002  1.00  0.00     0.148 A 
ATOM     83  C   UNL A   1      46.528  34.261  30.422  1.00  0.00     0.002 A 
ATOM     84  C   UNL A   1      45.738  35.033  28.261  1.00  0.00     0.091 A 
ATOM     85  F   UNL A   1      44.504  33.537  26.871  1.00  0.00    -0.205 F 
ATOM     86  C   UNL A   1      46.401  35.275  29.475  1.00  0.00     0.022 A 
BRANCH  84  87
ATOM     87  S   UNL A   1      45.710  36.368  27.060  1.00  0.00     0.127 S 
ATOM     88  O   UNL A   1      44.292  36.727  27.048  1.00  0.00    -0.237 OA
ATOM     89  O   UNL A   1      46.584  37.363  27.682  1.00  0.00    -0.237 OA
ATOM     90  O   UNL A   1      46.222  35.803  25.819  1.00  0.00    -0.744 OA
ENDBRANCH  84  87
ENDBRANCH  57  80
ENDBRANCH  31  32
ENDBRANCH  23  26
ENDBRANCH  21  22
ENDBRANCH   1  21
TORSDOF 16
ENDMDL
