MODEL 1
REMARK VINA RESULT:     -11.9      0.000      0.000
REMARK SMILES Cc1cc(-n2cnc(C(=O)NCCCNC(=O)c3ccc(-c4c5nc(c(-c6cccc(S(=O)(=O)[O-])c6F)c6ccc([nH]6)c(-c6cccc(S(=O)(=O)[O-])c6F)c6nc(c(-c7cccc(S(=O)(=O)[O-])c7F)c7ccc4[nH]7)C=C6)C=C5)cc3)c2)nc(Cl)n1
REMARK SMILES IDX 14 1 13 2 12 3 11 4 9 5 10 6 8 8 5 9 6 10 81 11 7 12 4 13
REMARK SMILES IDX 1 14 2 15 3 16 85 17 83 18 82 19 84 20 15 21 16 22 17 24
REMARK SMILES IDX 18 25 19 26 80 27 20 28 79 29 21 30 22 31 23 32 73 33 24 34
REMARK SMILES IDX 78 35 72 36 74 37 25 38 77 39 71 40 70 41 26 43 58 44 38 45
REMARK SMILES IDX 57 46 39 47 42 48 56 49 75 50 40 51 41 52 55 54 76 55 43 56
REMARK SMILES IDX 27 57 28 58 36 59 29 60 31 61 37 62 30 63 32 64 33 65 34 66
REMARK SMILES IDX 35 67 59 68 60 69 68 70 61 71 63 72 69 73 62 74 64 75 65 76
REMARK SMILES IDX 66 77 67 78 44 79 45 80 53 81 46 82 48 83 54 84 47 85 49 86
REMARK SMILES IDX 50 87 51 88 52 89
REMARK H PARENT 11 7 15 23 74 42 42 53
REMARK Flexibility Score: inf
ROOT
ATOM      1  C   UNL A   1      41.251  20.933  26.314  1.00  0.00     0.118 C 
ENDROOT
BRANCH   1   2
ATOM      2  C   UNL A   1      41.754  19.545  25.940  1.00  0.00     0.042 C 
BRANCH   2   3
ATOM      3  C   UNL A   1      43.103  19.251  26.609  1.00  0.00     0.118 C 
BRANCH   3   4
ATOM      4  N   UNL A   1      44.080  18.699  25.689  1.00  0.00    -0.351 N 
ATOM      5  C   UNL A   1      45.044  19.273  24.884  1.00  0.00     0.271 C 
ATOM      6  O   UNL A   1      45.800  18.503  24.307  1.00  0.00    -0.267 OA
ATOM      7  H   UNL A   1      44.049  17.718  25.626  1.00  0.00     0.163 HD
BRANCH   5   8
ATOM      8  C   UNL A   1      45.164  20.735  24.738  1.00  0.00     0.146 A 
ATOM      9  N   UNL A   1      45.666  22.880  24.922  1.00  0.00    -0.290 N 
ATOM     10  C   UNL A   1      44.699  22.718  23.974  1.00  0.00     0.206 A 
ATOM     11  C   UNL A   1      45.911  21.639  25.458  1.00  0.00     0.128 A 
ATOM     12  N   UNL A   1      44.429  21.443  23.787  1.00  0.00    -0.231 NA
BRANCH   9  13
ATOM     13  C   UNL A   1      46.294  24.070  25.335  1.00  0.00     0.143 A 
ATOM     14  C   UNL A   1      48.213  25.338  28.281  1.00  0.00     0.067 C 
ATOM     15  C   UNL A   1      47.420  25.272  27.011  1.00  0.00     0.044 A 
ATOM     16  C   UNL A   1      46.915  24.067  26.574  1.00  0.00     0.071 A 
ATOM     17  N   UNL A   1      47.271  26.404  26.301  1.00  0.00    -0.223 NA
ATOM     18  C   UNL A   1      46.649  26.281  25.115  1.00  0.00     0.224 A 
ATOM     19  N   UNL A   1      46.189  25.158  24.554  1.00  0.00    -0.200 NA
ATOM     20  Cl  UNL A   1      46.328  27.733  24.280  1.00  0.00    -0.041 Cl
ENDBRANCH   9  13
ENDBRANCH   5   8
ENDBRANCH   3   4
ENDBRANCH   2   3
ENDBRANCH   1   2
BRANCH   1  21
ATOM     21  N   UNL A   1      39.880  21.141  25.849  1.00  0.00    -0.352 N 
ATOM     22  C   UNL A   1      38.962  22.099  26.210  1.00  0.00     0.251 C 
ATOM     23  H   UNL A   1      39.565  20.497  25.175  1.00  0.00     0.163 HD
ATOM     24  O   UNL A   1      37.776  21.913  25.951  1.00  0.00    -0.269 OA
BRANCH  22  25
ATOM     25  C   UNL A   1      39.390  23.334  26.895  1.00  0.00     0.039 A 
ATOM     26  C   UNL A   1      40.568  23.329  27.646  1.00  0.00     0.014 A 
ATOM     27  C   UNL A   1      38.594  24.480  26.841  1.00  0.00     0.014 A 
ATOM     28  C   UNL A   1      40.960  24.493  28.296  1.00  0.00     0.010 A 
ATOM     29  C   UNL A   1      39.031  25.663  27.395  1.00  0.00     0.010 A 
ATOM     30  C   UNL A   1      40.192  25.659  28.152  1.00  0.00    -0.014 A 
BRANCH  30  31
ATOM     31  C   UNL A   1      40.702  26.925  28.653  1.00  0.00     0.031 A 
ATOM     32  C   UNL A   1      42.012  27.291  28.060  1.00  0.00     0.074 A 
ATOM     33  C   UNL A   1      40.012  27.770  29.447  1.00  0.00     0.049 A 
ATOM     34  N   UNL A   1      43.166  27.170  28.626  1.00  0.00    -0.248 NA
ATOM     35  C   UNL A   1      42.079  27.630  26.630  1.00  0.00     0.031 C 
ATOM     36  C   UNL A   1      38.611  27.687  29.867  1.00  0.00     0.029 A 
ATOM     37  N   UNL A   1      40.409  28.965  29.966  1.00  0.00    -0.354 N 
ATOM     38  C   UNL A   1      44.074  27.701  27.720  1.00  0.00     0.074 A 
ATOM     39  C   UNL A   1      43.398  27.747  26.449  1.00  0.00     0.031 C 
ATOM     40  C   UNL A   1      38.220  28.882  30.369  1.00  0.00     0.029 A 
ATOM     41  C   UNL A   1      39.372  29.760  30.450  1.00  0.00     0.049 A 
ATOM     42  H   UNL A   1      41.353  29.244  29.996  1.00  0.00     0.167 HD
ATOM     43  C   UNL A   1      45.195  28.336  28.155  1.00  0.00     0.034 A 
ATOM     44  C   UNL A   1      39.471  31.057  30.843  1.00  0.00     0.034 A 
ATOM     45  C   UNL A   1      45.444  28.082  29.551  1.00  0.00     0.049 A 
ATOM     46  C   UNL A   1      40.893  31.270  31.206  1.00  0.00     0.074 A 
ATOM     47  C   UNL A   1      45.590  26.946  30.323  1.00  0.00     0.029 A 
ATOM     48  N   UNL A   1      45.135  29.098  30.425  1.00  0.00    -0.354 N 
ATOM     49  N   UNL A   1      41.474  30.684  32.215  1.00  0.00    -0.248 NA
ATOM     50  C   UNL A   1      41.782  31.803  30.186  1.00  0.00     0.031 C 
ATOM     51  C   UNL A   1      44.881  27.231  31.526  1.00  0.00     0.029 A 
ATOM     52  C   UNL A   1      44.423  28.548  31.455  1.00  0.00     0.049 A 
ATOM     53  H   UNL A   1      45.383  30.046  30.328  1.00  0.00     0.167 HD
ATOM     54  C   UNL A   1      42.732  30.354  31.731  1.00  0.00     0.074 A 
ATOM     55  C   UNL A   1      42.900  31.155  30.520  1.00  0.00     0.031 C 
ATOM     56  C   UNL A   1      43.391  29.250  32.183  1.00  0.00     0.034 A 
BRANCH  43  57
ATOM     57  C   UNL A   1      45.829  29.506  27.451  1.00  0.00     0.023 A 
ATOM     58  C   UNL A   1      47.239  29.575  27.437  1.00  0.00     0.012 A 
ATOM     59  C   UNL A   1      45.120  30.666  27.066  1.00  0.00     0.148 A 
ATOM     60  C   UNL A   1      47.907  30.750  27.077  1.00  0.00     0.002 A 
ATOM     61  C   UNL A   1      45.787  31.804  26.633  1.00  0.00     0.091 A 
ATOM     62  F   UNL A   1      43.798  30.732  27.254  1.00  0.00    -0.205 F 
ATOM     63  C   UNL A   1      47.181  31.861  26.662  1.00  0.00     0.022 A 
BRANCH  61  64
ATOM     64  S   UNL A   1      44.894  33.254  26.062  1.00  0.00     0.127 S 
ATOM     65  O   UNL A   1      43.957  32.662  25.112  1.00  0.00    -0.237 OA
ATOM     66  O   UNL A   1      44.296  33.742  27.306  1.00  0.00    -0.237 OA
ATOM     67  O   UNL A   1      45.906  34.137  25.500  1.00  0.00    -0.744 OA
ENDBRANCH  61  64
ENDBRANCH  43  57
BRANCH  44  68
ATOM     68  C   UNL A   1      38.532  32.203  30.705  1.00  0.00     0.023 A 
ATOM     69  C   UNL A   1      38.108  32.584  29.410  1.00  0.00     0.012 A 
ATOM     70  C   UNL A   1      37.808  32.710  31.806  1.00  0.00     0.148 A 
ATOM     71  C   UNL A   1      36.963  33.368  29.216  1.00  0.00     0.002 A 
ATOM     72  C   UNL A   1      36.674  33.499  31.608  1.00  0.00     0.091 A 
ATOM     73  F   UNL A   1      38.165  32.344  33.043  1.00  0.00    -0.205 F 
ATOM     74  C   UNL A   1      36.237  33.812  30.314  1.00  0.00     0.022 A 
BRANCH  72  75
ATOM     75  S   UNL A   1      35.683  34.105  32.981  1.00  0.00     0.127 S 
ATOM     76  O   UNL A   1      34.553  34.731  32.291  1.00  0.00    -0.237 OA
ATOM     77  O   UNL A   1      35.359  32.871  33.689  1.00  0.00    -0.237 OA
ATOM     78  O   UNL A   1      36.538  35.044  33.696  1.00  0.00    -0.744 OA
ENDBRANCH  72  75
ENDBRANCH  44  68
BRANCH  56  79
ATOM     79  C   UNL A   1      42.877  28.552  33.414  1.00  0.00     0.023 A 
ATOM     80  C   UNL A   1      41.861  27.575  33.366  1.00  0.00     0.012 A 
ATOM     81  C   UNL A   1      43.615  28.721  34.596  1.00  0.00     0.148 A 
ATOM     82  C   UNL A   1      41.601  26.771  34.482  1.00  0.00     0.002 A 
ATOM     83  C   UNL A   1      43.382  27.894  35.685  1.00  0.00     0.091 A 
ATOM     84  F   UNL A   1      44.579  29.654  34.608  1.00  0.00    -0.205 F 
ATOM     85  C   UNL A   1      42.374  26.918  35.634  1.00  0.00     0.022 A 
BRANCH  83  86
ATOM     86  S   UNL A   1      44.418  27.952  37.148  1.00  0.00     0.127 S 
ATOM     87  O   UNL A   1      44.177  29.307  37.638  1.00  0.00    -0.237 OA
ATOM     88  O   UNL A   1      43.842  26.890  37.975  1.00  0.00    -0.237 OA
ATOM     89  O   UNL A   1      45.778  27.689  36.696  1.00  0.00    -0.744 OA
ENDBRANCH  83  86
ENDBRANCH  56  79
ENDBRANCH  30  31
ENDBRANCH  22  25
ENDBRANCH   1  21
TORSDOF 14
ENDMDL
MODEL 2
REMARK VINA RESULT:     -11.6      3.834     11.759
REMARK SMILES Cc1cc(-n2cnc(C(=O)NCCCNC(=O)c3ccc(-c4c5nc(c(-c6cccc(S(=O)(=O)[O-])c6F)c6ccc([nH]6)c(-c6cccc(S(=O)(=O)[O-])c6F)c6nc(c(-c7cccc(S(=O)(=O)[O-])c7F)c7ccc4[nH]7)C=C6)C=C5)cc3)c2)nc(Cl)n1
REMARK SMILES IDX 14 1 13 2 12 3 11 4 9 5 10 6 8 8 5 9 6 10 81 11 7 12 4 13
REMARK SMILES IDX 1 14 2 15 3 16 85 17 83 18 82 19 84 20 15 21 16 22 17 24
REMARK SMILES IDX 18 25 19 26 80 27 20 28 79 29 21 30 22 31 23 32 73 33 24 34
REMARK SMILES IDX 78 35 72 36 74 37 25 38 77 39 71 40 70 41 26 43 58 44 38 45
REMARK SMILES IDX 57 46 39 47 42 48 56 49 75 50 40 51 41 52 55 54 76 55 43 56
REMARK SMILES IDX 27 57 28 58 36 59 29 60 31 61 37 62 30 63 32 64 33 65 34 66
REMARK SMILES IDX 35 67 59 68 60 69 68 70 61 71 63 72 69 73 62 74 64 75 65 76
REMARK SMILES IDX 66 77 67 78 44 79 45 80 53 81 46 82 48 83 54 84 47 85 49 86
REMARK SMILES IDX 50 87 51 88 52 89
REMARK H PARENT 11 7 15 23 74 42 42 53
REMARK Flexibility Score: inf
ROOT
ATOM      1  C   UNL A   1      35.317  33.206  29.328  1.00  0.00     0.118 C 
ENDROOT
BRANCH   1   2
ATOM      2  C   UNL A   1      34.876  34.647  29.105  1.00  0.00     0.042 C 
BRANCH   2   3
ATOM      3  C   UNL A   1      33.353  34.782  29.239  1.00  0.00     0.118 C 
BRANCH   3   4
ATOM      4  N   UNL A   1      32.960  35.858  30.129  1.00  0.00    -0.351 N 
ATOM      5  C   UNL A   1      33.257  36.145  31.447  1.00  0.00     0.271 C 
ATOM      6  O   UNL A   1      32.851  37.219  31.875  1.00  0.00    -0.267 OA
ATOM      7  H   UNL A   1      32.361  36.516  29.709  1.00  0.00     0.163 HD
BRANCH   5   8
ATOM      8  C   UNL A   1      34.032  35.217  32.288  1.00  0.00     0.146 A 
ATOM      9  N   UNL A   1      35.585  34.143  33.438  1.00  0.00    -0.290 N 
ATOM     10  C   UNL A   1      34.426  33.426  33.459  1.00  0.00     0.206 A 
ATOM     11  C   UNL A   1      35.362  35.239  32.640  1.00  0.00     0.128 A 
ATOM     12  N   UNL A   1      33.458  34.073  32.845  1.00  0.00    -0.231 NA
BRANCH   9  13
ATOM     13  C   UNL A   1      36.810  33.842  34.063  1.00  0.00     0.143 A 
ATOM     14  C   UNL A   1      38.533  30.875  35.546  1.00  0.00     0.067 C 
ATOM     15  C   UNL A   1      38.168  32.281  35.177  1.00  0.00     0.044 A 
ATOM     16  C   UNL A   1      37.016  32.531  34.463  1.00  0.00     0.071 A 
ATOM     17  N   UNL A   1      39.021  33.264  35.516  1.00  0.00    -0.223 NA
ATOM     18  C   UNL A   1      38.713  34.495  35.071  1.00  0.00     0.224 A 
ATOM     19  N   UNL A   1      37.671  34.844  34.309  1.00  0.00    -0.200 NA
ATOM     20  Cl  UNL A   1      39.710  35.764  35.620  1.00  0.00    -0.041 Cl
ENDBRANCH   9  13
ENDBRANCH   5   8
ENDBRANCH   3   4
ENDBRANCH   2   3
ENDBRANCH   1   2
BRANCH   1  21
ATOM     21  N   UNL A   1      34.414  32.268  28.665  1.00  0.00    -0.352 N 
ATOM     22  C   UNL A   1      34.677  31.047  28.089  1.00  0.00     0.251 C 
ATOM     23  H   UNL A   1      33.473  32.553  28.623  1.00  0.00     0.163 HD
ATOM     24  O   UNL A   1      33.857  30.569  27.309  1.00  0.00    -0.269 OA
BRANCH  22  25
ATOM     25  C   UNL A   1      35.921  30.318  28.401  1.00  0.00     0.039 A 
ATOM     26  C   UNL A   1      36.914  30.207  27.424  1.00  0.00     0.014 A 
ATOM     27  C   UNL A   1      36.080  29.695  29.641  1.00  0.00     0.014 A 
ATOM     28  C   UNL A   1      38.079  29.511  27.721  1.00  0.00     0.010 A 
ATOM     29  C   UNL A   1      37.273  29.096  29.975  1.00  0.00     0.010 A 
ATOM     30  C   UNL A   1      38.256  28.971  29.005  1.00  0.00    -0.014 A 
BRANCH  30  31
ATOM     31  C   UNL A   1      39.549  28.428  29.388  1.00  0.00     0.031 A 
ATOM     32  C   UNL A   1      39.851  28.625  30.827  1.00  0.00     0.074 A 
ATOM     33  C   UNL A   1      40.337  27.684  28.585  1.00  0.00     0.049 A 
ATOM     34  N   UNL A   1      40.636  29.521  31.326  1.00  0.00    -0.248 NA
ATOM     35  C   UNL A   1      39.054  27.901  31.831  1.00  0.00     0.031 C 
ATOM     36  C   UNL A   1      40.041  27.160  27.249  1.00  0.00     0.029 A 
ATOM     37  N   UNL A   1      41.558  27.143  28.854  1.00  0.00    -0.354 N 
ATOM     38  C   UNL A   1      40.653  29.271  32.692  1.00  0.00     0.074 A 
ATOM     39  C   UNL A   1      39.509  28.439  32.965  1.00  0.00     0.031 C 
ATOM     40  C   UNL A   1      40.941  26.199  26.933  1.00  0.00     0.029 A 
ATOM     41  C   UNL A   1      41.960  26.149  27.964  1.00  0.00     0.049 A 
ATOM     42  H   UNL A   1      42.110  27.432  29.615  1.00  0.00     0.167 HD
ATOM     43  C   UNL A   1      41.771  29.515  33.426  1.00  0.00     0.034 A 
ATOM     44  C   UNL A   1      43.034  25.329  28.109  1.00  0.00     0.034 A 
ATOM     45  C   UNL A   1      42.717  30.327  32.703  1.00  0.00     0.049 A 
ATOM     46  C   UNL A   1      43.973  26.035  29.014  1.00  0.00     0.074 A 
ATOM     47  C   UNL A   1      42.663  31.555  32.072  1.00  0.00     0.029 A 
ATOM     48  N   UNL A   1      43.810  29.679  32.180  1.00  0.00    -0.354 N 
ATOM     49  N   UNL A   1      44.578  27.146  28.699  1.00  0.00    -0.248 NA
ATOM     50  C   UNL A   1      43.903  25.733  30.435  1.00  0.00     0.031 C 
ATOM     51  C   UNL A   1      43.409  31.379  30.871  1.00  0.00     0.029 A 
ATOM     52  C   UNL A   1      43.946  30.089  30.882  1.00  0.00     0.049 A 
ATOM     53  H   UNL A   1      44.389  29.038  32.653  1.00  0.00     0.167 HD
ATOM     54  C   UNL A   1      44.532  27.894  29.867  1.00  0.00     0.074 A 
ATOM     55  C   UNL A   1      44.200  26.940  30.922  1.00  0.00     0.031 C 
ATOM     56  C   UNL A   1      44.471  29.255  29.826  1.00  0.00     0.034 A 
BRANCH  43  57
ATOM     57  C   UNL A   1      42.198  28.694  34.614  1.00  0.00     0.023 A 
ATOM     58  C   UNL A   1      42.628  29.386  35.767  1.00  0.00     0.012 A 
ATOM     59  C   UNL A   1      42.468  27.309  34.551  1.00  0.00     0.148 A 
ATOM     60  C   UNL A   1      43.314  28.731  36.795  1.00  0.00     0.002 A 
ATOM     61  C   UNL A   1      43.076  26.648  35.609  1.00  0.00     0.091 A 
ATOM     62  F   UNL A   1      42.272  26.643  33.408  1.00  0.00    -0.205 F 
ATOM     63  C   UNL A   1      43.526  27.359  36.724  1.00  0.00     0.022 A 
BRANCH  61  64
ATOM     64  S   UNL A   1      43.348  24.873  35.575  1.00  0.00     0.127 S 
ATOM     65  O   UNL A   1      41.980  24.372  35.480  1.00  0.00    -0.237 OA
ATOM     66  O   UNL A   1      44.153  24.721  34.362  1.00  0.00    -0.237 OA
ATOM     67  O   UNL A   1      44.061  24.565  36.807  1.00  0.00    -0.744 OA
ENDBRANCH  61  64
ENDBRANCH  43  57
BRANCH  44  68
ATOM     68  C   UNL A   1      43.235  23.897  27.756  1.00  0.00     0.023 A 
ATOM     69  C   UNL A   1      42.378  22.928  28.328  1.00  0.00     0.012 A 
ATOM     70  C   UNL A   1      44.020  23.505  26.650  1.00  0.00     0.148 A 
ATOM     71  C   UNL A   1      42.244  21.649  27.771  1.00  0.00     0.002 A 
ATOM     72  C   UNL A   1      43.891  22.227  26.105  1.00  0.00     0.091 A 
ATOM     73  F   UNL A   1      44.819  24.408  26.068  1.00  0.00    -0.205 F 
ATOM     74  C   UNL A   1      42.989  21.304  26.650  1.00  0.00     0.022 A 
BRANCH  72  75
ATOM     75  S   UNL A   1      44.819  21.712  24.653  1.00  0.00     0.127 S 
ATOM     76  O   UNL A   1      44.386  20.324  24.488  1.00  0.00    -0.237 OA
ATOM     77  O   UNL A   1      44.324  22.633  23.635  1.00  0.00    -0.237 OA
ATOM     78  O   UNL A   1      46.224  21.859  25.015  1.00  0.00    -0.744 OA
ENDBRANCH  72  75
ENDBRANCH  44  68
BRANCH  56  79
ATOM     79  C   UNL A   1      44.741  29.955  28.521  1.00  0.00     0.023 A 
ATOM     80  C   UNL A   1      43.711  30.377  27.656  1.00  0.00     0.012 A 
ATOM     81  C   UNL A   1      46.053  30.403  28.300  1.00  0.00     0.148 A 
ATOM     82  C   UNL A   1      43.990  31.247  26.595  1.00  0.00     0.002 A 
ATOM     83  C   UNL A   1      46.318  31.296  27.273  1.00  0.00     0.091 A 
ATOM     84  F   UNL A   1      47.010  29.987  29.143  1.00  0.00    -0.205 F 
ATOM     85  C   UNL A   1      45.290  31.721  26.416  1.00  0.00     0.022 A 
BRANCH  83  86
ATOM     86  S   UNL A   1      47.940  32.034  27.064  1.00  0.00     0.127 S 
ATOM     87  O   UNL A   1      47.701  32.992  25.986  1.00  0.00    -0.237 OA
ATOM     88  O   UNL A   1      48.176  32.636  28.377  1.00  0.00    -0.237 OA
ATOM     89  O   UNL A   1      48.846  30.942  26.732  1.00  0.00    -0.744 OA
ENDBRANCH  83  86
ENDBRANCH  56  79
ENDBRANCH  30  31
ENDBRANCH  22  25
ENDBRANCH   1  21
TORSDOF 14
ENDMDL
MODEL 3
REMARK VINA RESULT:     -11.6      4.337      9.015
REMARK SMILES Cc1cc(-n2cnc(C(=O)NCCCNC(=O)c3ccc(-c4c5nc(c(-c6cccc(S(=O)(=O)[O-])c6F)c6ccc([nH]6)c(-c6cccc(S(=O)(=O)[O-])c6F)c6nc(c(-c7cccc(S(=O)(=O)[O-])c7F)c7ccc4[nH]7)C=C6)C=C5)cc3)c2)nc(Cl)n1
REMARK SMILES IDX 14 1 13 2 12 3 11 4 9 5 10 6 8 8 5 9 6 10 81 11 7 12 4 13
REMARK SMILES IDX 1 14 2 15 3 16 85 17 83 18 82 19 84 20 15 21 16 22 17 24
REMARK SMILES IDX 18 25 19 26 80 27 20 28 79 29 21 30 22 31 23 32 73 33 24 34
REMARK SMILES IDX 78 35 72 36 74 37 25 38 77 39 71 40 70 41 26 43 58 44 38 45
REMARK SMILES IDX 57 46 39 47 42 48 56 49 75 50 40 51 41 52 55 54 76 55 43 56
REMARK SMILES IDX 27 57 28 58 36 59 29 60 31 61 37 62 30 63 32 64 33 65 34 66
REMARK SMILES IDX 35 67 59 68 60 69 68 70 61 71 63 72 69 73 62 74 64 75 65 76
REMARK SMILES IDX 66 77 67 78 44 79 45 80 53 81 46 82 48 83 54 84 47 85 49 86
REMARK SMILES IDX 50 87 51 88 52 89
REMARK H PARENT 11 7 15 23 74 42 42 53
REMARK Flexibility Score: inf
ROOT
ATOM      1  C   UNL A   1      38.786  19.475  25.950  1.00  0.00     0.118 C 
ENDROOT
BRANCH   1   2
ATOM      2  C   UNL A   1      38.158  19.967  24.652  1.00  0.00     0.042 C 
BRANCH   2   3
ATOM      3  C   UNL A   1      37.203  21.139  24.913  1.00  0.00     0.118 C 
BRANCH   3   4
ATOM      4  N   UNL A   1      35.988  20.733  25.594  1.00  0.00    -0.351 N 
ATOM      5  C   UNL A   1      34.737  21.307  25.711  1.00  0.00     0.271 C 
ATOM      6  O   UNL A   1      33.879  20.634  26.268  1.00  0.00    -0.267 OA
ATOM      7  H   UNL A   1      36.072  19.875  26.069  1.00  0.00     0.163 HD
BRANCH   5   8
ATOM      8  C   UNL A   1      34.448  22.651  25.181  1.00  0.00     0.146 A 
ATOM      9  N   UNL A   1      33.725  24.406  24.048  1.00  0.00    -0.290 N 
ATOM     10  C   UNL A   1      34.643  24.808  24.971  1.00  0.00     0.206 A 
ATOM     11  C   UNL A   1      33.651  23.037  24.127  1.00  0.00     0.128 A 
ATOM     12  N   UNL A   1      35.040  23.797  25.715  1.00  0.00    -0.231 NA
BRANCH   9  13
ATOM     13  C   UNL A   1      32.995  25.197  23.139  1.00  0.00     0.143 A 
ATOM     14  C   UNL A   1      30.104  27.565  23.194  1.00  0.00     0.067 C 
ATOM     15  C   UNL A   1      31.178  26.628  22.729  1.00  0.00     0.044 A 
ATOM     16  C   UNL A   1      31.952  25.954  23.648  1.00  0.00     0.071 A 
ATOM     17  N   UNL A   1      31.387  26.515  21.405  1.00  0.00    -0.223 NA
ATOM     18  C   UNL A   1      32.429  25.751  21.034  1.00  0.00     0.224 A 
ATOM     19  N   UNL A   1      33.293  25.115  21.832  1.00  0.00    -0.200 NA
ATOM     20  Cl  UNL A   1      32.609  25.487  19.358  1.00  0.00    -0.041 Cl
ENDBRANCH   9  13
ENDBRANCH   5   8
ENDBRANCH   3   4
ENDBRANCH   2   3
ENDBRANCH   1   2
BRANCH   1  21
ATOM     21  N   UNL A   1      40.133  18.955  25.722  1.00  0.00    -0.352 N 
ATOM     22  C   UNL A   1      41.348  19.595  25.784  1.00  0.00     0.251 C 
ATOM     23  H   UNL A   1      40.178  18.000  25.488  1.00  0.00     0.163 HD
ATOM     24  O   UNL A   1      42.323  19.072  25.250  1.00  0.00    -0.269 OA
BRANCH  22  25
ATOM     25  C   UNL A   1      41.485  20.888  26.481  1.00  0.00     0.039 A 
ATOM     26  C   UNL A   1      41.067  20.999  27.809  1.00  0.00     0.014 A 
ATOM     27  C   UNL A   1      41.973  22.006  25.800  1.00  0.00     0.014 A 
ATOM     28  C   UNL A   1      41.190  22.223  28.457  1.00  0.00     0.010 A 
ATOM     29  C   UNL A   1      42.194  23.191  26.468  1.00  0.00     0.010 A 
ATOM     30  C   UNL A   1      41.768  23.309  27.782  1.00  0.00    -0.014 A 
BRANCH  30  31
ATOM     31  C   UNL A   1      42.091  24.524  28.512  1.00  0.00     0.031 A 
ATOM     32  C   UNL A   1      41.090  25.600  28.308  1.00  0.00     0.074 A 
ATOM     33  C   UNL A   1      43.095  24.638  29.406  1.00  0.00     0.049 A 
ATOM     34  N   UNL A   1      41.217  26.624  27.532  1.00  0.00    -0.248 NA
ATOM     35  C   UNL A   1      39.733  25.425  28.852  1.00  0.00     0.031 C 
ATOM     36  C   UNL A   1      43.974  23.589  29.929  1.00  0.00     0.029 A 
ATOM     37  N   UNL A   1      43.473  25.731  30.126  1.00  0.00    -0.354 N 
ATOM     38  C   UNL A   1      40.065  27.374  27.727  1.00  0.00     0.074 A 
ATOM     39  C   UNL A   1      39.109  26.494  28.350  1.00  0.00     0.031 C 
ATOM     40  C   UNL A   1      44.609  24.043  31.034  1.00  0.00     0.029 A 
ATOM     41  C   UNL A   1      44.307  25.452  31.207  1.00  0.00     0.049 A 
ATOM     42  H   UNL A   1      43.181  26.643  29.901  1.00  0.00     0.167 HD
ATOM     43  C   UNL A   1      40.099  28.730  27.637  1.00  0.00     0.034 A 
ATOM     44  C   UNL A   1      44.672  26.322  32.185  1.00  0.00     0.034 A 
ATOM     45  C   UNL A   1      41.315  29.193  27.019  1.00  0.00     0.049 A 
ATOM     46  C   UNL A   1      44.524  27.679  31.604  1.00  0.00     0.074 A 
ATOM     47  C   UNL A   1      41.961  28.934  25.826  1.00  0.00     0.029 A 
ATOM     48  N   UNL A   1      42.266  29.726  27.858  1.00  0.00    -0.354 N 
ATOM     49  N   UNL A   1      45.254  28.124  30.621  1.00  0.00    -0.248 NA
ATOM     50  C   UNL A   1      43.272  28.382  31.833  1.00  0.00     0.031 C 
ATOM     51  C   UNL A   1      43.341  28.855  26.170  1.00  0.00     0.029 A 
ATOM     52  C   UNL A   1      43.466  29.158  27.528  1.00  0.00     0.049 A 
ATOM     53  H   UNL A   1      42.112  30.394  28.564  1.00  0.00     0.167 HD
ATOM     54  C   UNL A   1      44.355  28.824  29.828  1.00  0.00     0.074 A 
ATOM     55  C   UNL A   1      43.181  29.035  30.672  1.00  0.00     0.031 C 
ATOM     56  C   UNL A   1      44.524  28.903  28.478  1.00  0.00     0.034 A 
BRANCH  43  57
ATOM     57  C   UNL A   1      39.247  29.653  28.468  1.00  0.00     0.023 A 
ATOM     58  C   UNL A   1      39.590  29.814  29.827  1.00  0.00     0.012 A 
ATOM     59  C   UNL A   1      37.981  30.130  28.059  1.00  0.00     0.148 A 
ATOM     60  C   UNL A   1      38.705  30.401  30.737  1.00  0.00     0.002 A 
ATOM     61  C   UNL A   1      37.140  30.784  28.947  1.00  0.00     0.091 A 
ATOM     62  F   UNL A   1      37.516  29.827  26.842  1.00  0.00    -0.205 F 
ATOM     63  C   UNL A   1      37.485  30.900  30.295  1.00  0.00     0.022 A 
BRANCH  61  64
ATOM     64  S   UNL A   1      35.566  31.469  28.418  1.00  0.00     0.127 S 
ATOM     65  O   UNL A   1      34.933  30.303  27.809  1.00  0.00    -0.237 OA
ATOM     66  O   UNL A   1      34.987  31.898  29.692  1.00  0.00    -0.237 OA
ATOM     67  O   UNL A   1      35.901  32.562  27.517  1.00  0.00    -0.744 OA
ENDBRANCH  61  64
ENDBRANCH  43  57
BRANCH  44  68
ATOM     68  C   UNL A   1      44.896  26.129  33.644  1.00  0.00     0.023 A 
ATOM     69  C   UNL A   1      46.205  26.277  34.158  1.00  0.00     0.012 A 
ATOM     70  C   UNL A   1      43.828  26.122  34.566  1.00  0.00     0.148 A 
ATOM     71  C   UNL A   1      46.436  26.494  35.522  1.00  0.00     0.002 A 
ATOM     72  C   UNL A   1      44.063  26.327  35.926  1.00  0.00     0.091 A 
ATOM     73  F   UNL A   1      42.574  26.013  34.109  1.00  0.00    -0.205 F 
ATOM     74  C   UNL A   1      45.363  26.535  36.405  1.00  0.00     0.022 A 
BRANCH  72  75
ATOM     75  S   UNL A   1      42.724  26.397  37.125  1.00  0.00     0.127 S 
ATOM     76  O   UNL A   1      42.054  25.113  36.912  1.00  0.00    -0.237 OA
ATOM     77  O   UNL A   1      43.451  26.506  38.386  1.00  0.00    -0.237 OA
ATOM     78  O   UNL A   1      41.924  27.556  36.750  1.00  0.00    -0.744 OA
ENDBRANCH  72  75
ENDBRANCH  44  68
BRANCH  56  79
ATOM     79  C   UNL A   1      45.839  28.474  27.885  1.00  0.00     0.023 A 
ATOM     80  C   UNL A   1      46.984  29.296  27.898  1.00  0.00     0.012 A 
ATOM     81  C   UNL A   1      45.966  27.121  27.534  1.00  0.00     0.148 A 
ATOM     82  C   UNL A   1      48.239  28.765  27.579  1.00  0.00     0.002 A 
ATOM     83  C   UNL A   1      47.218  26.589  27.259  1.00  0.00     0.091 A 
ATOM     84  F   UNL A   1      44.859  26.363  27.537  1.00  0.00    -0.205 F 
ATOM     85  C   UNL A   1      48.358  27.408  27.279  1.00  0.00     0.022 A 
BRANCH  83  86
ATOM     86  S   UNL A   1      47.453  24.833  26.984  1.00  0.00     0.127 S 
ATOM     87  O   UNL A   1      48.889  24.680  27.207  1.00  0.00    -0.237 OA
ATOM     88  O   UNL A   1      46.606  24.241  28.021  1.00  0.00    -0.237 OA
ATOM     89  O   UNL A   1      47.007  24.569  25.622  1.00  0.00    -0.744 OA
ENDBRANCH  83  86
ENDBRANCH  56  79
ENDBRANCH  30  31
ENDBRANCH  22  25
ENDBRANCH   1  21
TORSDOF 14
ENDMDL
