MODEL 1
REMARK VINA RESULT:     -13.1      0.000      0.000
REMARK SMILES N#CC1=C(N)N2C(=O)[C@@H](CC(=O)NCCCNC(=O)c3ccc(-c4c5nc(c(-c6cccc(S(=O)(=O)[O-])c6F)c6ccc([nH]6)c(-c6cccc(S(=O)(=O)[O-])c6F)c6nc(c(-c7cccc(S(=O)(=O)[O-])c7F)c7ccc4[nH]7)C=C6)C=C5)cc3)SC2=C(C#N)[C@H]1c1ccc(Cl)cc1
REMARK SMILES IDX 15 1 14 2 13 3 11 4 12 5 10 7 9 8 3 9 4 10 88 11 6 12 85 13
REMARK SMILES IDX 7 14 84 15 8 16 83 17 2 18 1 19 5 20 89 23 90 24 95 25 91 26
REMARK SMILES IDX 94 27 92 28 93 29 86 30 87 31 16 32 17 33 18 34 19 36 20 37
REMARK SMILES IDX 21 38 82 39 22 40 81 41 23 42 24 43 25 44 75 45 26 46 80 47
REMARK SMILES IDX 74 48 76 49 27 50 79 51 73 52 72 53 28 55 60 56 40 57 59 58
REMARK SMILES IDX 41 59 44 60 58 61 77 62 42 63 43 64 57 66 78 67 45 68 29 69
REMARK SMILES IDX 30 70 38 71 31 72 33 73 39 74 32 75 34 76 35 77 36 78 37 79
REMARK SMILES IDX 61 80 62 81 70 82 63 83 65 84 71 85 64 86 66 87 67 88 68 89
REMARK SMILES IDX 69 90 46 91 47 92 55 93 48 94 50 95 56 96 49 97 51 98 52 99
REMARK SMILES IDX 53 100 54 101
REMARK H PARENT 13 6 5 21 5 22 17 35 76 54 44 65
REMARK Flexibility Score: inf
ROOT
ATOM      1  C   UNL A   1      38.120  19.563  25.114  1.00  0.00     0.042 C 
ENDROOT
BRANCH   1   2
ATOM      2  C   UNL A   1      36.936  20.516  24.941  1.00  0.00     0.117 C 
BRANCH   2   3
ATOM      3  N   UNL A   1      37.076  21.464  23.846  1.00  0.00    -0.356 N 
ATOM      4  C   UNL A   1      36.295  22.514  23.488  1.00  0.00     0.221 C 
ATOM      5  O   UNL A   1      36.620  23.211  22.526  1.00  0.00    -0.275 OA
ATOM      6  H   UNL A   1      37.863  21.319  23.273  1.00  0.00     0.163 HD
BRANCH   4   7
ATOM      7  C   UNL A   1      35.045  22.831  24.271  1.00  0.00     0.125 C 
BRANCH   7   8
ATOM      8  C   UNL A   1      33.749  22.515  23.530  1.00  0.00     0.152 C 
ATOM      9  C   UNL A   1      30.940  26.290  23.357  1.00  0.00     0.083 C 
ATOM     10  C   UNL A   1      31.708  25.491  22.599  1.00  0.00     0.126 C 
ATOM     11  C   UNL A   1      30.753  26.088  24.852  1.00  0.00     0.107 C 
ATOM     12  N   UNL A   1      32.285  24.381  23.207  1.00  0.00    -0.258 N 
ATOM     13  C   UNL A   1      30.974  24.631  25.201  1.00  0.00     0.073 C 
ATOM     14  C   UNL A   1      33.288  23.635  22.612  1.00  0.00     0.247 C 
ATOM     15  C   UNL A   1      31.781  23.911  24.405  1.00  0.00     0.099 C 
ATOM     16  O   UNL A   1      33.798  23.885  21.524  1.00  0.00    -0.273 OA
ATOM     17  S   UNL A   1      32.383  22.323  24.746  1.00  0.00    -0.093 SA
BRANCH   9  18
ATOM     18  C   UNL A   1      30.193  27.458  22.734  1.00  0.00     0.100 C 
ATOM     19  N   UNL A   1      29.574  28.427  22.217  1.00  0.00    -0.193 NA
ENDBRANCH   9  18
BRANCH  10  20
ATOM     20  N   UNL A   1      31.924  25.745  21.272  1.00  0.00    -0.384 N 
ATOM     21  H   UNL A   1      32.577  25.209  20.768  1.00  0.00     0.158 HD
ATOM     22  H   UNL A   1      31.424  26.464  20.822  1.00  0.00     0.158 HD
ENDBRANCH  10  20
BRANCH  11  23
ATOM     23  C   UNL A   1      31.660  27.046  25.667  1.00  0.00    -0.034 A 
ATOM     24  C   UNL A   1      31.165  27.873  26.700  1.00  0.00     0.006 A 
ATOM     25  C   UNL A   1      33.043  27.098  25.408  1.00  0.00     0.006 A 
ATOM     26  C   UNL A   1      32.013  28.708  27.435  1.00  0.00     0.021 A 
ATOM     27  C   UNL A   1      33.895  27.913  26.164  1.00  0.00     0.021 A 
ATOM     28  C   UNL A   1      33.376  28.719  27.171  1.00  0.00     0.041 A 
ATOM     29  Cl  UNL A   1      34.418  29.732  28.089  1.00  0.00    -0.084 Cl
ENDBRANCH  11  23
BRANCH  13  30
ATOM     30  C   UNL A   1      30.416  24.127  26.409  1.00  0.00     0.098 C 
ATOM     31  N   UNL A   1      29.973  23.676  27.383  1.00  0.00    -0.193 NA
ENDBRANCH  13  30
ENDBRANCH   7   8
ENDBRANCH   4   7
ENDBRANCH   2   3
ENDBRANCH   1   2
BRANCH   1  32
ATOM     32  C   UNL A   1      39.325  20.187  25.810  1.00  0.00     0.118 C 
BRANCH  32  33
ATOM     33  N   UNL A   1      40.345  19.176  26.051  1.00  0.00    -0.352 N 
ATOM     34  C   UNL A   1      41.708  19.338  26.107  1.00  0.00     0.251 C 
ATOM     35  H   UNL A   1      40.017  18.258  26.190  1.00  0.00     0.163 HD
ATOM     36  O   UNL A   1      42.442  18.372  25.923  1.00  0.00    -0.269 OA
BRANCH  34  37
ATOM     37  C   UNL A   1      42.280  20.673  26.390  1.00  0.00     0.039 A 
ATOM     38  C   UNL A   1      42.680  21.483  25.325  1.00  0.00     0.014 A 
ATOM     39  C   UNL A   1      42.461  21.108  27.707  1.00  0.00     0.014 A 
ATOM     40  C   UNL A   1      43.221  22.745  25.580  1.00  0.00     0.010 A 
ATOM     41  C   UNL A   1      42.929  22.395  27.957  1.00  0.00     0.010 A 
ATOM     42  C   UNL A   1      43.324  23.226  26.898  1.00  0.00    -0.014 A 
BRANCH  42  43
ATOM     43  C   UNL A   1      43.834  24.594  27.178  1.00  0.00     0.031 A 
ATOM     44  C   UNL A   1      42.908  25.662  27.701  1.00  0.00     0.074 A 
ATOM     45  C   UNL A   1      45.121  24.893  26.907  1.00  0.00     0.049 A 
ATOM     46  N   UNL A   1      43.161  26.920  27.952  1.00  0.00    -0.248 NA
ATOM     47  C   UNL A   1      41.511  25.271  27.955  1.00  0.00     0.031 C 
ATOM     48  C   UNL A   1      46.105  23.964  26.347  1.00  0.00     0.029 A 
ATOM     49  N   UNL A   1      45.818  26.068  27.044  1.00  0.00    -0.354 N 
ATOM     50  C   UNL A   1      41.959  27.474  28.377  1.00  0.00     0.074 A 
ATOM     51  C   UNL A   1      40.964  26.426  28.303  1.00  0.00     0.031 C 
ATOM     52  C   UNL A   1      47.277  24.600  26.198  1.00  0.00     0.029 A 
ATOM     53  C   UNL A   1      47.119  25.993  26.605  1.00  0.00     0.049 A 
ATOM     54  H   UNL A   1      45.423  26.887  27.422  1.00  0.00     0.167 HD
ATOM     55  C   UNL A   1      41.709  28.731  28.816  1.00  0.00     0.034 A 
ATOM     56  C   UNL A   1      48.072  26.941  26.517  1.00  0.00     0.034 A 
ATOM     57  C   UNL A   1      42.701  29.769  28.896  1.00  0.00     0.049 A 
ATOM     58  C   UNL A   1      47.756  28.338  26.983  1.00  0.00     0.074 A 
ATOM     59  C   UNL A   1      42.557  31.061  29.369  1.00  0.00     0.029 A 
ATOM     60  N   UNL A   1      44.017  29.642  28.479  1.00  0.00    -0.354 N 
ATOM     61  N   UNL A   1      46.646  28.807  27.498  1.00  0.00    -0.248 NA
ATOM     62  C   UNL A   1      48.836  29.331  26.883  1.00  0.00     0.031 C 
ATOM     63  C   UNL A   1      43.774  31.728  29.201  1.00  0.00     0.029 A 
ATOM     64  C   UNL A   1      44.692  30.835  28.674  1.00  0.00     0.049 A 
ATOM     65  H   UNL A   1      44.413  28.824  28.102  1.00  0.00     0.167 HD
ATOM     66  C   UNL A   1      46.909  30.132  27.828  1.00  0.00     0.074 A 
ATOM     67  C   UNL A   1      48.290  30.385  27.473  1.00  0.00     0.031 C 
ATOM     68  C   UNL A   1      46.080  31.058  28.367  1.00  0.00     0.034 A 
BRANCH  55  69
ATOM     69  C   UNL A   1      40.310  29.047  29.285  1.00  0.00     0.023 A 
ATOM     70  C   UNL A   1      39.340  29.463  28.349  1.00  0.00     0.012 A 
ATOM     71  C   UNL A   1      39.936  28.867  30.632  1.00  0.00     0.148 A 
ATOM     72  C   UNL A   1      38.032  29.733  28.751  1.00  0.00     0.002 A 
ATOM     73  C   UNL A   1      38.619  29.089  31.015  1.00  0.00     0.091 A 
ATOM     74  F   UNL A   1      40.873  28.481  31.508  1.00  0.00    -0.205 F 
ATOM     75  C   UNL A   1      37.670  29.536  30.080  1.00  0.00     0.022 A 
BRANCH  73  76
ATOM     76  S   UNL A   1      38.028  28.790  32.684  1.00  0.00     0.127 S 
ATOM     77  O   UNL A   1      36.654  29.283  32.603  1.00  0.00    -0.237 OA
ATOM     78  O   UNL A   1      38.149  27.335  32.794  1.00  0.00    -0.237 OA
ATOM     79  O   UNL A   1      38.907  29.545  33.567  1.00  0.00    -0.744 OA
ENDBRANCH  73  76
ENDBRANCH  55  69
BRANCH  56  80
ATOM     80  C   UNL A   1      49.426  26.610  25.986  1.00  0.00     0.023 A 
ATOM     81  C   UNL A   1      50.317  25.850  26.770  1.00  0.00     0.012 A 
ATOM     82  C   UNL A   1      49.846  27.067  24.722  1.00  0.00     0.148 A 
ATOM     83  C   UNL A   1      51.618  25.602  26.330  1.00  0.00     0.002 A 
ATOM     84  C   UNL A   1      51.121  26.764  24.263  1.00  0.00     0.091 A 
ATOM     85  F   UNL A   1      48.987  27.793  23.992  1.00  0.00    -0.205 F 
ATOM     86  C   UNL A   1      52.018  26.053  25.076  1.00  0.00     0.022 A 
BRANCH  84  87
ATOM     87  S   UNL A   1      51.677  27.193  22.611  1.00  0.00     0.127 S 
ATOM     88  O   UNL A   1      52.891  26.392  22.486  1.00  0.00    -0.237 OA
ATOM     89  O   UNL A   1      50.553  26.744  21.790  1.00  0.00    -0.237 OA
ATOM     90  O   UNL A   1      51.871  28.637  22.622  1.00  0.00    -0.744 OA
ENDBRANCH  84  87
ENDBRANCH  56  80
BRANCH  68  91
ATOM     91  C   UNL A   1      46.654  32.419  28.673  1.00  0.00     0.023 A 
ATOM     92  C   UNL A   1      47.219  32.688  29.935  1.00  0.00     0.012 A 
ATOM     93  C   UNL A   1      46.687  33.414  27.675  1.00  0.00     0.148 A 
ATOM     94  C   UNL A   1      47.772  33.938  30.212  1.00  0.00     0.002 A 
ATOM     95  C   UNL A   1      47.292  34.636  27.938  1.00  0.00     0.091 A 
ATOM     96  F   UNL A   1      46.132  33.143  26.485  1.00  0.00    -0.205 F 
ATOM     97  C   UNL A   1      47.820  34.906  29.211  1.00  0.00     0.022 A 
BRANCH  95  98
ATOM     98  S   UNL A   1      47.489  35.907  26.685  1.00  0.00     0.127 S 
ATOM     99  O   UNL A   1      46.100  36.281  26.420  1.00  0.00    -0.237 OA
ATOM    100  O   UNL A   1      48.270  36.919  27.396  1.00  0.00    -0.237 OA
ATOM    101  O   UNL A   1      48.183  35.274  25.572  1.00  0.00    -0.744 OA
ENDBRANCH  95  98
ENDBRANCH  68  91
ENDBRANCH  42  43
ENDBRANCH  34  37
ENDBRANCH  32  33
ENDBRANCH   1  32
TORSDOF 18
ENDMDL
MODEL 2
REMARK VINA RESULT:     -13.1      5.790     11.770
REMARK SMILES N#CC1=C(N)N2C(=O)[C@@H](CC(=O)NCCCNC(=O)c3ccc(-c4c5nc(c(-c6cccc(S(=O)(=O)[O-])c6F)c6ccc([nH]6)c(-c6cccc(S(=O)(=O)[O-])c6F)c6nc(c(-c7cccc(S(=O)(=O)[O-])c7F)c7ccc4[nH]7)C=C6)C=C5)cc3)SC2=C(C#N)[C@H]1c1ccc(Cl)cc1
REMARK SMILES IDX 15 1 14 2 13 3 11 4 12 5 10 7 9 8 3 9 4 10 88 11 6 12 85 13
REMARK SMILES IDX 7 14 84 15 8 16 83 17 2 18 1 19 5 20 89 23 90 24 95 25 91 26
REMARK SMILES IDX 94 27 92 28 93 29 86 30 87 31 16 32 17 33 18 34 19 36 20 37
REMARK SMILES IDX 21 38 82 39 22 40 81 41 23 42 24 43 25 44 75 45 26 46 80 47
REMARK SMILES IDX 74 48 76 49 27 50 79 51 73 52 72 53 28 55 60 56 40 57 59 58
REMARK SMILES IDX 41 59 44 60 58 61 77 62 42 63 43 64 57 66 78 67 45 68 29 69
REMARK SMILES IDX 30 70 38 71 31 72 33 73 39 74 32 75 34 76 35 77 36 78 37 79
REMARK SMILES IDX 61 80 62 81 70 82 63 83 65 84 71 85 64 86 66 87 67 88 68 89
REMARK SMILES IDX 69 90 46 91 47 92 55 93 48 94 50 95 56 96 49 97 51 98 52 99
REMARK SMILES IDX 53 100 54 101
REMARK H PARENT 13 6 5 21 5 22 17 35 76 54 44 65
REMARK Flexibility Score: inf
ROOT
ATOM      1  C   UNL A   1      31.394  32.269  26.771  1.00  0.00     0.042 C 
ENDROOT
BRANCH   1   2
ATOM      2  C   UNL A   1      31.391  30.755  26.547  1.00  0.00     0.117 C 
BRANCH   2   3
ATOM      3  N   UNL A   1      31.935  30.331  25.267  1.00  0.00    -0.356 N 
ATOM      4  C   UNL A   1      32.110  29.086  24.755  1.00  0.00     0.221 C 
ATOM      5  O   UNL A   1      32.573  28.956  23.621  1.00  0.00    -0.275 OA
ATOM      6  H   UNL A   1      32.224  31.065  24.677  1.00  0.00     0.163 HD
BRANCH   4   7
ATOM      7  C   UNL A   1      31.729  27.874  25.567  1.00  0.00     0.125 C 
BRANCH   7   8
ATOM      8  C   UNL A   1      30.613  27.036  24.948  1.00  0.00     0.152 C 
ATOM      9  C   UNL A   1      31.911  22.527  24.551  1.00  0.00     0.083 C 
ATOM     10  C   UNL A   1      31.085  23.349  25.219  1.00  0.00     0.126 C 
ATOM     11  C   UNL A   1      32.868  23.007  23.472  1.00  0.00     0.107 C 
ATOM     12  N   UNL A   1      31.054  24.685  24.835  1.00  0.00    -0.258 N 
ATOM     13  C   UNL A   1      32.335  24.279  22.848  1.00  0.00     0.073 C 
ATOM     14  C   UNL A   1      30.450  25.671  25.597  1.00  0.00     0.247 C 
ATOM     15  C   UNL A   1      31.538  25.059  23.596  1.00  0.00     0.099 C 
ATOM     16  O   UNL A   1      29.920  25.490  26.689  1.00  0.00    -0.273 OA
ATOM     17  S   UNL A   1      31.030  26.666  23.195  1.00  0.00    -0.093 SA
BRANCH   9  18
ATOM     18  C   UNL A   1      31.916  21.035  24.845  1.00  0.00     0.100 C 
ATOM     19  N   UNL A   1      31.920  19.798  25.090  1.00  0.00    -0.193 NA
ENDBRANCH   9  18
BRANCH  10  20
ATOM     20  N   UNL A   1      30.293  22.902  26.241  1.00  0.00    -0.384 N 
ATOM     21  H   UNL A   1      29.318  23.026  26.198  1.00  0.00     0.158 HD
ATOM     22  H   UNL A   1      30.700  22.456  27.018  1.00  0.00     0.158 HD
ENDBRANCH  10  20
BRANCH  11  23
ATOM     23  C   UNL A   1      34.307  23.166  24.027  1.00  0.00    -0.034 A 
ATOM     24  C   UNL A   1      35.458  22.942  23.241  1.00  0.00     0.006 A 
ATOM     25  C   UNL A   1      34.507  23.575  25.360  1.00  0.00     0.006 A 
ATOM     26  C   UNL A   1      36.744  23.120  23.763  1.00  0.00     0.021 A 
ATOM     27  C   UNL A   1      35.794  23.780  25.873  1.00  0.00     0.021 A 
ATOM     28  C   UNL A   1      36.908  23.546  25.074  1.00  0.00     0.041 A 
ATOM     29  Cl  UNL A   1      38.489  23.781  25.707  1.00  0.00    -0.084 Cl
ENDBRANCH  11  23
BRANCH  13  30
ATOM     30  C   UNL A   1      32.791  24.646  21.550  1.00  0.00     0.098 C 
ATOM     31  N   UNL A   1      33.195  24.918  20.496  1.00  0.00    -0.193 NA
ENDBRANCH  13  30
ENDBRANCH   7   8
ENDBRANCH   4   7
ENDBRANCH   2   3
ENDBRANCH   1   2
BRANCH   1  32
ATOM     32  C   UNL A   1      32.731  32.825  27.251  1.00  0.00     0.118 C 
BRANCH  32  33
ATOM     33  N   UNL A   1      32.594  34.232  27.601  1.00  0.00    -0.352 N 
ATOM     34  C   UNL A   1      33.094  34.888  28.698  1.00  0.00     0.251 C 
ATOM     35  H   UNL A   1      32.074  34.783  26.972  1.00  0.00     0.163 HD
ATOM     36  O   UNL A   1      32.583  35.943  29.060  1.00  0.00    -0.269 OA
BRANCH  34  37
ATOM     37  C   UNL A   1      34.247  34.323  29.434  1.00  0.00     0.039 A 
ATOM     38  C   UNL A   1      34.018  33.601  30.607  1.00  0.00     0.014 A 
ATOM     39  C   UNL A   1      35.555  34.539  28.988  1.00  0.00     0.014 A 
ATOM     40  C   UNL A   1      35.099  33.062  31.309  1.00  0.00     0.010 A 
ATOM     41  C   UNL A   1      36.624  33.937  29.647  1.00  0.00     0.010 A 
ATOM     42  C   UNL A   1      36.410  33.199  30.821  1.00  0.00    -0.014 A 
BRANCH  42  43
ATOM     43  C   UNL A   1      37.561  32.572  31.522  1.00  0.00     0.031 A 
ATOM     44  C   UNL A   1      38.294  31.412  30.899  1.00  0.00     0.074 A 
ATOM     45  C   UNL A   1      37.911  33.008  32.749  1.00  0.00     0.049 A 
ATOM     46  N   UNL A   1      39.283  30.707  31.383  1.00  0.00    -0.248 NA
ATOM     47  C   UNL A   1      37.847  30.975  29.565  1.00  0.00     0.031 C 
ATOM     48  C   UNL A   1      37.245  34.085  33.485  1.00  0.00     0.029 A 
ATOM     49  N   UNL A   1      38.898  32.584  33.605  1.00  0.00    -0.354 N 
ATOM     50  C   UNL A   1      39.565  29.736  30.429  1.00  0.00     0.074 A 
ATOM     51  C   UNL A   1      38.610  29.913  29.356  1.00  0.00     0.031 C 
ATOM     52  C   UNL A   1      37.848  34.244  34.673  1.00  0.00     0.029 A 
ATOM     53  C   UNL A   1      38.909  33.252  34.808  1.00  0.00     0.049 A 
ATOM     54  H   UNL A   1      39.537  31.871  33.378  1.00  0.00     0.167 HD
ATOM     55  C   UNL A   1      40.545  28.801  30.428  1.00  0.00     0.034 A 
ATOM     56  C   UNL A   1      39.670  33.071  35.904  1.00  0.00     0.034 A 
ATOM     57  C   UNL A   1      41.498  28.633  31.492  1.00  0.00     0.049 A 
ATOM     58  C   UNL A   1      40.732  32.003  35.887  1.00  0.00     0.074 A 
ATOM     59  C   UNL A   1      42.557  27.745  31.565  1.00  0.00     0.029 A 
ATOM     60  N   UNL A   1      41.502  29.354  32.675  1.00  0.00    -0.354 N 
ATOM     61  N   UNL A   1      41.062  31.179  34.922  1.00  0.00    -0.248 NA
ATOM     62  C   UNL A   1      41.548  31.859  37.102  1.00  0.00     0.031 C 
ATOM     63  C   UNL A   1      43.175  27.900  32.809  1.00  0.00     0.029 A 
ATOM     64  C   UNL A   1      42.536  28.925  33.489  1.00  0.00     0.049 A 
ATOM     65  H   UNL A   1      40.863  30.068  32.903  1.00  0.00     0.167 HD
ATOM     66  C   UNL A   1      42.152  30.456  35.395  1.00  0.00     0.074 A 
ATOM     67  C   UNL A   1      42.439  30.953  36.724  1.00  0.00     0.031 C 
ATOM     68  C   UNL A   1      42.846  29.464  34.787  1.00  0.00     0.034 A 
BRANCH  55  69
ATOM     69  C   UNL A   1      40.665  27.908  29.218  1.00  0.00     0.023 A 
ATOM     70  C   UNL A   1      39.841  26.769  29.110  1.00  0.00     0.012 A 
ATOM     71  C   UNL A   1      41.538  28.231  28.160  1.00  0.00     0.148 A 
ATOM     72  C   UNL A   1      39.911  25.943  27.988  1.00  0.00     0.002 A 
ATOM     73  C   UNL A   1      41.566  27.431  27.024  1.00  0.00     0.091 A 
ATOM     74  F   UNL A   1      42.321  29.311  28.285  1.00  0.00    -0.205 F 
ATOM     75  C   UNL A   1      40.765  26.281  26.942  1.00  0.00     0.022 A 
BRANCH  73  76
ATOM     76  S   UNL A   1      42.570  27.818  25.586  1.00  0.00     0.127 S 
ATOM     77  O   UNL A   1      42.322  26.658  24.732  1.00  0.00    -0.237 OA
ATOM     78  O   UNL A   1      41.962  29.063  25.115  1.00  0.00    -0.237 OA
ATOM     79  O   UNL A   1      43.937  27.950  26.070  1.00  0.00    -0.744 OA
ENDBRANCH  73  76
ENDBRANCH  55  69
BRANCH  56  80
ATOM     80  C   UNL A   1      39.481  33.929  37.110  1.00  0.00     0.023 A 
ATOM     81  C   UNL A   1      39.996  35.240  37.122  1.00  0.00     0.012 A 
ATOM     82  C   UNL A   1      38.820  33.443  38.254  1.00  0.00     0.148 A 
ATOM     83  C   UNL A   1      39.906  36.030  38.269  1.00  0.00     0.002 A 
ATOM     84  C   UNL A   1      38.679  34.256  39.371  1.00  0.00     0.091 A 
ATOM     85  F   UNL A   1      38.341  32.191  38.227  1.00  0.00    -0.205 F 
ATOM     86  C   UNL A   1      39.243  35.541  39.390  1.00  0.00     0.022 A 
BRANCH  84  87
ATOM     87  S   UNL A   1      37.731  33.757  40.811  1.00  0.00     0.127 S 
ATOM     88  O   UNL A   1      36.560  33.136  40.199  1.00  0.00    -0.237 OA
ATOM     89  O   UNL A   1      38.650  32.828  41.469  1.00  0.00    -0.237 OA
ATOM     90  O   UNL A   1      37.477  34.980  41.561  1.00  0.00    -0.744 OA
ENDBRANCH  84  87
ENDBRANCH  56  80
BRANCH  68  91
ATOM     91  C   UNL A   1      44.030  28.887  35.520  1.00  0.00     0.023 A 
ATOM     92  C   UNL A   1      45.317  29.434  35.339  1.00  0.00     0.012 A 
ATOM     93  C   UNL A   1      43.850  27.836  36.441  1.00  0.00     0.148 A 
ATOM     94  C   UNL A   1      46.410  28.917  36.035  1.00  0.00     0.002 A 
ATOM     95  C   UNL A   1      44.932  27.366  37.173  1.00  0.00     0.091 A 
ATOM     96  F   UNL A   1      42.621  27.320  36.589  1.00  0.00    -0.205 F 
ATOM     97  C   UNL A   1      46.216  27.893  36.959  1.00  0.00     0.022 A 
BRANCH  95  98
ATOM     98  S   UNL A   1      44.764  26.120  38.456  1.00  0.00     0.127 S 
ATOM     99  O   UNL A   1      44.196  24.999  37.708  1.00  0.00    -0.237 OA
ATOM    100  O   UNL A   1      46.150  25.930  38.882  1.00  0.00    -0.237 OA
ATOM    101  O   UNL A   1      43.889  26.696  39.468  1.00  0.00    -0.744 OA
ENDBRANCH  95  98
ENDBRANCH  68  91
ENDBRANCH  42  43
ENDBRANCH  34  37
ENDBRANCH  32  33
ENDBRANCH   1  32
TORSDOF 18
ENDMDL
MODEL 3
REMARK VINA RESULT:     -12.9      5.461      8.789
REMARK SMILES N#CC1=C(N)N2C(=O)[C@@H](CC(=O)NCCCNC(=O)c3ccc(-c4c5nc(c(-c6cccc(S(=O)(=O)[O-])c6F)c6ccc([nH]6)c(-c6cccc(S(=O)(=O)[O-])c6F)c6nc(c(-c7cccc(S(=O)(=O)[O-])c7F)c7ccc4[nH]7)C=C6)C=C5)cc3)SC2=C(C#N)[C@H]1c1ccc(Cl)cc1
REMARK SMILES IDX 15 1 14 2 13 3 11 4 12 5 10 7 9 8 3 9 4 10 88 11 6 12 85 13
REMARK SMILES IDX 7 14 84 15 8 16 83 17 2 18 1 19 5 20 89 23 90 24 95 25 91 26
REMARK SMILES IDX 94 27 92 28 93 29 86 30 87 31 16 32 17 33 18 34 19 36 20 37
REMARK SMILES IDX 21 38 82 39 22 40 81 41 23 42 24 43 25 44 75 45 26 46 80 47
REMARK SMILES IDX 74 48 76 49 27 50 79 51 73 52 72 53 28 55 60 56 40 57 59 58
REMARK SMILES IDX 41 59 44 60 58 61 77 62 42 63 43 64 57 66 78 67 45 68 29 69
REMARK SMILES IDX 30 70 38 71 31 72 33 73 39 74 32 75 34 76 35 77 36 78 37 79
REMARK SMILES IDX 61 80 62 81 70 82 63 83 65 84 71 85 64 86 66 87 67 88 68 89
REMARK SMILES IDX 69 90 46 91 47 92 55 93 48 94 50 95 56 96 49 97 51 98 52 99
REMARK SMILES IDX 53 100 54 101
REMARK H PARENT 13 6 5 21 5 22 17 35 76 54 44 65
REMARK Flexibility Score: inf
ROOT
ATOM      1  C   UNL A   1      34.668  28.834  26.279  1.00  0.00     0.042 C 
ENDROOT
BRANCH   1   2
ATOM      2  C   UNL A   1      34.026  28.366  24.971  1.00  0.00     0.117 C 
BRANCH   2   3
ATOM      3  N   UNL A   1      32.818  29.084  24.599  1.00  0.00    -0.356 N 
ATOM      4  C   UNL A   1      31.516  28.813  24.870  1.00  0.00     0.221 C 
ATOM      5  O   UNL A   1      30.641  29.583  24.472  1.00  0.00    -0.275 OA
ATOM      6  H   UNL A   1      32.968  29.896  24.064  1.00  0.00     0.163 HD
BRANCH   4   7
ATOM      7  C   UNL A   1      31.148  27.585  25.664  1.00  0.00     0.125 C 
BRANCH   7   8
ATOM      8  C   UNL A   1      30.180  26.648  24.947  1.00  0.00     0.152 C 
ATOM      9  C   UNL A   1      32.002  22.324  24.546  1.00  0.00     0.083 C 
ATOM     10  C   UNL A   1      31.044  23.030  25.170  1.00  0.00     0.126 C 
ATOM     11  C   UNL A   1      32.972  22.940  23.550  1.00  0.00     0.107 C 
ATOM     12  N   UNL A   1      30.889  24.365  24.815  1.00  0.00    -0.258 N 
ATOM     13  C   UNL A   1      32.343  24.163  22.917  1.00  0.00     0.073 C 
ATOM     14  C   UNL A   1      30.127  25.254  25.552  1.00  0.00     0.247 C 
ATOM     15  C   UNL A   1      31.413  24.827  23.623  1.00  0.00     0.099 C 
ATOM     16  O   UNL A   1      29.546  24.982  26.599  1.00  0.00    -0.273 OA
ATOM     17  S   UNL A   1      30.757  26.379  23.222  1.00  0.00    -0.093 SA
BRANCH   9  18
ATOM     18  C   UNL A   1      32.156  20.834  24.807  1.00  0.00     0.100 C 
ATOM     19  N   UNL A   1      32.283  19.599  25.024  1.00  0.00    -0.193 NA
ENDBRANCH   9  18
BRANCH  10  20
ATOM     20  N   UNL A   1      30.240  22.467  26.122  1.00  0.00    -0.384 N 
ATOM     21  H   UNL A   1      30.029  22.964  26.945  1.00  0.00     0.158 HD
ATOM     22  H   UNL A   1      29.871  21.565  25.984  1.00  0.00     0.158 HD
ENDBRANCH  10  20
BRANCH  11  23
ATOM     23  C   UNL A   1      34.341  23.241  24.211  1.00  0.00    -0.034 A 
ATOM     24  C   UNL A   1      34.460  23.815  25.496  1.00  0.00     0.006 A 
ATOM     25  C   UNL A   1      35.535  22.914  23.540  1.00  0.00     0.006 A 
ATOM     26  C   UNL A   1      35.710  24.050  26.078  1.00  0.00     0.021 A 
ATOM     27  C   UNL A   1      36.786  23.123  24.135  1.00  0.00     0.021 A 
ATOM     28  C   UNL A   1      36.869  23.695  25.399  1.00  0.00     0.041 A 
ATOM     29  Cl  UNL A   1      38.404  23.968  26.125  1.00  0.00    -0.084 Cl
ENDBRANCH  11  23
BRANCH  13  30
ATOM     30  C   UNL A   1      32.844  24.617  21.664  1.00  0.00     0.098 C 
ATOM     31  N   UNL A   1      33.277  25.014  20.663  1.00  0.00    -0.193 NA
ENDBRANCH  13  30
ENDBRANCH   7   8
ENDBRANCH   4   7
ENDBRANCH   2   3
ENDBRANCH   1   2
BRANCH   1  32
ATOM     32  C   UNL A   1      33.671  29.345  27.314  1.00  0.00     0.118 C 
BRANCH  32  33
ATOM     33  N   UNL A   1      33.815  30.784  27.485  1.00  0.00    -0.352 N 
ATOM     34  C   UNL A   1      34.695  31.461  28.293  1.00  0.00     0.251 C 
ATOM     35  H   UNL A   1      33.203  31.343  26.954  1.00  0.00     0.163 HD
ATOM     36  O   UNL A   1      34.446  32.614  28.629  1.00  0.00    -0.269 OA
BRANCH  34  37
ATOM     37  C   UNL A   1      35.937  30.798  28.750  1.00  0.00     0.039 A 
ATOM     38  C   UNL A   1      37.147  31.120  28.131  1.00  0.00     0.014 A 
ATOM     39  C   UNL A   1      35.901  29.830  29.758  1.00  0.00     0.014 A 
ATOM     40  C   UNL A   1      38.326  30.501  28.555  1.00  0.00     0.010 A 
ATOM     41  C   UNL A   1      37.086  29.272  30.230  1.00  0.00     0.010 A 
ATOM     42  C   UNL A   1      38.312  29.592  29.627  1.00  0.00    -0.014 A 
BRANCH  42  43
ATOM     43  C   UNL A   1      39.569  28.980  30.132  1.00  0.00     0.031 A 
ATOM     44  C   UNL A   1      40.262  29.547  31.343  1.00  0.00     0.074 A 
ATOM     45  C   UNL A   1      40.120  27.946  29.464  1.00  0.00     0.049 A 
ATOM     46  N   UNL A   1      41.390  29.180  31.895  1.00  0.00    -0.248 NA
ATOM     47  C   UNL A   1      39.615  30.688  32.012  1.00  0.00     0.031 C 
ATOM     48  C   UNL A   1      39.577  27.341  28.245  1.00  0.00     0.029 A 
ATOM     49  N   UNL A   1      41.271  27.236  29.700  1.00  0.00    -0.354 N 
ATOM     50  C   UNL A   1      41.596  30.049  32.959  1.00  0.00     0.074 A 
ATOM     51  C   UNL A   1      40.501  30.994  32.948  1.00  0.00     0.031 C 
ATOM     52  C   UNL A   1      40.386  26.347  27.849  1.00  0.00     0.029 A 
ATOM     53  C   UNL A   1      41.530  26.273  28.752  1.00  0.00     0.049 A 
ATOM     54  H   UNL A   1      41.855  27.399  30.476  1.00  0.00     0.167 HD
ATOM     55  C   UNL A   1      42.590  30.046  33.881  1.00  0.00     0.034 A 
ATOM     56  C   UNL A   1      42.580  25.441  28.611  1.00  0.00     0.034 A 
ATOM     57  C   UNL A   1      43.673  29.101  33.895  1.00  0.00     0.049 A 
ATOM     58  C   UNL A   1      43.686  25.481  29.632  1.00  0.00     0.074 A 
ATOM     59  C   UNL A   1      44.703  28.987  34.811  1.00  0.00     0.029 A 
ATOM     60  N   UNL A   1      43.879  28.117  32.940  1.00  0.00    -0.354 N 
ATOM     61  N   UNL A   1      43.796  26.230  30.703  1.00  0.00    -0.248 NA
ATOM     62  C   UNL A   1      44.799  24.540  29.444  1.00  0.00     0.031 C 
ATOM     63  C   UNL A   1      45.554  27.961  34.390  1.00  0.00     0.029 A 
ATOM     64  C   UNL A   1      45.024  27.399  33.240  1.00  0.00     0.049 A 
ATOM     65  H   UNL A   1      43.296  27.951  32.165  1.00  0.00     0.167 HD
ATOM     66  C   UNL A   1      44.962  25.816  31.338  1.00  0.00     0.074 A 
ATOM     67  C   UNL A   1      45.511  24.738  30.544  1.00  0.00     0.031 C 
ATOM     68  C   UNL A   1      45.532  26.293  32.472  1.00  0.00     0.034 A 
BRANCH  55  69
ATOM     69  C   UNL A   1      42.531  31.077  34.981  1.00  0.00     0.023 A 
ATOM     70  C   UNL A   1      41.942  30.742  36.218  1.00  0.00     0.012 A 
ATOM     71  C   UNL A   1      43.116  32.349  34.817  1.00  0.00     0.148 A 
ATOM     72  C   UNL A   1      41.901  31.667  37.261  1.00  0.00     0.002 A 
ATOM     73  C   UNL A   1      43.115  33.247  35.877  1.00  0.00     0.091 A 
ATOM     74  F   UNL A   1      43.660  32.654  33.632  1.00  0.00    -0.205 F 
ATOM     75  C   UNL A   1      42.497  32.913  37.094  1.00  0.00     0.022 A 
BRANCH  73  76
ATOM     76  S   UNL A   1      43.923  34.849  35.797  1.00  0.00     0.127 S 
ATOM     77  O   UNL A   1      45.303  34.470  35.501  1.00  0.00    -0.237 OA
ATOM     78  O   UNL A   1      43.215  35.491  34.688  1.00  0.00    -0.237 OA
ATOM     79  O   UNL A   1      43.715  35.473  37.096  1.00  0.00    -0.744 OA
ENDBRANCH  73  76
ENDBRANCH  55  69
BRANCH  56  80
ATOM     80  C   UNL A   1      42.638  24.478  27.473  1.00  0.00     0.023 A 
ATOM     81  C   UNL A   1      43.231  24.870  26.256  1.00  0.00     0.012 A 
ATOM     82  C   UNL A   1      42.084  23.188  27.580  1.00  0.00     0.148 A 
ATOM     83  C   UNL A   1      43.220  24.017  25.152  1.00  0.00     0.002 A 
ATOM     84  C   UNL A   1      42.131  22.321  26.496  1.00  0.00     0.091 A 
ATOM     85  F   UNL A   1      41.519  22.834  28.743  1.00  0.00    -0.205 F 
ATOM     86  C   UNL A   1      42.676  22.742  25.273  1.00  0.00     0.022 A 
BRANCH  84  87
ATOM     87  S   UNL A   1      41.572  20.618  26.601  1.00  0.00     0.127 S 
ATOM     88  O   UNL A   1      40.121  20.780  26.598  1.00  0.00    -0.237 OA
ATOM     89  O   UNL A   1      42.132  20.042  25.378  1.00  0.00    -0.237 OA
ATOM     90  O   UNL A   1      42.146  20.088  27.831  1.00  0.00    -0.744 OA
ENDBRANCH  84  87
ENDBRANCH  56  80
BRANCH  68  91
ATOM     91  C   UNL A   1      46.782  25.612  32.967  1.00  0.00     0.023 A 
ATOM     92  C   UNL A   1      48.053  26.097  32.598  1.00  0.00     0.012 A 
ATOM     93  C   UNL A   1      46.690  24.521  33.856  1.00  0.00     0.148 A 
ATOM     94  C   UNL A   1      49.211  25.482  33.075  1.00  0.00     0.002 A 
ATOM     95  C   UNL A   1      47.847  23.952  34.372  1.00  0.00     0.091 A 
ATOM     96  F   UNL A   1      45.472  24.066  34.184  1.00  0.00    -0.205 F 
ATOM     97  C   UNL A   1      49.108  24.420  33.970  1.00  0.00     0.022 A 
BRANCH  95  98
ATOM     98  S   UNL A   1      47.814  22.647  35.605  1.00  0.00     0.127 S 
ATOM     99  O   UNL A   1      47.140  23.309  36.721  1.00  0.00    -0.237 OA
ATOM    100  O   UNL A   1      47.021  21.615  34.937  1.00  0.00    -0.237 OA
ATOM    101  O   UNL A   1      49.204  22.284  35.849  1.00  0.00    -0.744 OA
ENDBRANCH  95  98
ENDBRANCH  68  91
ENDBRANCH  42  43
ENDBRANCH  34  37
ENDBRANCH  32  33
ENDBRANCH   1  32
TORSDOF 18
ENDMDL
