MODEL 1
REMARK VINA RESULT:     -13.3      0.000      0.000
REMARK SMILES CC(=O)N1CC2(CC[NH+](C3Cc4ccccc4C3)CC2)C[C@H]1C(=O)NCCCNC(=O)c1ccc(-c2c3nc(c(-c4cccc(S(=O)(=O)[O-])c4F)c4ccc([nH]4)c(-c4cccc(S(=O)(=O)[O-])c4F)c4nc(c(-c5cccc(S(=O)(=O)[O-])c5F)c5ccc2[nH]5)C=C4)C=C3)cc1
REMARK SMILES IDX 28 1 27 2 26 3 25 4 23 5 24 6 22 8 4 9 5 10 6 11 21 12 7 13
REMARK SMILES IDX 20 14 8 15 19 16 9 17 2 19 1 20 3 21 10 22 11 23 18 24 12 25
REMARK SMILES IDX 17 26 13 27 16 28 14 29 15 30 29 31 30 32 31 34 32 35 33 36
REMARK SMILES IDX 94 37 34 38 93 39 35 40 36 41 37 42 87 43 38 44 92 45 86 46
REMARK SMILES IDX 88 47 39 48 91 49 85 50 84 51 40 53 72 54 52 55 71 56 53 57
REMARK SMILES IDX 56 58 70 59 89 60 54 61 55 62 69 64 90 65 57 66 41 67 42 68
REMARK SMILES IDX 50 69 43 70 45 71 51 72 44 73 46 74 47 75 48 76 49 77 73 78
REMARK SMILES IDX 74 79 82 80 75 81 77 82 83 83 76 84 78 85 79 86 80 87 81 88
REMARK SMILES IDX 58 89 59 90 67 91 60 92 62 93 68 94 61 95 63 96 64 97 65 98
REMARK SMILES IDX 66 99
REMARK H PARENT 25 7 9 18 29 33 88 52 56 63
REMARK Flexibility Score: inf
ROOT
ATOM      1  C   UNL A   1      33.426  28.849  26.964  1.00  0.00     0.118 C 
ENDROOT
BRANCH   1   2
ATOM      2  C   UNL A   1      32.136  28.156  27.367  1.00  0.00     0.042 C 
BRANCH   2   3
ATOM      3  C   UNL A   1      31.686  27.119  26.356  1.00  0.00     0.117 C 
BRANCH   3   4
ATOM      4  N   UNL A   1      30.845  27.591  25.295  1.00  0.00    -0.354 N 
ATOM      5  C   UNL A   1      30.721  27.006  24.061  1.00  0.00     0.242 C 
ATOM      6  O   UNL A   1      29.580  26.989  23.581  1.00  0.00    -0.273 OA
ATOM      7  H   UNL A   1      30.316  28.401  25.466  1.00  0.00     0.163 HD
BRANCH   5   8
ATOM      8  C   UNL A   1      31.887  26.237  23.358  1.00  0.00     0.175 C 
ATOM      9  N   UNL A   1      33.227  26.789  23.484  1.00  0.00    -0.330 N 
ATOM     10  C   UNL A   1      34.124  25.948  24.264  1.00  0.00     0.127 C 
ATOM     11  C   UNL A   1      33.491  24.538  24.286  1.00  0.00     0.001 C 
ATOM     12  C   UNL A   1      32.045  24.755  23.721  1.00  0.00     0.044 C 
ATOM     13  C   UNL A   1      33.423  23.917  25.710  1.00  0.00     0.070 C 
ATOM     14  C   UNL A   1      34.332  23.618  23.350  1.00  0.00     0.070 C 
ATOM     15  C   UNL A   1      34.763  23.431  26.228  1.00  0.00     0.263 C 
ATOM     16  C   UNL A   1      35.564  22.979  24.029  1.00  0.00     0.263 C 
ATOM     17  N   UNL A   1      35.334  22.412  25.363  1.00  0.00    -0.332 N 
ATOM     18  H   UNL A   1      36.240  22.163  25.762  1.00  0.00     0.348 HD
BRANCH   9  19
ATOM     19  C   UNL A   1      33.563  27.879  22.706  1.00  0.00     0.220 C 
ATOM     20  C   UNL A   1      33.385  29.241  23.318  1.00  0.00     0.114 C 
ATOM     21  O   UNL A   1      34.071  27.756  21.591  1.00  0.00    -0.275 OA
ENDBRANCH   9  19
BRANCH  17  22
ATOM     22  C   UNL A   1      34.711  21.067  25.401  1.00  0.00     0.192 C 
ATOM     23  C   UNL A   1      33.416  20.850  24.548  1.00  0.00     0.101 C 
ATOM     24  C   UNL A   1      35.608  19.823  25.148  1.00  0.00     0.101 C 
ATOM     25  C   UNL A   1      33.449  19.385  24.231  1.00  0.00    -0.039 A 
ATOM     26  C   UNL A   1      34.677  18.818  24.558  1.00  0.00    -0.039 A 
ATOM     27  C   UNL A   1      32.482  18.640  23.571  1.00  0.00     0.004 A 
ATOM     28  C   UNL A   1      34.982  17.508  24.224  1.00  0.00     0.004 A 
ATOM     29  C   UNL A   1      32.775  17.315  23.237  1.00  0.00     0.000 A 
ATOM     30  C   UNL A   1      34.019  16.753  23.557  1.00  0.00     0.000 A 
ENDBRANCH  17  22
ENDBRANCH   5   8
ENDBRANCH   3   4
ENDBRANCH   2   3
ENDBRANCH   1   2
BRANCH   1  31
ATOM     31  N   UNL A   1      33.503  30.237  27.425  1.00  0.00    -0.352 N 
ATOM     32  C   UNL A   1      34.495  30.893  28.124  1.00  0.00     0.251 C 
ATOM     33  H   UNL A   1      32.721  30.791  27.199  1.00  0.00     0.163 HD
ATOM     34  O   UNL A   1      34.311  32.040  28.499  1.00  0.00    -0.269 OA
BRANCH  32  35
ATOM     35  C   UNL A   1      35.760  30.192  28.450  1.00  0.00     0.039 A 
ATOM     36  C   UNL A   1      36.823  30.247  27.543  1.00  0.00     0.014 A 
ATOM     37  C   UNL A   1      35.910  29.512  29.657  1.00  0.00     0.014 A 
ATOM     38  C   UNL A   1      38.061  29.699  27.895  1.00  0.00     0.010 A 
ATOM     39  C   UNL A   1      37.168  29.081  30.054  1.00  0.00     0.010 A 
ATOM     40  C   UNL A   1      38.256  29.157  29.174  1.00  0.00    -0.014 A 
BRANCH  40  41
ATOM     41  C   UNL A   1      39.577  28.649  29.626  1.00  0.00     0.031 A 
ATOM     42  C   UNL A   1      40.329  29.385  30.705  1.00  0.00     0.074 A 
ATOM     43  C   UNL A   1      40.150  27.607  28.990  1.00  0.00     0.049 A 
ATOM     44  N   UNL A   1      41.542  29.188  31.148  1.00  0.00    -0.248 NA
ATOM     45  C   UNL A   1      39.640  30.523  31.341  1.00  0.00     0.031 C 
ATOM     46  C   UNL A   1      39.562  26.869  27.868  1.00  0.00     0.029 A 
ATOM     47  N   UNL A   1      41.369  27.006  29.175  1.00  0.00    -0.354 N 
ATOM     48  C   UNL A   1      41.776  30.197  32.075  1.00  0.00     0.074 A 
ATOM     49  C   UNL A   1      40.601  31.038  32.094  1.00  0.00     0.031 C 
ATOM     50  C   UNL A   1      40.418  25.912  27.473  1.00  0.00     0.029 A 
ATOM     51  C   UNL A   1      41.625  25.987  28.287  1.00  0.00     0.049 A 
ATOM     52  H   UNL A   1      42.002  27.280  29.878  1.00  0.00     0.167 HD
ATOM     53  C   UNL A   1      42.853  30.385  32.875  1.00  0.00     0.034 A 
ATOM     54  C   UNL A   1      42.714  25.206  28.143  1.00  0.00     0.034 A 
ATOM     55  C   UNL A   1      43.990  29.508  32.901  1.00  0.00     0.049 A 
ATOM     56  C   UNL A   1      43.873  25.398  29.085  1.00  0.00     0.074 A 
ATOM     57  C   UNL A   1      45.098  29.558  33.727  1.00  0.00     0.029 A 
ATOM     58  N   UNL A   1      44.161  28.416  32.064  1.00  0.00    -0.354 N 
ATOM     59  N   UNL A   1      44.012  26.268  30.057  1.00  0.00    -0.248 NA
ATOM     60  C   UNL A   1      45.011  24.479  28.935  1.00  0.00     0.031 C 
ATOM     61  C   UNL A   1      45.943  28.497  33.385  1.00  0.00     0.029 A 
ATOM     62  C   UNL A   1      45.352  27.778  32.359  1.00  0.00     0.049 A 
ATOM     63  H   UNL A   1      43.527  28.135  31.365  1.00  0.00     0.167 HD
ATOM     64  C   UNL A   1      45.230  25.975  30.659  1.00  0.00     0.074 A 
ATOM     65  C   UNL A   1      45.779  24.835  29.956  1.00  0.00     0.031 C 
ATOM     66  C   UNL A   1      45.848  26.604  31.689  1.00  0.00     0.034 A 
BRANCH  53  67
ATOM     67  C   UNL A   1      42.809  31.537  33.844  1.00  0.00     0.023 A 
ATOM     68  C   UNL A   1      43.333  32.788  33.454  1.00  0.00     0.012 A 
ATOM     69  C   UNL A   1      42.215  31.405  35.115  1.00  0.00     0.148 A 
ATOM     70  C   UNL A   1      43.304  33.877  34.325  1.00  0.00     0.002 A 
ATOM     71  C   UNL A   1      42.148  32.508  35.960  1.00  0.00     0.091 A 
ATOM     72  F   UNL A   1      41.740  30.205  35.478  1.00  0.00    -0.205 F 
ATOM     73  C   UNL A   1      42.703  33.739  35.571  1.00  0.00     0.022 A 
BRANCH  71  74
ATOM     74  S   UNL A   1      41.323  32.460  37.555  1.00  0.00     0.127 S 
ATOM     75  O   UNL A   1      42.174  31.530  38.297  1.00  0.00    -0.237 OA
ATOM     76  O   UNL A   1      41.418  33.854  37.992  1.00  0.00    -0.237 OA
ATOM     77  O   UNL A   1      39.969  31.995  37.294  1.00  0.00    -0.744 OA
ENDBRANCH  71  74
ENDBRANCH  53  67
BRANCH  54  78
ATOM     78  C   UNL A   1      42.732  24.121  27.120  1.00  0.00     0.023 A 
ATOM     79  C   UNL A   1      43.395  24.339  25.896  1.00  0.00     0.012 A 
ATOM     80  C   UNL A   1      42.117  22.876  27.351  1.00  0.00     0.148 A 
ATOM     81  C   UNL A   1      43.410  23.355  24.907  1.00  0.00     0.002 A 
ATOM     82  C   UNL A   1      42.184  21.878  26.384  1.00  0.00     0.091 A 
ATOM     83  F   UNL A   1      41.480  22.687  28.516  1.00  0.00    -0.205 F 
ATOM     84  C   UNL A   1      42.812  22.123  25.154  1.00  0.00     0.022 A 
BRANCH  82  85
ATOM     85  S   UNL A   1      41.561  20.219  26.675  1.00  0.00     0.127 S 
ATOM     86  O   UNL A   1      40.134  20.463  26.866  1.00  0.00    -0.237 OA
ATOM     87  O   UNL A   1      41.908  19.537  25.428  1.00  0.00    -0.237 OA
ATOM     88  O   UNL A   1      42.286  19.732  27.841  1.00  0.00    -0.744 OA
ENDBRANCH  82  85
ENDBRANCH  54  78
BRANCH  66  89
ATOM     89  C   UNL A   1      47.168  26.049  32.152  1.00  0.00     0.023 A 
ATOM     90  C   UNL A   1      48.364  26.509  31.568  1.00  0.00     0.012 A 
ATOM     91  C   UNL A   1      47.225  25.134  33.221  1.00  0.00     0.148 A 
ATOM     92  C   UNL A   1      49.597  26.041  32.020  1.00  0.00     0.002 A 
ATOM     93  C   UNL A   1      48.458  24.710  33.699  1.00  0.00     0.091 A 
ATOM     94  F   UNL A   1      46.074  24.696  33.751  1.00  0.00    -0.205 F 
ATOM     95  C   UNL A   1      49.645  25.153  33.092  1.00  0.00     0.022 A 
BRANCH  93  96
ATOM     96  S   UNL A   1      48.619  23.645  35.136  1.00  0.00     0.127 S 
ATOM     97  O   UNL A   1      47.933  24.427  36.164  1.00  0.00    -0.237 OA
ATOM     98  O   UNL A   1      47.907  22.440  34.711  1.00  0.00    -0.237 OA
ATOM     99  O   UNL A   1      50.049  23.460  35.341  1.00  0.00    -0.744 OA
ENDBRANCH  93  96
ENDBRANCH  66  89
ENDBRANCH  40  41
ENDBRANCH  32  35
ENDBRANCH   1  31
TORSDOF 15
ENDMDL
MODEL 2
REMARK VINA RESULT:     -12.9      1.659      2.176
REMARK SMILES CC(=O)N1CC2(CC[NH+](C3Cc4ccccc4C3)CC2)C[C@H]1C(=O)NCCCNC(=O)c1ccc(-c2c3nc(c(-c4cccc(S(=O)(=O)[O-])c4F)c4ccc([nH]4)c(-c4cccc(S(=O)(=O)[O-])c4F)c4nc(c(-c5cccc(S(=O)(=O)[O-])c5F)c5ccc2[nH]5)C=C4)C=C3)cc1
REMARK SMILES IDX 28 1 27 2 26 3 25 4 23 5 24 6 22 8 4 9 5 10 6 11 21 12 7 13
REMARK SMILES IDX 20 14 8 15 19 16 9 17 2 19 1 20 3 21 10 22 11 23 18 24 12 25
REMARK SMILES IDX 17 26 13 27 16 28 14 29 15 30 29 31 30 32 31 34 32 35 33 36
REMARK SMILES IDX 94 37 34 38 93 39 35 40 36 41 37 42 87 43 38 44 92 45 86 46
REMARK SMILES IDX 88 47 39 48 91 49 85 50 84 51 40 53 72 54 52 55 71 56 53 57
REMARK SMILES IDX 56 58 70 59 89 60 54 61 55 62 69 64 90 65 57 66 41 67 42 68
REMARK SMILES IDX 50 69 43 70 45 71 51 72 44 73 46 74 47 75 48 76 49 77 73 78
REMARK SMILES IDX 74 79 82 80 75 81 77 82 83 83 76 84 78 85 79 86 80 87 81 88
REMARK SMILES IDX 58 89 59 90 67 91 60 92 62 93 68 94 61 95 63 96 64 97 65 98
REMARK SMILES IDX 66 99
REMARK H PARENT 25 7 9 18 29 33 88 52 56 63
REMARK Flexibility Score: inf
ROOT
ATOM      1  C   UNL A   1      32.927  29.531  26.206  1.00  0.00     0.118 C 
ENDROOT
BRANCH   1   2
ATOM      2  C   UNL A   1      31.972  28.562  26.880  1.00  0.00     0.042 C 
BRANCH   2   3
ATOM      3  C   UNL A   1      31.532  27.438  25.963  1.00  0.00     0.117 C 
BRANCH   3   4
ATOM      4  N   UNL A   1      30.739  27.818  24.831  1.00  0.00    -0.354 N 
ATOM      5  C   UNL A   1      30.691  27.149  23.635  1.00  0.00     0.242 C 
ATOM      6  O   UNL A   1      29.578  27.072  23.100  1.00  0.00    -0.273 OA
ATOM      7  H   UNL A   1      30.184  28.625  24.919  1.00  0.00     0.163 HD
BRANCH   5   8
ATOM      8  C   UNL A   1      31.908  26.362  23.046  1.00  0.00     0.175 C 
ATOM      9  N   UNL A   1      33.238  26.899  23.293  1.00  0.00    -0.330 N 
ATOM     10  C   UNL A   1      34.048  26.052  24.157  1.00  0.00     0.127 C 
ATOM     11  C   UNL A   1      33.399  24.650  24.126  1.00  0.00     0.001 C 
ATOM     12  C   UNL A   1      32.014  24.881  23.429  1.00  0.00     0.044 C 
ATOM     13  C   UNL A   1      33.191  24.037  25.541  1.00  0.00     0.070 C 
ATOM     14  C   UNL A   1      34.312  23.715  23.277  1.00  0.00     0.070 C 
ATOM     15  C   UNL A   1      34.471  23.539  26.183  1.00  0.00     0.263 C 
ATOM     16  C   UNL A   1      35.468  23.066  24.070  1.00  0.00     0.263 C 
ATOM     17  N   UNL A   1      35.108  22.509  25.380  1.00  0.00    -0.332 N 
ATOM     18  H   UNL A   1      35.970  22.252  25.862  1.00  0.00     0.348 HD
BRANCH   9  19
ATOM     19  C   UNL A   1      33.657  27.981  22.545  1.00  0.00     0.220 C 
ATOM     20  C   UNL A   1      33.780  29.302  23.254  1.00  0.00     0.114 C 
ATOM     21  O   UNL A   1      34.005  27.868  21.369  1.00  0.00    -0.275 OA
ENDBRANCH   9  19
BRANCH  17  22
ATOM     22  C   UNL A   1      34.468  21.171  25.366  1.00  0.00     0.192 C 
ATOM     23  C   UNL A   1      33.246  20.969  24.407  1.00  0.00     0.101 C 
ATOM     24  C   UNL A   1      35.368  19.916  25.189  1.00  0.00     0.101 C 
ATOM     25  C   UNL A   1      33.288  19.503  24.094  1.00  0.00    -0.039 A 
ATOM     26  C   UNL A   1      34.477  18.922  24.523  1.00  0.00    -0.039 A 
ATOM     27  C   UNL A   1      32.371  18.769  23.357  1.00  0.00     0.004 A 
ATOM     28  C   UNL A   1      34.794  17.608  24.216  1.00  0.00     0.004 A 
ATOM     29  C   UNL A   1      32.674  17.440  23.048  1.00  0.00     0.000 A 
ATOM     30  C   UNL A   1      33.881  16.864  23.471  1.00  0.00     0.000 A 
ENDBRANCH  17  22
ENDBRANCH   5   8
ENDBRANCH   3   4
ENDBRANCH   2   3
ENDBRANCH   1   2
BRANCH   1  31
ATOM     31  N   UNL A   1      32.779  30.910  26.679  1.00  0.00    -0.352 N 
ATOM     32  C   UNL A   1      33.597  31.669  27.489  1.00  0.00     0.251 C 
ATOM     33  H   UNL A   1      31.964  31.368  26.368  1.00  0.00     0.163 HD
ATOM     34  O   UNL A   1      33.231  32.778  27.846  1.00  0.00    -0.269 OA
BRANCH  32  35
ATOM     35  C   UNL A   1      34.894  31.123  27.954  1.00  0.00     0.039 A 
ATOM     36  C   UNL A   1      36.006  31.968  28.018  1.00  0.00     0.014 A 
ATOM     37  C   UNL A   1      35.008  29.794  28.357  1.00  0.00     0.014 A 
ATOM     38  C   UNL A   1      37.200  31.500  28.574  1.00  0.00     0.010 A 
ATOM     39  C   UNL A   1      36.150  29.370  29.020  1.00  0.00     0.010 A 
ATOM     40  C   UNL A   1      37.265  30.212  29.126  1.00  0.00    -0.014 A 
BRANCH  40  41
ATOM     41  C   UNL A   1      38.482  29.703  29.810  1.00  0.00     0.031 A 
ATOM     42  C   UNL A   1      38.877  30.273  31.148  1.00  0.00     0.074 A 
ATOM     43  C   UNL A   1      39.290  28.825  29.181  1.00  0.00     0.049 A 
ATOM     44  N   UNL A   1      39.962  30.065  31.847  1.00  0.00    -0.248 NA
ATOM     45  C   UNL A   1      37.948  31.239  31.763  1.00  0.00     0.031 C 
ATOM     46  C   UNL A   1      39.064  28.270  27.843  1.00  0.00     0.029 A 
ATOM     47  N   UNL A   1      40.481  28.268  29.571  1.00  0.00    -0.354 N 
ATOM     48  C   UNL A   1      39.867  30.902  32.952  1.00  0.00     0.074 A 
ATOM     49  C   UNL A   1      38.645  31.661  32.807  1.00  0.00     0.031 C 
ATOM     50  C   UNL A   1      40.078  27.447  27.530  1.00  0.00     0.029 A 
ATOM     51  C   UNL A   1      41.041  27.440  28.625  1.00  0.00     0.049 A 
ATOM     52  H   UNL A   1      40.897  28.444  30.445  1.00  0.00     0.167 HD
ATOM     53  C   UNL A   1      40.696  31.001  34.018  1.00  0.00     0.034 A 
ATOM     54  C   UNL A   1      42.203  26.758  28.638  1.00  0.00     0.034 A 
ATOM     55  C   UNL A   1      41.874  30.198  34.191  1.00  0.00     0.049 A 
ATOM     56  C   UNL A   1      43.078  26.840  29.861  1.00  0.00     0.074 A 
ATOM     57  C   UNL A   1      42.740  30.158  35.267  1.00  0.00     0.029 A 
ATOM     58  N   UNL A   1      42.346  29.284  33.260  1.00  0.00    -0.354 N 
ATOM     59  N   UNL A   1      42.893  27.527  30.963  1.00  0.00    -0.248 NA
ATOM     60  C   UNL A   1      44.302  26.026  29.859  1.00  0.00     0.031 C 
ATOM     61  C   UNL A   1      43.742  29.223  34.985  1.00  0.00     0.029 A 
ATOM     62  C   UNL A   1      43.488  28.669  33.741  1.00  0.00     0.049 A 
ATOM     63  H   UNL A   1      41.930  29.099  32.387  1.00  0.00     0.167 HD
ATOM     64  C   UNL A   1      43.954  27.198  31.799  1.00  0.00     0.074 A 
ATOM     65  C   UNL A   1      44.764  26.234  31.085  1.00  0.00     0.031 C 
ATOM     66  C   UNL A   1      44.242  27.663  33.039  1.00  0.00     0.034 A 
BRANCH  53  67
ATOM     67  C   UNL A   1      40.309  31.957  35.117  1.00  0.00     0.023 A 
ATOM     68  C   UNL A   1      40.968  33.201  35.214  1.00  0.00     0.012 A 
ATOM     69  C   UNL A   1      39.273  31.653  36.021  1.00  0.00     0.148 A 
ATOM     70  C   UNL A   1      40.630  34.111  36.215  1.00  0.00     0.002 A 
ATOM     71  C   UNL A   1      38.910  32.585  36.988  1.00  0.00     0.091 A 
ATOM     72  F   UNL A   1      38.671  30.459  35.929  1.00  0.00    -0.205 F 
ATOM     73  C   UNL A   1      39.596  33.807  37.094  1.00  0.00     0.022 A 
BRANCH  71  74
ATOM     74  S   UNL A   1      37.539  32.328  38.119  1.00  0.00     0.127 S 
ATOM     75  O   UNL A   1      36.453  33.023  37.428  1.00  0.00    -0.237 OA
ATOM     76  O   UNL A   1      37.419  30.869  38.130  1.00  0.00    -0.237 OA
ATOM     77  O   UNL A   1      37.947  32.914  39.388  1.00  0.00    -0.744 OA
ENDBRANCH  71  74
ENDBRANCH  53  67
BRANCH  54  78
ATOM     78  C   UNL A   1      42.572  25.877  27.492  1.00  0.00     0.023 A 
ATOM     79  C   UNL A   1      43.400  26.385  26.471  1.00  0.00     0.012 A 
ATOM     80  C   UNL A   1      42.127  24.543  27.411  1.00  0.00     0.148 A 
ATOM     81  C   UNL A   1      43.744  25.596  25.373  1.00  0.00     0.002 A 
ATOM     82  C   UNL A   1      42.520  23.745  26.342  1.00  0.00     0.091 A 
ATOM     83  F   UNL A   1      41.330  24.078  28.384  1.00  0.00    -0.205 F 
ATOM     84  C   UNL A   1      43.311  24.275  25.312  1.00  0.00     0.022 A 
BRANCH  82  85
ATOM     85  S   UNL A   1      42.121  21.995  26.257  1.00  0.00     0.127 S 
ATOM     86  O   UNL A   1      42.982  21.543  25.167  1.00  0.00    -0.237 OA
ATOM     87  O   UNL A   1      42.511  21.526  27.587  1.00  0.00    -0.237 OA
ATOM     88  O   UNL A   1      40.687  21.937  26.003  1.00  0.00    -0.744 OA
ENDBRANCH  82  85
ENDBRANCH  54  78
BRANCH  66  89
ATOM     89  C   UNL A   1      45.460  27.107  33.727  1.00  0.00     0.023 A 
ATOM     90  C   UNL A   1      46.693  27.779  33.619  1.00  0.00     0.012 A 
ATOM     91  C   UNL A   1      45.361  25.964  34.544  1.00  0.00     0.148 A 
ATOM     92  C   UNL A   1      47.818  27.303  34.290  1.00  0.00     0.002 A 
ATOM     93  C   UNL A   1      46.475  25.525  35.249  1.00  0.00     0.091 A 
ATOM     94  F   UNL A   1      44.182  25.330  34.618  1.00  0.00    -0.205 F 
ATOM     95  C   UNL A   1      47.706  26.185  35.114  1.00  0.00     0.022 A 
BRANCH  93  96
ATOM     96  S   UNL A   1      46.400  24.154  36.407  1.00  0.00     0.127 S 
ATOM     97  O   UNL A   1      45.963  23.058  35.544  1.00  0.00    -0.237 OA
ATOM     98  O   UNL A   1      47.787  24.056  36.863  1.00  0.00    -0.237 OA
ATOM     99  O   UNL A   1      45.453  24.553  37.440  1.00  0.00    -0.744 OA
ENDBRANCH  93  96
ENDBRANCH  66  89
ENDBRANCH  40  41
ENDBRANCH  32  35
ENDBRANCH   1  31
TORSDOF 15
ENDMDL
MODEL 3
REMARK VINA RESULT:     -12.8      5.378      8.904
REMARK SMILES CC(=O)N1CC2(CC[NH+](C3Cc4ccccc4C3)CC2)C[C@H]1C(=O)NCCCNC(=O)c1ccc(-c2c3nc(c(-c4cccc(S(=O)(=O)[O-])c4F)c4ccc([nH]4)c(-c4cccc(S(=O)(=O)[O-])c4F)c4nc(c(-c5cccc(S(=O)(=O)[O-])c5F)c5ccc2[nH]5)C=C4)C=C3)cc1
REMARK SMILES IDX 28 1 27 2 26 3 25 4 23 5 24 6 22 8 4 9 5 10 6 11 21 12 7 13
REMARK SMILES IDX 20 14 8 15 19 16 9 17 2 19 1 20 3 21 10 22 11 23 18 24 12 25
REMARK SMILES IDX 17 26 13 27 16 28 14 29 15 30 29 31 30 32 31 34 32 35 33 36
REMARK SMILES IDX 94 37 34 38 93 39 35 40 36 41 37 42 87 43 38 44 92 45 86 46
REMARK SMILES IDX 88 47 39 48 91 49 85 50 84 51 40 53 72 54 52 55 71 56 53 57
REMARK SMILES IDX 56 58 70 59 89 60 54 61 55 62 69 64 90 65 57 66 41 67 42 68
REMARK SMILES IDX 50 69 43 70 45 71 51 72 44 73 46 74 47 75 48 76 49 77 73 78
REMARK SMILES IDX 74 79 82 80 75 81 77 82 83 83 76 84 78 85 79 86 80 87 81 88
REMARK SMILES IDX 58 89 59 90 67 91 60 92 62 93 68 94 61 95 63 96 64 97 65 98
REMARK SMILES IDX 66 99
REMARK H PARENT 25 7 9 18 29 33 88 52 56 63
REMARK Flexibility Score: inf
ROOT
ATOM      1  C   UNL A   1      39.001  20.754  25.759  1.00  0.00     0.118 C 
ENDROOT
BRANCH   1   2
ATOM      2  C   UNL A   1      37.703  20.408  25.049  1.00  0.00     0.042 C 
BRANCH   2   3
ATOM      3  C   UNL A   1      37.296  21.452  24.027  1.00  0.00     0.117 C 
BRANCH   3   4
ATOM      4  N   UNL A   1      37.404  22.820  24.443  1.00  0.00    -0.354 N 
ATOM      5  C   UNL A   1      36.401  23.555  25.021  1.00  0.00     0.242 C 
ATOM      6  O   UNL A   1      36.744  24.318  25.933  1.00  0.00    -0.273 OA
ATOM      7  H   UNL A   1      38.267  23.268  24.300  1.00  0.00     0.163 HD
BRANCH   5   8
ATOM      8  C   UNL A   1      34.885  23.334  24.702  1.00  0.00     0.175 C 
ATOM      9  N   UNL A   1      34.036  22.854  25.781  1.00  0.00    -0.330 N 
ATOM     10  C   UNL A   1      33.048  23.832  26.214  1.00  0.00     0.127 C 
ATOM     11  C   UNL A   1      32.920  24.859  25.066  1.00  0.00     0.001 C 
ATOM     12  C   UNL A   1      34.128  24.533  24.121  1.00  0.00     0.044 C 
ATOM     13  C   UNL A   1      33.002  26.335  25.550  1.00  0.00     0.070 C 
ATOM     14  C   UNL A   1      31.558  24.615  24.349  1.00  0.00     0.070 C 
ATOM     15  C   UNL A   1      31.747  26.816  26.252  1.00  0.00     0.263 C 
ATOM     16  C   UNL A   1      30.358  25.332  25.007  1.00  0.00     0.263 C 
ATOM     17  N   UNL A   1      30.583  26.732  25.386  1.00  0.00    -0.332 N 
ATOM     18  H   UNL A   1      29.783  27.043  25.939  1.00  0.00     0.348 HD
BRANCH   9  19
ATOM     19  C   UNL A   1      34.096  21.516  26.116  1.00  0.00     0.220 C 
ATOM     20  C   UNL A   1      33.881  20.519  25.010  1.00  0.00     0.114 C 
ATOM     21  O   UNL A   1      34.399  21.137  27.248  1.00  0.00    -0.275 OA
ENDBRANCH   9  19
BRANCH  17  22
ATOM     22  C   UNL A   1      30.481  27.728  24.293  1.00  0.00     0.192 C 
ATOM     23  C   UNL A   1      29.232  27.638  23.352  1.00  0.00     0.101 C 
ATOM     24  C   UNL A   1      30.654  29.234  24.636  1.00  0.00     0.101 C 
ATOM     25  C   UNL A   1      29.046  29.050  22.883  1.00  0.00    -0.039 A 
ATOM     26  C   UNL A   1      29.834  29.938  23.608  1.00  0.00    -0.039 A 
ATOM     27  C   UNL A   1      28.131  29.518  21.951  1.00  0.00     0.004 A 
ATOM     28  C   UNL A   1      29.721  31.309  23.441  1.00  0.00     0.004 A 
ATOM     29  C   UNL A   1      28.015  30.898  21.767  1.00  0.00     0.000 A 
ATOM     30  C   UNL A   1      28.801  31.790  22.512  1.00  0.00     0.000 A 
ENDBRANCH  17  22
ENDBRANCH   5   8
ENDBRANCH   3   4
ENDBRANCH   2   3
ENDBRANCH   1   2
BRANCH   1  31
ATOM     31  N   UNL A   1      39.914  19.615  25.878  1.00  0.00    -0.352 N 
ATOM     32  C   UNL A   1      41.270  19.580  26.126  1.00  0.00     0.251 C 
ATOM     33  H   UNL A   1      39.491  18.733  25.764  1.00  0.00     0.163 HD
ATOM     34  O   UNL A   1      41.863  18.513  26.086  1.00  0.00    -0.269 OA
BRANCH  32  35
ATOM     35  C   UNL A   1      42.007  20.837  26.401  1.00  0.00     0.039 A 
ATOM     36  C   UNL A   1      42.414  21.637  25.329  1.00  0.00     0.014 A 
ATOM     37  C   UNL A   1      42.269  21.241  27.708  1.00  0.00     0.014 A 
ATOM     38  C   UNL A   1      42.995  22.884  25.577  1.00  0.00     0.010 A 
ATOM     39  C   UNL A   1      42.730  22.527  27.953  1.00  0.00     0.010 A 
ATOM     40  C   UNL A   1      43.111  23.359  26.892  1.00  0.00    -0.014 A 
BRANCH  40  41
ATOM     41  C   UNL A   1      43.636  24.715  27.201  1.00  0.00     0.031 A 
ATOM     42  C   UNL A   1      42.701  25.774  27.725  1.00  0.00     0.074 A 
ATOM     43  C   UNL A   1      44.914  25.026  26.899  1.00  0.00     0.049 A 
ATOM     44  N   UNL A   1      42.925  27.045  27.931  1.00  0.00    -0.248 NA
ATOM     45  C   UNL A   1      41.317  25.358  28.016  1.00  0.00     0.031 C 
ATOM     46  C   UNL A   1      45.892  24.113  26.301  1.00  0.00     0.029 A 
ATOM     47  N   UNL A   1      45.600  26.206  27.026  1.00  0.00    -0.354 N 
ATOM     48  C   UNL A   1      41.707  27.585  28.329  1.00  0.00     0.074 A 
ATOM     49  C   UNL A   1      40.734  26.517  28.285  1.00  0.00     0.031 C 
ATOM     50  C   UNL A   1      47.052  24.766  26.122  1.00  0.00     0.029 A 
ATOM     51  C   UNL A   1      46.893  26.147  26.559  1.00  0.00     0.049 A 
ATOM     52  H   UNL A   1      45.205  27.020  27.414  1.00  0.00     0.167 HD
ATOM     53  C   UNL A   1      41.429  28.845  28.740  1.00  0.00     0.034 A 
ATOM     54  C   UNL A   1      47.841  27.103  26.487  1.00  0.00     0.034 A 
ATOM     55  C   UNL A   1      42.413  29.886  28.846  1.00  0.00     0.049 A 
ATOM     56  C   UNL A   1      47.522  28.480  27.005  1.00  0.00     0.074 A 
ATOM     57  C   UNL A   1      42.257  31.173  29.326  1.00  0.00     0.029 A 
ATOM     58  N   UNL A   1      43.741  29.753  28.472  1.00  0.00    -0.354 N 
ATOM     59  N   UNL A   1      46.402  28.930  27.517  1.00  0.00    -0.248 NA
ATOM     60  C   UNL A   1      48.607  29.472  26.970  1.00  0.00     0.031 C 
ATOM     61  C   UNL A   1      43.493  31.822  29.236  1.00  0.00     0.029 A 
ATOM     62  C   UNL A   1      44.420  30.933  28.717  1.00  0.00     0.049 A 
ATOM     63  H   UNL A   1      44.143  28.939  28.090  1.00  0.00     0.167 HD
ATOM     64  C   UNL A   1      46.658  30.242  27.902  1.00  0.00     0.074 A 
ATOM     65  C   UNL A   1      48.046  30.505  27.583  1.00  0.00     0.031 C 
ATOM     66  C   UNL A   1      45.818  31.152  28.452  1.00  0.00     0.034 A 
BRANCH  53  67
ATOM     67  C   UNL A   1      40.019  29.139  29.182  1.00  0.00     0.023 A 
ATOM     68  C   UNL A   1      39.027  29.383  28.209  1.00  0.00     0.012 A 
ATOM     69  C   UNL A   1      39.661  29.130  30.544  1.00  0.00     0.148 A 
ATOM     70  C   UNL A   1      37.711  29.653  28.584  1.00  0.00     0.002 A 
ATOM     71  C   UNL A   1      38.337  29.353  30.908  1.00  0.00     0.091 A 
ATOM     72  F   UNL A   1      40.619  28.916  31.457  1.00  0.00    -0.205 F 
ATOM     73  C   UNL A   1      37.365  29.628  29.931  1.00  0.00     0.022 A 
BRANCH  71  74
ATOM     74  S   UNL A   1      37.769  29.264  32.610  1.00  0.00     0.127 S 
ATOM     75  O   UNL A   1      36.420  29.818  32.499  1.00  0.00    -0.237 OA
ATOM     76  O   UNL A   1      37.818  27.826  32.876  1.00  0.00    -0.237 OA
ATOM     77  O   UNL A   1      38.707  30.058  33.389  1.00  0.00    -0.744 OA
ENDBRANCH  71  74
ENDBRANCH  53  67
BRANCH  54  78
ATOM     78  C   UNL A   1      49.203  26.775  25.977  1.00  0.00     0.023 A 
ATOM     79  C   UNL A   1      50.081  26.028  26.788  1.00  0.00     0.012 A 
ATOM     80  C   UNL A   1      49.632  27.178  24.698  1.00  0.00     0.148 A 
ATOM     81  C   UNL A   1      51.372  25.724  26.353  1.00  0.00     0.002 A 
ATOM     82  C   UNL A   1      50.899  26.823  24.247  1.00  0.00     0.091 A 
ATOM     83  F   UNL A   1      48.790  27.898  23.942  1.00  0.00    -0.205 F 
ATOM     84  C   UNL A   1      51.777  26.114  25.080  1.00  0.00     0.022 A 
BRANCH  82  85
ATOM     85  S   UNL A   1      51.450  27.167  22.572  1.00  0.00     0.127 S 
ATOM     86  O   UNL A   1      52.648  26.337  22.473  1.00  0.00    -0.237 OA
ATOM     87  O   UNL A   1      50.313  26.706  21.774  1.00  0.00    -0.237 OA
ATOM     88  O   UNL A   1      51.666  28.607  22.522  1.00  0.00    -0.744 OA
ENDBRANCH  82  85
ENDBRANCH  54  78
BRANCH  66  89
ATOM     89  C   UNL A   1      46.382  32.506  28.789  1.00  0.00     0.023 A 
ATOM     90  C   UNL A   1      46.970  32.725  30.050  1.00  0.00     0.012 A 
ATOM     91  C   UNL A   1      46.400  33.534  27.827  1.00  0.00     0.148 A 
ATOM     92  C   UNL A   1      47.540  33.959  30.359  1.00  0.00     0.002 A 
ATOM     93  C   UNL A   1      47.013  34.744  28.125  1.00  0.00     0.091 A 
ATOM     94  F   UNL A   1      45.819  33.310  26.640  1.00  0.00    -0.205 F 
ATOM     95  C   UNL A   1      47.573  34.962  29.394  1.00  0.00     0.022 A 
BRANCH  93  96
ATOM     96  S   UNL A   1      47.190  36.057  26.912  1.00  0.00     0.127 S 
ATOM     97  O   UNL A   1      45.797  36.437  26.680  1.00  0.00    -0.237 OA
ATOM     98  O   UNL A   1      47.980  37.050  27.640  1.00  0.00    -0.237 OA
ATOM     99  O   UNL A   1      47.874  35.461  25.772  1.00  0.00    -0.744 OA
ENDBRANCH  93  96
ENDBRANCH  66  89
ENDBRANCH  40  41
ENDBRANCH  32  35
ENDBRANCH   1  31
TORSDOF 15
ENDMDL
