MODEL 1
REMARK VINA RESULT:     -10.3      0.000      0.000
REMARK SMILES COc1cccc([C@H]2CC(c3ccc(S(C)(=O)=O)cc3)=NN2c2ccc(C(=O)NCCCNC(=O)c3ccc(-c4c5nc(c(-c6cccc(S(=O)(=O)[O-])c6F)c6ccc([nH]6)c(-c6cccc(S(=O)(=O)[O-])c6F)c6nc(c(-c7cccc(S(=O)(=O)[O-])c7F)c7ccc4[nH]7)C=C6)C=C5)cc3)cc2)c1
REMARK SMILES IDX 31 1 30 2 29 3 27 4 28 5 26 7 23 8 24 9 100 10 25 11 99 12
REMARK SMILES IDX 22 13 8 14 9 15 10 16 21 17 7 18 3 19 4 20 101 21 5 22 6 23
REMARK SMILES IDX 2 24 1 25 11 26 12 27 20 28 13 29 19 30 14 31 15 32 16 33
REMARK SMILES IDX 17 34 18 35 32 36 33 37 34 38 35 40 36 41 37 42 98 43 38 44
REMARK SMILES IDX 97 45 39 46 40 47 41 48 91 49 42 50 96 51 90 52 92 53 43 54
REMARK SMILES IDX 95 55 89 56 88 57 44 59 76 60 56 61 75 62 57 63 60 64 74 65
REMARK SMILES IDX 93 66 58 67 59 68 73 70 94 71 61 72 45 73 46 74 54 75 47 76
REMARK SMILES IDX 49 77 55 78 48 79 50 80 51 81 52 82 53 83 77 84 78 85 86 86
REMARK SMILES IDX 79 87 81 88 87 89 80 90 82 91 83 92 84 93 85 94 62 95 63 96
REMARK SMILES IDX 71 97 64 98 66 99 72 100 65 101 67 102 68 103 69 104 70 105
REMARK H PARENT 29 6 33 39 92 58 60 69
REMARK Flexibility Score: inf
ROOT
ATOM      1  C   UNL A   1      42.058  20.835  26.120  1.00  0.00     0.042 C 
ENDROOT
BRANCH   1   2
ATOM      2  C   UNL A   1      43.459  21.445  26.107  1.00  0.00     0.118 C 
BRANCH   2   3
ATOM      3  N   UNL A   1      43.428  22.831  25.678  1.00  0.00    -0.352 N 
ATOM      4  C   UNL A   1      43.668  24.009  26.336  1.00  0.00     0.251 C 
ATOM      5  O   UNL A   1      43.636  25.044  25.667  1.00  0.00    -0.269 OA
ATOM      6  H   UNL A   1      43.187  22.947  24.730  1.00  0.00     0.163 HD
BRANCH   4   7
ATOM      7  C   UNL A   1      44.019  24.090  27.782  1.00  0.00     0.039 A 
ATOM      8  C   UNL A   1      44.479  24.262  30.572  1.00  0.00     0.060 A 
ATOM      9  C   UNL A   1      43.235  23.866  30.073  1.00  0.00     0.029 A 
ATOM     10  C   UNL A   1      45.505  24.509  29.658  1.00  0.00     0.029 A 
ATOM     11  C   UNL A   1      42.999  23.800  28.698  1.00  0.00     0.016 A 
ATOM     12  C   UNL A   1      45.289  24.389  28.279  1.00  0.00     0.016 A 
BRANCH   8  13
ATOM     13  N   UNL A   1      44.664  24.387  31.940  1.00  0.00    -0.257 N 
ATOM     14  C   UNL A   1      45.207  25.583  32.583  1.00  0.00     0.144 C 
ATOM     15  C   UNL A   1      45.460  25.107  34.019  1.00  0.00     0.091 C 
ATOM     16  C   UNL A   1      45.181  23.641  33.855  1.00  0.00     0.071 C 
ATOM     17  N   UNL A   1      44.729  23.265  32.701  1.00  0.00    -0.176 NA
BRANCH  14  18
ATOM     18  C   UNL A   1      44.223  26.738  32.496  1.00  0.00    -0.019 A 
ATOM     19  C   UNL A   1      42.055  27.724  33.039  1.00  0.00     0.119 A 
ATOM     20  C   UNL A   1      42.358  28.812  32.222  1.00  0.00     0.046 A 
ATOM     21  C   UNL A   1      42.983  26.688  33.166  1.00  0.00     0.052 A 
ATOM     22  C   UNL A   1      43.582  28.882  31.555  1.00  0.00     0.004 A 
ATOM     23  C   UNL A   1      44.511  27.850  31.693  1.00  0.00     0.006 A 
BRANCH  19  24
ATOM     24  O   UNL A   1      40.823  27.772  33.632  1.00  0.00    -0.497 OA
ATOM     25  C   UNL A   1      39.732  28.139  32.797  1.00  0.00     0.278 C 
ENDBRANCH  19  24
ENDBRANCH  14  18
BRANCH  16  26
ATOM     26  C   UNL A   1      45.444  22.698  34.942  1.00  0.00    -0.002 A 
ATOM     27  C   UNL A   1      45.583  23.195  36.241  1.00  0.00     0.011 A 
ATOM     28  C   UNL A   1      45.574  21.334  34.671  1.00  0.00     0.011 A 
ATOM     29  C   UNL A   1      45.839  22.314  37.292  1.00  0.00     0.021 A 
ATOM     30  C   UNL A   1      45.858  20.455  35.717  1.00  0.00     0.021 A 
ATOM     31  C   UNL A   1      45.990  20.950  37.021  1.00  0.00     0.067 A 
BRANCH  31  32
ATOM     32  S   UNL A   1      46.344  19.834  38.358  1.00  0.00     0.175 S 
ATOM     33  C   UNL A   1      48.095  19.566  38.258  1.00  0.00     0.163 C 
ATOM     34  O   UNL A   1      46.051  20.544  39.587  1.00  0.00    -0.224 OA
ATOM     35  O   UNL A   1      45.694  18.571  38.056  1.00  0.00    -0.224 OA
ENDBRANCH  31  32
ENDBRANCH  16  26
ENDBRANCH   8  13
ENDBRANCH   4   7
ENDBRANCH   2   3
ENDBRANCH   1   2
BRANCH   1  36
ATOM     36  C   UNL A   1      41.087  21.567  27.044  1.00  0.00     0.118 C 
BRANCH  36  37
ATOM     37  N   UNL A   1      39.770  21.717  26.439  1.00  0.00    -0.352 N 
ATOM     38  C   UNL A   1      38.920  22.794  26.433  1.00  0.00     0.251 C 
ATOM     39  H   UNL A   1      39.438  20.922  25.962  1.00  0.00     0.163 HD
ATOM     40  O   UNL A   1      37.760  22.640  26.061  1.00  0.00    -0.269 OA
BRANCH  38  41
ATOM     41  C   UNL A   1      39.385  24.129  26.872  1.00  0.00     0.039 A 
ATOM     42  C   UNL A   1      40.013  24.962  25.940  1.00  0.00     0.014 A 
ATOM     43  C   UNL A   1      39.259  24.542  28.202  1.00  0.00     0.014 A 
ATOM     44  C   UNL A   1      40.473  26.223  26.330  1.00  0.00     0.010 A 
ATOM     45  C   UNL A   1      39.660  25.823  28.575  1.00  0.00     0.010 A 
ATOM     46  C   UNL A   1      40.281  26.673  27.646  1.00  0.00    -0.014 A 
BRANCH  46  47
ATOM     47  C   UNL A   1      40.715  28.029  28.068  1.00  0.00     0.031 A 
ATOM     48  C   UNL A   1      42.174  28.397  28.063  1.00  0.00     0.074 A 
ATOM     49  C   UNL A   1      39.802  28.898  28.544  1.00  0.00     0.049 A 
ATOM     50  N   UNL A   1      42.746  29.504  28.456  1.00  0.00    -0.248 NA
ATOM     51  C   UNL A   1      43.117  27.377  27.574  1.00  0.00     0.031 C 
ATOM     52  C   UNL A   1      38.367  28.629  28.676  1.00  0.00     0.029 A 
ATOM     53  N   UNL A   1      39.946  30.172  29.036  1.00  0.00    -0.354 N 
ATOM     54  C   UNL A   1      44.113  29.304  28.301  1.00  0.00     0.074 A 
ATOM     55  C   UNL A   1      44.287  27.957  27.803  1.00  0.00     0.031 C 
ATOM     56  C   UNL A   1      37.767  29.702  29.215  1.00  0.00     0.029 A 
ATOM     57  C   UNL A   1      38.772  30.724  29.490  1.00  0.00     0.049 A 
ATOM     58  H   UNL A   1      40.810  30.645  29.060  1.00  0.00     0.167 HD
ATOM     59  C   UNL A   1      45.129  30.171  28.526  1.00  0.00     0.034 A 
ATOM     60  C   UNL A   1      38.531  31.916  30.070  1.00  0.00     0.034 A 
ATOM     61  C   UNL A   1      44.948  31.526  28.972  1.00  0.00     0.049 A 
ATOM     62  C   UNL A   1      39.670  32.881  30.254  1.00  0.00     0.074 A 
ATOM     63  C   UNL A   1      45.904  32.512  29.139  1.00  0.00     0.029 A 
ATOM     64  N   UNL A   1      43.730  32.086  29.325  1.00  0.00    -0.354 N 
ATOM     65  N   UNL A   1      40.936  32.732  29.946  1.00  0.00    -0.248 NA
ATOM     66  C   UNL A   1      39.344  34.194  30.830  1.00  0.00     0.031 C 
ATOM     67  C   UNL A   1      45.264  33.667  29.605  1.00  0.00     0.029 A 
ATOM     68  C   UNL A   1      43.908  33.403  29.714  1.00  0.00     0.049 A 
ATOM     69  H   UNL A   1      42.864  31.617  29.303  1.00  0.00     0.167 HD
ATOM     70  C   UNL A   1      41.551  33.940  30.258  1.00  0.00     0.074 A 
ATOM     71  C   UNL A   1      40.513  34.818  30.759  1.00  0.00     0.031 C 
ATOM     72  C   UNL A   1      42.858  34.284  30.155  1.00  0.00     0.034 A 
BRANCH  59  73
ATOM     73  C   UNL A   1      46.530  29.700  28.230  1.00  0.00     0.023 A 
ATOM     74  C   UNL A   1      47.029  29.798  26.915  1.00  0.00     0.012 A 
ATOM     75  C   UNL A   1      47.371  29.224  29.254  1.00  0.00     0.148 A 
ATOM     76  C   UNL A   1      48.330  29.396  26.617  1.00  0.00     0.002 A 
ATOM     77  C   UNL A   1      48.682  28.864  28.957  1.00  0.00     0.091 A 
ATOM     78  F   UNL A   1      46.873  29.118  30.495  1.00  0.00    -0.205 F 
ATOM     79  C   UNL A   1      49.158  28.939  27.638  1.00  0.00     0.022 A 
BRANCH  77  80
ATOM     80  S   UNL A   1      49.850  28.336  30.215  1.00  0.00     0.127 S 
ATOM     81  O   UNL A   1      51.055  28.104  29.421  1.00  0.00    -0.237 OA
ATOM     82  O   UNL A   1      49.913  29.509  31.089  1.00  0.00    -0.237 OA
ATOM     83  O   UNL A   1      49.266  27.154  30.832  1.00  0.00    -0.744 OA
ENDBRANCH  77  80
ENDBRANCH  59  73
BRANCH  60  84
ATOM     84  C   UNL A   1      37.138  32.291  30.444  1.00  0.00     0.023 A 
ATOM     85  C   UNL A   1      36.697  32.072  31.762  1.00  0.00     0.012 A 
ATOM     86  C   UNL A   1      36.266  32.899  29.519  1.00  0.00     0.148 A 
ATOM     87  C   UNL A   1      35.403  32.425  32.148  1.00  0.00     0.002 A 
ATOM     88  C   UNL A   1      34.997  33.298  29.924  1.00  0.00     0.091 A 
ATOM     89  F   UNL A   1      36.699  33.087  28.264  1.00  0.00    -0.205 F 
ATOM     90  C   UNL A   1      34.558  33.047  31.233  1.00  0.00     0.022 A 
BRANCH  88  91
ATOM     91  S   UNL A   1      33.896  34.229  28.852  1.00  0.00     0.127 S 
ATOM     92  O   UNL A   1      34.773  35.295  28.374  1.00  0.00    -0.237 OA
ATOM     93  O   UNL A   1      33.534  33.230  27.846  1.00  0.00    -0.237 OA
ATOM     94  O   UNL A   1      32.788  34.648  29.700  1.00  0.00    -0.744 OA
ENDBRANCH  88  91
ENDBRANCH  60  84
BRANCH  72  95
ATOM     95  C   UNL A   1      43.246  35.680  30.565  1.00  0.00     0.023 A 
ATOM     96  C   UNL A   1      43.639  35.933  31.893  1.00  0.00     0.012 A 
ATOM     97  C   UNL A   1      43.298  36.721  29.616  1.00  0.00     0.148 A 
ATOM     98  C   UNL A   1      44.050  37.209  32.279  1.00  0.00     0.002 A 
ATOM     99  C   UNL A   1      43.751  37.978  29.998  1.00  0.00     0.091 A 
ATOM    100  F   UNL A   1      42.900  36.465  28.362  1.00  0.00    -0.205 F 
ATOM    101  C   UNL A   1      44.117  38.226  31.331  1.00  0.00     0.022 A 
BRANCH  99 102
ATOM    102  S   UNL A   1      43.959  39.320  28.823  1.00  0.00     0.127 S 
ATOM    103  O   UNL A   1      44.177  40.463  29.709  1.00  0.00    -0.237 OA
ATOM    104  O   UNL A   1      45.142  38.898  28.071  1.00  0.00    -0.237 OA
ATOM    105  O   UNL A   1      42.731  39.359  28.039  1.00  0.00    -0.744 OA
ENDBRANCH  99 102
ENDBRANCH  72  95
ENDBRANCH  46  47
ENDBRANCH  38  41
ENDBRANCH  36  37
ENDBRANCH   1  36
TORSDOF 18
ENDMDL
MODEL 2
REMARK VINA RESULT:      -9.8      1.810      2.300
REMARK SMILES COc1cccc([C@H]2CC(c3ccc(S(C)(=O)=O)cc3)=NN2c2ccc(C(=O)NCCCNC(=O)c3ccc(-c4c5nc(c(-c6cccc(S(=O)(=O)[O-])c6F)c6ccc([nH]6)c(-c6cccc(S(=O)(=O)[O-])c6F)c6nc(c(-c7cccc(S(=O)(=O)[O-])c7F)c7ccc4[nH]7)C=C6)C=C5)cc3)cc2)c1
REMARK SMILES IDX 31 1 30 2 29 3 27 4 28 5 26 7 23 8 24 9 100 10 25 11 99 12
REMARK SMILES IDX 22 13 8 14 9 15 10 16 21 17 7 18 3 19 4 20 101 21 5 22 6 23
REMARK SMILES IDX 2 24 1 25 11 26 12 27 20 28 13 29 19 30 14 31 15 32 16 33
REMARK SMILES IDX 17 34 18 35 32 36 33 37 34 38 35 40 36 41 37 42 98 43 38 44
REMARK SMILES IDX 97 45 39 46 40 47 41 48 91 49 42 50 96 51 90 52 92 53 43 54
REMARK SMILES IDX 95 55 89 56 88 57 44 59 76 60 56 61 75 62 57 63 60 64 74 65
REMARK SMILES IDX 93 66 58 67 59 68 73 70 94 71 61 72 45 73 46 74 54 75 47 76
REMARK SMILES IDX 49 77 55 78 48 79 50 80 51 81 52 82 53 83 77 84 78 85 86 86
REMARK SMILES IDX 79 87 81 88 87 89 80 90 82 91 83 92 84 93 85 94 62 95 63 96
REMARK SMILES IDX 71 97 64 98 66 99 72 100 65 101 67 102 68 103 69 104 70 105
REMARK H PARENT 29 6 33 39 92 58 60 69
REMARK Flexibility Score: inf
ROOT
ATOM      1  C   UNL A   1      41.868  20.691  26.249  1.00  0.00     0.042 C 
ENDROOT
BRANCH   1   2
ATOM      2  C   UNL A   1      43.314  21.165  26.385  1.00  0.00     0.118 C 
BRANCH   2   3
ATOM      3  N   UNL A   1      43.499  22.474  25.786  1.00  0.00    -0.352 N 
ATOM      4  C   UNL A   1      43.790  23.702  26.320  1.00  0.00     0.251 C 
ATOM      5  O   UNL A   1      43.964  24.632  25.530  1.00  0.00    -0.269 OA
ATOM      6  H   UNL A   1      43.396  22.480  24.808  1.00  0.00     0.163 HD
BRANCH   4   7
ATOM      7  C   UNL A   1      43.963  23.949  27.779  1.00  0.00     0.039 A 
ATOM      8  C   UNL A   1      44.500  24.390  30.526  1.00  0.00     0.060 A 
ATOM      9  C   UNL A   1      45.498  24.565  29.563  1.00  0.00     0.029 A 
ATOM     10  C   UNL A   1      43.216  24.056  30.089  1.00  0.00     0.029 A 
ATOM     11  C   UNL A   1      45.242  24.328  28.210  1.00  0.00     0.016 A 
ATOM     12  C   UNL A   1      42.942  23.872  28.727  1.00  0.00     0.016 A 
BRANCH   8  13
ATOM     13  N   UNL A   1      44.800  24.564  31.868  1.00  0.00    -0.257 N 
ATOM     14  C   UNL A   1      45.469  25.748  32.406  1.00  0.00     0.144 C 
ATOM     15  C   UNL A   1      45.803  25.322  33.841  1.00  0.00     0.091 C 
ATOM     16  C   UNL A   1      45.417  23.873  33.773  1.00  0.00     0.071 C 
ATOM     17  N   UNL A   1      44.851  23.477  32.678  1.00  0.00    -0.176 NA
BRANCH  14  18
ATOM     18  C   UNL A   1      44.559  26.964  32.335  1.00  0.00    -0.019 A 
ATOM     19  C   UNL A   1      44.180  29.354  32.665  1.00  0.00     0.119 A 
ATOM     20  C   UNL A   1      42.838  29.176  32.330  1.00  0.00     0.046 A 
ATOM     21  C   UNL A   1      45.032  28.248  32.675  1.00  0.00     0.052 A 
ATOM     22  C   UNL A   1      42.353  27.915  31.985  1.00  0.00     0.004 A 
ATOM     23  C   UNL A   1      43.209  26.813  31.985  1.00  0.00     0.006 A 
BRANCH  19  24
ATOM     24  O   UNL A   1      44.530  30.636  32.989  1.00  0.00    -0.497 OA
ATOM     25  C   UNL A   1      45.722  30.795  33.748  1.00  0.00     0.278 C 
ENDBRANCH  19  24
ENDBRANCH  14  18
BRANCH  16  26
ATOM     26  C   UNL A   1      45.702  22.965  34.884  1.00  0.00    -0.002 A 
ATOM     27  C   UNL A   1      46.287  21.726  34.604  1.00  0.00     0.011 A 
ATOM     28  C   UNL A   1      45.370  23.330  36.191  1.00  0.00     0.011 A 
ATOM     29  C   UNL A   1      46.562  20.843  35.648  1.00  0.00     0.021 A 
ATOM     30  C   UNL A   1      45.620  22.436  37.233  1.00  0.00     0.021 A 
ATOM     31  C   UNL A   1      46.213  21.198  36.955  1.00  0.00     0.067 A 
BRANCH  31  32
ATOM     32  S   UNL A   1      46.540  20.058  38.279  1.00  0.00     0.175 S 
ATOM     33  C   UNL A   1      48.239  19.599  38.059  1.00  0.00     0.163 C 
ATOM     34  O   UNL A   1      46.415  20.802  39.516  1.00  0.00    -0.224 OA
ATOM     35  O   UNL A   1      45.737  18.871  38.041  1.00  0.00    -0.224 OA
ENDBRANCH  31  32
ENDBRANCH  16  26
ENDBRANCH   8  13
ENDBRANCH   4   7
ENDBRANCH   2   3
ENDBRANCH   1   2
BRANCH   1  36
ATOM     36  C   UNL A   1      40.882  21.504  27.085  1.00  0.00     0.118 C 
BRANCH  36  37
ATOM     37  N   UNL A   1      39.627  21.728  26.381  1.00  0.00    -0.352 N 
ATOM     38  C   UNL A   1      38.826  22.842  26.338  1.00  0.00     0.251 C 
ATOM     39  H   UNL A   1      39.301  20.961  25.855  1.00  0.00     0.163 HD
ATOM     40  O   UNL A   1      37.695  22.749  25.869  1.00  0.00    -0.269 OA
BRANCH  38  41
ATOM     41  C   UNL A   1      39.310  24.143  26.852  1.00  0.00     0.039 A 
ATOM     42  C   UNL A   1      40.018  24.985  25.989  1.00  0.00     0.014 A 
ATOM     43  C   UNL A   1      39.120  24.512  28.187  1.00  0.00     0.014 A 
ATOM     44  C   UNL A   1      40.497  26.214  26.451  1.00  0.00     0.010 A 
ATOM     45  C   UNL A   1      39.541  25.765  28.629  1.00  0.00     0.010 A 
ATOM     46  C   UNL A   1      40.243  26.624  27.769  1.00  0.00    -0.014 A 
BRANCH  46  47
ATOM     47  C   UNL A   1      40.697  27.948  28.266  1.00  0.00     0.031 A 
ATOM     48  C   UNL A   1      42.165  28.240  28.421  1.00  0.00     0.074 A 
ATOM     49  C   UNL A   1      39.783  28.855  28.664  1.00  0.00     0.049 A 
ATOM     50  N   UNL A   1      42.747  29.309  28.898  1.00  0.00    -0.248 NA
ATOM     51  C   UNL A   1      43.103  27.182  28.010  1.00  0.00     0.031 C 
ATOM     52  C   UNL A   1      38.332  28.659  28.639  1.00  0.00     0.029 A 
ATOM     53  N   UNL A   1      39.938  30.110  29.198  1.00  0.00    -0.354 N 
ATOM     54  C   UNL A   1      44.111  29.042  28.882  1.00  0.00     0.074 A 
ATOM     55  C   UNL A   1      44.269  27.697  28.373  1.00  0.00     0.031 C 
ATOM     56  C   UNL A   1      37.732  29.751  29.138  1.00  0.00     0.029 A 
ATOM     57  C   UNL A   1      38.752  30.715  29.540  1.00  0.00     0.049 A 
ATOM     58  H   UNL A   1      40.817  30.537  29.323  1.00  0.00     0.167 HD
ATOM     59  C   UNL A   1      45.139  29.851  29.230  1.00  0.00     0.034 A 
ATOM     60  C   UNL A   1      38.511  31.907  30.119  1.00  0.00     0.034 A 
ATOM     61  C   UNL A   1      44.980  31.205  29.687  1.00  0.00     0.049 A 
ATOM     62  C   UNL A   1      39.671  32.809  30.443  1.00  0.00     0.074 A 
ATOM     63  C   UNL A   1      45.961  32.137  29.975  1.00  0.00     0.029 A 
ATOM     64  N   UNL A   1      43.761  31.821  29.924  1.00  0.00    -0.354 N 
ATOM     65  N   UNL A   1      40.953  32.599  30.265  1.00  0.00    -0.248 NA
ATOM     66  C   UNL A   1      39.351  34.126  31.012  1.00  0.00     0.031 C 
ATOM     67  C   UNL A   1      45.334  33.315  30.399  1.00  0.00     0.029 A 
ATOM     68  C   UNL A   1      43.962  33.120  30.359  1.00  0.00     0.049 A 
ATOM     69  H   UNL A   1      42.880  31.398  29.801  1.00  0.00     0.167 HD
ATOM     70  C   UNL A   1      41.590  33.768  30.667  1.00  0.00     0.074 A 
ATOM     71  C   UNL A   1      40.550  34.690  31.078  1.00  0.00     0.031 C 
ATOM     72  C   UNL A   1      42.917  34.046  30.709  1.00  0.00     0.034 A 
BRANCH  59  73
ATOM     73  C   UNL A   1      46.539  29.313  29.072  1.00  0.00     0.023 A 
ATOM     74  C   UNL A   1      47.179  28.717  30.178  1.00  0.00     0.012 A 
ATOM     75  C   UNL A   1      47.194  29.340  27.826  1.00  0.00     0.148 A 
ATOM     76  C   UNL A   1      48.463  28.186  30.055  1.00  0.00     0.002 A 
ATOM     77  C   UNL A   1      48.458  28.771  27.701  1.00  0.00     0.091 A 
ATOM     78  F   UNL A   1      46.580  29.930  26.791  1.00  0.00    -0.205 F 
ATOM     79  C   UNL A   1      49.097  28.205  28.816  1.00  0.00     0.022 A 
BRANCH  77  80
ATOM     80  S   UNL A   1      49.326  28.677  26.131  1.00  0.00     0.127 S 
ATOM     81  O   UNL A   1      48.223  28.447  25.197  1.00  0.00    -0.237 OA
ATOM     82  O   UNL A   1      49.937  30.004  26.036  1.00  0.00    -0.237 OA
ATOM     83  O   UNL A   1      50.275  27.582  26.263  1.00  0.00    -0.744 OA
ENDBRANCH  77  80
ENDBRANCH  59  73
BRANCH  60  84
ATOM     84  C   UNL A   1      37.106  32.347  30.354  1.00  0.00     0.023 A 
ATOM     85  C   UNL A   1      36.594  32.341  31.665  1.00  0.00     0.012 A 
ATOM     86  C   UNL A   1      36.294  32.809  29.300  1.00  0.00     0.148 A 
ATOM     87  C   UNL A   1      35.288  32.760  31.921  1.00  0.00     0.002 A 
ATOM     88  C   UNL A   1      35.012  33.277  29.569  1.00  0.00     0.091 A 
ATOM     89  F   UNL A   1      36.794  32.795  28.056  1.00  0.00    -0.205 F 
ATOM     90  C   UNL A   1      34.502  33.237  30.876  1.00  0.00     0.022 A 
BRANCH  88  91
ATOM     91  S   UNL A   1      33.983  34.037  28.307  1.00  0.00     0.127 S 
ATOM     92  O   UNL A   1      33.117  34.900  29.105  1.00  0.00    -0.237 OA
ATOM     93  O   UNL A   1      34.972  34.741  27.491  1.00  0.00    -0.237 OA
ATOM     94  O   UNL A   1      33.326  32.932  27.622  1.00  0.00    -0.744 OA
ENDBRANCH  88  91
ENDBRANCH  60  84
BRANCH  72  95
ATOM     95  C   UNL A   1      43.328  35.412  31.189  1.00  0.00     0.023 A 
ATOM     96  C   UNL A   1      43.626  36.420  30.252  1.00  0.00     0.012 A 
ATOM     97  C   UNL A   1      43.342  35.719  32.565  1.00  0.00     0.148 A 
ATOM     98  C   UNL A   1      43.960  37.706  30.676  1.00  0.00     0.002 A 
ATOM     99  C   UNL A   1      43.631  37.014  32.978  1.00  0.00     0.091 A 
ATOM    100  F   UNL A   1      43.075  34.741  33.441  1.00  0.00    -0.205 F 
ATOM    101  C   UNL A   1      43.951  38.005  32.036  1.00  0.00     0.022 A 
BRANCH  99 102
ATOM    102  S   UNL A   1      43.550  37.511  34.703  1.00  0.00     0.127 S 
ATOM    103  O   UNL A   1      44.761  36.897  35.247  1.00  0.00    -0.237 OA
ATOM    104  O   UNL A   1      43.595  38.971  34.610  1.00  0.00    -0.237 OA
ATOM    105  O   UNL A   1      42.293  36.979  35.213  1.00  0.00    -0.744 OA
ENDBRANCH  99 102
ENDBRANCH  72  95
ENDBRANCH  46  47
ENDBRANCH  38  41
ENDBRANCH  36  37
ENDBRANCH   1  36
TORSDOF 18
ENDMDL
MODEL 3
REMARK VINA RESULT:      -9.7      5.896     11.752
REMARK SMILES COc1cccc([C@H]2CC(c3ccc(S(C)(=O)=O)cc3)=NN2c2ccc(C(=O)NCCCNC(=O)c3ccc(-c4c5nc(c(-c6cccc(S(=O)(=O)[O-])c6F)c6ccc([nH]6)c(-c6cccc(S(=O)(=O)[O-])c6F)c6nc(c(-c7cccc(S(=O)(=O)[O-])c7F)c7ccc4[nH]7)C=C6)C=C5)cc3)cc2)c1
REMARK SMILES IDX 31 1 30 2 29 3 27 4 28 5 26 7 23 8 24 9 100 10 25 11 99 12
REMARK SMILES IDX 22 13 8 14 9 15 10 16 21 17 7 18 3 19 4 20 101 21 5 22 6 23
REMARK SMILES IDX 2 24 1 25 11 26 12 27 20 28 13 29 19 30 14 31 15 32 16 33
REMARK SMILES IDX 17 34 18 35 32 36 33 37 34 38 35 40 36 41 37 42 98 43 38 44
REMARK SMILES IDX 97 45 39 46 40 47 41 48 91 49 42 50 96 51 90 52 92 53 43 54
REMARK SMILES IDX 95 55 89 56 88 57 44 59 76 60 56 61 75 62 57 63 60 64 74 65
REMARK SMILES IDX 93 66 58 67 59 68 73 70 94 71 61 72 45 73 46 74 54 75 47 76
REMARK SMILES IDX 49 77 55 78 48 79 50 80 51 81 52 82 53 83 77 84 78 85 86 86
REMARK SMILES IDX 79 87 81 88 87 89 80 90 82 91 83 92 84 93 85 94 62 95 63 96
REMARK SMILES IDX 71 97 64 98 66 99 72 100 65 101 67 102 68 103 69 104 70 105
REMARK H PARENT 29 6 33 39 92 58 60 69
REMARK Flexibility Score: inf
ROOT
ATOM      1  C   UNL A   1      40.184  25.365  28.119  1.00  0.00     0.042 C 
ENDROOT
BRANCH   1   2
ATOM      2  C   UNL A   1      38.932  24.681  27.569  1.00  0.00     0.118 C 
BRANCH   2   3
ATOM      3  N   UNL A   1      39.251  23.396  26.975  1.00  0.00    -0.352 N 
ATOM      4  C   UNL A   1      38.564  22.577  26.117  1.00  0.00     0.251 C 
ATOM      5  O   UNL A   1      39.143  21.564  25.722  1.00  0.00    -0.269 OA
ATOM      6  H   UNL A   1      40.132  23.046  27.239  1.00  0.00     0.163 HD
BRANCH   4   7
ATOM      7  C   UNL A   1      37.198  22.880  25.603  1.00  0.00     0.039 A 
ATOM      8  C   UNL A   1      34.691  23.498  24.438  1.00  0.00     0.060 A 
ATOM      9  C   UNL A   1      35.781  23.132  23.643  1.00  0.00     0.029 A 
ATOM     10  C   UNL A   1      34.856  23.487  25.824  1.00  0.00     0.029 A 
ATOM     11  C   UNL A   1      37.024  22.847  24.213  1.00  0.00     0.016 A 
ATOM     12  C   UNL A   1      36.086  23.146  26.403  1.00  0.00     0.016 A 
BRANCH   8  13
ATOM     13  N   UNL A   1      33.489  23.843  23.841  1.00  0.00    -0.257 N 
ATOM     14  C   UNL A   1      32.988  23.238  22.607  1.00  0.00     0.144 C 
ATOM     15  C   UNL A   1      31.805  24.145  22.244  1.00  0.00     0.091 C 
ATOM     16  C   UNL A   1      31.990  25.228  23.267  1.00  0.00     0.071 C 
ATOM     17  N   UNL A   1      32.918  25.035  24.150  1.00  0.00    -0.176 NA
BRANCH  14  18
ATOM     18  C   UNL A   1      32.588  21.790  22.839  1.00  0.00    -0.019 A 
ATOM     19  C   UNL A   1      32.336  19.870  24.327  1.00  0.00     0.119 A 
ATOM     20  C   UNL A   1      31.976  19.083  23.234  1.00  0.00     0.046 A 
ATOM     21  C   UNL A   1      32.649  21.216  24.126  1.00  0.00     0.052 A 
ATOM     22  C   UNL A   1      31.905  19.635  21.955  1.00  0.00     0.004 A 
ATOM     23  C   UNL A   1      32.207  20.983  21.758  1.00  0.00     0.006 A 
BRANCH  19  24
ATOM     24  O   UNL A   1      32.375  19.211  25.526  1.00  0.00    -0.497 OA
ATOM     25  C   UNL A   1      32.736  17.836  25.482  1.00  0.00     0.278 C 
ENDBRANCH  19  24
ENDBRANCH  14  18
BRANCH  16  26
ATOM     26  C   UNL A   1      31.177  26.443  23.233  1.00  0.00    -0.002 A 
ATOM     27  C   UNL A   1      29.812  26.343  23.519  1.00  0.00     0.011 A 
ATOM     28  C   UNL A   1      31.759  27.667  22.897  1.00  0.00     0.011 A 
ATOM     29  C   UNL A   1      29.016  27.489  23.487  1.00  0.00     0.021 A 
ATOM     30  C   UNL A   1      30.959  28.809  22.838  1.00  0.00     0.021 A 
ATOM     31  C   UNL A   1      29.593  28.713  23.131  1.00  0.00     0.067 A 
BRANCH  31  32
ATOM     32  S   UNL A   1      28.571  30.165  23.064  1.00  0.00     0.175 S 
ATOM     33  C   UNL A   1      28.659  30.690  21.371  1.00  0.00     0.163 C 
ATOM     34  O   UNL A   1      27.215  29.740  23.349  1.00  0.00    -0.224 OA
ATOM     35  O   UNL A   1      29.214  31.189  23.868  1.00  0.00    -0.224 OA
ENDBRANCH  31  32
ENDBRANCH  16  26
ENDBRANCH   8  13
ENDBRANCH   4   7
ENDBRANCH   2   3
ENDBRANCH   1   2
BRANCH   1  36
ATOM     36  C   UNL A   1      41.485  24.726  27.639  1.00  0.00     0.118 C 
BRANCH  36  37
ATOM     37  N   UNL A   1      42.144  23.975  28.699  1.00  0.00    -0.352 N 
ATOM     38  C   UNL A   1      43.437  24.044  29.153  1.00  0.00     0.251 C 
ATOM     39  H   UNL A   1      41.575  23.317  29.160  1.00  0.00     0.163 HD
ATOM     40  O   UNL A   1      43.856  23.166  29.903  1.00  0.00    -0.269 OA
BRANCH  38  41
ATOM     41  C   UNL A   1      44.326  25.155  28.747  1.00  0.00     0.039 A 
ATOM     42  C   UNL A   1      44.779  25.204  27.425  1.00  0.00     0.014 A 
ATOM     43  C   UNL A   1      44.760  26.113  29.668  1.00  0.00     0.014 A 
ATOM     44  C   UNL A   1      45.629  26.236  27.017  1.00  0.00     0.010 A 
ATOM     45  C   UNL A   1      45.556  27.176  29.246  1.00  0.00     0.010 A 
ATOM     46  C   UNL A   1      46.007  27.243  27.918  1.00  0.00    -0.014 A 
BRANCH  46  47
ATOM     47  C   UNL A   1      46.867  28.377  27.493  1.00  0.00     0.031 A 
ATOM     48  C   UNL A   1      48.362  28.219  27.440  1.00  0.00     0.074 A 
ATOM     49  C   UNL A   1      46.306  29.576  27.242  1.00  0.00     0.049 A 
ATOM     50  N   UNL A   1      49.276  29.110  27.156  1.00  0.00    -0.248 NA
ATOM     51  C   UNL A   1      48.906  26.892  27.774  1.00  0.00     0.031 C 
ATOM     52  C   UNL A   1      44.875  29.876  27.338  1.00  0.00     0.029 A 
ATOM     53  N   UNL A   1      46.872  30.775  26.886  1.00  0.00    -0.354 N 
ATOM     54  C   UNL A   1      50.498  28.468  27.315  1.00  0.00     0.074 A 
ATOM     55  C   UNL A   1      50.211  27.118  27.746  1.00  0.00     0.031 C 
ATOM     56  C   UNL A   1      44.678  31.173  27.052  1.00  0.00     0.029 A 
ATOM     57  C   UNL A   1      45.966  31.802  26.777  1.00  0.00     0.049 A 
ATOM     58  H   UNL A   1      47.837  30.887  26.724  1.00  0.00     0.167 HD
ATOM     59  C   UNL A   1      51.745  28.949  27.093  1.00  0.00     0.034 A 
ATOM     60  C   UNL A   1      46.150  33.107  26.495  1.00  0.00     0.034 A 
ATOM     61  C   UNL A   1      52.023  30.276  26.615  1.00  0.00     0.049 A 
ATOM     62  C   UNL A   1      47.539  33.600  26.198  1.00  0.00     0.074 A 
ATOM     63  C   UNL A   1      53.244  30.828  26.270  1.00  0.00     0.029 A 
ATOM     64  N   UNL A   1      51.068  31.262  26.416  1.00  0.00    -0.354 N 
ATOM     65  N   UNL A   1      48.668  32.933  26.192  1.00  0.00    -0.248 NA
ATOM     66  C   UNL A   1      47.678  35.017  25.830  1.00  0.00     0.031 C 
ATOM     67  C   UNL A   1      53.028  32.153  25.873  1.00  0.00     0.029 A 
ATOM     68  C   UNL A   1      51.671  32.420  25.957  1.00  0.00     0.049 A 
ATOM     69  H   UNL A   1      50.103  31.153  26.577  1.00  0.00     0.167 HD
ATOM     70  C   UNL A   1      49.645  33.837  25.788  1.00  0.00     0.074 A 
ATOM     71  C   UNL A   1      48.970  35.095  25.538  1.00  0.00     0.031 C 
ATOM     72  C   UNL A   1      50.980  33.647  25.655  1.00  0.00     0.034 A 
BRANCH  59  73
ATOM     73  C   UNL A   1      52.906  28.011  27.306  1.00  0.00     0.023 A 
ATOM     74  C   UNL A   1      53.566  28.002  28.552  1.00  0.00     0.012 A 
ATOM     75  C   UNL A   1      53.303  27.103  26.307  1.00  0.00     0.148 A 
ATOM     76  C   UNL A   1      54.626  27.126  28.788  1.00  0.00     0.002 A 
ATOM     77  C   UNL A   1      54.334  26.203  26.565  1.00  0.00     0.091 A 
ATOM     78  F   UNL A   1      52.679  27.140  25.121  1.00  0.00    -0.205 F 
ATOM     79  C   UNL A   1      55.002  26.222  27.800  1.00  0.00     0.022 A 
BRANCH  77  80
ATOM     80  S   UNL A   1      54.841  24.949  25.383  1.00  0.00     0.127 S 
ATOM     81  O   UNL A   1      55.775  25.696  24.542  1.00  0.00    -0.237 OA
ATOM     82  O   UNL A   1      55.468  23.947  26.247  1.00  0.00    -0.237 OA
ATOM     83  O   UNL A   1      53.622  24.502  24.725  1.00  0.00    -0.744 OA
ENDBRANCH  77  80
ENDBRANCH  59  73
BRANCH  60  84
ATOM     84  C   UNL A   1      44.974  34.018  26.402  1.00  0.00     0.023 A 
ATOM     85  C   UNL A   1      44.142  33.954  25.269  1.00  0.00     0.012 A 
ATOM     86  C   UNL A   1      44.651  34.911  27.443  1.00  0.00     0.148 A 
ATOM     87  C   UNL A   1      43.025  34.784  25.158  1.00  0.00     0.002 A 
ATOM     88  C   UNL A   1      43.507  35.696  27.350  1.00  0.00     0.091 A 
ATOM     89  F   UNL A   1      45.463  34.968  28.508  1.00  0.00    -0.205 F 
ATOM     90  C   UNL A   1      42.702  35.646  26.202  1.00  0.00     0.022 A 
BRANCH  88  91
ATOM     91  S   UNL A   1      42.941  36.731  28.707  1.00  0.00     0.127 S 
ATOM     92  O   UNL A   1      42.613  35.738  29.726  1.00  0.00    -0.237 OA
ATOM     93  O   UNL A   1      44.129  37.537  28.991  1.00  0.00    -0.237 OA
ATOM     94  O   UNL A   1      41.819  37.493  28.174  1.00  0.00    -0.744 OA
ENDBRANCH  88  91
ENDBRANCH  60  84
BRANCH  72  95
ATOM     95  C   UNL A   1      51.807  34.816  25.190  1.00  0.00     0.023 A 
ATOM     96  C   UNL A   1      52.207  34.896  23.841  1.00  0.00     0.012 A 
ATOM     97  C   UNL A   1      52.121  35.873  26.069  1.00  0.00     0.148 A 
ATOM     98  C   UNL A   1      52.930  35.995  23.381  1.00  0.00     0.002 A 
ATOM     99  C   UNL A   1      52.802  36.986  25.591  1.00  0.00     0.091 A 
ATOM    100  F   UNL A   1      51.750  35.768  27.353  1.00  0.00    -0.205 F 
ATOM    101  C   UNL A   1      53.217  37.043  24.251  1.00  0.00     0.022 A 
BRANCH  99 102
ATOM    102  S   UNL A   1      53.132  38.422  26.619  1.00  0.00     0.127 S 
ATOM    103  O   UNL A   1      51.780  38.844  26.985  1.00  0.00    -0.237 OA
ATOM    104  O   UNL A   1      53.910  37.849  27.718  1.00  0.00    -0.237 OA
ATOM    105  O   UNL A   1      53.873  39.353  25.777  1.00  0.00    -0.744 OA
ENDBRANCH  99 102
ENDBRANCH  72  95
ENDBRANCH  46  47
ENDBRANCH  38  41
ENDBRANCH  36  37
ENDBRANCH   1  36
TORSDOF 18
ENDMDL
