MODEL 1
REMARK VINA RESULT:     -12.1      0.000      0.000
REMARK SMILES CC[C@@H](C)c1ccccc1NC(=O)[C@@H]1[C@@H](C(=O)NCCCNC(=O)c2ccc(-c3c4nc(c(-c5cccc(S(=O)(=O)[O-])c5F)c5ccc([nH]5)c(-c5cccc(S(=O)(=O)[O-])c5F)c5nc(c(-c6cccc(S(=O)(=O)[O-])c6F)c6ccc3[nH]6)C=C5)C=C4)cc2)[C@@H]2C=C[C@H]1C2
REMARK SMILES IDX 19 1 18 2 16 3 17 4 15 6 14 7 91 8 88 9 90 10 92 11 89 12
REMARK SMILES IDX 12 13 11 14 13 16 10 17 5 18 6 19 7 20 9 21 8 22 3 23 4 24
REMARK SMILES IDX 2 25 1 26 20 27 21 28 22 29 23 30 24 32 25 33 26 34 87 35
REMARK SMILES IDX 27 36 86 37 28 38 29 39 30 40 80 41 31 42 85 43 79 44 81 45
REMARK SMILES IDX 32 46 84 47 78 48 77 49 33 51 65 52 45 53 64 54 46 55 49 56
REMARK SMILES IDX 63 57 82 58 47 59 48 60 62 62 83 63 50 64 34 65 35 66 43 67
REMARK SMILES IDX 36 68 38 69 44 70 37 71 39 72 40 73 41 74 42 75 66 76 67 77
REMARK SMILES IDX 75 78 68 79 70 80 76 81 69 82 71 83 72 84 73 85 74 86 51 87
REMARK SMILES IDX 52 88 60 89 53 90 55 91 61 92 54 93 56 94 57 95 58 96 59 97
REMARK H PARENT 18 5 11 15 22 31 81 50 49 61
REMARK Flexibility Score: inf
ROOT
ATOM      1  C   UNL A   1      31.530  30.824  26.522  1.00  0.00     0.117 C 
ENDROOT
BRANCH   1   2
ATOM      2  N   UNL A   1      32.879  30.347  26.744  1.00  0.00    -0.356 N 
ATOM      3  C   UNL A   1      33.477  29.193  26.347  1.00  0.00     0.224 C 
ATOM      4  O   UNL A   1      34.680  29.078  26.589  1.00  0.00    -0.275 OA
ATOM      5  H   UNL A   1      33.454  30.954  27.266  1.00  0.00     0.163 HD
BRANCH   3   6
ATOM      6  C   UNL A   1      32.678  28.111  25.628  1.00  0.00     0.098 C 
ATOM      7  C   UNL A   1      33.506  26.774  25.390  1.00  0.00     0.099 C 
ATOM      8  C   UNL A   1      33.508  26.701  23.833  1.00  0.00     0.025 C 
ATOM      9  C   UNL A   1      32.357  28.573  24.177  1.00  0.00     0.025 C 
ATOM     10  C   UNL A   1      32.107  26.445  23.340  1.00  0.00    -0.027 C 
ATOM     11  C   UNL A   1      33.631  28.172  23.438  1.00  0.00     0.017 C 
ATOM     12  C   UNL A   1      31.409  27.568  23.557  1.00  0.00    -0.027 C 
BRANCH   7  13
ATOM     13  C   UNL A   1      32.860  25.585  26.119  1.00  0.00     0.228 C 
ATOM     14  N   UNL A   1      33.298  24.294  26.069  1.00  0.00    -0.326 N 
ATOM     15  H   UNL A   1      32.721  23.679  26.579  1.00  0.00     0.169 HD
ATOM     16  O   UNL A   1      31.859  25.761  26.826  1.00  0.00    -0.274 OA
BRANCH  14  17
ATOM     17  C   UNL A   1      34.381  23.641  25.458  1.00  0.00     0.044 A 
ATOM     18  C   UNL A   1      34.136  22.671  24.454  1.00  0.00    -0.022 A 
ATOM     19  C   UNL A   1      35.196  22.403  23.560  1.00  0.00     0.006 A 
ATOM     20  C   UNL A   1      36.479  22.905  23.770  1.00  0.00     0.000 A 
ATOM     21  C   UNL A   1      35.699  23.967  25.773  1.00  0.00     0.026 A 
ATOM     22  C   UNL A   1      36.747  23.619  24.924  1.00  0.00     0.002 A 
BRANCH  18  23
ATOM     23  C   UNL A   1      32.802  21.898  24.331  1.00  0.00     0.018 C 
ATOM     24  C   UNL A   1      33.054  20.376  24.375  1.00  0.00     0.013 C 
BRANCH  23  25
ATOM     25  C   UNL A   1      32.007  22.233  23.031  1.00  0.00     0.005 C 
ATOM     26  C   UNL A   1      31.968  21.146  21.963  1.00  0.00     0.004 C 
ENDBRANCH  23  25
ENDBRANCH  18  23
ENDBRANCH  14  17
ENDBRANCH   7  13
ENDBRANCH   3   6
ENDBRANCH   1   2
BRANCH   1  27
ATOM     27  C   UNL A   1      31.411  32.330  26.723  1.00  0.00     0.042 C 
BRANCH  27  28
ATOM     28  C   UNL A   1      32.730  33.027  27.056  1.00  0.00     0.118 C 
BRANCH  28  29
ATOM     29  N   UNL A   1      32.543  34.346  27.646  1.00  0.00    -0.352 N 
ATOM     30  C   UNL A   1      33.126  34.927  28.742  1.00  0.00     0.251 C 
ATOM     31  H   UNL A   1      31.889  34.915  27.179  1.00  0.00     0.163 HD
ATOM     32  O   UNL A   1      32.684  36.000  29.150  1.00  0.00    -0.269 OA
BRANCH  30  33
ATOM     33  C   UNL A   1      34.263  34.288  29.443  1.00  0.00     0.039 A 
ATOM     34  C   UNL A   1      33.994  33.505  30.570  1.00  0.00     0.014 A 
ATOM     35  C   UNL A   1      35.587  34.497  29.047  1.00  0.00     0.014 A 
ATOM     36  C   UNL A   1      35.042  32.903  31.271  1.00  0.00     0.010 A 
ATOM     37  C   UNL A   1      36.626  33.835  29.700  1.00  0.00     0.010 A 
ATOM     38  C   UNL A   1      36.367  33.044  30.829  1.00  0.00    -0.014 A 
BRANCH  38  39
ATOM     39  C   UNL A   1      37.480  32.361  31.540  1.00  0.00     0.031 A 
ATOM     40  C   UNL A   1      38.233  31.231  30.888  1.00  0.00     0.074 A 
ATOM     41  C   UNL A   1      37.784  32.730  32.800  1.00  0.00     0.049 A 
ATOM     42  N   UNL A   1      39.243  30.540  31.351  1.00  0.00    -0.248 NA
ATOM     43  C   UNL A   1      37.779  30.805  29.554  1.00  0.00     0.031 C 
ATOM     44  C   UNL A   1      37.076  33.752  33.575  1.00  0.00     0.029 A 
ATOM     45  N   UNL A   1      38.756  32.280  33.657  1.00  0.00    -0.354 N 
ATOM     46  C   UNL A   1      39.527  29.583  30.383  1.00  0.00     0.074 A 
ATOM     47  C   UNL A   1      38.556  29.757  29.324  1.00  0.00     0.031 C 
ATOM     48  C   UNL A   1      37.649  33.863  34.783  1.00  0.00     0.029 A 
ATOM     49  C   UNL A   1      38.749  32.909  34.880  1.00  0.00     0.049 A 
ATOM     50  H   UNL A   1      39.399  31.572  33.419  1.00  0.00     0.167 HD
ATOM     51  C   UNL A   1      40.524  28.666  30.359  1.00  0.00     0.034 A 
ATOM     52  C   UNL A   1      39.545  32.745  35.955  1.00  0.00     0.034 A 
ATOM     53  C   UNL A   1      41.512  28.521  31.396  1.00  0.00     0.049 A 
ATOM     54  C   UNL A   1      40.680  31.761  35.880  1.00  0.00     0.074 A 
ATOM     55  C   UNL A   1      42.606  27.676  31.431  1.00  0.00     0.029 A 
ATOM     56  N   UNL A   1      41.525  29.239  32.582  1.00  0.00    -0.354 N 
ATOM     57  N   UNL A   1      41.030  30.978  34.888  1.00  0.00    -0.248 NA
ATOM     58  C   UNL A   1      41.559  31.672  37.055  1.00  0.00     0.031 C 
ATOM     59  C   UNL A   1      43.272  27.870  32.647  1.00  0.00     0.029 A 
ATOM     60  C   UNL A   1      42.607  28.856  33.357  1.00  0.00     0.049 A 
ATOM     61  H   UNL A   1      40.862  29.921  32.835  1.00  0.00     0.167 HD
ATOM     62  C   UNL A   1      42.190  30.333  35.303  1.00  0.00     0.074 A 
ATOM     63  C   UNL A   1      42.495  30.835  36.627  1.00  0.00     0.031 C 
ATOM     64  C   UNL A   1      42.930  29.402  34.651  1.00  0.00     0.034 A 
BRANCH  51  65
ATOM     65  C   UNL A   1      40.632  27.783  29.140  1.00  0.00     0.023 A 
ATOM     66  C   UNL A   1      39.805  26.646  29.034  1.00  0.00     0.012 A 
ATOM     67  C   UNL A   1      41.505  28.102  28.081  1.00  0.00     0.148 A 
ATOM     68  C   UNL A   1      39.874  25.816  27.914  1.00  0.00     0.002 A 
ATOM     69  C   UNL A   1      41.534  27.297  26.947  1.00  0.00     0.091 A 
ATOM     70  F   UNL A   1      42.299  29.175  28.206  1.00  0.00    -0.205 F 
ATOM     71  C   UNL A   1      40.730  26.148  26.868  1.00  0.00     0.022 A 
BRANCH  69  72
ATOM     72  S   UNL A   1      42.545  27.684  25.513  1.00  0.00     0.127 S 
ATOM     73  O   UNL A   1      42.309  26.516  24.662  1.00  0.00    -0.237 OA
ATOM     74  O   UNL A   1      41.930  28.922  25.028  1.00  0.00    -0.237 OA
ATOM     75  O   UNL A   1      43.902  27.835  26.008  1.00  0.00    -0.744 OA
ENDBRANCH  69  72
ENDBRANCH  51  65
BRANCH  52  76
ATOM     76  C   UNL A   1      39.354  33.605  37.158  1.00  0.00     0.023 A 
ATOM     77  C   UNL A   1      39.852  34.923  37.148  1.00  0.00     0.012 A 
ATOM     78  C   UNL A   1      38.655  33.142  38.289  1.00  0.00     0.148 A 
ATOM     79  C   UNL A   1      39.687  35.753  38.258  1.00  0.00     0.002 A 
ATOM     80  C   UNL A   1      38.446  33.993  39.369  1.00  0.00     0.091 A 
ATOM     81  F   UNL A   1      38.197  31.883  38.281  1.00  0.00    -0.205 F 
ATOM     82  C   UNL A   1      38.975  35.293  39.362  1.00  0.00     0.022 A 
BRANCH  80  83
ATOM     83  S   UNL A   1      37.430  33.529  40.775  1.00  0.00     0.127 S 
ATOM     84  O   UNL A   1      38.252  32.503  41.413  1.00  0.00    -0.237 OA
ATOM     85  O   UNL A   1      37.339  34.791  41.512  1.00  0.00    -0.237 OA
ATOM     86  O   UNL A   1      36.167  33.072  40.215  1.00  0.00    -0.744 OA
ENDBRANCH  80  83
ENDBRANCH  52  76
BRANCH  64  87
ATOM     87  C   UNL A   1      44.168  28.889  35.340  1.00  0.00     0.023 A 
ATOM     88  C   UNL A   1      45.413  29.500  35.095  1.00  0.00     0.012 A 
ATOM     89  C   UNL A   1      44.086  27.834  36.270  1.00  0.00     0.148 A 
ATOM     90  C   UNL A   1      46.565  29.043  35.737  1.00  0.00     0.002 A 
ATOM     91  C   UNL A   1      45.229  27.418  36.944  1.00  0.00     0.091 A 
ATOM     92  F   UNL A   1      42.896  27.250  36.476  1.00  0.00    -0.205 F 
ATOM     93  C   UNL A   1      46.471  28.012  36.668  1.00  0.00     0.022 A 
BRANCH  91  94
ATOM     94  S   UNL A   1      45.179  26.163  38.227  1.00  0.00     0.127 S 
ATOM     95  O   UNL A   1      44.274  26.769  39.203  1.00  0.00    -0.237 OA
ATOM     96  O   UNL A   1      44.626  25.010  37.517  1.00  0.00    -0.237 OA
ATOM     97  O   UNL A   1      46.557  25.991  38.670  1.00  0.00    -0.744 OA
ENDBRANCH  91  94
ENDBRANCH  64  87
ENDBRANCH  38  39
ENDBRANCH  30  33
ENDBRANCH  28  29
ENDBRANCH  27  28
ENDBRANCH   1  27
TORSDOF 17
ENDMDL
MODEL 2
REMARK VINA RESULT:     -12.1      5.638      8.920
REMARK SMILES CC[C@@H](C)c1ccccc1NC(=O)[C@@H]1[C@@H](C(=O)NCCCNC(=O)c2ccc(-c3c4nc(c(-c5cccc(S(=O)(=O)[O-])c5F)c5ccc([nH]5)c(-c5cccc(S(=O)(=O)[O-])c5F)c5nc(c(-c6cccc(S(=O)(=O)[O-])c6F)c6ccc3[nH]6)C=C5)C=C4)cc2)[C@@H]2C=C[C@H]1C2
REMARK SMILES IDX 19 1 18 2 16 3 17 4 15 6 14 7 91 8 88 9 90 10 92 11 89 12
REMARK SMILES IDX 12 13 11 14 13 16 10 17 5 18 6 19 7 20 9 21 8 22 3 23 4 24
REMARK SMILES IDX 2 25 1 26 20 27 21 28 22 29 23 30 24 32 25 33 26 34 87 35
REMARK SMILES IDX 27 36 86 37 28 38 29 39 30 40 80 41 31 42 85 43 79 44 81 45
REMARK SMILES IDX 32 46 84 47 78 48 77 49 33 51 65 52 45 53 64 54 46 55 49 56
REMARK SMILES IDX 63 57 82 58 47 59 48 60 62 62 83 63 50 64 34 65 35 66 43 67
REMARK SMILES IDX 36 68 38 69 44 70 37 71 39 72 40 73 41 74 42 75 66 76 67 77
REMARK SMILES IDX 75 78 68 79 70 80 76 81 69 82 71 83 72 84 73 85 74 86 51 87
REMARK SMILES IDX 52 88 60 89 53 90 55 91 61 92 54 93 56 94 57 95 58 96 59 97
REMARK H PARENT 18 5 11 15 22 31 81 50 49 61
REMARK Flexibility Score: inf
ROOT
ATOM      1  C   UNL A   1      35.351  20.706  24.874  1.00  0.00     0.117 C 
ENDROOT
BRANCH   1   2
ATOM      2  N   UNL A   1      34.942  21.072  26.215  1.00  0.00    -0.356 N 
ATOM      3  C   UNL A   1      33.977  21.932  26.633  1.00  0.00     0.224 C 
ATOM      4  O   UNL A   1      33.767  21.986  27.847  1.00  0.00    -0.275 OA
ATOM      5  H   UNL A   1      35.442  20.626  26.937  1.00  0.00     0.163 HD
BRANCH   3   6
ATOM      6  C   UNL A   1      33.198  22.775  25.628  1.00  0.00     0.098 C 
ATOM      7  C   UNL A   1      33.283  24.336  25.919  1.00  0.00     0.099 C 
ATOM      8  C   UNL A   1      31.782  24.671  26.173  1.00  0.00     0.025 C 
ATOM      9  C   UNL A   1      31.675  22.487  25.771  1.00  0.00     0.025 C 
ATOM     10  C   UNL A   1      31.006  24.504  24.892  1.00  0.00    -0.027 C 
ATOM     11  C   UNL A   1      31.290  23.427  26.911  1.00  0.00     0.017 C 
ATOM     12  C   UNL A   1      30.951  23.189  24.642  1.00  0.00    -0.027 C 
BRANCH   7  13
ATOM     13  C   UNL A   1      33.952  25.082  24.753  1.00  0.00     0.228 C 
ATOM     14  N   UNL A   1      33.946  26.433  24.571  1.00  0.00    -0.326 N 
ATOM     15  H   UNL A   1      34.402  26.705  23.741  1.00  0.00     0.169 HD
ATOM     16  O   UNL A   1      34.564  24.448  23.882  1.00  0.00    -0.274 OA
BRANCH  14  17
ATOM     17  C   UNL A   1      33.438  27.525  25.295  1.00  0.00     0.044 A 
ATOM     18  C   UNL A   1      32.154  28.036  24.979  1.00  0.00    -0.022 A 
ATOM     19  C   UNL A   1      31.501  28.775  25.990  1.00  0.00     0.006 A 
ATOM     20  C   UNL A   1      32.156  29.161  27.158  1.00  0.00     0.000 A 
ATOM     21  C   UNL A   1      34.144  28.084  26.358  1.00  0.00     0.026 A 
ATOM     22  C   UNL A   1      33.504  28.884  27.302  1.00  0.00     0.002 A 
BRANCH  18  23
ATOM     23  C   UNL A   1      31.482  27.846  23.599  1.00  0.00     0.018 C 
ATOM     24  C   UNL A   1      31.975  28.921  22.606  1.00  0.00     0.013 C 
BRANCH  23  25
ATOM     25  C   UNL A   1      29.924  27.897  23.654  1.00  0.00     0.005 C 
ATOM     26  C   UNL A   1      29.249  28.931  22.760  1.00  0.00     0.004 C 
ENDBRANCH  23  25
ENDBRANCH  18  23
ENDBRANCH  14  17
ENDBRANCH   7  13
ENDBRANCH   3   6
ENDBRANCH   1   2
BRANCH   1  27
ATOM     27  C   UNL A   1      36.565  21.499  24.405  1.00  0.00     0.042 C 
BRANCH  27  28
ATOM     28  C   UNL A   1      37.443  22.033  25.536  1.00  0.00     0.118 C 
BRANCH  28  29
ATOM     29  N   UNL A   1      38.469  21.086  25.955  1.00  0.00    -0.352 N 
ATOM     30  C   UNL A   1      39.729  21.293  26.452  1.00  0.00     0.251 C 
ATOM     31  H   UNL A   1      38.213  20.139  25.866  1.00  0.00     0.163 HD
ATOM     32  O   UNL A   1      40.482  20.329  26.580  1.00  0.00    -0.269 OA
BRANCH  30  33
ATOM     33  C   UNL A   1      40.200  22.646  26.827  1.00  0.00     0.039 A 
ATOM     34  C   UNL A   1      41.065  22.769  27.918  1.00  0.00     0.014 A 
ATOM     35  C   UNL A   1      39.756  23.793  26.163  1.00  0.00     0.014 A 
ATOM     36  C   UNL A   1      41.515  24.031  28.316  1.00  0.00     0.010 A 
ATOM     37  C   UNL A   1      40.263  25.045  26.512  1.00  0.00     0.010 A 
ATOM     38  C   UNL A   1      41.136  25.180  27.602  1.00  0.00    -0.014 A 
BRANCH  38  39
ATOM     39  C   UNL A   1      41.654  26.518  27.988  1.00  0.00     0.031 A 
ATOM     40  C   UNL A   1      43.072  26.915  27.678  1.00  0.00     0.074 A 
ATOM     41  C   UNL A   1      40.855  27.365  28.667  1.00  0.00     0.049 A 
ATOM     42  N   UNL A   1      43.683  28.047  27.920  1.00  0.00    -0.248 NA
ATOM     43  C   UNL A   1      43.925  25.903  27.033  1.00  0.00     0.031 C 
ATOM     44  C   UNL A   1      39.488  27.069  29.105  1.00  0.00     0.029 A 
ATOM     45  N   UNL A   1      41.078  28.640  29.122  1.00  0.00    -0.354 N 
ATOM     46  C   UNL A   1      44.993  27.875  27.486  1.00  0.00     0.074 A 
ATOM     47  C   UNL A   1      45.099  26.516  27.001  1.00  0.00     0.031 C 
ATOM     48  C   UNL A   1      38.990  28.138  29.746  1.00  0.00     0.029 A 
ATOM     49  C   UNL A   1      40.005  29.186  29.786  1.00  0.00     0.049 A 
ATOM     50  H   UNL A   1      41.928  29.120  28.985  1.00  0.00     0.167 HD
ATOM     51  C   UNL A   1      46.006  28.775  27.459  1.00  0.00     0.034 A 
ATOM     52  C   UNL A   1      39.849  30.398  30.354  1.00  0.00     0.034 A 
ATOM     53  C   UNL A   1      45.886  30.138  27.906  1.00  0.00     0.049 A 
ATOM     54  C   UNL A   1      40.969  31.398  30.259  1.00  0.00     0.074 A 
ATOM     55  C   UNL A   1      46.828  31.149  27.851  1.00  0.00     0.029 A 
ATOM     56  N   UNL A   1      44.752  30.681  28.492  1.00  0.00    -0.354 N 
ATOM     57  N   UNL A   1      42.147  31.268  29.697  1.00  0.00    -0.248 NA
ATOM     58  C   UNL A   1      40.721  32.728  30.834  1.00  0.00     0.031 C 
ATOM     59  C   UNL A   1      46.272  32.300  28.419  1.00  0.00     0.029 A 
ATOM     60  C   UNL A   1      44.972  32.013  28.804  1.00  0.00     0.049 A 
ATOM     61  H   UNL A   1      43.915  30.192  28.660  1.00  0.00     0.167 HD
ATOM     62  C   UNL A   1      42.765  32.508  29.816  1.00  0.00     0.074 A 
ATOM     63  C   UNL A   1      41.821  33.382  30.483  1.00  0.00     0.031 C 
ATOM     64  C   UNL A   1      44.005  32.886  29.419  1.00  0.00     0.034 A 
BRANCH  51  65
ATOM     65  C   UNL A   1      47.321  28.328  26.871  1.00  0.00     0.023 A 
ATOM     66  C   UNL A   1      48.402  28.041  27.731  1.00  0.00     0.012 A 
ATOM     67  C   UNL A   1      47.477  28.141  25.483  1.00  0.00     0.148 A 
ATOM     68  C   UNL A   1      49.627  27.616  27.218  1.00  0.00     0.002 A 
ATOM     69  C   UNL A   1      48.686  27.671  24.983  1.00  0.00     0.091 A 
ATOM     70  F   UNL A   1      46.447  28.437  24.678  1.00  0.00    -0.205 F 
ATOM     71  C   UNL A   1      49.766  27.421  25.847  1.00  0.00     0.022 A 
BRANCH  69  72
ATOM     72  S   UNL A   1      48.938  27.312  23.241  1.00  0.00     0.127 S 
ATOM     73  O   UNL A   1      50.394  27.407  23.128  1.00  0.00    -0.237 OA
ATOM     74  O   UNL A   1      48.407  25.951  23.127  1.00  0.00    -0.237 OA
ATOM     75  O   UNL A   1      48.185  28.318  22.512  1.00  0.00    -0.744 OA
ENDBRANCH  69  72
ENDBRANCH  51  65
BRANCH  52  76
ATOM     76  C   UNL A   1      38.545  30.765  30.975  1.00  0.00     0.023 A 
ATOM     77  C   UNL A   1      38.321  30.466  32.333  1.00  0.00     0.012 A 
ATOM     78  C   UNL A   1      37.545  31.436  30.245  1.00  0.00     0.148 A 
ATOM     79  C   UNL A   1      37.111  30.798  32.945  1.00  0.00     0.002 A 
ATOM     80  C   UNL A   1      36.364  31.813  30.875  1.00  0.00     0.091 A 
ATOM     81  F   UNL A   1      37.774  31.703  28.952  1.00  0.00    -0.205 F 
ATOM     82  C   UNL A   1      36.139  31.481  32.220  1.00  0.00     0.022 A 
BRANCH  80  83
ATOM     83  S   UNL A   1      35.114  32.810  30.056  1.00  0.00     0.127 S 
ATOM     84  O   UNL A   1      35.907  33.931  29.555  1.00  0.00    -0.237 OA
ATOM     85  O   UNL A   1      34.624  31.893  29.025  1.00  0.00    -0.237 OA
ATOM     86  O   UNL A   1      34.135  33.135  31.083  1.00  0.00    -0.744 OA
ENDBRANCH  80  83
ENDBRANCH  52  76
BRANCH  64  87
ATOM     87  C   UNL A   1      44.406  34.319  29.658  1.00  0.00     0.023 A 
ATOM     88  C   UNL A   1      44.896  34.712  30.919  1.00  0.00     0.012 A 
ATOM     89  C   UNL A   1      44.347  35.264  28.615  1.00  0.00     0.148 A 
ATOM     90  C   UNL A   1      45.283  36.032  31.150  1.00  0.00     0.002 A 
ATOM     91  C   UNL A   1      44.782  36.566  28.838  1.00  0.00     0.091 A 
ATOM     92  F   UNL A   1      43.859  34.879  27.426  1.00  0.00    -0.205 F 
ATOM     93  C   UNL A   1      45.237  36.954  30.108  1.00  0.00     0.022 A 
BRANCH  91  94
ATOM     94  S   UNL A   1      44.848  37.790  27.525  1.00  0.00     0.127 S 
ATOM     95  O   UNL A   1      45.787  37.174  26.589  1.00  0.00    -0.237 OA
ATOM     96  O   UNL A   1      43.461  37.827  27.061  1.00  0.00    -0.237 OA
ATOM     97  O   UNL A   1      45.303  39.023  28.154  1.00  0.00    -0.744 OA
ENDBRANCH  91  94
ENDBRANCH  64  87
ENDBRANCH  38  39
ENDBRANCH  30  33
ENDBRANCH  28  29
ENDBRANCH  27  28
ENDBRANCH   1  27
TORSDOF 17
ENDMDL
MODEL 3
REMARK VINA RESULT:     -12.0      2.410      8.086
REMARK SMILES CC[C@@H](C)c1ccccc1NC(=O)[C@@H]1[C@@H](C(=O)NCCCNC(=O)c2ccc(-c3c4nc(c(-c5cccc(S(=O)(=O)[O-])c5F)c5ccc([nH]5)c(-c5cccc(S(=O)(=O)[O-])c5F)c5nc(c(-c6cccc(S(=O)(=O)[O-])c6F)c6ccc3[nH]6)C=C5)C=C4)cc2)[C@@H]2C=C[C@H]1C2
REMARK SMILES IDX 19 1 18 2 16 3 17 4 15 6 14 7 91 8 88 9 90 10 92 11 89 12
REMARK SMILES IDX 12 13 11 14 13 16 10 17 5 18 6 19 7 20 9 21 8 22 3 23 4 24
REMARK SMILES IDX 2 25 1 26 20 27 21 28 22 29 23 30 24 32 25 33 26 34 87 35
REMARK SMILES IDX 27 36 86 37 28 38 29 39 30 40 80 41 31 42 85 43 79 44 81 45
REMARK SMILES IDX 32 46 84 47 78 48 77 49 33 51 65 52 45 53 64 54 46 55 49 56
REMARK SMILES IDX 63 57 82 58 47 59 48 60 62 62 83 63 50 64 34 65 35 66 43 67
REMARK SMILES IDX 36 68 38 69 44 70 37 71 39 72 40 73 41 74 42 75 66 76 67 77
REMARK SMILES IDX 75 78 68 79 70 80 76 81 69 82 71 83 72 84 73 85 74 86 51 87
REMARK SMILES IDX 52 88 60 89 53 90 55 91 61 92 54 93 56 94 57 95 58 96 59 97
REMARK H PARENT 18 5 11 15 22 31 81 50 49 61
REMARK Flexibility Score: inf
ROOT
ATOM      1  C   UNL A   1      32.707  29.448  24.374  1.00  0.00     0.117 C 
ENDROOT
BRANCH   1   2
ATOM      2  N   UNL A   1      33.384  28.951  23.194  1.00  0.00    -0.356 N 
ATOM      3  C   UNL A   1      33.375  27.712  22.635  1.00  0.00     0.224 C 
ATOM      4  O   UNL A   1      33.968  27.582  21.562  1.00  0.00    -0.275 OA
ATOM      5  H   UNL A   1      33.938  29.615  22.723  1.00  0.00     0.163 HD
BRANCH   3   6
ATOM      6  C   UNL A   1      32.650  26.557  23.317  1.00  0.00     0.098 C 
ATOM      7  C   UNL A   1      33.631  25.408  23.815  1.00  0.00     0.099 C 
ATOM      8  C   UNL A   1      33.118  24.198  22.976  1.00  0.00     0.025 C 
ATOM      9  C   UNL A   1      31.757  25.814  22.282  1.00  0.00     0.025 C 
ATOM     10  C   UNL A   1      31.732  23.822  23.432  1.00  0.00    -0.027 C 
ATOM     11  C   UNL A   1      32.758  24.855  21.644  1.00  0.00     0.017 C 
ATOM     12  C   UNL A   1      30.912  24.800  23.025  1.00  0.00    -0.027 C 
BRANCH   7  13
ATOM     13  C   UNL A   1      33.564  25.245  25.342  1.00  0.00     0.228 C 
ATOM     14  N   UNL A   1      34.309  24.372  26.078  1.00  0.00    -0.326 N 
ATOM     15  H   UNL A   1      34.088  24.401  27.038  1.00  0.00     0.169 HD
ATOM     16  O   UNL A   1      32.786  25.944  26.006  1.00  0.00    -0.274 OA
BRANCH  14  17
ATOM     17  C   UNL A   1      35.320  23.443  25.782  1.00  0.00     0.044 A 
ATOM     18  C   UNL A   1      34.969  22.113  25.439  1.00  0.00    -0.022 A 
ATOM     19  C   UNL A   1      35.924  21.375  24.707  1.00  0.00     0.006 A 
ATOM     20  C   UNL A   1      37.221  21.843  24.509  1.00  0.00     0.000 A 
ATOM     21  C   UNL A   1      36.664  23.812  25.759  1.00  0.00     0.026 A 
ATOM     22  C   UNL A   1      37.612  23.027  25.108  1.00  0.00     0.002 A 
BRANCH  18  23
ATOM     23  C   UNL A   1      33.631  21.457  25.855  1.00  0.00     0.018 C 
ATOM     24  C   UNL A   1      33.591  21.233  27.381  1.00  0.00     0.013 C 
BRANCH  23  25
ATOM     25  C   UNL A   1      33.361  20.094  25.145  1.00  0.00     0.005 C 
ATOM     26  C   UNL A   1      32.498  20.145  23.889  1.00  0.00     0.004 C 
ENDBRANCH  23  25
ENDBRANCH  18  23
ENDBRANCH  14  17
ENDBRANCH   7  13
ENDBRANCH   3   6
ENDBRANCH   1   2
BRANCH   1  27
ATOM     27  C   UNL A   1      33.479  29.144  25.653  1.00  0.00     0.042 C 
BRANCH  27  28
ATOM     28  C   UNL A   1      32.837  29.700  26.923  1.00  0.00     0.118 C 
BRANCH  28  29
ATOM     29  N   UNL A   1      32.917  31.151  27.013  1.00  0.00    -0.352 N 
ATOM     30  C   UNL A   1      33.817  31.961  27.657  1.00  0.00     0.251 C 
ATOM     31  H   UNL A   1      32.205  31.632  26.531  1.00  0.00     0.163 HD
ATOM     32  O   UNL A   1      33.584  33.166  27.731  1.00  0.00    -0.269 OA
BRANCH  30  33
ATOM     33  C   UNL A   1      35.050  31.413  28.267  1.00  0.00     0.039 A 
ATOM     34  C   UNL A   1      36.216  32.183  28.214  1.00  0.00     0.014 A 
ATOM     35  C   UNL A   1      35.090  30.135  28.833  1.00  0.00     0.014 A 
ATOM     36  C   UNL A   1      37.405  31.692  28.760  1.00  0.00     0.010 A 
ATOM     37  C   UNL A   1      36.257  29.677  29.445  1.00  0.00     0.010 A 
ATOM     38  C   UNL A   1      37.431  30.443  29.401  1.00  0.00    -0.014 A 
BRANCH  38  39
ATOM     39  C   UNL A   1      38.680  29.939  30.030  1.00  0.00     0.031 A 
ATOM     40  C   UNL A   1      39.103  30.416  31.394  1.00  0.00     0.074 A 
ATOM     41  C   UNL A   1      39.465  29.082  29.348  1.00  0.00     0.049 A 
ATOM     42  N   UNL A   1      40.147  30.068  32.102  1.00  0.00    -0.248 NA
ATOM     43  C   UNL A   1      38.259  31.436  32.039  1.00  0.00     0.031 C 
ATOM     44  C   UNL A   1      39.212  28.608  27.985  1.00  0.00     0.029 A 
ATOM     45  N   UNL A   1      40.641  28.467  29.699  1.00  0.00    -0.354 N 
ATOM     46  C   UNL A   1      40.101  30.841  33.257  1.00  0.00     0.074 A 
ATOM     47  C   UNL A   1      38.948  31.706  33.137  1.00  0.00     0.031 C 
ATOM     48  C   UNL A   1      40.191  27.764  27.623  1.00  0.00     0.029 A 
ATOM     49  C   UNL A   1      41.152  27.652  28.717  1.00  0.00     0.049 A 
ATOM     50  H   UNL A   1      41.077  28.598  30.572  1.00  0.00     0.167 HD
ATOM     51  C   UNL A   1      40.922  30.810  34.335  1.00  0.00     0.034 A 
ATOM     52  C   UNL A   1      42.263  26.889  28.701  1.00  0.00     0.034 A 
ATOM     53  C   UNL A   1      42.045  29.921  34.469  1.00  0.00     0.049 A 
ATOM     54  C   UNL A   1      43.125  26.829  29.932  1.00  0.00     0.074 A 
ATOM     55  C   UNL A   1      42.892  29.758  35.550  1.00  0.00     0.029 A 
ATOM     56  N   UNL A   1      42.480  29.043  33.487  1.00  0.00    -0.354 N 
ATOM     57  N   UNL A   1      42.972  27.448  31.078  1.00  0.00    -0.248 NA
ATOM     58  C   UNL A   1      44.286  25.929  29.885  1.00  0.00     0.031 C 
ATOM     59  C   UNL A   1      43.850  28.793  35.217  1.00  0.00     0.029 A 
ATOM     60  C   UNL A   1      43.584  28.337  33.936  1.00  0.00     0.049 A 
ATOM     61  H   UNL A   1      42.065  28.937  32.601  1.00  0.00     0.167 HD
ATOM     62  C   UNL A   1      43.993  26.983  31.901  1.00  0.00     0.074 A 
ATOM     63  C   UNL A   1      44.743  26.015  31.128  1.00  0.00     0.031 C 
ATOM     64  C   UNL A   1      44.288  27.335  33.176  1.00  0.00     0.034 A 
BRANCH  51  65
ATOM     65  C   UNL A   1      40.598  31.730  35.486  1.00  0.00     0.023 A 
ATOM     66  C   UNL A   1      41.452  32.816  35.767  1.00  0.00     0.012 A 
ATOM     67  C   UNL A   1      39.429  31.556  36.254  1.00  0.00     0.148 A 
ATOM     68  C   UNL A   1      41.173  33.690  36.817  1.00  0.00     0.002 A 
ATOM     69  C   UNL A   1      39.133  32.459  37.270  1.00  0.00     0.091 A 
ATOM     70  F   UNL A   1      38.637  30.507  35.989  1.00  0.00    -0.205 F 
ATOM     71  C   UNL A   1      40.009  33.517  37.561  1.00  0.00     0.022 A 
BRANCH  69  72
ATOM     72  S   UNL A   1      37.618  32.368  38.232  1.00  0.00     0.127 S 
ATOM     73  O   UNL A   1      36.677  33.086  37.369  1.00  0.00    -0.237 OA
ATOM     74  O   UNL A   1      37.388  30.923  38.310  1.00  0.00    -0.237 OA
ATOM     75  O   UNL A   1      37.912  33.004  39.504  1.00  0.00    -0.744 OA
ENDBRANCH  69  72
ENDBRANCH  51  65
BRANCH  52  76
ATOM     76  C   UNL A   1      42.567  26.045  27.510  1.00  0.00     0.023 A 
ATOM     77  C   UNL A   1      43.305  26.597  26.445  1.00  0.00     0.012 A 
ATOM     78  C   UNL A   1      42.164  24.698  27.441  1.00  0.00     0.148 A 
ATOM     79  C   UNL A   1      43.608  25.832  25.318  1.00  0.00     0.002 A 
ATOM     80  C   UNL A   1      42.516  23.926  26.340  1.00  0.00     0.091 A 
ATOM     81  F   UNL A   1      41.454  24.195  28.461  1.00  0.00    -0.205 F 
ATOM     82  C   UNL A   1      43.223  24.495  25.270  1.00  0.00     0.022 A 
BRANCH  80  83
ATOM     83  S   UNL A   1      42.179  22.164  26.254  1.00  0.00     0.127 S 
ATOM     84  O   UNL A   1      40.727  22.146  26.087  1.00  0.00    -0.237 OA
ATOM     85  O   UNL A   1      42.940  21.768  25.068  1.00  0.00    -0.237 OA
ATOM     86  O   UNL A   1      42.679  21.605  27.501  1.00  0.00    -0.744 OA
ENDBRANCH  80  83
ENDBRANCH  52  76
BRANCH  64  87
ATOM     87  C   UNL A   1      45.451  26.642  33.838  1.00  0.00     0.023 A 
ATOM     88  C   UNL A   1      46.742  27.202  33.758  1.00  0.00     0.012 A 
ATOM     89  C   UNL A   1      45.255  25.464  34.584  1.00  0.00     0.148 A 
ATOM     90  C   UNL A   1      47.825  26.578  34.377  1.00  0.00     0.002 A 
ATOM     91  C   UNL A   1      46.330  24.875  35.241  1.00  0.00     0.091 A 
ATOM     92  F   UNL A   1      44.023  24.933  34.633  1.00  0.00    -0.205 F 
ATOM     93  C   UNL A   1      47.617  25.423  35.127  1.00  0.00     0.022 A 
BRANCH  91  94
ATOM     94  S   UNL A   1      46.132  23.442  36.306  1.00  0.00     0.127 S 
ATOM     95  O   UNL A   1      47.459  22.831  36.233  1.00  0.00    -0.237 OA
ATOM     96  O   UNL A   1      45.812  24.052  37.596  1.00  0.00    -0.237 OA
ATOM     97  O   UNL A   1      45.047  22.663  35.725  1.00  0.00    -0.744 OA
ENDBRANCH  91  94
ENDBRANCH  64  87
ENDBRANCH  38  39
ENDBRANCH  30  33
ENDBRANCH  28  29
ENDBRANCH  27  28
ENDBRANCH   1  27
TORSDOF 17
ENDMDL
