MODEL 1
REMARK VINA RESULT:     -13.0      0.000      0.000
REMARK SMILES Cc1cc(C(=O)NCCCNC(=O)c2ccc(-c3c4nc(c(-c5cccc(S(=O)(=O)[O-])c5F)c5ccc([nH]5)c(-c5cccc(S(=O)(=O)[O-])c5F)c5nc(c(-c6cccc(S(=O)(=O)[O-])c6F)c6ccc3[nH]6)C=C5)C=C4)cc2)cc(S(=O)(=O)NNC(=O)c2c[nH]c3ccccc23)c1C
REMARK SMILES IDX 8 1 7 2 5 3 6 4 4 6 1 7 2 8 3 9 95 10 78 11 96 12 77 13
REMARK SMILES IDX 79 14 80 15 81 16 82 17 83 19 84 20 85 22 86 23 87 24 94 25
REMARK SMILES IDX 88 26 89 27 93 28 90 30 92 31 91 32 9 33 10 34 11 35 12 36
REMARK SMILES IDX 13 38 14 39 15 40 76 41 16 42 75 43 17 44 18 45 19 46 69 47
REMARK SMILES IDX 20 48 74 49 68 50 70 51 21 52 73 53 67 54 66 55 22 57 54 58
REMARK SMILES IDX 34 59 53 60 35 61 38 62 52 63 71 64 36 65 37 66 51 68 72 69
REMARK SMILES IDX 39 70 23 71 24 72 32 73 25 74 27 75 33 76 26 77 28 78 29 79
REMARK SMILES IDX 30 80 31 81 55 82 56 83 64 84 57 85 59 86 65 87 58 88 60 89
REMARK SMILES IDX 61 90 62 91 63 92 40 93 41 94 49 95 42 96 44 97 50 98 43 99
REMARK SMILES IDX 45 100 46 101 47 102 48 103
REMARK H PARENT 7 5 82 18 83 21 88 29 11 37 70 56 38 67
REMARK Flexibility Score: inf
ROOT
ATOM      1  C   UNL A   1      31.345  31.417  26.624  1.00  0.00     0.118 C 
ENDROOT
BRANCH   1   2
ATOM      2  N   UNL A   1      32.432  30.620  27.171  1.00  0.00    -0.352 N 
ATOM      3  C   UNL A   1      32.816  29.310  27.034  1.00  0.00     0.251 C 
ATOM      4  O   UNL A   1      33.862  28.971  27.592  1.00  0.00    -0.269 OA
ATOM      5  H   UNL A   1      33.020  31.132  27.772  1.00  0.00     0.163 HD
BRANCH   3   6
ATOM      6  C   UNL A   1      32.084  28.282  26.235  1.00  0.00     0.041 A 
ATOM      7  C   UNL A   1      31.018  24.637  26.392  1.00  0.00     0.044 C 
ATOM      8  C   UNL A   1      31.187  26.036  25.852  1.00  0.00    -0.046 A 
ATOM      9  C   UNL A   1      31.952  26.944  26.605  1.00  0.00     0.017 A 
ATOM     10  C   UNL A   1      30.618  26.449  24.631  1.00  0.00    -0.028 A 
ATOM     11  C   UNL A   1      30.864  27.773  24.185  1.00  0.00     0.088 A 
ATOM     12  C   UNL A   1      29.781  25.497  23.809  1.00  0.00     0.046 C 
ATOM     13  C   UNL A   1      31.547  28.685  24.998  1.00  0.00     0.036 A 
BRANCH  11  14
ATOM     14  S   UNL A   1      30.419  28.214  22.515  1.00  0.00     0.257 S 
ATOM     15  O   UNL A   1      28.962  28.213  22.460  1.00  0.00    -0.205 OA
ATOM     16  O   UNL A   1      31.178  29.380  22.156  1.00  0.00    -0.205 OA
BRANCH  14  17
ATOM     17  N   UNL A   1      30.971  26.996  21.458  1.00  0.00    -0.123 NA
ATOM     18  H   UNL A   1      30.632  27.241  20.528  1.00  0.00     0.167 HD
BRANCH  17  19
ATOM     19  N   UNL A   1      32.408  26.722  21.323  1.00  0.00    -0.273 N 
ATOM     20  C   UNL A   1      32.872  25.413  21.333  1.00  0.00     0.268 C 
ATOM     21  H   UNL A   1      33.045  27.468  21.226  1.00  0.00     0.186 HD
ATOM     22  O   UNL A   1      33.240  24.848  20.307  1.00  0.00    -0.268 OA
BRANCH  20  23
ATOM     23  C   UNL A   1      33.185  24.918  22.674  1.00  0.00     0.066 A 
ATOM     24  C   UNL A   1      33.965  25.566  23.616  1.00  0.00     0.097 A 
ATOM     25  C   UNL A   1      32.961  23.612  23.221  1.00  0.00     0.012 A 
ATOM     26  N   UNL A   1      34.679  24.582  24.244  1.00  0.00    -0.360 N 
ATOM     27  C   UNL A   1      34.061  23.373  24.048  1.00  0.00     0.046 A 
ATOM     28  C   UNL A   1      32.053  22.556  23.001  1.00  0.00     0.011 A 
ATOM     29  H   UNL A   1      35.507  24.720  24.759  1.00  0.00     0.166 HD
ATOM     30  C   UNL A   1      34.406  22.100  24.505  1.00  0.00     0.027 A 
ATOM     31  C   UNL A   1      32.304  21.306  23.587  1.00  0.00     0.001 A 
ATOM     32  C   UNL A   1      33.493  21.070  24.275  1.00  0.00     0.002 A 
ENDBRANCH  20  23
ENDBRANCH  17  19
ENDBRANCH  14  17
ENDBRANCH  11  14
ENDBRANCH   3   6
ENDBRANCH   1   2
BRANCH   1  33
ATOM     33  C   UNL A   1      31.669  32.913  26.637  1.00  0.00     0.042 C 
BRANCH  33  34
ATOM     34  C   UNL A   1      32.820  33.286  27.574  1.00  0.00     0.118 C 
BRANCH  34  35
ATOM     35  N   UNL A   1      32.629  34.598  28.183  1.00  0.00    -0.352 N 
ATOM     36  C   UNL A   1      33.205  35.153  29.299  1.00  0.00     0.251 C 
ATOM     37  H   UNL A   1      31.983  35.178  27.720  1.00  0.00     0.163 HD
ATOM     38  O   UNL A   1      32.750  36.206  29.740  1.00  0.00    -0.269 OA
BRANCH  36  39
ATOM     39  C   UNL A   1      34.350  34.505  29.978  1.00  0.00     0.039 A 
ATOM     40  C   UNL A   1      34.111  33.778  31.151  1.00  0.00     0.014 A 
ATOM     41  C   UNL A   1      35.658  34.652  29.510  1.00  0.00     0.014 A 
ATOM     42  C   UNL A   1      35.172  33.160  31.821  1.00  0.00     0.010 A 
ATOM     43  C   UNL A   1      36.706  33.986  30.145  1.00  0.00     0.010 A 
ATOM     44  C   UNL A   1      36.476  33.237  31.309  1.00  0.00    -0.014 A 
BRANCH  44  45
ATOM     45  C   UNL A   1      37.608  32.531  31.966  1.00  0.00     0.031 A 
ATOM     46  C   UNL A   1      38.113  32.983  33.310  1.00  0.00     0.074 A 
ATOM     47  C   UNL A   1      38.244  31.541  31.307  1.00  0.00     0.049 A 
ATOM     48  N   UNL A   1      39.137  32.543  33.997  1.00  0.00    -0.248 NA
ATOM     49  C   UNL A   1      37.392  34.091  33.956  1.00  0.00     0.031 C 
ATOM     50  C   UNL A   1      37.898  31.061  29.968  1.00  0.00     0.029 A 
ATOM     51  N   UNL A   1      39.334  30.784  31.658  1.00  0.00    -0.354 N 
ATOM     52  C   UNL A   1      39.207  33.342  35.132  1.00  0.00     0.074 A 
ATOM     53  C   UNL A   1      38.137  34.313  35.029  1.00  0.00     0.031 C 
ATOM     54  C   UNL A   1      38.760  30.095  29.610  1.00  0.00     0.029 A 
ATOM     55  C   UNL A   1      39.736  29.907  30.678  1.00  0.00     0.049 A 
ATOM     56  H   UNL A   1      39.785  30.862  32.530  1.00  0.00     0.167 HD
ATOM     57  C   UNL A   1      40.065  33.262  36.177  1.00  0.00     0.034 A 
ATOM     58  C   UNL A   1      40.778  29.054  30.637  1.00  0.00     0.034 A 
ATOM     59  C   UNL A   1      41.095  32.266  36.299  1.00  0.00     0.049 A 
ATOM     60  C   UNL A   1      41.687  28.951  31.832  1.00  0.00     0.074 A 
ATOM     61  C   UNL A   1      41.955  32.043  37.360  1.00  0.00     0.029 A 
ATOM     62  N   UNL A   1      41.409  31.327  35.328  1.00  0.00    -0.354 N 
ATOM     63  N   UNL A   1      41.638  29.610  32.965  1.00  0.00    -0.248 NA
ATOM     64  C   UNL A   1      42.771  27.961  31.761  1.00  0.00     0.031 C 
ATOM     65  C   UNL A   1      42.801  30.980  37.023  1.00  0.00     0.029 A 
ATOM     66  C   UNL A   1      42.454  30.528  35.761  1.00  0.00     0.049 A 
ATOM     67  H   UNL A   1      40.957  31.243  34.458  1.00  0.00     0.167 HD
ATOM     68  C   UNL A   1      42.658  29.091  33.753  1.00  0.00     0.074 A 
ATOM     69  C   UNL A   1      43.297  28.048  32.976  1.00  0.00     0.031 C 
ATOM     70  C   UNL A   1      43.042  29.455  35.002  1.00  0.00     0.034 A 
BRANCH  57  71
ATOM     71  C   UNL A   1      39.891  34.245  37.306  1.00  0.00     0.023 A 
ATOM     72  C   UNL A   1      40.271  35.590  37.118  1.00  0.00     0.012 A 
ATOM     73  C   UNL A   1      39.297  33.860  38.524  1.00  0.00     0.148 A 
ATOM     74  C   UNL A   1      40.096  36.528  38.135  1.00  0.00     0.002 A 
ATOM     75  C   UNL A   1      39.086  34.810  39.517  1.00  0.00     0.091 A 
ATOM     76  F   UNL A   1      38.959  32.574  38.693  1.00  0.00    -0.205 F 
ATOM     77  C   UNL A   1      39.496  36.141  39.330  1.00  0.00     0.022 A 
BRANCH  75  78
ATOM     78  S   UNL A   1      38.250  34.429  41.062  1.00  0.00     0.127 S 
ATOM     79  O   UNL A   1      39.288  33.698  41.787  1.00  0.00    -0.237 OA
ATOM     80  O   UNL A   1      37.958  35.761  41.592  1.00  0.00    -0.237 OA
ATOM     81  O   UNL A   1      37.074  33.651  40.698  1.00  0.00    -0.744 OA
ENDBRANCH  75  78
ENDBRANCH  57  71
BRANCH  58  82
ATOM     82  C   UNL A   1      40.975  28.178  29.448  1.00  0.00     0.023 A 
ATOM     83  C   UNL A   1      40.231  26.986  29.341  1.00  0.00     0.012 A 
ATOM     84  C   UNL A   1      41.858  28.531  28.410  1.00  0.00     0.148 A 
ATOM     85  C   UNL A   1      40.386  26.147  28.237  1.00  0.00     0.002 A 
ATOM     86  C   UNL A   1      41.967  27.718  27.287  1.00  0.00     0.091 A 
ATOM     87  F   UNL A   1      42.567  29.662  28.536  1.00  0.00    -0.205 F 
ATOM     88  C   UNL A   1      41.245  26.517  27.205  1.00  0.00     0.022 A 
BRANCH  86  89
ATOM     89  S   UNL A   1      42.943  28.186  25.853  1.00  0.00     0.127 S 
ATOM     90  O   UNL A   1      42.897  29.644  25.921  1.00  0.00    -0.237 OA
ATOM     91  O   UNL A   1      44.245  27.595  26.165  1.00  0.00    -0.237 OA
ATOM     92  O   UNL A   1      42.273  27.581  24.710  1.00  0.00    -0.744 OA
ENDBRANCH  86  89
ENDBRANCH  58  82
BRANCH  70  93
ATOM     93  C   UNL A   1      44.185  28.701  35.630  1.00  0.00     0.023 A 
ATOM     94  C   UNL A   1      45.512  29.086  35.357  1.00  0.00     0.012 A 
ATOM     95  C   UNL A   1      43.941  27.663  36.551  1.00  0.00     0.148 A 
ATOM     96  C   UNL A   1      46.580  28.430  35.967  1.00  0.00     0.002 A 
ATOM     97  C   UNL A   1      45.008  27.046  37.193  1.00  0.00     0.091 A 
ATOM     98  F   UNL A   1      42.671  27.298  36.783  1.00  0.00    -0.205 F 
ATOM     99  C   UNL A   1      46.329  27.421  36.894  1.00  0.00     0.022 A 
BRANCH  97 100
ATOM    100  S   UNL A   1      44.774  25.802  38.467  1.00  0.00     0.127 S 
ATOM    101  O   UNL A   1      46.148  25.552  38.895  1.00  0.00    -0.237 OA
ATOM    102  O   UNL A   1      43.951  26.512  39.448  1.00  0.00    -0.237 OA
ATOM    103  O   UNL A   1      44.105  24.684  37.816  1.00  0.00    -0.744 OA
ENDBRANCH  97 100
ENDBRANCH  70  93
ENDBRANCH  44  45
ENDBRANCH  36  39
ENDBRANCH  34  35
ENDBRANCH  33  34
ENDBRANCH   1  33
TORSDOF 17
ENDMDL
MODEL 2
REMARK VINA RESULT:     -12.8      1.235      7.672
REMARK SMILES Cc1cc(C(=O)NCCCNC(=O)c2ccc(-c3c4nc(c(-c5cccc(S(=O)(=O)[O-])c5F)c5ccc([nH]5)c(-c5cccc(S(=O)(=O)[O-])c5F)c5nc(c(-c6cccc(S(=O)(=O)[O-])c6F)c6ccc3[nH]6)C=C5)C=C4)cc2)cc(S(=O)(=O)NNC(=O)c2c[nH]c3ccccc23)c1C
REMARK SMILES IDX 8 1 7 2 5 3 6 4 4 6 1 7 2 8 3 9 95 10 78 11 96 12 77 13
REMARK SMILES IDX 79 14 80 15 81 16 82 17 83 19 84 20 85 22 86 23 87 24 94 25
REMARK SMILES IDX 88 26 89 27 93 28 90 30 92 31 91 32 9 33 10 34 11 35 12 36
REMARK SMILES IDX 13 38 14 39 15 40 76 41 16 42 75 43 17 44 18 45 19 46 69 47
REMARK SMILES IDX 20 48 74 49 68 50 70 51 21 52 73 53 67 54 66 55 22 57 54 58
REMARK SMILES IDX 34 59 53 60 35 61 38 62 52 63 71 64 36 65 37 66 51 68 72 69
REMARK SMILES IDX 39 70 23 71 24 72 32 73 25 74 27 75 33 76 26 77 28 78 29 79
REMARK SMILES IDX 30 80 31 81 55 82 56 83 64 84 57 85 59 86 65 87 58 88 60 89
REMARK SMILES IDX 61 90 62 91 63 92 40 93 41 94 49 95 42 96 44 97 50 98 43 99
REMARK SMILES IDX 45 100 46 101 47 102 48 103
REMARK H PARENT 7 5 82 18 83 21 88 29 11 37 70 56 38 67
REMARK Flexibility Score: inf
ROOT
ATOM      1  C   UNL A   1      31.515  30.989  26.120  1.00  0.00     0.118 C 
ENDROOT
BRANCH   1   2
ATOM      2  N   UNL A   1      32.790  30.365  26.438  1.00  0.00    -0.352 N 
ATOM      3  C   UNL A   1      33.331  29.126  26.199  1.00  0.00     0.251 C 
ATOM      4  O   UNL A   1      34.501  28.949  26.547  1.00  0.00    -0.269 OA
ATOM      5  H   UNL A   1      33.398  30.960  26.933  1.00  0.00     0.163 HD
BRANCH   3   6
ATOM      6  C   UNL A   1      32.623  27.999  25.522  1.00  0.00     0.041 A 
ATOM      7  C   UNL A   1      30.054  25.288  26.223  1.00  0.00     0.044 C 
ATOM      8  C   UNL A   1      31.054  26.121  25.460  1.00  0.00    -0.046 A 
ATOM      9  C   UNL A   1      31.752  27.119  26.162  1.00  0.00     0.017 A 
ATOM     10  C   UNL A   1      31.312  25.924  24.087  1.00  0.00    -0.028 A 
ATOM     11  C   UNL A   1      32.298  26.730  23.464  1.00  0.00     0.088 A 
ATOM     12  C   UNL A   1      30.566  24.867  23.307  1.00  0.00     0.046 C 
ATOM     13  C   UNL A   1      32.909  27.780  24.161  1.00  0.00     0.036 A 
BRANCH  11  14
ATOM     14  S   UNL A   1      32.855  26.293  21.826  1.00  0.00     0.257 S 
ATOM     15  O   UNL A   1      31.660  26.191  20.997  1.00  0.00    -0.205 OA
ATOM     16  O   UNL A   1      33.929  27.184  21.480  1.00  0.00    -0.205 OA
BRANCH  14  17
ATOM     17  N   UNL A   1      33.574  24.750  21.883  1.00  0.00    -0.123 NA
ATOM     18  H   UNL A   1      34.103  24.642  21.017  1.00  0.00     0.167 HD
BRANCH  17  19
ATOM     19  N   UNL A   1      34.484  24.391  22.979  1.00  0.00    -0.273 N 
ATOM     20  C   UNL A   1      34.922  23.080  23.119  1.00  0.00     0.268 C 
ATOM     21  H   UNL A   1      34.783  25.079  23.616  1.00  0.00     0.186 HD
ATOM     22  O   UNL A   1      36.062  22.742  22.813  1.00  0.00    -0.268 OA
BRANCH  20  23
ATOM     23  C   UNL A   1      34.041  22.259  23.950  1.00  0.00     0.066 A 
ATOM     24  C   UNL A   1      32.968  21.508  23.499  1.00  0.00     0.097 A 
ATOM     25  C   UNL A   1      33.942  22.217  25.380  1.00  0.00     0.012 A 
ATOM     26  N   UNL A   1      32.004  21.626  24.463  1.00  0.00    -0.360 N 
ATOM     27  C   UNL A   1      32.583  22.026  25.642  1.00  0.00     0.046 A 
ATOM     28  C   UNL A   1      34.799  22.467  26.469  1.00  0.00     0.011 A 
ATOM     29  H   UNL A   1      31.044  21.451  24.332  1.00  0.00     0.166 HD
ATOM     30  C   UNL A   1      32.009  22.260  26.893  1.00  0.00     0.027 A 
ATOM     31  C   UNL A   1      34.258  22.549  27.760  1.00  0.00     0.001 A 
ATOM     32  C   UNL A   1      32.878  22.508  27.956  1.00  0.00     0.002 A 
ENDBRANCH  20  23
ENDBRANCH  17  19
ENDBRANCH  14  17
ENDBRANCH  11  14
ENDBRANCH   3   6
ENDBRANCH   1   2
BRANCH   1  33
ATOM     33  C   UNL A   1      31.383  32.377  26.752  1.00  0.00     0.042 C 
BRANCH  33  34
ATOM     34  C   UNL A   1      32.721  32.992  27.172  1.00  0.00     0.118 C 
BRANCH  34  35
ATOM     35  N   UNL A   1      32.554  34.311  27.770  1.00  0.00    -0.352 N 
ATOM     36  C   UNL A   1      33.166  34.876  28.863  1.00  0.00     0.251 C 
ATOM     37  H   UNL A   1      31.898  34.890  27.320  1.00  0.00     0.163 HD
ATOM     38  O   UNL A   1      32.729  35.937  29.305  1.00  0.00    -0.269 OA
BRANCH  36  39
ATOM     39  C   UNL A   1      34.326  34.229  29.517  1.00  0.00     0.039 A 
ATOM     40  C   UNL A   1      35.612  34.532  29.053  1.00  0.00     0.014 A 
ATOM     41  C   UNL A   1      34.162  33.288  30.537  1.00  0.00     0.014 A 
ATOM     42  C   UNL A   1      36.729  33.932  29.643  1.00  0.00     0.010 A 
ATOM     43  C   UNL A   1      35.279  32.737  31.164  1.00  0.00     0.010 A 
ATOM     44  C   UNL A   1      36.574  33.049  30.722  1.00  0.00    -0.014 A 
BRANCH  44  45
ATOM     45  C   UNL A   1      37.749  32.453  31.410  1.00  0.00     0.031 A 
ATOM     46  C   UNL A   1      38.501  31.308  30.785  1.00  0.00     0.074 A 
ATOM     47  C   UNL A   1      38.082  32.881  32.645  1.00  0.00     0.049 A 
ATOM     48  N   UNL A   1      39.496  30.611  31.272  1.00  0.00    -0.248 NA
ATOM     49  C   UNL A   1      38.061  30.871  29.450  1.00  0.00     0.031 C 
ATOM     50  C   UNL A   1      37.386  33.932  33.390  1.00  0.00     0.029 A 
ATOM     51  N   UNL A   1      39.067  32.463  33.505  1.00  0.00    -0.354 N 
ATOM     52  C   UNL A   1      39.775  29.632  30.325  1.00  0.00     0.074 A 
ATOM     53  C   UNL A   1      38.826  29.808  29.246  1.00  0.00     0.031 C 
ATOM     54  C   UNL A   1      37.962  34.073  34.594  1.00  0.00     0.029 A 
ATOM     55  C   UNL A   1      39.048  33.106  34.721  1.00  0.00     0.049 A 
ATOM     56  H   UNL A   1      39.726  31.769  33.273  1.00  0.00     0.167 HD
ATOM     57  C   UNL A   1      40.747  28.689  30.339  1.00  0.00     0.034 A 
ATOM     58  C   UNL A   1      39.811  32.932  35.818  1.00  0.00     0.034 A 
ATOM     59  C   UNL A   1      41.719  28.548  31.390  1.00  0.00     0.049 A 
ATOM     60  C   UNL A   1      40.914  31.909  35.787  1.00  0.00     0.074 A 
ATOM     61  C   UNL A   1      42.799  27.685  31.453  1.00  0.00     0.029 A 
ATOM     62  N   UNL A   1      41.730  29.286  32.563  1.00  0.00    -0.354 N 
ATOM     63  N   UNL A   1      41.262  31.100  34.816  1.00  0.00    -0.248 NA
ATOM     64  C   UNL A   1      41.757  31.803  36.987  1.00  0.00     0.031 C 
ATOM     65  C   UNL A   1      43.452  27.889  32.674  1.00  0.00     0.029 A 
ATOM     66  C   UNL A   1      42.792  28.894  33.361  1.00  0.00     0.049 A 
ATOM     67  H   UNL A   1      41.077  29.985  32.796  1.00  0.00     0.167 HD
ATOM     68  C   UNL A   1      42.381  30.415  35.273  1.00  0.00     0.074 A 
ATOM     69  C   UNL A   1      42.667  30.919  36.601  1.00  0.00     0.031 C 
ATOM     70  C   UNL A   1      43.100  29.445  34.655  1.00  0.00     0.034 A 
BRANCH  57  71
ATOM     71  C   UNL A   1      40.847  27.766  29.151  1.00  0.00     0.023 A 
ATOM     72  C   UNL A   1      40.004  26.639  29.076  1.00  0.00     0.012 A 
ATOM     73  C   UNL A   1      41.723  28.044  28.083  1.00  0.00     0.148 A 
ATOM     74  C   UNL A   1      40.055  25.783  27.977  1.00  0.00     0.002 A 
ATOM     75  C   UNL A   1      41.738  27.210  26.971  1.00  0.00     0.091 A 
ATOM     76  F   UNL A   1      42.532  29.109  28.178  1.00  0.00    -0.205 F 
ATOM     77  C   UNL A   1      40.914  26.073  26.921  1.00  0.00     0.022 A 
BRANCH  75  78
ATOM     78  S   UNL A   1      42.752  27.541  25.524  1.00  0.00     0.127 S 
ATOM     79  O   UNL A   1      42.149  28.771  25.016  1.00  0.00    -0.237 OA
ATOM     80  O   UNL A   1      44.081  27.709  26.112  1.00  0.00    -0.237 OA
ATOM     81  O   UNL A   1      42.614  26.374  24.664  1.00  0.00    -0.744 OA
ENDBRANCH  75  78
ENDBRANCH  57  71
BRANCH  58  82
ATOM     82  C   UNL A   1      39.600  33.797  37.013  1.00  0.00     0.023 A 
ATOM     83  C   UNL A   1      39.960  35.157  36.950  1.00  0.00     0.012 A 
ATOM     84  C   UNL A   1      39.016  33.296  38.192  1.00  0.00     0.148 A 
ATOM     85  C   UNL A   1      39.770  35.995  38.049  1.00  0.00     0.002 A 
ATOM     86  C   UNL A   1      38.778  34.148  39.264  1.00  0.00     0.091 A 
ATOM     87  F   UNL A   1      38.692  31.995  38.237  1.00  0.00    -0.205 F 
ATOM     88  C   UNL A   1      39.169  35.495  39.202  1.00  0.00     0.022 A 
BRANCH  86  89
ATOM     89  S   UNL A   1      37.886  33.621  40.732  1.00  0.00     0.127 S 
ATOM     90  O   UNL A   1      38.003  34.796  41.592  1.00  0.00    -0.237 OA
ATOM     91  O   UNL A   1      36.545  33.376  40.202  1.00  0.00    -0.237 OA
ATOM     92  O   UNL A   1      38.572  32.423  41.196  1.00  0.00    -0.744 OA
ENDBRANCH  86  89
ENDBRANCH  58  82
BRANCH  70  93
ATOM     93  C   UNL A   1      44.290  28.882  35.388  1.00  0.00     0.023 A 
ATOM     94  C   UNL A   1      45.564  29.450  35.195  1.00  0.00     0.012 A 
ATOM     95  C   UNL A   1      44.130  27.843  36.326  1.00  0.00     0.148 A 
ATOM     96  C   UNL A   1      46.667  28.973  35.901  1.00  0.00     0.002 A 
ATOM     97  C   UNL A   1      45.224  27.404  37.061  1.00  0.00     0.091 A 
ATOM     98  F   UNL A   1      42.912  27.301  36.481  1.00  0.00    -0.205 F 
ATOM     99  C   UNL A   1      46.496  27.960  36.843  1.00  0.00     0.022 A 
BRANCH  97 100
ATOM    100  S   UNL A   1      45.078  26.171  38.360  1.00  0.00     0.127 S 
ATOM    101  O   UNL A   1      44.542  25.028  37.625  1.00  0.00    -0.237 OA
ATOM    102  O   UNL A   1      46.466  26.016  38.799  1.00  0.00    -0.237 OA
ATOM    103  O   UNL A   1      44.191  26.748  39.361  1.00  0.00    -0.744 OA
ENDBRANCH  97 100
ENDBRANCH  70  93
ENDBRANCH  44  45
ENDBRANCH  36  39
ENDBRANCH  34  35
ENDBRANCH  33  34
ENDBRANCH   1  33
TORSDOF 17
ENDMDL
MODEL 3
REMARK VINA RESULT:     -12.8      1.660      7.836
REMARK SMILES Cc1cc(C(=O)NCCCNC(=O)c2ccc(-c3c4nc(c(-c5cccc(S(=O)(=O)[O-])c5F)c5ccc([nH]5)c(-c5cccc(S(=O)(=O)[O-])c5F)c5nc(c(-c6cccc(S(=O)(=O)[O-])c6F)c6ccc3[nH]6)C=C5)C=C4)cc2)cc(S(=O)(=O)NNC(=O)c2c[nH]c3ccccc23)c1C
REMARK SMILES IDX 8 1 7 2 5 3 6 4 4 6 1 7 2 8 3 9 95 10 78 11 96 12 77 13
REMARK SMILES IDX 79 14 80 15 81 16 82 17 83 19 84 20 85 22 86 23 87 24 94 25
REMARK SMILES IDX 88 26 89 27 93 28 90 30 92 31 91 32 9 33 10 34 11 35 12 36
REMARK SMILES IDX 13 38 14 39 15 40 76 41 16 42 75 43 17 44 18 45 19 46 69 47
REMARK SMILES IDX 20 48 74 49 68 50 70 51 21 52 73 53 67 54 66 55 22 57 54 58
REMARK SMILES IDX 34 59 53 60 35 61 38 62 52 63 71 64 36 65 37 66 51 68 72 69
REMARK SMILES IDX 39 70 23 71 24 72 32 73 25 74 27 75 33 76 26 77 28 78 29 79
REMARK SMILES IDX 30 80 31 81 55 82 56 83 64 84 57 85 59 86 65 87 58 88 60 89
REMARK SMILES IDX 61 90 62 91 63 92 40 93 41 94 49 95 42 96 44 97 50 98 43 99
REMARK SMILES IDX 45 100 46 101 47 102 48 103
REMARK H PARENT 7 5 82 18 83 21 88 29 11 37 70 56 38 67
REMARK Flexibility Score: inf
ROOT
ATOM      1  C   UNL A   1      31.420  30.876  26.188  1.00  0.00     0.118 C 
ENDROOT
BRANCH   1   2
ATOM      2  N   UNL A   1      32.467  30.172  26.913  1.00  0.00    -0.352 N 
ATOM      3  C   UNL A   1      32.982  28.901  26.849  1.00  0.00     0.251 C 
ATOM      4  O   UNL A   1      33.947  28.651  27.575  1.00  0.00    -0.269 OA
ATOM      5  H   UNL A   1      32.901  30.728  27.600  1.00  0.00     0.163 HD
BRANCH   3   6
ATOM      6  C   UNL A   1      32.485  27.821  25.945  1.00  0.00     0.041 A 
ATOM      7  C   UNL A   1      29.266  26.517  24.403  1.00  0.00     0.044 C 
ATOM      8  C   UNL A   1      30.735  26.611  24.734  1.00  0.00    -0.046 A 
ATOM      9  C   UNL A   1      31.141  27.596  25.651  1.00  0.00     0.017 A 
ATOM     10  C   UNL A   1      31.695  25.748  24.167  1.00  0.00    -0.028 A 
ATOM     11  C   UNL A   1      33.048  25.887  24.568  1.00  0.00     0.088 A 
ATOM     12  C   UNL A   1      31.286  24.690  23.169  1.00  0.00     0.046 C 
ATOM     13  C   UNL A   1      33.440  26.937  25.408  1.00  0.00     0.036 A 
BRANCH  11  14
ATOM     14  S   UNL A   1      34.216  24.620  24.106  1.00  0.00     0.257 S 
ATOM     15  O   UNL A   1      34.371  24.708  22.659  1.00  0.00    -0.205 OA
ATOM     16  O   UNL A   1      35.347  24.730  24.985  1.00  0.00    -0.205 OA
BRANCH  14  17
ATOM     17  N   UNL A   1      33.541  23.095  24.457  1.00  0.00    -0.123 NA
ATOM     18  H   UNL A   1      32.549  23.249  24.636  1.00  0.00     0.167 HD
BRANCH  17  19
ATOM     19  N   UNL A   1      33.628  21.999  23.482  1.00  0.00    -0.273 N 
ATOM     20  C   UNL A   1      32.520  21.199  23.234  1.00  0.00     0.268 C 
ATOM     21  H   UNL A   1      34.473  21.830  23.006  1.00  0.00     0.186 HD
ATOM     22  O   UNL A   1      31.859  21.311  22.205  1.00  0.00    -0.268 OA
BRANCH  20  23
ATOM     23  C   UNL A   1      32.432  20.037  24.118  1.00  0.00     0.066 A 
ATOM     24  C   UNL A   1      32.092  20.063  25.460  1.00  0.00     0.097 A 
ATOM     25  C   UNL A   1      32.874  18.695  23.879  1.00  0.00     0.012 A 
ATOM     26  N   UNL A   1      32.885  19.123  26.060  1.00  0.00    -0.360 N 
ATOM     27  C   UNL A   1      33.350  18.246  25.113  1.00  0.00     0.046 A 
ATOM     28  C   UNL A   1      33.070  17.871  22.752  1.00  0.00     0.011 A 
ATOM     29  H   UNL A   1      33.090  19.082  27.022  1.00  0.00     0.166 HD
ATOM     30  C   UNL A   1      34.170  17.124  25.250  1.00  0.00     0.027 A 
ATOM     31  C   UNL A   1      33.758  16.658  22.903  1.00  0.00     0.001 A 
ATOM     32  C   UNL A   1      34.350  16.325  24.120  1.00  0.00     0.002 A 
ENDBRANCH  20  23
ENDBRANCH  17  19
ENDBRANCH  14  17
ENDBRANCH  11  14
ENDBRANCH   3   6
ENDBRANCH   1   2
BRANCH   1  33
ATOM     33  C   UNL A   1      31.411  32.373  26.506  1.00  0.00     0.042 C 
BRANCH  33  34
ATOM     34  C   UNL A   1      32.600  32.830  27.354  1.00  0.00     0.118 C 
BRANCH  34  35
ATOM     35  N   UNL A   1      32.481  34.226  27.758  1.00  0.00    -0.352 N 
ATOM     36  C   UNL A   1      33.146  34.930  28.734  1.00  0.00     0.251 C 
ATOM     37  H   UNL A   1      31.819  34.749  27.252  1.00  0.00     0.163 HD
ATOM     38  O   UNL A   1      32.746  36.053  29.030  1.00  0.00    -0.269 OA
BRANCH  36  39
ATOM     39  C   UNL A   1      34.320  34.358  29.432  1.00  0.00     0.039 A 
ATOM     40  C   UNL A   1      34.124  33.716  30.660  1.00  0.00     0.014 A 
ATOM     41  C   UNL A   1      35.614  34.497  28.922  1.00  0.00     0.014 A 
ATOM     42  C   UNL A   1      35.212  33.172  31.349  1.00  0.00     0.010 A 
ATOM     43  C   UNL A   1      36.690  33.901  29.580  1.00  0.00     0.010 A 
ATOM     44  C   UNL A   1      36.503  33.237  30.802  1.00  0.00    -0.014 A 
BRANCH  44  45
ATOM     45  C   UNL A   1      37.664  32.606  31.482  1.00  0.00     0.031 A 
ATOM     46  C   UNL A   1      38.383  31.445  30.846  1.00  0.00     0.074 A 
ATOM     47  C   UNL A   1      38.013  33.017  32.718  1.00  0.00     0.049 A 
ATOM     48  N   UNL A   1      39.360  30.718  31.325  1.00  0.00    -0.248 NA
ATOM     49  C   UNL A   1      37.925  31.028  29.511  1.00  0.00     0.031 C 
ATOM     50  C   UNL A   1      37.349  34.081  33.472  1.00  0.00     0.029 A 
ATOM     51  N   UNL A   1      38.990  32.566  33.572  1.00  0.00    -0.354 N 
ATOM     52  C   UNL A   1      39.608  29.737  30.372  1.00  0.00     0.074 A 
ATOM     53  C   UNL A   1      38.660  29.946  29.297  1.00  0.00     0.031 C 
ATOM     54  C   UNL A   1      37.933  34.199  34.675  1.00  0.00     0.029 A 
ATOM     55  C   UNL A   1      38.992  33.202  34.791  1.00  0.00     0.049 A 
ATOM     56  H   UNL A   1      39.628  31.856  33.332  1.00  0.00     0.167 HD
ATOM     57  C   UNL A   1      40.554  28.768  30.376  1.00  0.00     0.034 A 
ATOM     58  C   UNL A   1      39.754  33.000  35.884  1.00  0.00     0.034 A 
ATOM     59  C   UNL A   1      41.526  28.593  31.422  1.00  0.00     0.049 A 
ATOM     60  C   UNL A   1      40.829  31.948  35.844  1.00  0.00     0.074 A 
ATOM     61  C   UNL A   1      42.582  27.701  31.476  1.00  0.00     0.029 A 
ATOM     62  N   UNL A   1      41.560  29.324  32.600  1.00  0.00    -0.354 N 
ATOM     63  N   UNL A   1      41.151  31.135  34.866  1.00  0.00    -0.248 NA
ATOM     64  C   UNL A   1      41.672  31.811  37.039  1.00  0.00     0.031 C 
ATOM     65  C   UNL A   1      43.245  27.879  32.695  1.00  0.00     0.029 A 
ATOM     66  C   UNL A   1      42.615  28.897  33.391  1.00  0.00     0.049 A 
ATOM     67  H   UNL A   1      40.928  30.038  32.840  1.00  0.00     0.167 HD
ATOM     68  C   UNL A   1      42.253  30.417  35.314  1.00  0.00     0.074 A 
ATOM     69  C   UNL A   1      42.556  30.905  36.644  1.00  0.00     0.031 C 
ATOM     70  C   UNL A   1      42.942  29.432  34.688  1.00  0.00     0.034 A 
BRANCH  57  71
ATOM     71  C   UNL A   1      40.624  27.850  29.182  1.00  0.00     0.023 A 
ATOM     72  C   UNL A   1      39.741  26.755  29.097  1.00  0.00     0.012 A 
ATOM     73  C   UNL A   1      41.513  28.103  28.118  1.00  0.00     0.148 A 
ATOM     74  C   UNL A   1      39.765  25.905  27.992  1.00  0.00     0.002 A 
ATOM     75  C   UNL A   1      41.501  27.277  27.000  1.00  0.00     0.091 A 
ATOM     76  F   UNL A   1      42.359  29.138  28.223  1.00  0.00    -0.205 F 
ATOM     77  C   UNL A   1      40.637  26.171  26.940  1.00  0.00     0.022 A 
BRANCH  75  78
ATOM     78  S   UNL A   1      42.531  27.581  25.559  1.00  0.00     0.127 S 
ATOM     79  O   UNL A   1      41.922  28.791  25.011  1.00  0.00    -0.237 OA
ATOM     80  O   UNL A   1      43.851  27.780  26.159  1.00  0.00    -0.237 OA
ATOM     81  O   UNL A   1      42.418  26.390  24.728  1.00  0.00    -0.744 OA
ENDBRANCH  75  78
ENDBRANCH  57  71
BRANCH  58  82
ATOM     82  C   UNL A   1      39.571  33.863  37.086  1.00  0.00     0.023 A 
ATOM     83  C   UNL A   1      39.941  35.221  37.021  1.00  0.00     0.012 A 
ATOM     84  C   UNL A   1      39.003  33.362  38.273  1.00  0.00     0.148 A 
ATOM     85  C   UNL A   1      39.777  36.056  38.126  1.00  0.00     0.002 A 
ATOM     86  C   UNL A   1      38.791  34.214  39.352  1.00  0.00     0.091 A 
ATOM     87  F   UNL A   1      38.670  32.065  38.320  1.00  0.00    -0.205 F 
ATOM     88  C   UNL A   1      39.193  35.557  39.287  1.00  0.00     0.022 A 
BRANCH  86  89
ATOM     89  S   UNL A   1      37.921  33.689  40.834  1.00  0.00     0.127 S 
ATOM     90  O   UNL A   1      38.708  32.532  41.251  1.00  0.00    -0.237 OA
ATOM     91  O   UNL A   1      38.050  34.866  41.694  1.00  0.00    -0.237 OA
ATOM     92  O   UNL A   1      36.557  33.410  40.407  1.00  0.00    -0.744 OA
ENDBRANCH  86  89
ENDBRANCH  58  82
BRANCH  70  93
ATOM     93  C   UNL A   1      44.119  28.832  35.412  1.00  0.00     0.023 A 
ATOM     94  C   UNL A   1      45.395  29.411  35.275  1.00  0.00     0.012 A 
ATOM     95  C   UNL A   1      43.943  27.744  36.290  1.00  0.00     0.148 A 
ATOM     96  C   UNL A   1      46.485  28.897  35.976  1.00  0.00     0.002 A 
ATOM     97  C   UNL A   1      45.024  27.268  37.023  1.00  0.00     0.091 A 
ATOM     98  F   UNL A   1      42.724  27.194  36.392  1.00  0.00    -0.205 F 
ATOM     99  C   UNL A   1      46.298  27.836  36.859  1.00  0.00     0.022 A 
BRANCH  97 100
ATOM    100  S   UNL A   1      44.855  25.967  38.250  1.00  0.00     0.127 S 
ATOM    101  O   UNL A   1      43.903  26.561  39.185  1.00  0.00    -0.237 OA
ATOM    102  O   UNL A   1      44.319  24.859  37.458  1.00  0.00    -0.237 OA
ATOM    103  O   UNL A   1      46.194  25.738  38.776  1.00  0.00    -0.744 OA
ENDBRANCH  97 100
ENDBRANCH  70  93
ENDBRANCH  44  45
ENDBRANCH  36  39
ENDBRANCH  34  35
ENDBRANCH  33  34
ENDBRANCH   1  33
TORSDOF 17
ENDMDL
