MODEL 1
REMARK VINA RESULT:     -11.9      0.000      0.000
REMARK SMILES Cc1nc(C(C)C)[nH]c(=O)c1C(=O)N(C)CC(=O)NCCCNC(=O)c1ccc(-c2c3nc(c(-c4cccc(S(=O)(=O)[O-])c4F)c4ccc([nH]4)c(-c4cccc(S(=O)(=O)[O-])c4F)c4nc(c(-c5cccc(S(=O)(=O)[O-])c5F)c5ccc2[nH]5)C=C4)C=C3)cc1
REMARK SMILES IDX 20 1 19 2 17 3 18 4 16 6 14 7 15 8 12 9 13 10 11 11 1 12
REMARK SMILES IDX 2 13 3 14 4 15 9 16 8 17 10 18 5 20 6 21 7 22 21 23 22 24
REMARK SMILES IDX 23 25 24 26 25 28 26 29 27 30 88 31 28 32 87 33 29 34 30 35
REMARK SMILES IDX 31 36 81 37 32 38 86 39 80 40 82 41 33 42 85 43 79 44 78 45
REMARK SMILES IDX 34 47 66 48 46 49 65 50 47 51 50 52 64 53 83 54 48 55 49 56
REMARK SMILES IDX 63 58 84 59 51 60 35 61 36 62 44 63 37 64 39 65 45 66 38 67
REMARK SMILES IDX 40 68 41 69 42 70 43 71 67 72 68 73 76 74 69 75 71 76 77 77
REMARK SMILES IDX 70 78 72 79 73 80 74 81 75 82 52 83 53 84 61 85 54 86 56 87
REMARK SMILES IDX 62 88 55 89 57 90 58 91 59 92 60 93
REMARK H PARENT 19 5 8 19 23 27 82 46 50 57
REMARK Flexibility Score: inf
ROOT
ATOM      1  C   UNL A   1      32.207  27.553  26.745  1.00  0.00     0.117 C 
ENDROOT
BRANCH   1   2
ATOM      2  N   UNL A   1      31.130  26.592  26.777  1.00  0.00    -0.354 N 
ATOM      3  C   UNL A   1      31.004  25.416  26.102  1.00  0.00     0.239 C 
ATOM      4  O   UNL A   1      30.134  24.632  26.501  1.00  0.00    -0.273 OA
ATOM      5  H   UNL A   1      30.378  26.821  27.371  1.00  0.00     0.163 HD
BRANCH   3   6
ATOM      6  C   UNL A   1      32.057  24.961  25.075  1.00  0.00     0.219 C 
BRANCH   6   7
ATOM      7  N   UNL A   1      32.595  25.881  24.054  1.00  0.00    -0.332 N 
ATOM      8  C   UNL A   1      34.044  25.960  23.991  1.00  0.00     0.147 C 
BRANCH   7   9
ATOM      9  C   UNL A   1      31.698  26.287  23.069  1.00  0.00     0.261 C 
ATOM     10  O   UNL A   1      31.511  25.542  22.101  1.00  0.00    -0.269 OA
BRANCH   9  11
ATOM     11  C   UNL A   1      30.915  27.575  23.102  1.00  0.00     0.126 A 
ATOM     12  C   UNL A   1      28.604  26.748  23.791  1.00  0.00     0.068 C 
ATOM     13  C   UNL A   1      29.609  27.792  23.384  1.00  0.00     0.058 A 
ATOM     14  N   UNL A   1      28.970  29.008  23.231  1.00  0.00    -0.239 NA
ATOM     15  C   UNL A   1      29.557  29.944  22.564  1.00  0.00     0.111 A 
ATOM     16  C   UNL A   1      31.627  28.781  22.555  1.00  0.00     0.264 A 
ATOM     17  N   UNL A   1      30.848  29.828  22.161  1.00  0.00    -0.310 N 
ATOM     18  O   UNL A   1      32.850  28.875  22.505  1.00  0.00    -0.269 OA
ATOM     19  H   UNL A   1      31.230  30.516  21.569  1.00  0.00     0.171 HD
BRANCH  15  20
ATOM     20  C   UNL A   1      28.822  31.236  22.233  1.00  0.00     0.049 C 
ATOM     21  C   UNL A   1      28.194  31.168  20.844  1.00  0.00     0.016 C 
ATOM     22  C   UNL A   1      27.769  31.555  23.293  1.00  0.00     0.016 C 
ENDBRANCH  15  20
ENDBRANCH   9  11
ENDBRANCH   7   9
ENDBRANCH   6   7
ENDBRANCH   3   6
ENDBRANCH   1   2
BRANCH   1  23
ATOM     23  C   UNL A   1      31.732  28.965  26.440  1.00  0.00     0.042 C 
BRANCH  23  24
ATOM     24  C   UNL A   1      32.825  29.900  25.940  1.00  0.00     0.118 C 
BRANCH  24  25
ATOM     25  N   UNL A   1      32.622  31.281  26.360  1.00  0.00    -0.352 N 
ATOM     26  C   UNL A   1      33.311  32.025  27.289  1.00  0.00     0.251 C 
ATOM     27  H   UNL A   1      31.880  31.750  25.913  1.00  0.00     0.163 HD
ATOM     28  O   UNL A   1      32.884  33.120  27.632  1.00  0.00    -0.269 OA
BRANCH  26  29
ATOM     29  C   UNL A   1      34.556  31.490  27.884  1.00  0.00     0.039 A 
ATOM     30  C   UNL A   1      35.680  32.318  27.972  1.00  0.00     0.014 A 
ATOM     31  C   UNL A   1      34.617  30.176  28.352  1.00  0.00     0.014 A 
ATOM     32  C   UNL A   1      36.842  31.848  28.589  1.00  0.00     0.010 A 
ATOM     33  C   UNL A   1      35.745  29.738  29.038  1.00  0.00     0.010 A 
ATOM     34  C   UNL A   1      36.872  30.565  29.157  1.00  0.00    -0.014 A 
BRANCH  34  35
ATOM     35  C   UNL A   1      38.070  30.047  29.869  1.00  0.00     0.031 A 
ATOM     36  C   UNL A   1      38.392  30.559  31.249  1.00  0.00     0.074 A 
ATOM     37  C   UNL A   1      38.913  29.202  29.243  1.00  0.00     0.049 A 
ATOM     38  N   UNL A   1      39.453  30.342  31.983  1.00  0.00    -0.248 NA
ATOM     39  C   UNL A   1      37.404  31.455  31.875  1.00  0.00     0.031 C 
ATOM     40  C   UNL A   1      38.736  28.674  27.888  1.00  0.00     0.029 A 
ATOM     41  N   UNL A   1      40.108  28.663  29.652  1.00  0.00    -0.354 N 
ATOM     42  C   UNL A   1      39.276  31.098  33.136  1.00  0.00     0.074 A 
ATOM     43  C   UNL A   1      38.027  31.811  32.990  1.00  0.00     0.031 C 
ATOM     44  C   UNL A   1      39.781  27.888  27.580  1.00  0.00     0.029 A 
ATOM     45  C   UNL A   1      40.722  27.888  28.694  1.00  0.00     0.049 A 
ATOM     46  H   UNL A   1      40.489  28.816  30.547  1.00  0.00     0.167 HD
ATOM     47  C   UNL A   1      40.069  31.172  34.231  1.00  0.00     0.034 A 
ATOM     48  C   UNL A   1      41.917  27.264  28.708  1.00  0.00     0.034 A 
ATOM     49  C   UNL A   1      41.290  30.432  34.388  1.00  0.00     0.049 A 
ATOM     50  C   UNL A   1      42.775  27.364  29.943  1.00  0.00     0.074 A 
ATOM     51  C   UNL A   1      42.139  30.396  35.481  1.00  0.00     0.029 A 
ATOM     52  N   UNL A   1      41.838  29.597  33.427  1.00  0.00    -0.354 N 
ATOM     53  N   UNL A   1      42.536  27.993  31.069  1.00  0.00    -0.248 NA
ATOM     54  C   UNL A   1      44.056  26.641  29.925  1.00  0.00     0.031 C 
ATOM     55  C   UNL A   1      43.211  29.555  35.171  1.00  0.00     0.029 A 
ATOM     56  C   UNL A   1      43.010  29.039  33.902  1.00  0.00     0.049 A 
ATOM     57  H   UNL A   1      41.448  29.427  32.539  1.00  0.00     0.167 HD
ATOM     58  C   UNL A   1      43.602  27.692  31.909  1.00  0.00     0.074 A 
ATOM     59  C   UNL A   1      44.486  26.819  31.166  1.00  0.00     0.031 C 
ATOM     60  C   UNL A   1      43.835  28.107  33.178  1.00  0.00     0.034 A 
BRANCH  47  61
ATOM     61  C   UNL A   1      39.613  32.041  35.375  1.00  0.00     0.023 A 
ATOM     62  C   UNL A   1      39.907  33.420  35.359  1.00  0.00     0.012 A 
ATOM     63  C   UNL A   1      38.830  31.515  36.421  1.00  0.00     0.148 A 
ATOM     64  C   UNL A   1      39.457  34.255  36.380  1.00  0.00     0.002 A 
ATOM     65  C   UNL A   1      38.344  32.361  37.410  1.00  0.00     0.091 A 
ATOM     66  F   UNL A   1      38.573  30.199  36.427  1.00  0.00    -0.205 F 
ATOM     67  C   UNL A   1      38.667  33.729  37.398  1.00  0.00     0.022 A 
BRANCH  65  68
ATOM     68  S   UNL A   1      37.248  31.803  38.720  1.00  0.00     0.127 S 
ATOM     69  O   UNL A   1      38.066  32.038  39.909  1.00  0.00    -0.237 OA
ATOM     70  O   UNL A   1      36.111  32.710  38.573  1.00  0.00    -0.237 OA
ATOM     71  O   UNL A   1      36.957  30.405  38.433  1.00  0.00    -0.744 OA
ENDBRANCH  65  68
ENDBRANCH  47  61
BRANCH  48  72
ATOM     72  C   UNL A   1      42.361  26.439  27.547  1.00  0.00     0.023 A 
ATOM     73  C   UNL A   1      43.128  27.041  26.528  1.00  0.00     0.012 A 
ATOM     74  C   UNL A   1      42.017  25.079  27.427  1.00  0.00     0.148 A 
ATOM     75  C   UNL A   1      43.497  26.322  25.391  1.00  0.00     0.002 A 
ATOM     76  C   UNL A   1      42.440  24.351  26.318  1.00  0.00     0.091 A 
ATOM     77  F   UNL A   1      41.274  24.520  28.393  1.00  0.00    -0.205 F 
ATOM     78  C   UNL A   1      43.159  24.975  25.289  1.00  0.00     0.022 A 
BRANCH  76  79
ATOM     79  S   UNL A   1      42.164  22.581  26.188  1.00  0.00     0.127 S 
ATOM     80  O   UNL A   1      42.811  22.083  27.397  1.00  0.00    -0.237 OA
ATOM     81  O   UNL A   1      40.703  22.492  26.189  1.00  0.00    -0.237 OA
ATOM     82  O   UNL A   1      42.780  22.192  24.925  1.00  0.00    -0.744 OA
ENDBRANCH  76  79
ENDBRANCH  48  72
BRANCH  60  83
ATOM     83  C   UNL A   1      45.047  27.563  33.887  1.00  0.00     0.023 A 
ATOM     84  C   UNL A   1      46.232  28.319  33.954  1.00  0.00     0.012 A 
ATOM     85  C   UNL A   1      44.969  26.332  34.571  1.00  0.00     0.148 A 
ATOM     86  C   UNL A   1      47.333  27.845  34.664  1.00  0.00     0.002 A 
ATOM     87  C   UNL A   1      46.051  25.893  35.321  1.00  0.00     0.091 A 
ATOM     88  F   UNL A   1      43.836  25.621  34.480  1.00  0.00    -0.205 F 
ATOM     89  C   UNL A   1      47.239  26.640  35.358  1.00  0.00     0.022 A 
BRANCH  87  90
ATOM     90  S   UNL A   1      45.985  24.407  36.330  1.00  0.00     0.127 S 
ATOM     91  O   UNL A   1      46.658  23.434  35.470  1.00  0.00    -0.237 OA
ATOM     92  O   UNL A   1      46.746  24.805  37.513  1.00  0.00    -0.237 OA
ATOM     93  O   UNL A   1      44.572  24.148  36.575  1.00  0.00    -0.744 OA
ENDBRANCH  87  90
ENDBRANCH  60  83
ENDBRANCH  34  35
ENDBRANCH  26  29
ENDBRANCH  24  25
ENDBRANCH  23  24
ENDBRANCH   1  23
TORSDOF 17
ENDMDL
MODEL 2
REMARK VINA RESULT:     -11.8      1.378      7.716
REMARK SMILES Cc1nc(C(C)C)[nH]c(=O)c1C(=O)N(C)CC(=O)NCCCNC(=O)c1ccc(-c2c3nc(c(-c4cccc(S(=O)(=O)[O-])c4F)c4ccc([nH]4)c(-c4cccc(S(=O)(=O)[O-])c4F)c4nc(c(-c5cccc(S(=O)(=O)[O-])c5F)c5ccc2[nH]5)C=C4)C=C3)cc1
REMARK SMILES IDX 20 1 19 2 17 3 18 4 16 6 14 7 15 8 12 9 13 10 11 11 1 12
REMARK SMILES IDX 2 13 3 14 4 15 9 16 8 17 10 18 5 20 6 21 7 22 21 23 22 24
REMARK SMILES IDX 23 25 24 26 25 28 26 29 27 30 88 31 28 32 87 33 29 34 30 35
REMARK SMILES IDX 31 36 81 37 32 38 86 39 80 40 82 41 33 42 85 43 79 44 78 45
REMARK SMILES IDX 34 47 66 48 46 49 65 50 47 51 50 52 64 53 83 54 48 55 49 56
REMARK SMILES IDX 63 58 84 59 51 60 35 61 36 62 44 63 37 64 39 65 45 66 38 67
REMARK SMILES IDX 40 68 41 69 42 70 43 71 67 72 68 73 76 74 69 75 71 76 77 77
REMARK SMILES IDX 70 78 72 79 73 80 74 81 75 82 52 83 53 84 61 85 54 86 56 87
REMARK SMILES IDX 62 88 55 89 57 90 58 91 59 92 60 93
REMARK H PARENT 19 5 8 19 23 27 82 46 50 57
REMARK Flexibility Score: inf
ROOT
ATOM      1  C   UNL A   1      32.135  27.603  26.890  1.00  0.00     0.117 C 
ENDROOT
BRANCH   1   2
ATOM      2  N   UNL A   1      31.142  26.555  26.873  1.00  0.00    -0.354 N 
ATOM      3  C   UNL A   1      31.103  25.418  26.124  1.00  0.00     0.239 C 
ATOM      4  O   UNL A   1      30.309  24.539  26.482  1.00  0.00    -0.273 OA
ATOM      5  H   UNL A   1      30.386  26.680  27.491  1.00  0.00     0.163 HD
BRANCH   3   6
ATOM      6  C   UNL A   1      32.171  25.120  25.056  1.00  0.00     0.219 C 
BRANCH   6   7
ATOM      7  N   UNL A   1      32.547  26.117  24.035  1.00  0.00    -0.332 N 
ATOM      8  C   UNL A   1      33.966  26.420  23.956  1.00  0.00     0.147 C 
BRANCH   7   9
ATOM      9  C   UNL A   1      31.587  26.383  23.062  1.00  0.00     0.261 C 
ATOM     10  O   UNL A   1      31.502  25.620  22.094  1.00  0.00    -0.269 OA
BRANCH   9  11
ATOM     11  C   UNL A   1      30.617  27.537  23.109  1.00  0.00     0.126 A 
ATOM     12  C   UNL A   1      28.471  26.369  23.838  1.00  0.00     0.068 C 
ATOM     13  C   UNL A   1      29.298  27.553  23.413  1.00  0.00     0.058 A 
ATOM     14  N   UNL A   1      28.479  28.657  23.272  1.00  0.00    -0.239 NA
ATOM     15  C   UNL A   1      28.905  29.670  22.595  1.00  0.00     0.111 A 
ATOM     16  C   UNL A   1      31.127  28.836  22.551  1.00  0.00     0.264 A 
ATOM     17  N   UNL A   1      30.192  29.751  22.170  1.00  0.00    -0.310 N 
ATOM     18  O   UNL A   1      32.321  29.115  22.479  1.00  0.00    -0.269 OA
ATOM     19  H   UNL A   1      30.455  30.488  21.572  1.00  0.00     0.171 HD
BRANCH  15  20
ATOM     20  C   UNL A   1      27.977  30.835  22.277  1.00  0.00     0.049 C 
ATOM     21  C   UNL A   1      27.574  31.577  23.549  1.00  0.00     0.016 C 
ATOM     22  C   UNL A   1      28.618  31.787  21.269  1.00  0.00     0.016 C 
ENDBRANCH  15  20
ENDBRANCH   9  11
ENDBRANCH   7   9
ENDBRANCH   6   7
ENDBRANCH   3   6
ENDBRANCH   1   2
BRANCH   1  23
ATOM     23  C   UNL A   1      31.615  28.920  26.335  1.00  0.00     0.042 C 
BRANCH  23  24
ATOM     24  C   UNL A   1      32.705  29.904  25.930  1.00  0.00     0.118 C 
BRANCH  24  25
ATOM     25  N   UNL A   1      32.381  31.281  26.284  1.00  0.00    -0.352 N 
ATOM     26  C   UNL A   1      33.005  32.128  27.169  1.00  0.00     0.251 C 
ATOM     27  H   UNL A   1      31.599  31.659  25.820  1.00  0.00     0.163 HD
ATOM     28  O   UNL A   1      32.484  33.196  27.461  1.00  0.00    -0.269 OA
BRANCH  26  29
ATOM     29  C   UNL A   1      34.296  31.736  27.779  1.00  0.00     0.039 A 
ATOM     30  C   UNL A   1      35.324  32.679  27.861  1.00  0.00     0.014 A 
ATOM     31  C   UNL A   1      34.491  30.442  28.267  1.00  0.00     0.014 A 
ATOM     32  C   UNL A   1      36.525  32.342  28.492  1.00  0.00     0.010 A 
ATOM     33  C   UNL A   1      35.653  30.135  28.966  1.00  0.00     0.010 A 
ATOM     34  C   UNL A   1      36.687  31.078  29.080  1.00  0.00    -0.014 A 
BRANCH  34  35
ATOM     35  C   UNL A   1      37.926  30.699  29.806  1.00  0.00     0.031 A 
ATOM     36  C   UNL A   1      38.878  29.709  29.186  1.00  0.00     0.074 A 
ATOM     37  C   UNL A   1      38.145  31.163  31.053  1.00  0.00     0.049 A 
ATOM     38  N   UNL A   1      39.937  29.146  29.705  1.00  0.00    -0.248 NA
ATOM     39  C   UNL A   1      38.583  29.274  27.809  1.00  0.00     0.031 C 
ATOM     40  C   UNL A   1      37.273  32.088  31.781  1.00  0.00     0.029 A 
ATOM     41  N   UNL A   1      39.155  30.895  31.943  1.00  0.00    -0.354 N 
ATOM     42  C   UNL A   1      40.412  28.268  28.737  1.00  0.00     0.074 A 
ATOM     43  C   UNL A   1      39.505  28.343  27.614  1.00  0.00     0.031 C 
ATOM     44  C   UNL A   1      37.785  32.310  33.002  1.00  0.00     0.029 A 
ATOM     45  C   UNL A   1      38.997  31.514  33.163  1.00  0.00     0.049 A 
ATOM     46  H   UNL A   1      39.921  30.314  31.730  1.00  0.00     0.167 HD
ATOM     47  C   UNL A   1      41.520  27.490  28.768  1.00  0.00     0.034 A 
ATOM     48  C   UNL A   1      39.735  31.432  34.288  1.00  0.00     0.034 A 
ATOM     49  C   UNL A   1      42.439  27.448  29.871  1.00  0.00     0.049 A 
ATOM     50  C   UNL A   1      40.963  30.558  34.290  1.00  0.00     0.074 A 
ATOM     51  C   UNL A   1      43.619  26.733  29.980  1.00  0.00     0.029 A 
ATOM     52  N   UNL A   1      42.285  28.150  31.057  1.00  0.00    -0.354 N 
ATOM     53  N   UNL A   1      41.459  29.825  33.322  1.00  0.00    -0.248 NA
ATOM     54  C   UNL A   1      41.756  30.526  35.528  1.00  0.00     0.031 C 
ATOM     55  C   UNL A   1      44.167  26.986  31.240  1.00  0.00     0.029 A 
ATOM     56  C   UNL A   1      43.348  27.888  31.900  1.00  0.00     0.049 A 
ATOM     57  H   UNL A   1      41.530  28.746  31.265  1.00  0.00     0.167 HD
ATOM     58  C   UNL A   1      42.646  29.296  33.814  1.00  0.00     0.074 A 
ATOM     59  C   UNL A   1      42.801  29.797  35.163  1.00  0.00     0.031 C 
ATOM     60  C   UNL A   1      43.526  28.461  33.209  1.00  0.00     0.034 A 
BRANCH  47  61
ATOM     61  C   UNL A   1      41.834  26.662  27.550  1.00  0.00     0.023 A 
ATOM     62  C   UNL A   1      42.451  27.271  26.437  1.00  0.00     0.012 A 
ATOM     63  C   UNL A   1      41.596  25.274  27.532  1.00  0.00     0.148 A 
ATOM     64  C   UNL A   1      42.796  26.519  25.315  1.00  0.00     0.002 A 
ATOM     65  C   UNL A   1      41.986  24.522  26.430  1.00  0.00     0.091 A 
ATOM     66  F   UNL A   1      40.995  24.715  28.593  1.00  0.00    -0.205 F 
ATOM     67  C   UNL A   1      42.575  25.145  25.317  1.00  0.00     0.022 A 
BRANCH  65  68
ATOM     68  S   UNL A   1      41.826  22.734  26.363  1.00  0.00     0.127 S 
ATOM     69  O   UNL A   1      42.549  22.419  25.131  1.00  0.00    -0.237 OA
ATOM     70  O   UNL A   1      42.504  22.320  27.591  1.00  0.00    -0.237 OA
ATOM     71  O   UNL A   1      40.396  22.458  26.331  1.00  0.00    -0.744 OA
ENDBRANCH  65  68
ENDBRANCH  47  61
BRANCH  48  72
ATOM     72  C   UNL A   1      39.381  32.237  35.493  1.00  0.00     0.023 A 
ATOM     73  C   UNL A   1      38.535  31.674  36.472  1.00  0.00     0.012 A 
ATOM     74  C   UNL A   1      39.850  33.552  35.673  1.00  0.00     0.148 A 
ATOM     75  C   UNL A   1      38.120  32.422  37.574  1.00  0.00     0.002 A 
ATOM     76  C   UNL A   1      39.481  34.271  36.806  1.00  0.00     0.091 A 
ATOM     77  F   UNL A   1      40.640  34.083  34.730  1.00  0.00    -0.205 F 
ATOM     78  C   UNL A   1      38.599  33.718  37.745  1.00  0.00     0.022 A 
BRANCH  76  79
ATOM     79  S   UNL A   1      40.170  35.891  37.164  1.00  0.00     0.127 S 
ATOM     80  O   UNL A   1      39.738  36.667  36.005  1.00  0.00    -0.237 OA
ATOM     81  O   UNL A   1      39.509  36.241  38.421  1.00  0.00    -0.237 OA
ATOM     82  O   UNL A   1      41.605  35.674  37.290  1.00  0.00    -0.744 OA
ENDBRANCH  76  79
ENDBRANCH  48  72
BRANCH  60  83
ATOM     83  C   UNL A   1      44.783  28.098  33.955  1.00  0.00     0.023 A 
ATOM     84  C   UNL A   1      45.916  28.932  33.889  1.00  0.00     0.012 A 
ATOM     85  C   UNL A   1      44.799  26.971  34.801  1.00  0.00     0.148 A 
ATOM     86  C   UNL A   1      47.058  28.631  34.629  1.00  0.00     0.002 A 
ATOM     87  C   UNL A   1      45.921  26.709  35.576  1.00  0.00     0.091 A 
ATOM     88  F   UNL A   1      43.716  26.182  34.836  1.00  0.00    -0.205 F 
ATOM     89  C   UNL A   1      47.056  27.529  35.482  1.00  0.00     0.022 A 
BRANCH  87  90
ATOM     90  S   UNL A   1      45.971  25.374  36.779  1.00  0.00     0.127 S 
ATOM     91  O   UNL A   1      45.551  24.230  35.970  1.00  0.00    -0.237 OA
ATOM     92  O   UNL A   1      47.381  25.362  37.166  1.00  0.00    -0.237 OA
ATOM     93  O   UNL A   1      45.052  25.754  37.843  1.00  0.00    -0.744 OA
ENDBRANCH  87  90
ENDBRANCH  60  83
ENDBRANCH  34  35
ENDBRANCH  26  29
ENDBRANCH  24  25
ENDBRANCH  23  24
ENDBRANCH   1  23
TORSDOF 17
ENDMDL
MODEL 3
REMARK VINA RESULT:     -11.7      5.320     10.072
REMARK SMILES Cc1nc(C(C)C)[nH]c(=O)c1C(=O)N(C)CC(=O)NCCCNC(=O)c1ccc(-c2c3nc(c(-c4cccc(S(=O)(=O)[O-])c4F)c4ccc([nH]4)c(-c4cccc(S(=O)(=O)[O-])c4F)c4nc(c(-c5cccc(S(=O)(=O)[O-])c5F)c5ccc2[nH]5)C=C4)C=C3)cc1
REMARK SMILES IDX 20 1 19 2 17 3 18 4 16 6 14 7 15 8 12 9 13 10 11 11 1 12
REMARK SMILES IDX 2 13 3 14 4 15 9 16 8 17 10 18 5 20 6 21 7 22 21 23 22 24
REMARK SMILES IDX 23 25 24 26 25 28 26 29 27 30 88 31 28 32 87 33 29 34 30 35
REMARK SMILES IDX 31 36 81 37 32 38 86 39 80 40 82 41 33 42 85 43 79 44 78 45
REMARK SMILES IDX 34 47 66 48 46 49 65 50 47 51 50 52 64 53 83 54 48 55 49 56
REMARK SMILES IDX 63 58 84 59 51 60 35 61 36 62 44 63 37 64 39 65 45 66 38 67
REMARK SMILES IDX 40 68 41 69 42 70 43 71 67 72 68 73 76 74 69 75 71 76 77 77
REMARK SMILES IDX 70 78 72 79 73 80 74 81 75 82 52 83 53 84 61 85 54 86 56 87
REMARK SMILES IDX 62 88 55 89 57 90 58 91 59 92 60 93
REMARK H PARENT 19 5 8 19 23 27 82 46 50 57
REMARK Flexibility Score: inf
ROOT
ATOM      1  C   UNL A   1      35.346  23.125  23.743  1.00  0.00     0.117 C 
ENDROOT
BRANCH   1   2
ATOM      2  N   UNL A   1      34.693  24.364  23.392  1.00  0.00    -0.354 N 
ATOM      3  C   UNL A   1      34.080  25.274  24.200  1.00  0.00     0.239 C 
ATOM      4  O   UNL A   1      33.844  26.386  23.714  1.00  0.00    -0.273 OA
ATOM      5  H   UNL A   1      34.690  24.583  22.432  1.00  0.00     0.163 HD
BRANCH   3   6
ATOM      6  C   UNL A   1      33.932  25.034  25.714  1.00  0.00     0.219 C 
BRANCH   6   7
ATOM      7  N   UNL A   1      32.611  25.009  26.371  1.00  0.00    -0.332 N 
ATOM      8  C   UNL A   1      31.878  26.263  26.341  1.00  0.00     0.147 C 
BRANCH   7   9
ATOM      9  C   UNL A   1      32.082  23.746  26.625  1.00  0.00     0.261 C 
ATOM     10  O   UNL A   1      31.202  23.639  27.485  1.00  0.00    -0.269 OA
BRANCH   9  11
ATOM     11  C   UNL A   1      32.495  22.484  25.909  1.00  0.00     0.126 A 
ATOM     12  C   UNL A   1      31.280  22.742  23.682  1.00  0.00     0.068 C 
ATOM     13  C   UNL A   1      32.156  22.032  24.679  1.00  0.00     0.058 A 
ATOM     14  N   UNL A   1      32.480  20.779  24.193  1.00  0.00    -0.239 NA
ATOM     15  C   UNL A   1      32.922  19.884  25.012  1.00  0.00     0.111 A 
ATOM     16  C   UNL A   1      33.237  21.478  26.744  1.00  0.00     0.264 A 
ATOM     17  N   UNL A   1      33.239  20.190  26.296  1.00  0.00    -0.310 N 
ATOM     18  O   UNL A   1      33.868  21.776  27.754  1.00  0.00    -0.269 OA
ATOM     19  H   UNL A   1      33.476  19.465  26.918  1.00  0.00     0.171 HD
BRANCH  15  20
ATOM     20  C   UNL A   1      33.134  18.449  24.550  1.00  0.00     0.049 C 
ATOM     21  C   UNL A   1      32.674  17.457  25.614  1.00  0.00     0.016 C 
ATOM     22  C   UNL A   1      32.426  18.191  23.221  1.00  0.00     0.016 C 
ENDBRANCH  15  20
ENDBRANCH   9  11
ENDBRANCH   7   9
ENDBRANCH   6   7
ENDBRANCH   3   6
ENDBRANCH   1   2
BRANCH   1  23
ATOM     23  C   UNL A   1      36.761  23.329  24.262  1.00  0.00     0.042 C 
BRANCH  23  24
ATOM     24  C   UNL A   1      36.918  23.101  25.759  1.00  0.00     0.118 C 
BRANCH  24  25
ATOM     25  N   UNL A   1      38.049  22.241  26.083  1.00  0.00    -0.352 N 
ATOM     26  C   UNL A   1      39.305  22.577  26.532  1.00  0.00     0.251 C 
ATOM     27  H   UNL A   1      37.891  21.276  25.961  1.00  0.00     0.163 HD
ATOM     28  O   UNL A   1      40.181  21.724  26.586  1.00  0.00    -0.269 OA
BRANCH  26  29
ATOM     29  C   UNL A   1      39.596  23.973  26.930  1.00  0.00     0.039 A 
ATOM     30  C   UNL A   1      39.364  24.366  28.252  1.00  0.00     0.014 A 
ATOM     31  C   UNL A   1      40.094  24.890  26.003  1.00  0.00     0.014 A 
ATOM     32  C   UNL A   1      39.694  25.662  28.658  1.00  0.00     0.010 A 
ATOM     33  C   UNL A   1      40.498  26.152  26.428  1.00  0.00     0.010 A 
ATOM     34  C   UNL A   1      40.296  26.555  27.757  1.00  0.00    -0.014 A 
BRANCH  34  35
ATOM     35  C   UNL A   1      40.711  27.923  28.163  1.00  0.00     0.031 A 
ATOM     36  C   UNL A   1      42.176  28.277  28.190  1.00  0.00     0.074 A 
ATOM     37  C   UNL A   1      39.790  28.806  28.598  1.00  0.00     0.049 A 
ATOM     38  N   UNL A   1      42.755  29.360  28.639  1.00  0.00    -0.248 NA
ATOM     39  C   UNL A   1      43.115  27.267  27.670  1.00  0.00     0.031 C 
ATOM     40  C   UNL A   1      38.347  28.564  28.665  1.00  0.00     0.029 A 
ATOM     41  N   UNL A   1      39.934  30.077  29.097  1.00  0.00    -0.354 N 
ATOM     42  C   UNL A   1      44.121  29.149  28.489  1.00  0.00     0.074 A 
ATOM     43  C   UNL A   1      44.288  27.820  27.944  1.00  0.00     0.031 C 
ATOM     44  C   UNL A   1      37.740  29.648  29.174  1.00  0.00     0.029 A 
ATOM     45  C   UNL A   1      38.750  30.647  29.509  1.00  0.00     0.049 A 
ATOM     46  H   UNL A   1      40.802  30.537  29.155  1.00  0.00     0.167 HD
ATOM     47  C   UNL A   1      45.143  29.996  28.753  1.00  0.00     0.034 A 
ATOM     48  C   UNL A   1      38.510  31.831  30.105  1.00  0.00     0.034 A 
ATOM     49  C   UNL A   1      44.970  31.329  29.259  1.00  0.00     0.049 A 
ATOM     50  C   UNL A   1      39.671  32.752  30.385  1.00  0.00     0.074 A 
ATOM     51  C   UNL A   1      45.938  32.286  29.510  1.00  0.00     0.029 A 
ATOM     52  N   UNL A   1      43.750  31.898  29.588  1.00  0.00    -0.354 N 
ATOM     53  N   UNL A   1      40.945  32.580  30.128  1.00  0.00    -0.248 NA
ATOM     54  C   UNL A   1      39.358  34.048  31.007  1.00  0.00     0.031 C 
ATOM     55  C   UNL A   1      45.304  33.425  30.013  1.00  0.00     0.029 A 
ATOM     56  C   UNL A   1      43.939  33.191  30.037  1.00  0.00     0.049 A 
ATOM     57  H   UNL A   1      42.878  31.446  29.512  1.00  0.00     0.167 HD
ATOM     58  C   UNL A   1      41.573  33.763  30.500  1.00  0.00     0.074 A 
ATOM     59  C   UNL A   1      40.540  34.648  30.993  1.00  0.00     0.031 C 
ATOM     60  C   UNL A   1      42.888  34.086  30.448  1.00  0.00     0.034 A 
BRANCH  47  61
ATOM     61  C   UNL A   1      46.543  29.529  28.447  1.00  0.00     0.023 A 
ATOM     62  C   UNL A   1      47.106  29.808  27.185  1.00  0.00     0.012 A 
ATOM     63  C   UNL A   1      47.327  28.888  29.427  1.00  0.00     0.148 A 
ATOM     64  C   UNL A   1      48.415  29.429  26.891  1.00  0.00     0.002 A 
ATOM     65  C   UNL A   1      48.646  28.557  29.143  1.00  0.00     0.091 A 
ATOM     66  F   UNL A   1      46.769  28.618  30.615  1.00  0.00    -0.205 F 
ATOM     67  C   UNL A   1      49.188  28.815  27.873  1.00  0.00     0.022 A 
BRANCH  65  68
ATOM     68  S   UNL A   1      49.755  27.841  30.363  1.00  0.00     0.127 S 
ATOM     69  O   UNL A   1      51.004  27.747  29.606  1.00  0.00    -0.237 OA
ATOM     70  O   UNL A   1      49.753  28.859  31.412  1.00  0.00    -0.237 OA
ATOM     71  O   UNL A   1      49.164  26.566  30.746  1.00  0.00    -0.744 OA
ENDBRANCH  65  68
ENDBRANCH  47  61
BRANCH  48  72
ATOM     72  C   UNL A   1      37.117  32.255  30.430  1.00  0.00     0.023 A 
ATOM     73  C   UNL A   1      36.607  32.007  31.721  1.00  0.00     0.012 A 
ATOM     74  C   UNL A   1      36.288  32.877  29.478  1.00  0.00     0.148 A 
ATOM     75  C   UNL A   1      35.284  32.319  32.039  1.00  0.00     0.002 A 
ATOM     76  C   UNL A   1      34.989  33.240  29.820  1.00  0.00     0.091 A 
ATOM     77  F   UNL A   1      36.778  33.094  28.248  1.00  0.00    -0.205 F 
ATOM     78  C   UNL A   1      34.478  32.942  31.091  1.00  0.00     0.022 A 
BRANCH  76  79
ATOM     79  S   UNL A   1      33.941  34.172  28.698  1.00  0.00     0.127 S 
ATOM     80  O   UNL A   1      33.597  33.166  27.698  1.00  0.00    -0.237 OA
ATOM     81  O   UNL A   1      32.837  34.580  29.568  1.00  0.00    -0.237 OA
ATOM     82  O   UNL A   1      34.769  35.279  28.235  1.00  0.00    -0.744 OA
ENDBRANCH  76  79
ENDBRANCH  48  72
BRANCH  60  83
ATOM     83  C   UNL A   1      43.289  35.481  30.851  1.00  0.00     0.023 A 
ATOM     84  C   UNL A   1      43.696  35.750  32.172  1.00  0.00     0.012 A 
ATOM     85  C   UNL A   1      43.350  36.504  29.883  1.00  0.00     0.148 A 
ATOM     86  C   UNL A   1      44.128  37.026  32.531  1.00  0.00     0.002 A 
ATOM     87  C   UNL A   1      43.832  37.757  30.237  1.00  0.00     0.091 A 
ATOM     88  F   UNL A   1      42.941  36.230  28.636  1.00  0.00    -0.205 F 
ATOM     89  C   UNL A   1      44.209  38.025  31.563  1.00  0.00     0.022 A 
BRANCH  87  90
ATOM     90  S   UNL A   1      44.069  39.072  29.035  1.00  0.00     0.127 S 
ATOM     91  O   UNL A   1      44.961  38.433  28.068  1.00  0.00    -0.237 OA
ATOM     92  O   UNL A   1      42.708  39.298  28.553  1.00  0.00    -0.237 OA
ATOM     93  O   UNL A   1      44.647  40.190  29.769  1.00  0.00    -0.744 OA
ENDBRANCH  87  90
ENDBRANCH  60  83
ENDBRANCH  34  35
ENDBRANCH  26  29
ENDBRANCH  24  25
ENDBRANCH  23  24
ENDBRANCH   1  23
TORSDOF 17
ENDMDL
