MODEL 1
REMARK VINA RESULT:     -13.1      0.000      0.000
REMARK SMILES O=C(NCCCNC(=O)[C@@H]1CN(c2nc(-c3ccccc3)no2)CC[NH2+]1)c1ccc(-c2c3nc(c(-c4cccc(S(=O)(=O)[O-])c4F)c4ccc([nH]4)c(-c4cccc(S(=O)(=O)[O-])c4F)c4nc(c(-c5cccc(S(=O)(=O)[O-])c5F)c5ccc2[nH]5)C=C4)C=C3)cc1
REMARK SMILES IDX 4 1 3 2 1 3 2 4 27 6 28 7 89 8 29 9 88 10 30 11 31 12 32 13
REMARK SMILES IDX 82 14 33 15 87 16 81 17 83 18 34 19 86 20 80 21 79 22 35 24
REMARK SMILES IDX 67 25 47 26 66 27 48 28 51 29 65 30 84 31 49 32 50 33 64 35
REMARK SMILES IDX 85 36 52 37 36 38 37 39 45 40 38 41 40 42 46 43 39 44 41 45
REMARK SMILES IDX 42 46 43 47 44 48 68 49 69 50 77 51 70 52 72 53 78 54 71 55
REMARK SMILES IDX 73 56 74 57 75 58 76 59 53 60 54 61 62 62 55 63 57 64 63 65
REMARK SMILES IDX 56 66 58 67 59 68 60 69 61 70 5 71 6 72 7 73 8 74 9 76 10 77
REMARK SMILES IDX 11 78 26 79 12 80 25 81 24 84 13 85 14 86 23 87 15 88 22 89
REMARK SMILES IDX 16 90 17 91 21 92 18 93 20 94 19 95
REMARK H PARENT 3 5 83 23 51 34 7 75 26 82 26 83
REMARK Flexibility Score: inf
ROOT
ATOM      1  C   UNL A   1      32.244  30.147  26.576  1.00  0.00     0.118 C 
ENDROOT
BRANCH   1   2
ATOM      2  N   UNL A   1      32.235  31.601  26.678  1.00  0.00    -0.352 N 
ATOM      3  O   UNL A   1      32.746  33.628  27.496  1.00  0.00    -0.269 OA
ATOM      4  C   UNL A   1      33.063  32.447  27.373  1.00  0.00     0.251 C 
ATOM      5  H   UNL A   1      31.523  32.047  26.166  1.00  0.00     0.163 HD
BRANCH   4   6
ATOM      6  C   UNL A   1      34.313  31.943  27.982  1.00  0.00     0.039 A 
ATOM      7  C   UNL A   1      34.438  30.603  28.355  1.00  0.00     0.014 A 
ATOM      8  C   UNL A   1      35.390  32.818  28.153  1.00  0.00     0.014 A 
ATOM      9  C   UNL A   1      35.574  30.176  29.035  1.00  0.00     0.010 A 
ATOM     10  C   UNL A   1      36.565  32.366  28.759  1.00  0.00     0.010 A 
ATOM     11  C   UNL A   1      36.654  31.051  29.242  1.00  0.00    -0.014 A 
BRANCH  11  12
ATOM     12  C   UNL A   1      37.876  30.554  29.924  1.00  0.00     0.031 A 
ATOM     13  C   UNL A   1      38.181  30.934  31.347  1.00  0.00     0.074 A 
ATOM     14  C   UNL A   1      38.713  29.744  29.248  1.00  0.00     0.049 A 
ATOM     15  N   UNL A   1      39.176  30.548  32.104  1.00  0.00    -0.248 NA
ATOM     16  C   UNL A   1      37.260  31.875  32.005  1.00  0.00     0.031 C 
ATOM     17  C   UNL A   1      38.547  29.342  27.850  1.00  0.00     0.029 A 
ATOM     18  N   UNL A   1      39.863  29.108  29.641  1.00  0.00    -0.354 N 
ATOM     19  C   UNL A   1      39.029  31.228  33.307  1.00  0.00     0.074 A 
ATOM     20  C   UNL A   1      37.852  32.060  33.177  1.00  0.00     0.031 C 
ATOM     21  C   UNL A   1      39.535  28.501  27.512  1.00  0.00     0.029 A 
ATOM     22  C   UNL A   1      40.430  28.339  28.653  1.00  0.00     0.049 A 
ATOM     23  H   UNL A   1      40.246  29.195  30.544  1.00  0.00     0.167 HD
ATOM     24  C   UNL A   1      39.794  31.154  34.425  1.00  0.00     0.034 A 
ATOM     25  C   UNL A   1      41.547  27.586  28.661  1.00  0.00     0.034 A 
ATOM     26  C   UNL A   1      40.936  30.289  34.564  1.00  0.00     0.049 A 
ATOM     27  C   UNL A   1      42.353  27.493  29.924  1.00  0.00     0.074 A 
ATOM     28  C   UNL A   1      41.730  30.086  35.680  1.00  0.00     0.029 A 
ATOM     29  N   UNL A   1      41.455  29.491  33.556  1.00  0.00    -0.354 N 
ATOM     30  N   UNL A   1      42.119  28.037  31.092  1.00  0.00    -0.248 NA
ATOM     31  C   UNL A   1      43.562  26.657  29.878  1.00  0.00     0.031 C 
ATOM     32  C   UNL A   1      42.739  29.177  35.341  1.00  0.00     0.029 A 
ATOM     33  C   UNL A   1      42.561  28.799  34.019  1.00  0.00     0.049 A 
ATOM     34  H   UNL A   1      41.089  29.424  32.644  1.00  0.00     0.167 HD
ATOM     35  C   UNL A   1      43.131  27.587  31.931  1.00  0.00     0.074 A 
ATOM     36  C   UNL A   1      43.969  26.708  31.139  1.00  0.00     0.031 C 
ATOM     37  C   UNL A   1      43.354  27.886  33.235  1.00  0.00     0.034 A 
BRANCH  24  38
ATOM     38  C   UNL A   1      39.396  32.004  35.603  1.00  0.00     0.023 A 
ATOM     39  C   UNL A   1      39.819  33.348  35.668  1.00  0.00     0.012 A 
ATOM     40  C   UNL A   1      38.563  31.494  36.619  1.00  0.00     0.148 A 
ATOM     41  C   UNL A   1      39.450  34.159  36.741  1.00  0.00     0.002 A 
ATOM     42  C   UNL A   1      38.167  32.321  37.665  1.00  0.00     0.091 A 
ATOM     43  F   UNL A   1      38.190  30.208  36.556  1.00  0.00    -0.205 F 
ATOM     44  C   UNL A   1      38.618  33.649  37.734  1.00  0.00     0.022 A 
BRANCH  42  45
ATOM     45  S   UNL A   1      37.036  31.768  38.947  1.00  0.00     0.127 S 
ATOM     46  O   UNL A   1      36.839  30.366  38.583  1.00  0.00    -0.237 OA
ATOM     47  O   UNL A   1      37.818  31.976  40.167  1.00  0.00    -0.237 OA
ATOM     48  O   UNL A   1      35.862  32.623  38.833  1.00  0.00    -0.744 OA
ENDBRANCH  42  45
ENDBRANCH  24  38
BRANCH  25  49
ATOM     49  C   UNL A   1      41.914  26.805  27.447  1.00  0.00     0.023 A 
ATOM     50  C   UNL A   1      42.533  27.462  26.366  1.00  0.00     0.012 A 
ATOM     51  C   UNL A   1      41.717  25.411  27.383  1.00  0.00     0.148 A 
ATOM     52  C   UNL A   1      42.931  26.750  25.235  1.00  0.00     0.002 A 
ATOM     53  C   UNL A   1      42.168  24.699  26.278  1.00  0.00     0.091 A 
ATOM     54  F   UNL A   1      41.115  24.808  28.418  1.00  0.00    -0.205 F 
ATOM     55  C   UNL A   1      42.761  25.368  25.197  1.00  0.00     0.022 A 
BRANCH  53  56
ATOM     56  S   UNL A   1      42.117  22.905  26.204  1.00  0.00     0.127 S 
ATOM     57  O   UNL A   1      42.896  22.536  27.384  1.00  0.00    -0.237 OA
ATOM     58  O   UNL A   1      40.682  22.639  26.304  1.00  0.00    -0.237 OA
ATOM     59  O   UNL A   1      42.706  22.548  24.921  1.00  0.00    -0.744 OA
ENDBRANCH  53  56
ENDBRANCH  25  49
BRANCH  37  60
ATOM     60  C   UNL A   1      44.536  27.234  33.903  1.00  0.00     0.023 A 
ATOM     61  C   UNL A   1      45.810  27.827  33.803  1.00  0.00     0.012 A 
ATOM     62  C   UNL A   1      44.373  26.072  34.681  1.00  0.00     0.148 A 
ATOM     63  C   UNL A   1      46.909  27.256  34.443  1.00  0.00     0.002 A 
ATOM     64  C   UNL A   1      45.464  25.534  35.353  1.00  0.00     0.091 A 
ATOM     65  F   UNL A   1      43.157  25.509  34.744  1.00  0.00    -0.205 F 
ATOM     66  C   UNL A   1      46.734  26.117  35.227  1.00  0.00     0.022 A 
BRANCH  64  67
ATOM     67  S   UNL A   1      45.304  24.125  36.457  1.00  0.00     0.127 S 
ATOM     68  O   UNL A   1      44.392  24.644  37.474  1.00  0.00    -0.237 OA
ATOM     69  O   UNL A   1      44.725  23.105  35.582  1.00  0.00    -0.237 OA
ATOM     70  O   UNL A   1      46.655  23.825  36.914  1.00  0.00    -0.744 OA
ENDBRANCH  64  67
ENDBRANCH  37  60
ENDBRANCH  11  12
ENDBRANCH   4   6
ENDBRANCH   1   2
BRANCH   1  71
ATOM     71  C   UNL A   1      32.400  29.664  25.135  1.00  0.00     0.042 C 
BRANCH  71  72
ATOM     72  C   UNL A   1      33.586  28.726  24.936  1.00  0.00     0.118 C 
BRANCH  72  73
ATOM     73  N   UNL A   1      33.783  28.413  23.532  1.00  0.00    -0.351 N 
ATOM     74  C   UNL A   1      33.486  27.274  22.847  1.00  0.00     0.280 C 
ATOM     75  H   UNL A   1      34.190  29.130  22.996  1.00  0.00     0.163 HD
ATOM     76  O   UNL A   1      33.799  27.218  21.653  1.00  0.00    -0.268 OA
BRANCH  74  77
ATOM     77  C   UNL A   1      32.711  26.130  23.520  1.00  0.00     0.292 C 
ATOM     78  C   UNL A   1      32.722  24.914  22.565  1.00  0.00     0.197 C 
ATOM     79  N   UNL A   1      31.333  26.646  23.810  1.00  0.00    -0.333 N 
ATOM     80  N   UNL A   1      31.801  23.876  23.037  1.00  0.00    -0.312 N 
ATOM     81  C   UNL A   1      30.477  25.541  24.278  1.00  0.00     0.283 C 
ATOM     82  H   UNL A   1      30.936  27.046  22.958  1.00  0.00     0.347 HD
ATOM     83  H   UNL A   1      31.384  27.363  24.533  1.00  0.00     0.347 HD
ATOM     84  C   UNL A   1      30.440  24.322  23.325  1.00  0.00     0.183 C 
BRANCH  80  85
ATOM     85  C   UNL A   1      32.278  22.742  23.593  1.00  0.00     0.324 A 
ATOM     86  N   UNL A   1      32.291  21.518  23.123  1.00  0.00    -0.171 NA
ATOM     87  O   UNL A   1      32.836  22.836  24.841  1.00  0.00    -0.315 OA
ATOM     88  C   UNL A   1      32.919  20.819  24.130  1.00  0.00     0.204 A 
ATOM     89  N   UNL A   1      33.248  21.557  25.198  1.00  0.00    -0.055 NA
BRANCH  88  90
ATOM     90  C   UNL A   1      33.295  19.426  24.007  1.00  0.00     0.023 A 
ATOM     91  C   UNL A   1      34.449  18.938  24.629  1.00  0.00     0.012 A 
ATOM     92  C   UNL A   1      32.528  18.573  23.203  1.00  0.00     0.012 A 
ATOM     93  C   UNL A   1      34.836  17.609  24.440  1.00  0.00     0.001 A 
ATOM     94  C   UNL A   1      32.921  17.248  23.011  1.00  0.00     0.001 A 
ATOM     95  C   UNL A   1      34.075  16.768  23.627  1.00  0.00     0.000 A 
ENDBRANCH  88  90
ENDBRANCH  80  85
ENDBRANCH  74  77
ENDBRANCH  72  73
ENDBRANCH  71  72
ENDBRANCH   1  71
TORSDOF 15
ENDMDL
MODEL 2
REMARK VINA RESULT:     -13.0      1.916      2.733
REMARK SMILES O=C(NCCCNC(=O)[C@@H]1CN(c2nc(-c3ccccc3)no2)CC[NH2+]1)c1ccc(-c2c3nc(c(-c4cccc(S(=O)(=O)[O-])c4F)c4ccc([nH]4)c(-c4cccc(S(=O)(=O)[O-])c4F)c4nc(c(-c5cccc(S(=O)(=O)[O-])c5F)c5ccc2[nH]5)C=C4)C=C3)cc1
REMARK SMILES IDX 4 1 3 2 1 3 2 4 27 6 28 7 89 8 29 9 88 10 30 11 31 12 32 13
REMARK SMILES IDX 82 14 33 15 87 16 81 17 83 18 34 19 86 20 80 21 79 22 35 24
REMARK SMILES IDX 67 25 47 26 66 27 48 28 51 29 65 30 84 31 49 32 50 33 64 35
REMARK SMILES IDX 85 36 52 37 36 38 37 39 45 40 38 41 40 42 46 43 39 44 41 45
REMARK SMILES IDX 42 46 43 47 44 48 68 49 69 50 77 51 70 52 72 53 78 54 71 55
REMARK SMILES IDX 73 56 74 57 75 58 76 59 53 60 54 61 62 62 55 63 57 64 63 65
REMARK SMILES IDX 56 66 58 67 59 68 60 69 61 70 5 71 6 72 7 73 8 74 9 76 10 77
REMARK SMILES IDX 11 78 26 79 12 80 25 81 24 84 13 85 14 86 23 87 15 88 22 89
REMARK SMILES IDX 16 90 17 91 21 92 18 93 20 94 19 95
REMARK H PARENT 3 5 83 23 51 34 7 75 26 82 26 83
REMARK Flexibility Score: inf
ROOT
ATOM      1  C   UNL A   1      33.368  29.152  25.174  1.00  0.00     0.118 C 
ENDROOT
BRANCH   1   2
ATOM      2  N   UNL A   1      32.870  30.403  25.732  1.00  0.00    -0.352 N 
ATOM      3  O   UNL A   1      32.586  32.030  27.253  1.00  0.00    -0.269 OA
ATOM      4  C   UNL A   1      33.285  31.110  26.834  1.00  0.00     0.251 C 
ATOM      5  H   UNL A   1      32.118  30.806  25.241  1.00  0.00     0.163 HD
BRANCH   4   6
ATOM      6  C   UNL A   1      34.548  30.761  27.520  1.00  0.00     0.039 A 
ATOM      7  C   UNL A   1      34.778  29.462  27.979  1.00  0.00     0.014 A 
ATOM      8  C   UNL A   1      35.533  31.741  27.675  1.00  0.00     0.014 A 
ATOM      9  C   UNL A   1      35.917  29.184  28.727  1.00  0.00     0.010 A 
ATOM     10  C   UNL A   1      36.717  31.436  28.352  1.00  0.00     0.010 A 
ATOM     11  C   UNL A   1      36.903  30.166  28.919  1.00  0.00    -0.014 A 
BRANCH  11  12
ATOM     12  C   UNL A   1      38.135  29.825  29.676  1.00  0.00     0.031 A 
ATOM     13  C   UNL A   1      38.325  30.278  31.097  1.00  0.00     0.074 A 
ATOM     14  C   UNL A   1      39.088  29.090  29.071  1.00  0.00     0.049 A 
ATOM     15  N   UNL A   1      39.315  30.026  31.915  1.00  0.00    -0.248 NA
ATOM     16  C   UNL A   1      37.276  31.133  31.677  1.00  0.00     0.031 C 
ATOM     17  C   UNL A   1      39.037  28.630  27.681  1.00  0.00     0.029 A 
ATOM     18  N   UNL A   1      40.277  28.595  29.541  1.00  0.00    -0.354 N 
ATOM     19  C   UNL A   1      39.034  30.722  33.085  1.00  0.00     0.074 A 
ATOM     20  C   UNL A   1      37.784  31.417  32.869  1.00  0.00     0.031 C 
ATOM     21  C   UNL A   1      40.126  27.892  27.421  1.00  0.00     0.029 A 
ATOM     22  C   UNL A   1      40.973  27.862  28.608  1.00  0.00     0.049 A 
ATOM     23  H   UNL A   1      40.601  28.750  30.457  1.00  0.00     0.167 HD
ATOM     24  C   UNL A   1      39.744  30.765  34.239  1.00  0.00     0.034 A 
ATOM     25  C   UNL A   1      42.163  27.236  28.696  1.00  0.00     0.034 A 
ATOM     26  C   UNL A   1      40.964  30.034  34.464  1.00  0.00     0.049 A 
ATOM     27  C   UNL A   1      42.908  27.269  29.999  1.00  0.00     0.074 A 
ATOM     28  C   UNL A   1      41.716  29.952  35.622  1.00  0.00     0.029 A 
ATOM     29  N   UNL A   1      41.615  29.267  33.511  1.00  0.00    -0.354 N 
ATOM     30  N   UNL A   1      42.557  27.820  31.135  1.00  0.00    -0.248 NA
ATOM     31  C   UNL A   1      44.199  26.569  30.041  1.00  0.00     0.031 C 
ATOM     32  C   UNL A   1      42.832  29.148  35.365  1.00  0.00     0.029 A 
ATOM     33  C   UNL A   1      42.764  28.713  34.051  1.00  0.00     0.049 A 
ATOM     34  H   UNL A   1      41.306  29.133  32.585  1.00  0.00     0.167 HD
ATOM     35  C   UNL A   1      43.567  27.507  32.037  1.00  0.00     0.074 A 
ATOM     36  C   UNL A   1      44.534  26.701  31.318  1.00  0.00     0.031 C 
ATOM     37  C   UNL A   1      43.690  27.869  33.338  1.00  0.00     0.034 A 
BRANCH  24  38
ATOM     38  C   UNL A   1      39.197  31.603  35.366  1.00  0.00     0.023 A 
ATOM     39  C   UNL A   1      38.259  31.044  36.258  1.00  0.00     0.012 A 
ATOM     40  C   UNL A   1      39.645  32.922  35.574  1.00  0.00     0.148 A 
ATOM     41  C   UNL A   1      37.749  31.795  37.318  1.00  0.00     0.002 A 
ATOM     42  C   UNL A   1      39.162  33.651  36.656  1.00  0.00     0.091 A 
ATOM     43  F   UNL A   1      40.518  33.448  34.704  1.00  0.00    -0.205 F 
ATOM     44  C   UNL A   1      38.207  33.093  37.521  1.00  0.00     0.022 A 
BRANCH  42  45
ATOM     45  S   UNL A   1      39.754  35.304  37.038  1.00  0.00     0.127 S 
ATOM     46  O   UNL A   1      39.279  36.062  35.881  1.00  0.00    -0.237 OA
ATOM     47  O   UNL A   1      39.057  35.605  38.290  1.00  0.00    -0.237 OA
ATOM     48  O   UNL A   1      41.200  35.186  37.169  1.00  0.00    -0.744 OA
ENDBRANCH  42  45
ENDBRANCH  24  38
BRANCH  25  49
ATOM     49  C   UNL A   1      42.673  26.463  27.530  1.00  0.00     0.023 A 
ATOM     50  C   UNL A   1      43.280  27.149  26.461  1.00  0.00     0.012 A 
ATOM     51  C   UNL A   1      42.621  25.055  27.503  1.00  0.00     0.148 A 
ATOM     52  C   UNL A   1      43.811  26.450  25.378  1.00  0.00     0.002 A 
ATOM     53  C   UNL A   1      43.202  24.362  26.448  1.00  0.00     0.091 A 
ATOM     54  F   UNL A   1      42.027  24.423  28.524  1.00  0.00    -0.205 F 
ATOM     55  C   UNL A   1      43.783  25.058  25.377  1.00  0.00     0.022 A 
BRANCH  53  56
ATOM     56  S   UNL A   1      43.337  22.571  26.431  1.00  0.00     0.127 S 
ATOM     57  O   UNL A   1      42.574  22.226  25.234  1.00  0.00    -0.237 OA
ATOM     58  O   UNL A   1      44.783  22.379  26.318  1.00  0.00    -0.237 OA
ATOM     59  O   UNL A   1      42.769  22.123  27.695  1.00  0.00    -0.744 OA
ENDBRANCH  53  56
ENDBRANCH  25  49
BRANCH  37  60
ATOM     60  C   UNL A   1      44.899  27.369  34.084  1.00  0.00     0.023 A 
ATOM     61  C   UNL A   1      46.062  28.162  34.141  1.00  0.00     0.012 A 
ATOM     62  C   UNL A   1      44.859  26.147  34.783  1.00  0.00     0.148 A 
ATOM     63  C   UNL A   1      47.179  27.731  34.856  1.00  0.00     0.002 A 
ATOM     64  C   UNL A   1      45.960  25.745  35.530  1.00  0.00     0.091 A 
ATOM     65  F   UNL A   1      43.752  25.395  34.698  1.00  0.00    -0.205 F 
ATOM     66  C   UNL A   1      47.124  26.529  35.559  1.00  0.00     0.022 A 
BRANCH  64  67
ATOM     67  S   UNL A   1      45.937  24.259  36.539  1.00  0.00     0.127 S 
ATOM     68  O   UNL A   1      47.254  24.304  37.170  1.00  0.00    -0.237 OA
ATOM     69  O   UNL A   1      44.817  24.512  37.447  1.00  0.00    -0.237 OA
ATOM     70  O   UNL A   1      45.718  23.155  35.614  1.00  0.00    -0.744 OA
ENDBRANCH  64  67
ENDBRANCH  37  60
ENDBRANCH  11  12
ENDBRANCH   4   6
ENDBRANCH   1   2
BRANCH   1  71
ATOM     71  C   UNL A   1      32.745  28.831  23.816  1.00  0.00     0.042 C 
BRANCH  71  72
ATOM     72  C   UNL A   1      33.541  27.807  23.012  1.00  0.00     0.118 C 
BRANCH  72  73
ATOM     73  N   UNL A   1      32.796  27.350  21.853  1.00  0.00    -0.351 N 
ATOM     74  C   UNL A   1      32.303  26.113  21.571  1.00  0.00     0.280 C 
ATOM     75  H   UNL A   1      32.621  28.037  21.170  1.00  0.00     0.163 HD
ATOM     76  O   UNL A   1      31.742  25.947  20.483  1.00  0.00    -0.268 OA
BRANCH  74  77
ATOM     77  C   UNL A   1      32.370  24.983  22.611  1.00  0.00     0.292 C 
ATOM     78  C   UNL A   1      33.301  23.877  22.060  1.00  0.00     0.197 C 
ATOM     79  N   UNL A   1      30.964  24.516  22.841  1.00  0.00    -0.333 N 
ATOM     80  N   UNL A   1      33.219  22.671  22.888  1.00  0.00    -0.312 N 
ATOM     81  C   UNL A   1      30.974  23.304  23.680  1.00  0.00     0.283 C 
ATOM     82  H   UNL A   1      30.527  24.303  21.943  1.00  0.00     0.347 HD
ATOM     83  H   UNL A   1      30.436  25.249  23.313  1.00  0.00     0.347 HD
ATOM     84  C   UNL A   1      31.871  22.165  23.136  1.00  0.00     0.183 C 
BRANCH  80  85
ATOM     85  C   UNL A   1      34.233  22.341  23.716  1.00  0.00     0.324 A 
ATOM     86  N   UNL A   1      35.397  22.918  23.889  1.00  0.00    -0.171 NA
ATOM     87  O   UNL A   1      34.067  21.236  24.509  1.00  0.00    -0.315 OA
ATOM     88  C   UNL A   1      35.973  22.139  24.868  1.00  0.00     0.204 A 
ATOM     89  N   UNL A   1      35.227  21.098  25.262  1.00  0.00    -0.055 NA
BRANCH  88  90
ATOM     90  C   UNL A   1      37.232  22.471  25.502  1.00  0.00     0.023 A 
ATOM     91  C   UNL A   1      38.237  21.510  25.649  1.00  0.00     0.012 A 
ATOM     92  C   UNL A   1      37.418  23.755  26.033  1.00  0.00     0.012 A 
ATOM     93  C   UNL A   1      39.415  21.828  26.329  1.00  0.00     0.001 A 
ATOM     94  C   UNL A   1      38.593  24.068  26.717  1.00  0.00     0.001 A 
ATOM     95  C   UNL A   1      39.589  23.105  26.866  1.00  0.00     0.000 A 
ENDBRANCH  88  90
ENDBRANCH  80  85
ENDBRANCH  74  77
ENDBRANCH  72  73
ENDBRANCH  71  72
ENDBRANCH   1  71
TORSDOF 15
ENDMDL
MODEL 3
REMARK VINA RESULT:     -13.0      1.591      1.899
REMARK SMILES O=C(NCCCNC(=O)[C@@H]1CN(c2nc(-c3ccccc3)no2)CC[NH2+]1)c1ccc(-c2c3nc(c(-c4cccc(S(=O)(=O)[O-])c4F)c4ccc([nH]4)c(-c4cccc(S(=O)(=O)[O-])c4F)c4nc(c(-c5cccc(S(=O)(=O)[O-])c5F)c5ccc2[nH]5)C=C4)C=C3)cc1
REMARK SMILES IDX 4 1 3 2 1 3 2 4 27 6 28 7 89 8 29 9 88 10 30 11 31 12 32 13
REMARK SMILES IDX 82 14 33 15 87 16 81 17 83 18 34 19 86 20 80 21 79 22 35 24
REMARK SMILES IDX 67 25 47 26 66 27 48 28 51 29 65 30 84 31 49 32 50 33 64 35
REMARK SMILES IDX 85 36 52 37 36 38 37 39 45 40 38 41 40 42 46 43 39 44 41 45
REMARK SMILES IDX 42 46 43 47 44 48 68 49 69 50 77 51 70 52 72 53 78 54 71 55
REMARK SMILES IDX 73 56 74 57 75 58 76 59 53 60 54 61 62 62 55 63 57 64 63 65
REMARK SMILES IDX 56 66 58 67 59 68 60 69 61 70 5 71 6 72 7 73 8 74 9 76 10 77
REMARK SMILES IDX 11 78 26 79 12 80 25 81 24 84 13 85 14 86 23 87 15 88 22 89
REMARK SMILES IDX 16 90 17 91 21 92 18 93 20 94 19 95
REMARK H PARENT 3 5 83 23 51 34 7 75 26 82 26 83
REMARK Flexibility Score: inf
ROOT
ATOM      1  C   UNL A   1      32.709  29.490  25.675  1.00  0.00     0.118 C 
ENDROOT
BRANCH   1   2
ATOM      2  N   UNL A   1      32.432  30.874  26.040  1.00  0.00    -0.352 N 
ATOM      3  O   UNL A   1      32.497  32.747  27.276  1.00  0.00    -0.269 OA
ATOM      4  C   UNL A   1      33.029  31.679  26.979  1.00  0.00     0.251 C 
ATOM      5  H   UNL A   1      31.704  31.298  25.534  1.00  0.00     0.163 HD
BRANCH   4   6
ATOM      6  C   UNL A   1      34.285  31.263  27.639  1.00  0.00     0.039 A 
ATOM      7  C   UNL A   1      34.507  29.926  27.978  1.00  0.00     0.014 A 
ATOM      8  C   UNL A   1      35.273  32.220  27.891  1.00  0.00     0.014 A 
ATOM      9  C   UNL A   1      35.640  29.575  28.705  1.00  0.00     0.010 A 
ATOM     10  C   UNL A   1      36.451  31.848  28.545  1.00  0.00     0.010 A 
ATOM     11  C   UNL A   1      36.628  30.531  28.994  1.00  0.00    -0.014 A 
BRANCH  11  12
ATOM     12  C   UNL A   1      37.852  30.116  29.725  1.00  0.00     0.031 A 
ATOM     13  C   UNL A   1      38.110  30.575  31.134  1.00  0.00     0.074 A 
ATOM     14  C   UNL A   1      38.736  29.309  29.108  1.00  0.00     0.049 A 
ATOM     15  N   UNL A   1      39.101  30.266  31.931  1.00  0.00    -0.248 NA
ATOM     16  C   UNL A   1      37.138  31.508  31.727  1.00  0.00     0.031 C 
ATOM     17  C   UNL A   1      38.618  28.835  27.727  1.00  0.00     0.029 A 
ATOM     18  N   UNL A   1      39.901  28.740  29.555  1.00  0.00    -0.354 N 
ATOM     19  C   UNL A   1      38.900  30.996  33.096  1.00  0.00     0.074 A 
ATOM     20  C   UNL A   1      37.695  31.773  32.901  1.00  0.00     0.031 C 
ATOM     21  C   UNL A   1      39.647  28.019  27.451  1.00  0.00     0.029 A 
ATOM     22  C   UNL A   1      40.520  27.948  28.617  1.00  0.00     0.049 A 
ATOM     23  H   UNL A   1      40.259  28.885  30.461  1.00  0.00     0.167 HD
ATOM     24  C   UNL A   1      39.641  31.006  34.231  1.00  0.00     0.034 A 
ATOM     25  C   UNL A   1      41.666  27.242  28.685  1.00  0.00     0.034 A 
ATOM     26  C   UNL A   1      40.813  30.196  34.437  1.00  0.00     0.049 A 
ATOM     27  C   UNL A   1      42.446  27.242  29.968  1.00  0.00     0.074 A 
ATOM     28  C   UNL A   1      41.588  30.078  35.577  1.00  0.00     0.029 A 
ATOM     29  N   UNL A   1      41.385  29.372  33.480  1.00  0.00    -0.354 N 
ATOM     30  N   UNL A   1      42.163  27.831  31.104  1.00  0.00    -0.248 NA
ATOM     31  C   UNL A   1      43.686  26.454  29.989  1.00  0.00     0.031 C 
ATOM     32  C   UNL A   1      42.639  29.195  35.304  1.00  0.00     0.029 A 
ATOM     33  C   UNL A   1      42.507  28.748  33.999  1.00  0.00     0.049 A 
ATOM     34  H   UNL A   1      41.043  29.248  32.565  1.00  0.00     0.167 HD
ATOM     35  C   UNL A   1      43.172  27.462  31.985  1.00  0.00     0.074 A 
ATOM     36  C   UNL A   1      44.062  26.581  31.254  1.00  0.00     0.031 C 
ATOM     37  C   UNL A   1      43.354  27.832  33.277  1.00  0.00     0.034 A 
BRANCH  24  38
ATOM     38  C   UNL A   1      39.182  31.895  35.358  1.00  0.00     0.023 A 
ATOM     39  C   UNL A   1      38.230  31.415  36.282  1.00  0.00     0.012 A 
ATOM     40  C   UNL A   1      39.726  33.182  35.536  1.00  0.00     0.148 A 
ATOM     41  C   UNL A   1      37.802  32.214  37.342  1.00  0.00     0.002 A 
ATOM     42  C   UNL A   1      39.323  33.958  36.618  1.00  0.00     0.091 A 
ATOM     43  F   UNL A   1      40.611  33.634  34.636  1.00  0.00    -0.205 F 
ATOM     44  C   UNL A   1      38.354  33.480  37.514  1.00  0.00     0.022 A 
BRANCH  42  45
ATOM     45  S   UNL A   1      40.038  35.570  36.960  1.00  0.00     0.127 S 
ATOM     46  O   UNL A   1      39.642  36.327  35.773  1.00  0.00    -0.237 OA
ATOM     47  O   UNL A   1      39.348  35.964  38.190  1.00  0.00    -0.237 OA
ATOM     48  O   UNL A   1      41.467  35.343  37.120  1.00  0.00    -0.744 OA
ENDBRANCH  42  45
ENDBRANCH  24  38
BRANCH  25  49
ATOM     49  C   UNL A   1      42.091  26.420  27.518  1.00  0.00     0.023 A 
ATOM     50  C   UNL A   1      42.906  26.999  26.527  1.00  0.00     0.012 A 
ATOM     51  C   UNL A   1      41.751  25.056  27.419  1.00  0.00     0.148 A 
ATOM     52  C   UNL A   1      43.360  26.242  25.448  1.00  0.00     0.002 A 
ATOM     53  C   UNL A   1      42.253  24.293  26.372  1.00  0.00     0.091 A 
ATOM     54  F   UNL A   1      40.964  24.528  28.366  1.00  0.00    -0.205 F 
ATOM     55  C   UNL A   1      43.045  24.888  25.377  1.00  0.00     0.022 A 
BRANCH  53  56
ATOM     56  S   UNL A   1      42.016  22.515  26.276  1.00  0.00     0.127 S 
ATOM     57  O   UNL A   1      40.559  22.411  26.240  1.00  0.00    -0.237 OA
ATOM     58  O   UNL A   1      42.689  22.188  25.019  1.00  0.00    -0.237 OA
ATOM     59  O   UNL A   1      42.660  21.968  27.462  1.00  0.00    -0.744 OA
ENDBRANCH  53  56
ENDBRANCH  25  49
BRANCH  37  60
ATOM     60  C   UNL A   1      44.544  27.260  34.000  1.00  0.00     0.023 A 
ATOM     61  C   UNL A   1      45.761  27.969  34.011  1.00  0.00     0.012 A 
ATOM     62  C   UNL A   1      44.438  26.056  34.723  1.00  0.00     0.148 A 
ATOM     63  C   UNL A   1      46.865  27.472  34.704  1.00  0.00     0.002 A 
ATOM     64  C   UNL A   1      45.528  25.590  35.448  1.00  0.00     0.091 A 
ATOM     65  F   UNL A   1      43.278  25.384  34.681  1.00  0.00    -0.205 F 
ATOM     66  C   UNL A   1      46.745  26.289  35.431  1.00  0.00     0.022 A 
BRANCH  64  67
ATOM     67  S   UNL A   1      45.427  24.126  36.486  1.00  0.00     0.127 S 
ATOM     68  O   UNL A   1      44.555  24.584  37.566  1.00  0.00    -0.237 OA
ATOM     69  O   UNL A   1      44.820  23.145  35.586  1.00  0.00    -0.237 OA
ATOM     70  O   UNL A   1      46.798  23.818  36.870  1.00  0.00    -0.744 OA
ENDBRANCH  64  67
ENDBRANCH  37  60
ENDBRANCH  11  12
ENDBRANCH   4   6
ENDBRANCH   1   2
BRANCH   1  71
ATOM     71  C   UNL A   1      31.560  28.852  24.895  1.00  0.00     0.042 C 
BRANCH  71  72
ATOM     72  C   UNL A   1      31.808  27.389  24.542  1.00  0.00     0.118 C 
BRANCH  72  73
ATOM     73  N   UNL A   1      32.537  27.263  23.294  1.00  0.00    -0.351 N 
ATOM     74  C   UNL A   1      33.385  26.281  22.878  1.00  0.00     0.280 C 
ATOM     75  H   UNL A   1      32.399  27.995  22.651  1.00  0.00     0.163 HD
ATOM     76  O   UNL A   1      33.939  26.418  21.783  1.00  0.00    -0.268 OA
BRANCH  74  77
ATOM     77  C   UNL A   1      33.578  25.004  23.713  1.00  0.00     0.292 C 
ATOM     78  C   UNL A   1      32.242  24.225  23.717  1.00  0.00     0.197 C 
ATOM     79  N   UNL A   1      34.017  25.437  25.079  1.00  0.00    -0.333 N 
ATOM     80  N   UNL A   1      32.286  23.128  24.687  1.00  0.00    -0.312 N 
ATOM     81  C   UNL A   1      34.033  24.276  25.987  1.00  0.00     0.283 C 
ATOM     82  H   UNL A   1      33.368  26.139  25.437  1.00  0.00     0.347 HD
ATOM     83  H   UNL A   1      34.955  25.836  25.024  1.00  0.00     0.347 HD
ATOM     84  C   UNL A   1      32.698  23.495  26.039  1.00  0.00     0.183 C 
BRANCH  80  85
ATOM     85  C   UNL A   1      32.391  21.849  24.267  1.00  0.00     0.324 A 
ATOM     86  N   UNL A   1      32.874  20.798  24.886  1.00  0.00    -0.171 NA
ATOM     87  O   UNL A   1      31.946  21.560  23.004  1.00  0.00    -0.315 OA
ATOM     88  C   UNL A   1      32.689  19.796  23.961  1.00  0.00     0.204 A 
ATOM     89  N   UNL A   1      32.156  20.201  22.800  1.00  0.00    -0.055 NA
BRANCH  88  90
ATOM     90  C   UNL A   1      32.945  18.400  24.249  1.00  0.00     0.023 A 
ATOM     91  C   UNL A   1      32.530  17.829  25.457  1.00  0.00     0.012 A 
ATOM     92  C   UNL A   1      33.673  17.629  23.332  1.00  0.00     0.012 A 
ATOM     93  C   UNL A   1      32.849  16.501  25.748  1.00  0.00     0.001 A 
ATOM     94  C   UNL A   1      33.995  16.305  23.629  1.00  0.00     0.001 A 
ATOM     95  C   UNL A   1      33.585  15.742  24.836  1.00  0.00     0.000 A 
ENDBRANCH  88  90
ENDBRANCH  80  85
ENDBRANCH  74  77
ENDBRANCH  72  73
ENDBRANCH  71  72
ENDBRANCH   1  71
TORSDOF 15
ENDMDL
