MODEL 1
REMARK VINA RESULT:     -12.5      0.000      0.000
REMARK SMILES Cn1c(COc2ccc(C(=O)NCCCNC(=O)c3ccc(-c4c5nc(c(-c6cccc(S(=O)(=O)[O-])c6F)c6ccc([nH]6)c(-c6cccc(S(=O)(=O)[O-])c6F)c6nc(c(-c7cccc(S(=O)(=O)[O-])c7F)c7ccc4[nH]7)C=C6)C=C5)cc3)cc2)nc2ccccc21
REMARK SMILES IDX 14 1 13 2 12 3 10 4 11 5 9 7 6 8 7 9 83 10 8 11 82 12 5 13
REMARK SMILES IDX 4 14 3 15 1 16 2 17 90 18 84 19 85 20 89 21 86 22 88 23
REMARK SMILES IDX 87 24 15 25 16 26 17 27 18 29 19 30 20 31 81 32 21 33 80 34
REMARK SMILES IDX 22 35 23 36 24 37 74 38 25 39 79 40 73 41 75 42 26 43 78 44
REMARK SMILES IDX 72 45 71 46 27 48 59 49 39 50 58 51 40 52 43 53 57 54 76 55
REMARK SMILES IDX 41 56 42 57 56 59 77 60 44 61 28 62 29 63 37 64 30 65 32 66
REMARK SMILES IDX 38 67 31 68 33 69 34 70 35 71 36 72 60 73 61 74 69 75 62 76
REMARK SMILES IDX 64 77 70 78 63 79 65 80 66 81 67 82 68 83 45 84 46 85 54 86
REMARK SMILES IDX 47 87 49 88 55 89 48 90 50 91 51 92 52 93 53 94
REMARK H PARENT 12 6 16 28 75 47 43 58
REMARK Flexibility Score: inf
ROOT
ATOM      1  C   UNL A   1      31.521  31.921  26.551  1.00  0.00     0.042 C 
ENDROOT
BRANCH   1   2
ATOM      2  C   UNL A   1      31.623  30.425  26.263  1.00  0.00     0.118 C 
BRANCH   2   3
ATOM      3  N   UNL A   1      31.378  30.116  24.863  1.00  0.00    -0.352 N 
ATOM      4  C   UNL A   1      31.416  28.920  24.186  1.00  0.00     0.251 C 
ATOM      5  O   UNL A   1      30.987  28.877  23.035  1.00  0.00    -0.269 OA
ATOM      6  H   UNL A   1      31.144  30.894  24.306  1.00  0.00     0.163 HD
BRANCH   4   7
ATOM      7  C   UNL A   1      31.901  27.672  24.829  1.00  0.00     0.040 A 
ATOM      8  C   UNL A   1      32.897  25.299  25.915  1.00  0.00     0.120 A 
ATOM      9  C   UNL A   1      33.773  26.194  25.307  1.00  0.00     0.047 A 
ATOM     10  C   UNL A   1      31.557  25.635  26.083  1.00  0.00     0.047 A 
ATOM     11  C   UNL A   1      33.272  27.381  24.763  1.00  0.00     0.017 A 
ATOM     12  C   UNL A   1      31.058  26.816  25.540  1.00  0.00     0.017 A 
BRANCH   8  13
ATOM     13  O   UNL A   1      33.370  24.123  26.432  1.00  0.00    -0.486 OA
BRANCH  13  14
ATOM     14  C   UNL A   1      32.328  23.132  26.579  1.00  0.00     0.304 C 
BRANCH  14  15
ATOM     15  C   UNL A   1      32.596  21.948  25.696  1.00  0.00     0.147 A 
ATOM     16  C   UNL A   1      31.724  22.896  23.510  1.00  0.00     0.151 C 
ATOM     17  N   UNL A   1      32.257  21.861  24.361  1.00  0.00    -0.328 N 
ATOM     18  C   UNL A   1      32.432  20.555  23.955  1.00  0.00     0.068 A 
ATOM     19  N   UNL A   1      33.112  20.802  26.109  1.00  0.00    -0.229 NA
ATOM     20  C   UNL A   1      32.957  19.918  25.074  1.00  0.00     0.089 A 
ATOM     21  C   UNL A   1      32.166  19.880  22.757  1.00  0.00     0.028 A 
ATOM     22  C   UNL A   1      33.211  18.540  25.030  1.00  0.00     0.030 A 
ATOM     23  C   UNL A   1      32.418  18.504  22.732  1.00  0.00     0.002 A 
ATOM     24  C   UNL A   1      32.927  17.841  23.850  1.00  0.00     0.002 A 
ENDBRANCH  14  15
ENDBRANCH  13  14
ENDBRANCH   8  13
ENDBRANCH   4   7
ENDBRANCH   2   3
ENDBRANCH   1   2
BRANCH   1  25
ATOM     25  C   UNL A   1      32.736  32.499  27.273  1.00  0.00     0.118 C 
BRANCH  25  26
ATOM     26  N   UNL A   1      32.560  33.904  27.613  1.00  0.00    -0.352 N 
ATOM     27  C   UNL A   1      33.164  34.660  28.587  1.00  0.00     0.251 C 
ATOM     28  H   UNL A   1      31.906  34.388  27.057  1.00  0.00     0.163 HD
ATOM     29  O   UNL A   1      32.716  35.776  28.842  1.00  0.00    -0.269 OA
BRANCH  27  30
ATOM     30  C   UNL A   1      34.334  34.144  29.336  1.00  0.00     0.039 A 
ATOM     31  C   UNL A   1      34.114  33.293  30.424  1.00  0.00     0.014 A 
ATOM     32  C   UNL A   1      35.637  34.526  29.005  1.00  0.00     0.014 A 
ATOM     33  C   UNL A   1      35.199  32.780  31.139  1.00  0.00     0.010 A 
ATOM     34  C   UNL A   1      36.721  33.959  29.674  1.00  0.00     0.010 A 
ATOM     35  C   UNL A   1      36.515  33.084  30.751  1.00  0.00    -0.014 A 
BRANCH  35  36
ATOM     36  C   UNL A   1      37.683  32.477  31.442  1.00  0.00     0.031 A 
ATOM     37  C   UNL A   1      38.415  31.314  30.830  1.00  0.00     0.074 A 
ATOM     38  C   UNL A   1      38.030  32.922  32.667  1.00  0.00     0.049 A 
ATOM     39  N   UNL A   1      39.407  30.615  31.318  1.00  0.00    -0.248 NA
ATOM     40  C   UNL A   1      37.958  30.859  29.505  1.00  0.00     0.031 C 
ATOM     41  C   UNL A   1      37.349  33.991  33.402  1.00  0.00     0.029 A 
ATOM     42  N   UNL A   1      39.021  32.510  33.523  1.00  0.00    -0.354 N 
ATOM     43  C   UNL A   1      39.674  29.624  30.380  1.00  0.00     0.074 A 
ATOM     44  C   UNL A   1      38.717  29.791  29.307  1.00  0.00     0.031 C 
ATOM     45  C   UNL A   1      37.936  34.143  34.600  1.00  0.00     0.029 A 
ATOM     46  C   UNL A   1      39.012  33.167  34.733  1.00  0.00     0.049 A 
ATOM     47  H   UNL A   1      39.675  31.810  33.295  1.00  0.00     0.167 HD
ATOM     48  C   UNL A   1      40.646  28.680  30.394  1.00  0.00     0.034 A 
ATOM     49  C   UNL A   1      39.775  32.994  35.830  1.00  0.00     0.034 A 
ATOM     50  C   UNL A   1      41.619  28.540  31.445  1.00  0.00     0.049 A 
ATOM     51  C   UNL A   1      40.868  31.962  35.806  1.00  0.00     0.074 A 
ATOM     52  C   UNL A   1      42.689  27.665  31.515  1.00  0.00     0.029 A 
ATOM     53  N   UNL A   1      41.639  29.288  32.612  1.00  0.00    -0.354 N 
ATOM     54  N   UNL A   1      41.204  31.139  34.841  1.00  0.00    -0.248 NA
ATOM     55  C   UNL A   1      41.713  31.858  37.004  1.00  0.00     0.031 C 
ATOM     56  C   UNL A   1      43.345  27.872  32.733  1.00  0.00     0.029 A 
ATOM     57  C   UNL A   1      42.698  28.892  33.410  1.00  0.00     0.049 A 
ATOM     58  H   UNL A   1      40.994  29.996  32.839  1.00  0.00     0.167 HD
ATOM     59  C   UNL A   1      42.315  30.444  35.303  1.00  0.00     0.074 A 
ATOM     60  C   UNL A   1      42.614  30.961  36.623  1.00  0.00     0.031 C 
ATOM     61  C   UNL A   1      43.016  29.453  34.698  1.00  0.00     0.034 A 
BRANCH  48  62
ATOM     62  C   UNL A   1      40.750  27.760  29.204  1.00  0.00     0.023 A 
ATOM     63  C   UNL A   1      39.908  26.632  29.129  1.00  0.00     0.012 A 
ATOM     64  C   UNL A   1      41.621  28.044  28.134  1.00  0.00     0.148 A 
ATOM     65  C   UNL A   1      39.951  25.783  28.024  1.00  0.00     0.002 A 
ATOM     66  C   UNL A   1      41.628  27.217  27.016  1.00  0.00     0.091 A 
ATOM     67  F   UNL A   1      42.426  29.111  28.230  1.00  0.00    -0.205 F 
ATOM     68  C   UNL A   1      40.803  26.081  26.964  1.00  0.00     0.022 A 
BRANCH  66  69
ATOM     69  S   UNL A   1      42.629  27.555  25.563  1.00  0.00     0.127 S 
ATOM     70  O   UNL A   1      43.974  27.600  26.137  1.00  0.00    -0.237 OA
ATOM     71  O   UNL A   1      42.363  26.383  24.727  1.00  0.00    -0.237 OA
ATOM     72  O   UNL A   1      42.141  28.814  25.019  1.00  0.00    -0.744 OA
ENDBRANCH  66  69
ENDBRANCH  48  62
BRANCH  49  73
ATOM     73  C   UNL A   1      39.562  33.856  37.028  1.00  0.00     0.023 A 
ATOM     74  C   UNL A   1      39.991  35.197  37.004  1.00  0.00     0.012 A 
ATOM     75  C   UNL A   1      38.918  33.361  38.179  1.00  0.00     0.148 A 
ATOM     76  C   UNL A   1      39.814  36.020  38.117  1.00  0.00     0.002 A 
ATOM     77  C   UNL A   1      38.693  34.204  39.261  1.00  0.00     0.091 A 
ATOM     78  F   UNL A   1      38.530  32.079  38.189  1.00  0.00    -0.205 F 
ATOM     79  C   UNL A   1      39.157  35.528  39.240  1.00  0.00     0.022 A 
BRANCH  77  80
ATOM     80  S   UNL A   1      37.731  33.692  40.689  1.00  0.00     0.127 S 
ATOM     81  O   UNL A   1      36.611  32.997  40.062  1.00  0.00    -0.237 OA
ATOM     82  O   UNL A   1      38.676  32.827  41.397  1.00  0.00    -0.237 OA
ATOM     83  O   UNL A   1      37.403  34.922  41.398  1.00  0.00    -0.744 OA
ENDBRANCH  77  80
ENDBRANCH  49  73
BRANCH  61  84
ATOM     84  C   UNL A   1      44.196  28.881  35.438  1.00  0.00     0.023 A 
ATOM     85  C   UNL A   1      45.475  29.447  35.260  1.00  0.00     0.012 A 
ATOM     86  C   UNL A   1      44.027  27.831  36.362  1.00  0.00     0.148 A 
ATOM     87  C   UNL A   1      46.572  28.956  35.966  1.00  0.00     0.002 A 
ATOM     88  C   UNL A   1      45.116  27.379  37.098  1.00  0.00     0.091 A 
ATOM     89  F   UNL A   1      42.807  27.293  36.503  1.00  0.00    -0.205 F 
ATOM     90  C   UNL A   1      46.390  27.932  36.892  1.00  0.00     0.022 A 
BRANCH  88  91
ATOM     91  S   UNL A   1      44.961  26.129  38.379  1.00  0.00     0.127 S 
ATOM     92  O   UNL A   1      46.342  26.002  38.840  1.00  0.00    -0.237 OA
ATOM     93  O   UNL A   1      44.056  26.772  39.333  1.00  0.00    -0.237 OA
ATOM     94  O   UNL A   1      44.409  24.950  37.725  1.00  0.00    -0.744 OA
ENDBRANCH  88  91
ENDBRANCH  61  84
ENDBRANCH  35  36
ENDBRANCH  27  30
ENDBRANCH  25  26
ENDBRANCH   1  25
TORSDOF 16
ENDMDL
MODEL 2
REMARK VINA RESULT:     -12.4      3.432      8.666
REMARK SMILES Cn1c(COc2ccc(C(=O)NCCCNC(=O)c3ccc(-c4c5nc(c(-c6cccc(S(=O)(=O)[O-])c6F)c6ccc([nH]6)c(-c6cccc(S(=O)(=O)[O-])c6F)c6nc(c(-c7cccc(S(=O)(=O)[O-])c7F)c7ccc4[nH]7)C=C6)C=C5)cc3)cc2)nc2ccccc21
REMARK SMILES IDX 14 1 13 2 12 3 10 4 11 5 9 7 6 8 7 9 83 10 8 11 82 12 5 13
REMARK SMILES IDX 4 14 3 15 1 16 2 17 90 18 84 19 85 20 89 21 86 22 88 23
REMARK SMILES IDX 87 24 15 25 16 26 17 27 18 29 19 30 20 31 81 32 21 33 80 34
REMARK SMILES IDX 22 35 23 36 24 37 74 38 25 39 79 40 73 41 75 42 26 43 78 44
REMARK SMILES IDX 72 45 71 46 27 48 59 49 39 50 58 51 40 52 43 53 57 54 76 55
REMARK SMILES IDX 41 56 42 57 56 59 77 60 44 61 28 62 29 63 37 64 30 65 32 66
REMARK SMILES IDX 38 67 31 68 33 69 34 70 35 71 36 72 60 73 61 74 69 75 62 76
REMARK SMILES IDX 64 77 70 78 63 79 65 80 66 81 67 82 68 83 45 84 46 85 54 86
REMARK SMILES IDX 47 87 49 88 55 89 48 90 50 91 51 92 52 93 53 94
REMARK H PARENT 12 6 16 28 75 47 43 58
REMARK Flexibility Score: inf
ROOT
ATOM      1  C   UNL A   1      32.798  28.512  25.208  1.00  0.00     0.042 C 
ENDROOT
BRANCH   1   2
ATOM      2  C   UNL A   1      33.095  29.048  23.808  1.00  0.00     0.118 C 
BRANCH   2   3
ATOM      3  N   UNL A   1      31.890  29.180  23.003  1.00  0.00    -0.352 N 
ATOM      4  C   UNL A   1      31.013  28.231  22.536  1.00  0.00     0.251 C 
ATOM      5  O   UNL A   1      29.956  28.600  22.029  1.00  0.00    -0.269 OA
ATOM      6  H   UNL A   1      31.665  30.106  22.751  1.00  0.00     0.163 HD
BRANCH   4   7
ATOM      7  C   UNL A   1      31.278  26.778  22.686  1.00  0.00     0.040 A 
ATOM      8  C   UNL A   1      31.757  24.060  23.117  1.00  0.00     0.120 A 
ATOM      9  C   UNL A   1      30.686  24.675  23.756  1.00  0.00     0.047 A 
ATOM     10  C   UNL A   1      32.513  24.762  22.183  1.00  0.00     0.047 A 
ATOM     11  C   UNL A   1      30.448  26.037  23.541  1.00  0.00     0.017 A 
ATOM     12  C   UNL A   1      32.277  26.118  21.969  1.00  0.00     0.017 A 
BRANCH   8  13
ATOM     13  O   UNL A   1      32.016  22.733  23.336  1.00  0.00    -0.486 OA
BRANCH  13  14
ATOM     14  C   UNL A   1      32.530  22.488  24.664  1.00  0.00     0.304 C 
BRANCH  14  15
ATOM     15  C   UNL A   1      32.909  21.045  24.826  1.00  0.00     0.147 A 
ATOM     16  C   UNL A   1      35.428  21.286  24.642  1.00  0.00     0.151 C 
ATOM     17  N   UNL A   1      34.194  20.548  24.747  1.00  0.00    -0.328 N 
ATOM     18  C   UNL A   1      34.123  19.172  24.697  1.00  0.00     0.068 A 
ATOM     19  N   UNL A   1      32.047  20.052  24.976  1.00  0.00    -0.229 NA
ATOM     20  C   UNL A   1      32.767  18.895  24.831  1.00  0.00     0.089 A 
ATOM     21  C   UNL A   1      35.085  18.168  24.527  1.00  0.00     0.028 A 
ATOM     22  C   UNL A   1      32.322  17.568  24.770  1.00  0.00     0.030 A 
ATOM     23  C   UNL A   1      34.623  16.848  24.460  1.00  0.00     0.002 A 
ATOM     24  C   UNL A   1      33.265  16.550  24.573  1.00  0.00     0.002 A 
ENDBRANCH  14  15
ENDBRANCH  13  14
ENDBRANCH   8  13
ENDBRANCH   4   7
ENDBRANCH   2   3
ENDBRANCH   1   2
BRANCH   1  25
ATOM     25  C   UNL A   1      33.888  28.818  26.233  1.00  0.00     0.118 C 
BRANCH  25  26
ATOM     26  N   UNL A   1      33.815  30.188  26.723  1.00  0.00    -0.352 N 
ATOM     27  C   UNL A   1      34.607  30.843  27.633  1.00  0.00     0.251 C 
ATOM     28  H   UNL A   1      33.085  30.728  26.342  1.00  0.00     0.163 HD
ATOM     29  O   UNL A   1      34.245  31.936  28.064  1.00  0.00    -0.269 OA
BRANCH  27  30
ATOM     30  C   UNL A   1      35.880  30.248  28.106  1.00  0.00     0.039 A 
ATOM     31  C   UNL A   1      37.002  30.310  27.273  1.00  0.00     0.014 A 
ATOM     32  C   UNL A   1      35.965  29.594  29.338  1.00  0.00     0.014 A 
ATOM     33  C   UNL A   1      38.218  29.772  27.700  1.00  0.00     0.010 A 
ATOM     34  C   UNL A   1      37.194  29.119  29.791  1.00  0.00     0.010 A 
ATOM     35  C   UNL A   1      38.333  29.198  28.977  1.00  0.00    -0.014 A 
BRANCH  35  36
ATOM     36  C   UNL A   1      39.638  28.699  29.485  1.00  0.00     0.031 A 
ATOM     37  C   UNL A   1      40.362  29.431  30.583  1.00  0.00     0.074 A 
ATOM     38  C   UNL A   1      40.214  27.633  28.893  1.00  0.00     0.049 A 
ATOM     39  N   UNL A   1      41.537  29.185  31.102  1.00  0.00    -0.248 NA
ATOM     40  C   UNL A   1      39.688  30.608  31.159  1.00  0.00     0.031 C 
ATOM     41  C   UNL A   1      39.651  26.887  27.766  1.00  0.00     0.029 A 
ATOM     42  N   UNL A   1      41.415  27.013  29.135  1.00  0.00    -0.354 N 
ATOM     43  C   UNL A   1      41.758  30.187  32.040  1.00  0.00     0.074 A 
ATOM     44  C   UNL A   1      40.608  31.065  31.996  1.00  0.00     0.031 C 
ATOM     45  C   UNL A   1      40.508  25.916  27.408  1.00  0.00     0.029 A 
ATOM     46  C   UNL A   1      41.692  25.989  28.258  1.00  0.00     0.049 A 
ATOM     47  H   UNL A   1      42.021  27.276  29.865  1.00  0.00     0.167 HD
ATOM     48  C   UNL A   1      42.806  30.346  32.884  1.00  0.00     0.034 A 
ATOM     49  C   UNL A   1      42.782  25.205  28.141  1.00  0.00     0.034 A 
ATOM     50  C   UNL A   1      43.931  29.450  32.950  1.00  0.00     0.049 A 
ATOM     51  C   UNL A   1      43.917  25.382  29.112  1.00  0.00     0.074 A 
ATOM     52  C   UNL A   1      45.005  29.483  33.822  1.00  0.00     0.029 A 
ATOM     53  N   UNL A   1      44.131  28.366  32.111  1.00  0.00    -0.354 N 
ATOM     54  N   UNL A   1      44.034  26.239  30.097  1.00  0.00    -0.248 NA
ATOM     55  C   UNL A   1      45.054  24.459  28.982  1.00  0.00     0.031 C 
ATOM     56  C   UNL A   1      45.864  28.428  33.498  1.00  0.00     0.029 A 
ATOM     57  C   UNL A   1      45.312  27.725  32.440  1.00  0.00     0.049 A 
ATOM     58  H   UNL A   1      43.522  28.092  31.387  1.00  0.00     0.167 HD
ATOM     59  C   UNL A   1      45.238  25.941  30.722  1.00  0.00     0.074 A 
ATOM     60  C   UNL A   1      45.802  24.804  30.022  1.00  0.00     0.031 C 
ATOM     61  C   UNL A   1      45.835  26.562  31.769  1.00  0.00     0.034 A 
BRANCH  48  62
ATOM     62  C   UNL A   1      42.759  31.500  33.854  1.00  0.00     0.023 A 
ATOM     63  C   UNL A   1      43.281  32.750  33.464  1.00  0.00     0.012 A 
ATOM     64  C   UNL A   1      42.142  31.371  35.113  1.00  0.00     0.148 A 
ATOM     65  C   UNL A   1      43.218  33.847  34.322  1.00  0.00     0.002 A 
ATOM     66  C   UNL A   1      42.045  32.480  35.947  1.00  0.00     0.091 A 
ATOM     67  F   UNL A   1      41.667  30.170  35.474  1.00  0.00    -0.205 F 
ATOM     68  C   UNL A   1      42.591  33.714  35.558  1.00  0.00     0.022 A 
BRANCH  66  69
ATOM     69  S   UNL A   1      41.188  32.438  37.526  1.00  0.00     0.127 S 
ATOM     70  O   UNL A   1      39.899  31.862  37.145  1.00  0.00    -0.237 OA
ATOM     71  O   UNL A   1      42.043  31.549  38.314  1.00  0.00    -0.237 OA
ATOM     72  O   UNL A   1      41.142  33.814  37.998  1.00  0.00    -0.744 OA
ENDBRANCH  66  69
ENDBRANCH  48  62
BRANCH  49  73
ATOM     73  C   UNL A   1      42.830  24.147  27.092  1.00  0.00     0.023 A 
ATOM     74  C   UNL A   1      43.558  24.374  25.909  1.00  0.00     0.012 A 
ATOM     75  C   UNL A   1      42.177  22.911  27.270  1.00  0.00     0.148 A 
ATOM     76  C   UNL A   1      43.607  23.404  24.906  1.00  0.00     0.002 A 
ATOM     77  C   UNL A   1      42.279  21.928  26.293  1.00  0.00     0.091 A 
ATOM     78  F   UNL A   1      41.476  22.719  28.396  1.00  0.00    -0.205 F 
ATOM     79  C   UNL A   1      42.977  22.179  25.102  1.00  0.00     0.022 A 
BRANCH  77  80
ATOM     80  S   UNL A   1      41.618  20.274  26.526  1.00  0.00     0.127 S 
ATOM     81  O   UNL A   1      40.180  20.513  26.452  1.00  0.00    -0.237 OA
ATOM     82  O   UNL A   1      42.185  19.558  25.383  1.00  0.00    -0.237 OA
ATOM     83  O   UNL A   1      42.125  19.832  27.819  1.00  0.00    -0.744 OA
ENDBRANCH  77  80
ENDBRANCH  49  73
BRANCH  61  84
ATOM     84  C   UNL A   1      47.152  26.010  32.250  1.00  0.00     0.023 A 
ATOM     85  C   UNL A   1      48.356  26.507  31.712  1.00  0.00     0.012 A 
ATOM     86  C   UNL A   1      47.197  25.054  33.284  1.00  0.00     0.148 A 
ATOM     87  C   UNL A   1      49.585  26.036  32.173  1.00  0.00     0.002 A 
ATOM     88  C   UNL A   1      48.426  24.626  33.772  1.00  0.00     0.091 A 
ATOM     89  F   UNL A   1      46.041  24.581  33.770  1.00  0.00    -0.205 F 
ATOM     90  C   UNL A   1      49.620  25.106  33.210  1.00  0.00     0.022 A 
BRANCH  88  91
ATOM     91  S   UNL A   1      48.570  23.502  35.166  1.00  0.00     0.127 S 
ATOM     92  O   UNL A   1      47.879  24.244  36.220  1.00  0.00    -0.237 OA
ATOM     93  O   UNL A   1      47.857  22.318  34.686  1.00  0.00    -0.237 OA
ATOM     94  O   UNL A   1      49.998  23.304  35.375  1.00  0.00    -0.744 OA
ENDBRANCH  88  91
ENDBRANCH  61  84
ENDBRANCH  35  36
ENDBRANCH  27  30
ENDBRANCH  25  26
ENDBRANCH   1  25
TORSDOF 16
ENDMDL
MODEL 3
REMARK VINA RESULT:     -12.4      5.656      9.290
REMARK SMILES Cn1c(COc2ccc(C(=O)NCCCNC(=O)c3ccc(-c4c5nc(c(-c6cccc(S(=O)(=O)[O-])c6F)c6ccc([nH]6)c(-c6cccc(S(=O)(=O)[O-])c6F)c6nc(c(-c7cccc(S(=O)(=O)[O-])c7F)c7ccc4[nH]7)C=C6)C=C5)cc3)cc2)nc2ccccc21
REMARK SMILES IDX 14 1 13 2 12 3 10 4 11 5 9 7 6 8 7 9 83 10 8 11 82 12 5 13
REMARK SMILES IDX 4 14 3 15 1 16 2 17 90 18 84 19 85 20 89 21 86 22 88 23
REMARK SMILES IDX 87 24 15 25 16 26 17 27 18 29 19 30 20 31 81 32 21 33 80 34
REMARK SMILES IDX 22 35 23 36 24 37 74 38 25 39 79 40 73 41 75 42 26 43 78 44
REMARK SMILES IDX 72 45 71 46 27 48 59 49 39 50 58 51 40 52 43 53 57 54 76 55
REMARK SMILES IDX 41 56 42 57 56 59 77 60 44 61 28 62 29 63 37 64 30 65 32 66
REMARK SMILES IDX 38 67 31 68 33 69 34 70 35 71 36 72 60 73 61 74 69 75 62 76
REMARK SMILES IDX 64 77 70 78 63 79 65 80 66 81 67 82 68 83 45 84 46 85 54 86
REMARK SMILES IDX 47 87 49 88 55 89 48 90 50 91 51 92 52 93 53 94
REMARK H PARENT 12 6 16 28 75 47 43 58
REMARK Flexibility Score: inf
ROOT
ATOM      1  C   UNL A   1      36.126  21.357  24.905  1.00  0.00     0.042 C 
ENDROOT
BRANCH   1   2
ATOM      2  C   UNL A   1      35.093  21.464  26.025  1.00  0.00     0.118 C 
BRANCH   2   3
ATOM      3  N   UNL A   1      34.026  20.485  25.886  1.00  0.00    -0.352 N 
ATOM      4  C   UNL A   1      32.819  20.558  25.232  1.00  0.00     0.251 C 
ATOM      5  O   UNL A   1      32.158  19.531  25.094  1.00  0.00    -0.269 OA
ATOM      6  H   UNL A   1      34.197  19.625  26.334  1.00  0.00     0.163 HD
BRANCH   4   7
ATOM      7  C   UNL A   1      32.327  21.826  24.635  1.00  0.00     0.040 A 
ATOM      8  C   UNL A   1      31.540  24.234  23.460  1.00  0.00     0.120 A 
ATOM      9  C   UNL A   1      32.342  23.353  22.742  1.00  0.00     0.047 A 
ATOM     10  C   UNL A   1      31.039  23.870  24.707  1.00  0.00     0.047 A 
ATOM     11  C   UNL A   1      32.736  22.147  23.332  1.00  0.00     0.017 A 
ATOM     12  C   UNL A   1      31.433  22.670  25.295  1.00  0.00     0.017 A 
BRANCH   8  13
ATOM     13  O   UNL A   1      31.166  25.428  22.904  1.00  0.00    -0.486 OA
BRANCH  13  14
ATOM     14  C   UNL A   1      31.732  26.559  23.603  1.00  0.00     0.304 C 
BRANCH  14  15
ATOM     15  C   UNL A   1      30.946  27.806  23.315  1.00  0.00     0.147 A 
ATOM     16  C   UNL A   1      31.927  29.302  25.114  1.00  0.00     0.151 C 
ATOM     17  N   UNL A   1      31.016  28.975  24.044  1.00  0.00    -0.328 N 
ATOM     18  C   UNL A   1      29.987  29.799  23.641  1.00  0.00     0.068 A 
ATOM     19  N   UNL A   1      30.020  27.911  22.376  1.00  0.00    -0.229 NA
ATOM     20  C   UNL A   1      29.377  29.100  22.606  1.00  0.00     0.089 A 
ATOM     21  C   UNL A   1      29.525  31.044  24.087  1.00  0.00     0.028 A 
ATOM     22  C   UNL A   1      28.238  29.633  21.988  1.00  0.00     0.030 A 
ATOM     23  C   UNL A   1      28.382  31.558  23.464  1.00  0.00     0.002 A 
ATOM     24  C   UNL A   1      27.743  30.864  22.436  1.00  0.00     0.002 A 
ENDBRANCH  14  15
ENDBRANCH  13  14
ENDBRANCH   8  13
ENDBRANCH   4   7
ENDBRANCH   2   3
ENDBRANCH   1   2
BRANCH   1  25
ATOM     25  C   UNL A   1      37.470  22.001  25.237  1.00  0.00     0.118 C 
BRANCH  25  26
ATOM     26  N   UNL A   1      38.415  21.046  25.799  1.00  0.00    -0.352 N 
ATOM     27  C   UNL A   1      39.630  21.257  26.403  1.00  0.00     0.251 C 
ATOM     28  H   UNL A   1      38.140  20.102  25.736  1.00  0.00     0.163 HD
ATOM     29  O   UNL A   1      40.367  20.296  26.617  1.00  0.00    -0.269 OA
BRANCH  27  30
ATOM     30  C   UNL A   1      40.065  22.621  26.787  1.00  0.00     0.039 A 
ATOM     31  C   UNL A   1      40.994  22.764  27.822  1.00  0.00     0.014 A 
ATOM     32  C   UNL A   1      39.534  23.756  26.168  1.00  0.00     0.014 A 
ATOM     33  C   UNL A   1      41.434  24.037  28.194  1.00  0.00     0.010 A 
ATOM     34  C   UNL A   1      40.025  25.020  26.492  1.00  0.00     0.010 A 
ATOM     35  C   UNL A   1      40.976  25.175  27.511  1.00  0.00    -0.014 A 
BRANCH  35  36
ATOM     36  C   UNL A   1      41.498  26.530  27.831  1.00  0.00     0.031 A 
ATOM     37  C   UNL A   1      42.928  26.890  27.531  1.00  0.00     0.074 A 
ATOM     38  C   UNL A   1      40.704  27.409  28.475  1.00  0.00     0.049 A 
ATOM     39  N   UNL A   1      43.575  27.994  27.804  1.00  0.00    -0.248 NA
ATOM     40  C   UNL A   1      43.748  25.867  26.859  1.00  0.00     0.031 C 
ATOM     41  C   UNL A   1      39.323  27.152  28.892  1.00  0.00     0.029 A 
ATOM     42  N   UNL A   1      40.952  28.684  28.919  1.00  0.00    -0.354 N 
ATOM     43  C   UNL A   1      44.879  27.790  27.365  1.00  0.00     0.074 A 
ATOM     44  C   UNL A   1      44.941  26.444  26.838  1.00  0.00     0.031 C 
ATOM     45  C   UNL A   1      38.851  28.230  29.539  1.00  0.00     0.029 A 
ATOM     46  C   UNL A   1      39.900  29.242  29.609  1.00  0.00     0.049 A 
ATOM     47  H   UNL A   1      41.802  29.155  28.761  1.00  0.00     0.167 HD
ATOM     48  C   UNL A   1      45.922  28.655  27.371  1.00  0.00     0.034 A 
ATOM     49  C   UNL A   1      39.795  30.428  30.240  1.00  0.00     0.034 A 
ATOM     50  C   UNL A   1      45.848  30.006  27.863  1.00  0.00     0.049 A 
ATOM     51  C   UNL A   1      40.957  31.382  30.202  1.00  0.00     0.074 A 
ATOM     52  C   UNL A   1      46.827  30.982  27.843  1.00  0.00     0.029 A 
ATOM     53  N   UNL A   1      44.735  30.568  28.467  1.00  0.00    -0.354 N 
ATOM     54  N   UNL A   1      42.132  31.228  29.642  1.00  0.00    -0.248 NA
ATOM     55  C   UNL A   1      40.768  32.688  30.850  1.00  0.00     0.031 C 
ATOM     56  C   UNL A   1      46.313  32.132  28.452  1.00  0.00     0.029 A 
ATOM     57  C   UNL A   1      45.004  31.877  28.829  1.00  0.00     0.049 A 
ATOM     58  H   UNL A   1      43.879  30.105  28.617  1.00  0.00     0.167 HD
ATOM     59  C   UNL A   1      42.810  32.424  29.841  1.00  0.00     0.074 A 
ATOM     60  C   UNL A   1      41.904  33.305  30.550  1.00  0.00     0.031 C 
ATOM     61  C   UNL A   1      44.075  32.760  29.486  1.00  0.00     0.034 A 
BRANCH  48  62
ATOM     62  C   UNL A   1      47.224  28.190  26.769  1.00  0.00     0.023 A 
ATOM     63  C   UNL A   1      48.295  27.849  27.621  1.00  0.00     0.012 A 
ATOM     64  C   UNL A   1      47.367  28.022  25.379  1.00  0.00     0.148 A 
ATOM     65  C   UNL A   1      49.499  27.378  27.098  1.00  0.00     0.002 A 
ATOM     66  C   UNL A   1      48.556  27.511  24.867  1.00  0.00     0.091 A 
ATOM     67  F   UNL A   1      46.345  28.367  24.583  1.00  0.00    -0.205 F 
ATOM     68  C   UNL A   1      49.625  27.200  25.723  1.00  0.00     0.022 A 
BRANCH  66  69
ATOM     69  S   UNL A   1      48.795  27.169  23.119  1.00  0.00     0.127 S 
ATOM     70  O   UNL A   1      48.144  25.867  22.983  1.00  0.00    -0.237 OA
ATOM     71  O   UNL A   1      48.077  28.277  22.489  1.00  0.00    -0.237 OA
ATOM     72  O   UNL A   1      50.234  27.173  22.900  1.00  0.00    -0.744 OA
ENDBRANCH  66  69
ENDBRANCH  48  62
BRANCH  49  73
ATOM     73  C   UNL A   1      38.521  30.800  30.919  1.00  0.00     0.023 A 
ATOM     74  C   UNL A   1      38.351  30.510  32.286  1.00  0.00     0.012 A 
ATOM     75  C   UNL A   1      37.487  31.459  30.224  1.00  0.00     0.148 A 
ATOM     76  C   UNL A   1      37.163  30.837  32.942  1.00  0.00     0.002 A 
ATOM     77  C   UNL A   1      36.331  31.834  30.897  1.00  0.00     0.091 A 
ATOM     78  F   UNL A   1      37.660  31.714  28.920  1.00  0.00    -0.205 F 
ATOM     79  C   UNL A   1      36.158  31.507  32.251  1.00  0.00     0.022 A 
BRANCH  77  80
ATOM     80  S   UNL A   1      35.048  32.823  30.120  1.00  0.00     0.127 S 
ATOM     81  O   UNL A   1      35.817  33.940  29.582  1.00  0.00    -0.237 OA
ATOM     82  O   UNL A   1      34.518  31.898  29.118  1.00  0.00    -0.237 OA
ATOM     83  O   UNL A   1      34.110  33.150  31.187  1.00  0.00    -0.744 OA
ENDBRANCH  77  80
ENDBRANCH  49  73
BRANCH  61  84
ATOM     84  C   UNL A   1      44.550  34.148  29.826  1.00  0.00     0.023 A 
ATOM     85  C   UNL A   1      45.276  34.367  31.014  1.00  0.00     0.012 A 
ATOM     86  C   UNL A   1      44.341  35.219  28.935  1.00  0.00     0.148 A 
ATOM     87  C   UNL A   1      45.758  35.638  31.326  1.00  0.00     0.002 A 
ATOM     88  C   UNL A   1      44.866  36.471  29.229  1.00  0.00     0.091 A 
ATOM     89  F   UNL A   1      43.632  34.994  27.820  1.00  0.00    -0.205 F 
ATOM     90  C   UNL A   1      45.563  36.686  30.429  1.00  0.00     0.022 A 
BRANCH  88  91
ATOM     91  S   UNL A   1      44.747  37.857  28.092  1.00  0.00     0.127 S 
ATOM     92  O   UNL A   1      45.373  37.311  26.889  1.00  0.00    -0.237 OA
ATOM     93  O   UNL A   1      43.300  38.053  27.991  1.00  0.00    -0.237 OA
ATOM     94  O   UNL A   1      45.462  38.958  28.724  1.00  0.00    -0.744 OA
ENDBRANCH  88  91
ENDBRANCH  61  84
ENDBRANCH  35  36
ENDBRANCH  27  30
ENDBRANCH  25  26
ENDBRANCH   1  25
TORSDOF 16
ENDMDL
