MODEL 1
REMARK VINA RESULT:     -11.2      0.000      0.000
REMARK SMILES Cc1cc(F)cc(/C=C/C(=O)NCCCNC(=O)c2ccc(-c3c4nc(c(-c5cccc(S(=O)(=O)[O-])c5F)c5ccc([nH]5)c(-c5cccc(S(=O)(=O)[O-])c5F)c5nc(c(-c6cccc(S(=O)(=O)[O-])c6F)c6ccc3[nH]6)C=C5)C=C4)cc2)c1
REMARK SMILES IDX 15 1 14 2 13 3 12 4 10 5 11 6 9 8 8 9 7 10 1 11 2 12 3 13
REMARK SMILES IDX 82 14 4 15 5 16 6 17 16 18 17 19 18 21 19 22 20 23 81 24
REMARK SMILES IDX 21 25 80 26 22 27 23 28 24 29 74 30 25 31 79 32 73 33 75 34
REMARK SMILES IDX 26 35 78 36 72 37 71 38 27 40 59 41 39 42 58 43 40 44 43 45
REMARK SMILES IDX 57 46 76 47 41 48 42 49 56 51 77 52 44 53 28 54 29 55 37 56
REMARK SMILES IDX 30 57 32 58 38 59 31 60 33 61 34 62 35 63 36 64 60 65 61 66
REMARK SMILES IDX 69 67 62 68 64 69 70 70 63 71 65 72 66 73 67 74 68 75 45 76
REMARK SMILES IDX 46 77 54 78 47 79 49 80 55 81 48 82 50 83 51 84 52 85 53 86
REMARK H PARENT 12 7 16 20 75 39 43 50
REMARK Flexibility Score: inf
ROOT
ATOM      1  C   UNL A   1      33.761  28.351  26.592  1.00  0.00     0.118 C 
ENDROOT
BRANCH   1   2
ATOM      2  C   UNL A   1      32.513  27.590  27.033  1.00  0.00     0.042 C 
BRANCH   2   3
ATOM      3  C   UNL A   1      31.842  26.806  25.907  1.00  0.00     0.118 C 
BRANCH   3   4
ATOM      4  N   UNL A   1      31.171  25.617  26.404  1.00  0.00    -0.352 N 
ATOM      5  C   UNL A   1      31.667  24.396  26.738  1.00  0.00     0.244 C 
ATOM      6  O   UNL A   1      30.938  23.568  27.279  1.00  0.00    -0.270 OA
ATOM      7  H   UNL A   1      30.198  25.710  26.519  1.00  0.00     0.163 HD
BRANCH   5   8
ATOM      8  C   UNL A   1      33.102  24.084  26.557  1.00  0.00     0.072 C 
ATOM      9  C   UNL A   1      33.574  23.129  25.743  1.00  0.00     0.014 C 
BRANCH   9  10
ATOM     10  C   UNL A   1      35.003  22.828  25.580  1.00  0.00    -0.022 A 
ATOM     11  C   UNL A   1      37.147  19.750  24.835  1.00  0.00     0.044 C 
ATOM     12  C   UNL A   1      36.741  21.162  25.137  1.00  0.00    -0.048 A 
ATOM     13  C   UNL A   1      37.716  22.147  25.318  1.00  0.00     0.042 A 
ATOM     14  C   UNL A   1      35.387  21.510  25.281  1.00  0.00     0.011 A 
ATOM     15  C   UNL A   1      37.336  23.448  25.627  1.00  0.00     0.124 A 
ATOM     16  F   UNL A   1      38.279  24.383  25.804  1.00  0.00    -0.207 F 
ATOM     17  C   UNL A   1      35.996  23.797  25.763  1.00  0.00     0.047 A 
ENDBRANCH   9  10
ENDBRANCH   5   8
ENDBRANCH   3   4
ENDBRANCH   2   3
ENDBRANCH   1   2
BRANCH   1  18
ATOM     18  N   UNL A   1      33.653  29.782  26.855  1.00  0.00    -0.352 N 
ATOM     19  C   UNL A   1      34.450  30.606  27.608  1.00  0.00     0.251 C 
ATOM     20  H   UNL A   1      32.887  30.224  26.424  1.00  0.00     0.163 HD
ATOM     21  O   UNL A   1      34.053  31.737  27.877  1.00  0.00    -0.269 OA
BRANCH  19  22
ATOM     22  C   UNL A   1      35.770  30.151  28.097  1.00  0.00     0.039 A 
ATOM     23  C   UNL A   1      35.865  29.634  29.394  1.00  0.00     0.014 A 
ATOM     24  C   UNL A   1      36.920  30.280  27.315  1.00  0.00     0.014 A 
ATOM     25  C   UNL A   1      37.101  29.205  29.885  1.00  0.00     0.010 A 
ATOM     26  C   UNL A   1      38.139  29.787  27.778  1.00  0.00     0.010 A 
ATOM     27  C   UNL A   1      38.245  29.255  29.071  1.00  0.00    -0.014 A 
BRANCH  27  28
ATOM     28  C   UNL A   1      39.556  28.750  29.554  1.00  0.00     0.031 A 
ATOM     29  C   UNL A   1      40.286  29.461  30.662  1.00  0.00     0.074 A 
ATOM     30  C   UNL A   1      40.128  27.696  28.939  1.00  0.00     0.049 A 
ATOM     31  N   UNL A   1      41.459  29.199  31.178  1.00  0.00    -0.248 NA
ATOM     32  C   UNL A   1      39.624  30.638  31.249  1.00  0.00     0.031 C 
ATOM     33  C   UNL A   1      39.556  26.970  27.803  1.00  0.00     0.029 A 
ATOM     34  N   UNL A   1      41.327  27.068  29.164  1.00  0.00    -0.354 N 
ATOM     35  C   UNL A   1      41.691  30.192  32.123  1.00  0.00     0.074 A 
ATOM     36  C   UNL A   1      40.552  31.082  32.086  1.00  0.00     0.031 C 
ATOM     37  C   UNL A   1      40.401  25.993  27.435  1.00  0.00     0.029 A 
ATOM     38  C   UNL A   1      41.584  26.039  28.288  1.00  0.00     0.049 A 
ATOM     39  H   UNL A   1      41.945  27.329  29.884  1.00  0.00     0.167 HD
ATOM     40  C   UNL A   1      42.741  30.333  32.968  1.00  0.00     0.034 A 
ATOM     41  C   UNL A   1      42.653  25.226  28.182  1.00  0.00     0.034 A 
ATOM     42  C   UNL A   1      43.850  29.418  33.034  1.00  0.00     0.049 A 
ATOM     43  C   UNL A   1      43.784  25.375  29.163  1.00  0.00     0.074 A 
ATOM     44  C   UNL A   1      44.922  29.427  33.908  1.00  0.00     0.029 A 
ATOM     45  N   UNL A   1      44.032  28.334  32.190  1.00  0.00    -0.354 N 
ATOM     46  N   UNL A   1      43.912  26.227  30.150  1.00  0.00    -0.248 NA
ATOM     47  C   UNL A   1      44.899  24.425  29.040  1.00  0.00     0.031 C 
ATOM     48  C   UNL A   1      45.761  28.355  33.584  1.00  0.00     0.029 A 
ATOM     49  C   UNL A   1      45.199  27.667  32.520  1.00  0.00     0.049 A 
ATOM     50  H   UNL A   1      43.420  28.076  31.463  1.00  0.00     0.167 HD
ATOM     51  C   UNL A   1      45.101  25.895  30.788  1.00  0.00     0.074 A 
ATOM     52  C   UNL A   1      45.645  24.749  30.088  1.00  0.00     0.031 C 
ATOM     53  C   UNL A   1      45.699  26.494  31.848  1.00  0.00     0.034 A 
BRANCH  40  54
ATOM     54  C   UNL A   1      42.710  31.488  33.935  1.00  0.00     0.023 A 
ATOM     55  C   UNL A   1      43.241  32.735  33.542  1.00  0.00     0.012 A 
ATOM     56  C   UNL A   1      42.109  31.364  35.204  1.00  0.00     0.148 A 
ATOM     57  C   UNL A   1      43.209  33.827  34.407  1.00  0.00     0.002 A 
ATOM     58  C   UNL A   1      42.042  32.470  36.044  1.00  0.00     0.091 A 
ATOM     59  F   UNL A   1      41.628  30.167  35.569  1.00  0.00    -0.205 F 
ATOM     60  C   UNL A   1      42.602  33.698  35.653  1.00  0.00     0.022 A 
BRANCH  58  61
ATOM     61  S   UNL A   1      41.212  32.429  37.638  1.00  0.00     0.127 S 
ATOM     62  O   UNL A   1      42.076  31.527  38.397  1.00  0.00    -0.237 OA
ATOM     63  O   UNL A   1      41.277  33.830  38.055  1.00  0.00    -0.237 OA
ATOM     64  O   UNL A   1      39.867  31.935  37.376  1.00  0.00    -0.744 OA
ENDBRANCH  58  61
ENDBRANCH  40  54
BRANCH  41  65
ATOM     65  C   UNL A   1      42.665  24.145  27.155  1.00  0.00     0.023 A 
ATOM     66  C   UNL A   1      43.329  24.363  25.933  1.00  0.00     0.012 A 
ATOM     67  C   UNL A   1      42.060  22.895  27.394  1.00  0.00     0.148 A 
ATOM     68  C   UNL A   1      43.365  23.370  24.955  1.00  0.00     0.002 A 
ATOM     69  C   UNL A   1      42.148  21.890  26.438  1.00  0.00     0.091 A 
ATOM     70  F   UNL A   1      41.424  22.710  28.560  1.00  0.00    -0.205 F 
ATOM     71  C   UNL A   1      42.785  22.131  25.211  1.00  0.00     0.022 A 
BRANCH  69  72
ATOM     72  S   UNL A   1      41.549  20.223  26.735  1.00  0.00     0.127 S 
ATOM     73  O   UNL A   1      42.442  19.767  27.796  1.00  0.00    -0.237 OA
ATOM     74  O   UNL A   1      40.167  20.467  27.153  1.00  0.00    -0.237 OA
ATOM     75  O   UNL A   1      41.672  19.529  25.459  1.00  0.00    -0.744 OA
ENDBRANCH  69  72
ENDBRANCH  41  65
BRANCH  53  76
ATOM     76  C   UNL A   1      46.995  25.906  32.343  1.00  0.00     0.023 A 
ATOM     77  C   UNL A   1      46.994  25.057  33.466  1.00  0.00     0.012 A 
ATOM     78  C   UNL A   1      48.200  26.141  31.653  1.00  0.00     0.148 A 
ATOM     79  C   UNL A   1      48.179  24.476  33.916  1.00  0.00     0.002 A 
ATOM     80  C   UNL A   1      49.369  25.521  32.078  1.00  0.00     0.091 A 
ATOM     81  F   UNL A   1      48.184  26.969  30.598  1.00  0.00    -0.205 F 
ATOM     82  C   UNL A   1      49.362  24.697  33.217  1.00  0.00     0.022 A 
BRANCH  80  83
ATOM     83  S   UNL A   1      50.918  25.674  31.182  1.00  0.00     0.127 S 
ATOM     84  O   UNL A   1      50.518  25.292  29.828  1.00  0.00    -0.237 OA
ATOM     85  O   UNL A   1      51.236  27.093  31.347  1.00  0.00    -0.237 OA
ATOM     86  O   UNL A   1      51.851  24.768  31.839  1.00  0.00    -0.744 OA
ENDBRANCH  80  83
ENDBRANCH  53  76
ENDBRANCH  27  28
ENDBRANCH  19  22
ENDBRANCH   1  18
TORSDOF 14
ENDMDL
MODEL 2
REMARK VINA RESULT:     -11.1      3.622      6.225
REMARK SMILES Cc1cc(F)cc(/C=C/C(=O)NCCCNC(=O)c2ccc(-c3c4nc(c(-c5cccc(S(=O)(=O)[O-])c5F)c5ccc([nH]5)c(-c5cccc(S(=O)(=O)[O-])c5F)c5nc(c(-c6cccc(S(=O)(=O)[O-])c6F)c6ccc3[nH]6)C=C5)C=C4)cc2)c1
REMARK SMILES IDX 15 1 14 2 13 3 12 4 10 5 11 6 9 8 8 9 7 10 1 11 2 12 3 13
REMARK SMILES IDX 82 14 4 15 5 16 6 17 16 18 17 19 18 21 19 22 20 23 81 24
REMARK SMILES IDX 21 25 80 26 22 27 23 28 24 29 74 30 25 31 79 32 73 33 75 34
REMARK SMILES IDX 26 35 78 36 72 37 71 38 27 40 59 41 39 42 58 43 40 44 43 45
REMARK SMILES IDX 57 46 76 47 41 48 42 49 56 51 77 52 44 53 28 54 29 55 37 56
REMARK SMILES IDX 30 57 32 58 38 59 31 60 33 61 34 62 35 63 36 64 60 65 61 66
REMARK SMILES IDX 69 67 62 68 64 69 70 70 63 71 65 72 66 73 67 74 68 75 45 76
REMARK SMILES IDX 46 77 54 78 47 79 49 80 55 81 48 82 50 83 51 84 52 85 53 86
REMARK H PARENT 12 7 16 20 75 39 43 50
REMARK Flexibility Score: inf
ROOT
ATOM      1  C   UNL A   1      34.297  33.949  28.889  1.00  0.00     0.118 C 
ENDROOT
BRANCH   1   2
ATOM      2  C   UNL A   1      33.362  35.122  29.175  1.00  0.00     0.042 C 
BRANCH   2   3
ATOM      3  C   UNL A   1      33.532  35.716  30.572  1.00  0.00     0.118 C 
BRANCH   3   4
ATOM      4  N   UNL A   1      33.227  34.745  31.609  1.00  0.00    -0.352 N 
ATOM      5  C   UNL A   1      34.050  33.989  32.382  1.00  0.00     0.244 C 
ATOM      6  O   UNL A   1      33.583  33.330  33.309  1.00  0.00    -0.270 OA
ATOM      7  H   UNL A   1      32.267  34.615  31.781  1.00  0.00     0.163 HD
BRANCH   5   8
ATOM      8  C   UNL A   1      35.517  34.028  32.194  1.00  0.00     0.072 C 
ATOM      9  C   UNL A   1      36.381  34.559  33.071  1.00  0.00     0.014 C 
BRANCH   9  10
ATOM     10  C   UNL A   1      37.835  34.595  32.865  1.00  0.00    -0.022 A 
ATOM     11  C   UNL A   1      40.260  34.120  29.945  1.00  0.00     0.044 C 
ATOM     12  C   UNL A   1      39.723  34.374  31.323  1.00  0.00    -0.048 A 
ATOM     13  C   UNL A   1      40.604  34.579  32.389  1.00  0.00     0.042 A 
ATOM     14  C   UNL A   1      38.341  34.374  31.573  1.00  0.00     0.011 A 
ATOM     15  C   UNL A   1      40.103  34.785  33.670  1.00  0.00     0.124 A 
ATOM     16  F   UNL A   1      40.956  34.974  34.686  1.00  0.00    -0.207 F 
ATOM     17  C   UNL A   1      38.734  34.791  33.918  1.00  0.00     0.047 A 
ENDBRANCH   9  10
ENDBRANCH   5   8
ENDBRANCH   3   4
ENDBRANCH   2   3
ENDBRANCH   1   2
BRANCH   1  18
ATOM     18  N   UNL A   1      33.670  32.940  28.043  1.00  0.00    -0.352 N 
ATOM     19  C   UNL A   1      34.138  31.719  27.627  1.00  0.00     0.251 C 
ATOM     20  H   UNL A   1      32.771  33.173  27.719  1.00  0.00     0.163 HD
ATOM     21  O   UNL A   1      33.538  31.123  26.735  1.00  0.00    -0.269 OA
BRANCH  19  22
ATOM     22  C   UNL A   1      35.346  31.119  28.233  1.00  0.00     0.039 A 
ATOM     23  C   UNL A   1      36.543  31.843  28.207  1.00  0.00     0.014 A 
ATOM     24  C   UNL A   1      35.326  29.831  28.774  1.00  0.00     0.014 A 
ATOM     25  C   UNL A   1      37.702  31.296  28.765  1.00  0.00     0.010 A 
ATOM     26  C   UNL A   1      36.464  29.315  29.392  1.00  0.00     0.010 A 
ATOM     27  C   UNL A   1      37.666  30.036  29.385  1.00  0.00    -0.014 A 
BRANCH  27  28
ATOM     28  C   UNL A   1      38.873  29.463  30.034  1.00  0.00     0.031 A 
ATOM     29  C   UNL A   1      39.305  29.937  31.395  1.00  0.00     0.074 A 
ATOM     30  C   UNL A   1      39.626  28.570  29.361  1.00  0.00     0.049 A 
ATOM     31  N   UNL A   1      40.355  29.592  32.094  1.00  0.00    -0.248 NA
ATOM     32  C   UNL A   1      38.462  30.954  32.046  1.00  0.00     0.031 C 
ATOM     33  C   UNL A   1      39.355  28.090  28.005  1.00  0.00     0.029 A 
ATOM     34  N   UNL A   1      40.786  27.929  29.715  1.00  0.00    -0.354 N 
ATOM     35  C   UNL A   1      40.319  30.368  33.246  1.00  0.00     0.074 A 
ATOM     36  C   UNL A   1      39.162  31.228  33.139  1.00  0.00     0.031 C 
ATOM     37  C   UNL A   1      40.317  27.225  27.644  1.00  0.00     0.029 A 
ATOM     38  C   UNL A   1      41.287  27.111  28.728  1.00  0.00     0.049 A 
ATOM     39  H   UNL A   1      41.220  28.043  30.591  1.00  0.00     0.167 HD
ATOM     40  C   UNL A   1      41.155  30.346  34.313  1.00  0.00     0.034 A 
ATOM     41  C   UNL A   1      42.402  26.355  28.699  1.00  0.00     0.034 A 
ATOM     42  C   UNL A   1      42.279  29.456  34.437  1.00  0.00     0.049 A 
ATOM     43  C   UNL A   1      43.288  26.313  29.915  1.00  0.00     0.074 A 
ATOM     44  C   UNL A   1      43.138  29.299  35.510  1.00  0.00     0.029 A 
ATOM     45  N   UNL A   1      42.703  28.576  33.454  1.00  0.00    -0.354 N 
ATOM     46  N   UNL A   1      43.150  26.942  31.057  1.00  0.00    -0.248 NA
ATOM     47  C   UNL A   1      44.460  25.429  29.853  1.00  0.00     0.031 C 
ATOM     48  C   UNL A   1      44.091  28.332  35.170  1.00  0.00     0.029 A 
ATOM     49  C   UNL A   1      43.812  27.873  33.893  1.00  0.00     0.049 A 
ATOM     50  H   UNL A   1      42.277  28.466  32.573  1.00  0.00     0.167 HD
ATOM     51  C   UNL A   1      44.194  26.503  31.862  1.00  0.00     0.074 A 
ATOM     52  C   UNL A   1      44.944  25.538  31.084  1.00  0.00     0.031 C 
ATOM     53  C   UNL A   1      44.514  26.876  33.126  1.00  0.00     0.034 A 
BRANCH  40  54
ATOM     54  C   UNL A   1      40.848  31.272  35.462  1.00  0.00     0.023 A 
ATOM     55  C   UNL A   1      41.825  32.197  35.886  1.00  0.00     0.012 A 
ATOM     56  C   UNL A   1      39.582  31.273  36.083  1.00  0.00     0.148 A 
ATOM     57  C   UNL A   1      41.563  33.080  36.933  1.00  0.00     0.002 A 
ATOM     58  C   UNL A   1      39.315  32.186  37.096  1.00  0.00     0.091 A 
ATOM     59  F   UNL A   1      38.672  30.375  35.680  1.00  0.00    -0.205 F 
ATOM     60  C   UNL A   1      40.307  33.081  37.531  1.00  0.00     0.022 A 
BRANCH  58  61
ATOM     61  S   UNL A   1      37.702  32.322  37.879  1.00  0.00     0.127 S 
ATOM     62  O   UNL A   1      37.986  33.238  38.982  1.00  0.00    -0.237 OA
ATOM     63  O   UNL A   1      36.887  32.894  36.806  1.00  0.00    -0.237 OA
ATOM     64  O   UNL A   1      37.330  30.969  38.267  1.00  0.00    -0.744 OA
ENDBRANCH  58  61
ENDBRANCH  40  54
BRANCH  41  65
ATOM     65  C   UNL A   1      42.699  25.514  27.505  1.00  0.00     0.023 A 
ATOM     66  C   UNL A   1      43.491  26.044  26.469  1.00  0.00     0.012 A 
ATOM     67  C   UNL A   1      42.237  24.187  27.406  1.00  0.00     0.148 A 
ATOM     68  C   UNL A   1      43.794  25.281  25.342  1.00  0.00     0.002 A 
ATOM     69  C   UNL A   1      42.588  23.413  26.306  1.00  0.00     0.091 A 
ATOM     70  F   UNL A   1      41.475  23.703  28.398  1.00  0.00    -0.205 F 
ATOM     71  C   UNL A   1      43.352  23.963  25.265  1.00  0.00     0.022 A 
BRANCH  69  72
ATOM     72  S   UNL A   1      42.179  21.668  26.186  1.00  0.00     0.127 S 
ATOM     73  O   UNL A   1      42.468  21.198  27.537  1.00  0.00    -0.237 OA
ATOM     74  O   UNL A   1      40.757  21.713  25.839  1.00  0.00    -0.237 OA
ATOM     75  O   UNL A   1      43.034  21.137  25.131  1.00  0.00    -0.744 OA
ENDBRANCH  69  72
ENDBRANCH  41  65
BRANCH  53  76
ATOM     76  C   UNL A   1      45.709  26.218  33.767  1.00  0.00     0.023 A 
ATOM     77  C   UNL A   1      46.973  26.834  33.687  1.00  0.00     0.012 A 
ATOM     78  C   UNL A   1      45.564  25.027  34.504  1.00  0.00     0.148 A 
ATOM     79  C   UNL A   1      48.082  26.257  34.305  1.00  0.00     0.002 A 
ATOM     80  C   UNL A   1      46.664  24.483  35.158  1.00  0.00     0.091 A 
ATOM     81  F   UNL A   1      44.357  24.445  34.551  1.00  0.00    -0.205 F 
ATOM     82  C   UNL A   1      47.926  25.091  35.049  1.00  0.00     0.022 A 
BRANCH  80  83
ATOM     83  S   UNL A   1      46.535  23.037  36.215  1.00  0.00     0.127 S 
ATOM     84  O   UNL A   1      46.213  21.988  35.248  1.00  0.00    -0.237 OA
ATOM     85  O   UNL A   1      47.878  22.948  36.788  1.00  0.00    -0.237 OA
ATOM     86  O   UNL A   1      45.488  23.341  37.181  1.00  0.00    -0.744 OA
ENDBRANCH  80  83
ENDBRANCH  53  76
ENDBRANCH  27  28
ENDBRANCH  19  22
ENDBRANCH   1  18
TORSDOF 14
ENDMDL
MODEL 3
REMARK VINA RESULT:     -11.1      3.197      6.231
REMARK SMILES Cc1cc(F)cc(/C=C/C(=O)NCCCNC(=O)c2ccc(-c3c4nc(c(-c5cccc(S(=O)(=O)[O-])c5F)c5ccc([nH]5)c(-c5cccc(S(=O)(=O)[O-])c5F)c5nc(c(-c6cccc(S(=O)(=O)[O-])c6F)c6ccc3[nH]6)C=C5)C=C4)cc2)c1
REMARK SMILES IDX 15 1 14 2 13 3 12 4 10 5 11 6 9 8 8 9 7 10 1 11 2 12 3 13
REMARK SMILES IDX 82 14 4 15 5 16 6 17 16 18 17 19 18 21 19 22 20 23 81 24
REMARK SMILES IDX 21 25 80 26 22 27 23 28 24 29 74 30 25 31 79 32 73 33 75 34
REMARK SMILES IDX 26 35 78 36 72 37 71 38 27 40 59 41 39 42 58 43 40 44 43 45
REMARK SMILES IDX 57 46 76 47 41 48 42 49 56 51 77 52 44 53 28 54 29 55 37 56
REMARK SMILES IDX 30 57 32 58 38 59 31 60 33 61 34 62 35 63 36 64 60 65 61 66
REMARK SMILES IDX 69 67 62 68 64 69 70 70 63 71 65 72 66 73 67 74 68 75 45 76
REMARK SMILES IDX 46 77 54 78 47 79 49 80 55 81 48 82 50 83 51 84 52 85 53 86
REMARK H PARENT 12 7 16 20 75 39 43 50
REMARK Flexibility Score: inf
ROOT
ATOM      1  C   UNL A   1      34.238  33.036  28.476  1.00  0.00     0.118 C 
ENDROOT
BRANCH   1   2
ATOM      2  C   UNL A   1      33.282  34.223  28.573  1.00  0.00     0.042 C 
BRANCH   2   3
ATOM      3  C   UNL A   1      33.807  35.364  29.442  1.00  0.00     0.118 C 
BRANCH   3   4
ATOM      4  N   UNL A   1      32.801  35.830  30.382  1.00  0.00    -0.352 N 
ATOM      5  C   UNL A   1      32.887  36.087  31.714  1.00  0.00     0.244 C 
ATOM      6  O   UNL A   1      31.942  36.616  32.295  1.00  0.00    -0.270 OA
ATOM      7  H   UNL A   1      31.912  35.985  29.990  1.00  0.00     0.163 HD
BRANCH   5   8
ATOM      8  C   UNL A   1      34.143  35.838  32.456  1.00  0.00     0.072 C 
ATOM      9  C   UNL A   1      34.605  34.622  32.779  1.00  0.00     0.014 C 
BRANCH   9  10
ATOM     10  C   UNL A   1      35.851  34.393  33.522  1.00  0.00    -0.022 A 
ATOM     11  C   UNL A   1      39.604  34.515  32.796  1.00  0.00     0.044 C 
ATOM     12  C   UNL A   1      38.299  34.342  33.513  1.00  0.00    -0.048 A 
ATOM     13  C   UNL A   1      38.284  33.912  34.844  1.00  0.00     0.042 A 
ATOM     14  C   UNL A   1      37.077  34.569  32.858  1.00  0.00     0.011 A 
ATOM     15  C   UNL A   1      37.070  33.724  35.496  1.00  0.00     0.124 A 
ATOM     16  F   UNL A   1      37.066  33.307  36.769  1.00  0.00    -0.207 F 
ATOM     17  C   UNL A   1      35.859  33.955  34.851  1.00  0.00     0.047 A 
ENDBRANCH   9  10
ENDBRANCH   5   8
ENDBRANCH   3   4
ENDBRANCH   2   3
ENDBRANCH   1   2
BRANCH   1  18
ATOM     18  N   UNL A   1      33.650  31.915  27.752  1.00  0.00    -0.352 N 
ATOM     19  C   UNL A   1      34.193  30.704  27.404  1.00  0.00     0.251 C 
ATOM     20  H   UNL A   1      32.719  32.050  27.467  1.00  0.00     0.163 HD
ATOM     21  O   UNL A   1      33.597  29.992  26.600  1.00  0.00    -0.269 OA
BRANCH  19  22
ATOM     22  C   UNL A   1      35.479  30.251  27.979  1.00  0.00     0.039 A 
ATOM     23  C   UNL A   1      35.480  29.674  29.254  1.00  0.00     0.014 A 
ATOM     24  C   UNL A   1      36.686  30.440  27.301  1.00  0.00     0.014 A 
ATOM     25  C   UNL A   1      36.682  29.246  29.824  1.00  0.00     0.010 A 
ATOM     26  C   UNL A   1      37.874  29.948  27.840  1.00  0.00     0.010 A 
ATOM     27  C   UNL A   1      37.887  29.357  29.111  1.00  0.00    -0.014 A 
BRANCH  27  28
ATOM     28  C   UNL A   1      39.165  28.854  29.677  1.00  0.00     0.031 A 
ATOM     29  C   UNL A   1      39.765  29.499  30.897  1.00  0.00     0.074 A 
ATOM     30  C   UNL A   1      39.828  27.867  29.041  1.00  0.00     0.049 A 
ATOM     31  N   UNL A   1      40.894  29.232  31.501  1.00  0.00    -0.248 NA
ATOM     32  C   UNL A   1      39.010  30.608  31.505  1.00  0.00     0.031 C 
ATOM     33  C   UNL A   1      39.389  27.214  27.807  1.00  0.00     0.029 A 
ATOM     34  N   UNL A   1      41.023  27.259  29.332  1.00  0.00    -0.354 N 
ATOM     35  C   UNL A   1      41.003  30.155  32.533  1.00  0.00     0.074 A 
ATOM     36  C   UNL A   1      39.841  31.013  32.455  1.00  0.00     0.031 C 
ATOM     37  C   UNL A   1      40.298  26.293  27.449  1.00  0.00     0.029 A 
ATOM     38  C   UNL A   1      41.396  26.307  28.410  1.00  0.00     0.049 A 
ATOM     39  H   UNL A   1      41.563  27.481  30.124  1.00  0.00     0.167 HD
ATOM     40  C   UNL A   1      41.966  30.261  33.481  1.00  0.00     0.034 A 
ATOM     41  C   UNL A   1      42.499  25.536  28.345  1.00  0.00     0.034 A 
ATOM     42  C   UNL A   1      43.096  29.377  33.584  1.00  0.00     0.049 A 
ATOM     43  C   UNL A   1      43.529  25.642  29.436  1.00  0.00     0.074 A 
ATOM     44  C   UNL A   1      44.083  29.350  34.553  1.00  0.00     0.029 A 
ATOM     45  N   UNL A   1      43.393  28.366  32.683  1.00  0.00    -0.354 N 
ATOM     46  N   UNL A   1      43.536  26.419  30.491  1.00  0.00    -0.248 NA
ATOM     47  C   UNL A   1      44.684  24.736  29.349  1.00  0.00     0.031 C 
ATOM     48  C   UNL A   1      44.985  28.330  34.231  1.00  0.00     0.029 A 
ATOM     49  C   UNL A   1      44.549  27.709  33.071  1.00  0.00     0.049 A 
ATOM     50  H   UNL A   1      42.860  28.147  31.884  1.00  0.00     0.167 HD
ATOM     51  C   UNL A   1      44.673  26.073  31.212  1.00  0.00     0.074 A 
ATOM     52  C   UNL A   1      45.319  25.001  30.484  1.00  0.00     0.031 C 
ATOM     53  C   UNL A   1      45.149  26.607  32.364  1.00  0.00     0.034 A 
BRANCH  40  54
ATOM     54  C   UNL A   1      41.805  31.338  34.524  1.00  0.00     0.023 A 
ATOM     55  C   UNL A   1      41.084  31.057  35.704  1.00  0.00     0.012 A 
ATOM     56  C   UNL A   1      42.410  32.602  34.370  1.00  0.00     0.148 A 
ATOM     57  C   UNL A   1      40.935  32.026  36.695  1.00  0.00     0.002 A 
ATOM     58  C   UNL A   1      42.294  33.547  35.383  1.00  0.00     0.091 A 
ATOM     59  F   UNL A   1      43.075  32.858  33.235  1.00  0.00    -0.205 F 
ATOM     60  C   UNL A   1      41.547  33.266  36.540  1.00  0.00     0.022 A 
BRANCH  58  61
ATOM     61  S   UNL A   1      43.110  35.147  35.315  1.00  0.00     0.127 S 
ATOM     62  O   UNL A   1      42.754  35.715  36.613  1.00  0.00    -0.237 OA
ATOM     63  O   UNL A   1      44.518  34.769  35.180  1.00  0.00    -0.237 OA
ATOM     64  O   UNL A   1      42.552  35.832  34.157  1.00  0.00    -0.744 OA
ENDBRANCH  58  61
ENDBRANCH  40  54
BRANCH  41  65
ATOM     65  C   UNL A   1      42.643  24.538  27.247  1.00  0.00     0.023 A 
ATOM     66  C   UNL A   1      43.387  24.878  26.102  1.00  0.00     0.012 A 
ATOM     67  C   UNL A   1      42.085  23.248  27.346  1.00  0.00     0.148 A 
ATOM     68  C   UNL A   1      43.548  23.964  25.060  1.00  0.00     0.002 A 
ATOM     69  C   UNL A   1      42.295  22.323  26.330  1.00  0.00     0.091 A 
ATOM     70  F   UNL A   1      41.370  22.947  28.441  1.00  0.00    -0.205 F 
ATOM     71  C   UNL A   1      43.011  22.685  25.178  1.00  0.00     0.022 A 
BRANCH  69  72
ATOM     72  S   UNL A   1      41.758  20.614  26.457  1.00  0.00     0.127 S 
ATOM     73  O   UNL A   1      42.193  20.262  27.805  1.00  0.00    -0.237 OA
ATOM     74  O   UNL A   1      40.310  20.738  26.286  1.00  0.00    -0.237 OA
ATOM     75  O   UNL A   1      42.429  19.912  25.369  1.00  0.00    -0.744 OA
ENDBRANCH  69  72
ENDBRANCH  41  65
BRANCH  53  76
ATOM     76  C   UNL A   1      46.414  26.020  32.934  1.00  0.00     0.023 A 
ATOM     77  C   UNL A   1      47.657  26.611  32.635  1.00  0.00     0.012 A 
ATOM     78  C   UNL A   1      46.363  24.926  33.820  1.00  0.00     0.148 A 
ATOM     79  C   UNL A   1      48.834  26.103  33.183  1.00  0.00     0.002 A 
ATOM     80  C   UNL A   1      47.535  24.455  34.401  1.00  0.00     0.091 A 
ATOM     81  F   UNL A   1      45.173  24.363  34.077  1.00  0.00    -0.205 F 
ATOM     82  C   UNL A   1      48.772  25.034  34.073  1.00  0.00     0.022 A 
BRANCH  80  83
ATOM     83  S   UNL A   1      47.539  23.145  35.631  1.00  0.00     0.127 S 
ATOM     84  O   UNL A   1      47.026  22.012  34.861  1.00  0.00    -0.237 OA
ATOM     85  O   UNL A   1      48.956  23.052  35.983  1.00  0.00    -0.237 OA
ATOM     86  O   UNL A   1      46.680  23.610  36.711  1.00  0.00    -0.744 OA
ENDBRANCH  80  83
ENDBRANCH  53  76
ENDBRANCH  27  28
ENDBRANCH  19  22
ENDBRANCH   1  18
TORSDOF 14
ENDMDL
