MODEL 1
REMARK VINA RESULT:     -13.4      0.000      0.000
REMARK SMILES Nc1ccc(-c2cc(Cl)cc3c2O[C@H](C(F)(F)F)C(C(=O)NCCCNC(=O)c2ccc(-c4c5nc(c(-c6cccc(S(=O)(=O)[O-])c6F)c6ccc([nH]6)c(-c6cccc(S(=O)(=O)[O-])c6F)c6nc(c(-c7cccc(S(=O)(=O)[O-])c7F)c7ccc4[nH]7)C=C6)C=C5)cc2)=C3)cc1
REMARK SMILES IDX 24 1 23 2 22 3 20 4 21 5 19 7 6 8 7 9 12 10 8 11 11 12 13 13
REMARK SMILES IDX 9 14 10 15 92 16 14 17 5 18 2 19 3 20 94 21 4 22 93 23 1 24
REMARK SMILES IDX 15 27 16 28 17 29 18 30 25 31 26 32 27 33 28 35 29 36 30 37
REMARK SMILES IDX 91 38 31 39 90 40 32 41 33 42 34 43 84 44 35 45 89 46 83 47
REMARK SMILES IDX 85 48 36 49 88 50 82 51 81 52 37 54 69 55 49 56 68 57 50 58
REMARK SMILES IDX 53 59 67 60 86 61 51 62 52 63 66 65 87 66 54 67 38 68 39 69
REMARK SMILES IDX 47 70 40 71 42 72 48 73 41 74 43 75 44 76 45 77 46 78 70 79
REMARK SMILES IDX 71 80 79 81 72 82 74 83 80 84 73 85 75 86 76 87 77 88 78 89
REMARK SMILES IDX 55 90 56 91 64 92 57 93 59 94 65 95 58 96 60 97 61 98 62 99
REMARK SMILES IDX 63 100
REMARK H PARENT 22 6 1 25 1 26 26 34 85 53 53 64
REMARK Flexibility Score: inf
ROOT
ATOM      1  C   UNL A   1      34.871  21.511  26.297  1.00  0.00     0.042 C 
ENDROOT
BRANCH   1   2
ATOM      2  C   UNL A   1      33.715  21.696  25.325  1.00  0.00     0.118 C 
BRANCH   2   3
ATOM      3  N   UNL A   1      34.166  22.025  23.981  1.00  0.00    -0.352 N 
ATOM      4  C   UNL A   1      34.117  23.096  23.155  1.00  0.00     0.251 C 
ATOM      5  O   UNL A   1      34.687  22.953  22.068  1.00  0.00    -0.270 OA
ATOM      6  H   UNL A   1      34.632  21.266  23.561  1.00  0.00     0.163 HD
BRANCH   4   7
ATOM      7  C   UNL A   1      33.445  24.391  23.467  1.00  0.00     0.067 C 
ATOM      8  C   UNL A   1      31.752  28.161  24.264  1.00  0.00     0.026 A 
ATOM      9  C   UNL A   1      32.185  28.866  25.397  1.00  0.00     0.033 A 
ATOM     10  C   UNL A   1      32.392  26.943  23.962  1.00  0.00     0.135 A 
ATOM     11  C   UNL A   1      33.216  28.361  26.194  1.00  0.00     0.042 A 
ATOM     12  C   UNL A   1      33.419  26.430  24.763  1.00  0.00     0.019 A 
ATOM     13  O   UNL A   1      32.010  26.294  22.815  1.00  0.00    -0.475 OA
ATOM     14  Cl  UNL A   1      33.724  29.243  27.583  1.00  0.00    -0.084 Cl
ATOM     15  C   UNL A   1      33.836  27.150  25.883  1.00  0.00     0.032 A 
ATOM     16  C   UNL A   1      34.044  25.163  24.395  1.00  0.00     0.025 C 
ATOM     17  C   UNL A   1      32.169  24.854  22.828  1.00  0.00     0.314 C 
BRANCH   8  18
ATOM     18  C   UNL A   1      30.648  28.668  23.434  1.00  0.00    -0.014 A 
ATOM     19  C   UNL A   1      28.519  29.801  21.949  1.00  0.00     0.031 A 
ATOM     20  C   UNL A   1      29.841  30.140  21.664  1.00  0.00     0.026 A 
ATOM     21  C   UNL A   1      28.274  28.835  22.926  1.00  0.00     0.026 A 
ATOM     22  C   UNL A   1      30.893  29.589  22.403  1.00  0.00     0.011 A 
ATOM     23  C   UNL A   1      29.323  28.283  23.671  1.00  0.00     0.011 A 
BRANCH  19  24
ATOM     24  N   UNL A   1      27.482  30.309  21.181  1.00  0.00    -0.399 N 
ATOM     25  H   UNL A   1      26.818  30.913  21.587  1.00  0.00     0.156 HD
ATOM     26  H   UNL A   1      27.407  30.065  20.230  1.00  0.00     0.156 HD
ENDBRANCH  19  24
ENDBRANCH   8  18
BRANCH  17  27
ATOM     27  C   UNL A   1      30.916  24.202  23.447  1.00  0.00     0.429 C 
ATOM     28  F   UNL A   1      30.709  22.969  22.922  1.00  0.00    -0.167 F 
ATOM     29  F   UNL A   1      31.022  24.038  24.787  1.00  0.00    -0.167 F 
ATOM     30  F   UNL A   1      29.790  24.921  23.236  1.00  0.00    -0.167 F 
ENDBRANCH  17  27
ENDBRANCH   4   7
ENDBRANCH   2   3
ENDBRANCH   1   2
BRANCH   1  31
ATOM     31  C   UNL A   1      36.174  22.105  25.778  1.00  0.00     0.118 C 
BRANCH  31  32
ATOM     32  N   UNL A   1      37.220  21.097  25.608  1.00  0.00    -0.352 N 
ATOM     33  C   UNL A   1      38.575  21.175  25.830  1.00  0.00     0.251 C 
ATOM     34  H   UNL A   1      36.903  20.224  25.283  1.00  0.00     0.163 HD
ATOM     35  O   UNL A   1      39.302  20.258  25.455  1.00  0.00    -0.269 OA
BRANCH  33  36
ATOM     36  C   UNL A   1      39.150  22.367  26.488  1.00  0.00     0.039 A 
ATOM     37  C   UNL A   1      38.670  23.638  26.183  1.00  0.00     0.014 A 
ATOM     38  C   UNL A   1      40.198  22.215  27.401  1.00  0.00     0.014 A 
ATOM     39  C   UNL A   1      39.369  24.755  26.616  1.00  0.00     0.010 A 
ATOM     40  C   UNL A   1      40.828  23.346  27.930  1.00  0.00     0.010 A 
ATOM     41  C   UNL A   1      40.460  24.626  27.492  1.00  0.00    -0.014 A 
BRANCH  41  42
ATOM     42  C   UNL A   1      41.182  25.856  27.911  1.00  0.00     0.031 A 
ATOM     43  C   UNL A   1      42.565  26.161  27.395  1.00  0.00     0.074 A 
ATOM     44  C   UNL A   1      40.541  26.751  28.689  1.00  0.00     0.049 A 
ATOM     45  N   UNL A   1      43.280  27.242  27.570  1.00  0.00    -0.248 NA
ATOM     46  C   UNL A   1      43.238  25.130  26.588  1.00  0.00     0.031 C 
ATOM     47  C   UNL A   1      39.211  26.553  29.272  1.00  0.00     0.029 A 
ATOM     48  N   UNL A   1      40.890  28.016  29.084  1.00  0.00    -0.354 N 
ATOM     49  C   UNL A   1      44.496  27.005  26.941  1.00  0.00     0.074 A 
ATOM     50  C   UNL A   1      44.428  25.675  26.379  1.00  0.00     0.031 C 
ATOM     51  C   UNL A   1      38.822  27.685  29.875  1.00  0.00     0.029 A 
ATOM     52  C   UNL A   1      39.895  28.668  29.775  1.00  0.00     0.049 A 
ATOM     53  H   UNL A   1      41.768  28.419  28.893  1.00  0.00     0.167 HD
ATOM     54  C   UNL A   1      45.562  27.829  26.820  1.00  0.00     0.034 A 
ATOM     55  C   UNL A   1      39.840  29.922  30.266  1.00  0.00     0.034 A 
ATOM     56  C   UNL A   1      45.599  29.178  27.314  1.00  0.00     0.049 A 
ATOM     57  C   UNL A   1      41.017  30.831  30.079  1.00  0.00     0.074 A 
ATOM     58  C   UNL A   1      46.619  30.104  27.192  1.00  0.00     0.029 A 
ATOM     59  N   UNL A   1      44.574  29.795  28.009  1.00  0.00    -0.354 N 
ATOM     60  N   UNL A   1      42.126  30.608  29.416  1.00  0.00    -0.248 NA
ATOM     61  C   UNL A   1      40.939  32.163  30.696  1.00  0.00     0.031 C 
ATOM     62  C   UNL A   1      46.208  31.286  27.814  1.00  0.00     0.029 A 
ATOM     63  C   UNL A   1      44.934  31.092  28.322  1.00  0.00     0.049 A 
ATOM     64  H   UNL A   1      43.715  29.372  28.246  1.00  0.00     0.167 HD
ATOM     65  C   UNL A   1      42.877  31.769  29.532  1.00  0.00     0.074 A 
ATOM     66  C   UNL A   1      42.088  32.704  30.308  1.00  0.00     0.031 C 
ATOM     67  C   UNL A   1      44.117  32.025  29.054  1.00  0.00     0.034 A 
BRANCH  54  68
ATOM     68  C   UNL A   1      46.766  27.328  26.071  1.00  0.00     0.023 A 
ATOM     69  C   UNL A   1      46.866  27.574  24.687  1.00  0.00     0.012 A 
ATOM     70  C   UNL A   1      47.835  26.711  26.748  1.00  0.00     0.148 A 
ATOM     71  C   UNL A   1      48.012  27.204  23.985  1.00  0.00     0.002 A 
ATOM     72  C   UNL A   1      48.986  26.371  26.045  1.00  0.00     0.091 A 
ATOM     73  F   UNL A   1      47.709  26.477  28.062  1.00  0.00    -0.205 F 
ATOM     74  C   UNL A   1      49.073  26.613  24.665  1.00  0.00     0.022 A 
BRANCH  72  75
ATOM     75  S   UNL A   1      50.432  25.653  26.835  1.00  0.00     0.127 S 
ATOM     76  O   UNL A   1      50.806  26.708  27.776  1.00  0.00    -0.237 OA
ATOM     77  O   UNL A   1      49.876  24.450  27.456  1.00  0.00    -0.237 OA
ATOM     78  O   UNL A   1      51.393  25.403  25.770  1.00  0.00    -0.744 OA
ENDBRANCH  72  75
ENDBRANCH  54  68
BRANCH  55  79
ATOM     79  C   UNL A   1      38.589  30.387  30.924  1.00  0.00     0.023 A 
ATOM     80  C   UNL A   1      38.427  30.194  32.308  1.00  0.00     0.012 A 
ATOM     81  C   UNL A   1      37.616  31.110  30.207  1.00  0.00     0.148 A 
ATOM     82  C   UNL A   1      37.315  30.716  32.971  1.00  0.00     0.002 A 
ATOM     83  C   UNL A   1      36.536  31.668  30.881  1.00  0.00     0.091 A 
ATOM     84  F   UNL A   1      37.794  31.275  28.890  1.00  0.00    -0.205 F 
ATOM     85  C   UNL A   1      36.378  31.463  32.260  1.00  0.00     0.022 A 
BRANCH  83  86
ATOM     86  S   UNL A   1      35.351  32.752  30.076  1.00  0.00     0.127 S 
ATOM     87  O   UNL A   1      36.196  33.876  29.682  1.00  0.00    -0.237 OA
ATOM     88  O   UNL A   1      34.882  31.914  28.972  1.00  0.00    -0.237 OA
ATOM     89  O   UNL A   1      34.339  33.049  31.081  1.00  0.00    -0.744 OA
ENDBRANCH  83  86
ENDBRANCH  55  79
BRANCH  67  90
ATOM     90  C   UNL A   1      44.727  33.367  29.344  1.00  0.00     0.023 A 
ATOM     91  C   UNL A   1      45.504  33.525  30.506  1.00  0.00     0.012 A 
ATOM     92  C   UNL A   1      44.665  34.404  28.393  1.00  0.00     0.148 A 
ATOM     93  C   UNL A   1      46.220  34.702  30.718  1.00  0.00     0.002 A 
ATOM     94  C   UNL A   1      45.406  35.561  28.597  1.00  0.00     0.091 A 
ATOM     95  F   UNL A   1      43.914  34.221  27.298  1.00  0.00    -0.205 F 
ATOM     96  C   UNL A   1      46.181  35.713  29.759  1.00  0.00     0.022 A 
BRANCH  94  97
ATOM     97  S   UNL A   1      45.486  36.887  27.387  1.00  0.00     0.127 S 
ATOM     98  O   UNL A   1      44.078  37.264  27.267  1.00  0.00    -0.237 OA
ATOM     99  O   UNL A   1      46.327  37.871  28.067  1.00  0.00    -0.237 OA
ATOM    100  O   UNL A   1      46.071  36.306  26.187  1.00  0.00    -0.744 OA
ENDBRANCH  94  97
ENDBRANCH  67  90
ENDBRANCH  41  42
ENDBRANCH  33  36
ENDBRANCH  31  32
ENDBRANCH   1  31
TORSDOF 16
ENDMDL
MODEL 2
REMARK VINA RESULT:     -13.3      4.771     10.042
REMARK SMILES Nc1ccc(-c2cc(Cl)cc3c2O[C@H](C(F)(F)F)C(C(=O)NCCCNC(=O)c2ccc(-c4c5nc(c(-c6cccc(S(=O)(=O)[O-])c6F)c6ccc([nH]6)c(-c6cccc(S(=O)(=O)[O-])c6F)c6nc(c(-c7cccc(S(=O)(=O)[O-])c7F)c7ccc4[nH]7)C=C6)C=C5)cc2)=C3)cc1
REMARK SMILES IDX 24 1 23 2 22 3 20 4 21 5 19 7 6 8 7 9 12 10 8 11 11 12 13 13
REMARK SMILES IDX 9 14 10 15 92 16 14 17 5 18 2 19 3 20 94 21 4 22 93 23 1 24
REMARK SMILES IDX 15 27 16 28 17 29 18 30 25 31 26 32 27 33 28 35 29 36 30 37
REMARK SMILES IDX 91 38 31 39 90 40 32 41 33 42 34 43 84 44 35 45 89 46 83 47
REMARK SMILES IDX 85 48 36 49 88 50 82 51 81 52 37 54 69 55 49 56 68 57 50 58
REMARK SMILES IDX 53 59 67 60 86 61 51 62 52 63 66 65 87 66 54 67 38 68 39 69
REMARK SMILES IDX 47 70 40 71 42 72 48 73 41 74 43 75 44 76 45 77 46 78 70 79
REMARK SMILES IDX 71 80 79 81 72 82 74 83 80 84 73 85 75 86 76 87 77 88 78 89
REMARK SMILES IDX 55 90 56 91 64 92 57 93 59 94 65 95 58 96 60 97 61 98 62 99
REMARK SMILES IDX 63 100
REMARK H PARENT 22 6 1 25 1 26 26 34 85 53 53 64
REMARK Flexibility Score: inf
ROOT
ATOM      1  C   UNL A   1      32.763  28.821  24.429  1.00  0.00     0.042 C 
ENDROOT
BRANCH   1   2
ATOM      2  C   UNL A   1      31.872  27.706  23.901  1.00  0.00     0.118 C 
BRANCH   2   3
ATOM      3  N   UNL A   1      31.030  27.129  24.940  1.00  0.00    -0.352 N 
ATOM      4  C   UNL A   1      31.002  25.991  25.671  1.00  0.00     0.251 C 
ATOM      5  O   UNL A   1      30.096  25.922  26.508  1.00  0.00    -0.270 OA
ATOM      6  H   UNL A   1      30.283  27.726  25.171  1.00  0.00     0.163 HD
BRANCH   4   7
ATOM      7  C   UNL A   1      31.965  24.859  25.535  1.00  0.00     0.067 C 
ATOM      8  C   UNL A   1      34.714  21.675  25.399  1.00  0.00     0.026 A 
ATOM      9  C   UNL A   1      36.082  21.963  25.508  1.00  0.00     0.033 A 
ATOM     10  C   UNL A   1      33.803  22.740  25.537  1.00  0.00     0.135 A 
ATOM     11  C   UNL A   1      36.513  23.272  25.742  1.00  0.00     0.042 A 
ATOM     12  C   UNL A   1      34.232  24.053  25.762  1.00  0.00     0.019 A 
ATOM     13  O   UNL A   1      32.465  22.439  25.497  1.00  0.00    -0.475 OA
ATOM     14  Cl  UNL A   1      38.199  23.600  25.866  1.00  0.00    -0.084 Cl
ATOM     15  C   UNL A   1      35.598  24.317  25.870  1.00  0.00     0.032 A 
ATOM     16  C   UNL A   1      33.237  25.114  25.898  1.00  0.00     0.025 C 
ATOM     17  C   UNL A   1      31.598  23.499  25.019  1.00  0.00     0.314 C 
BRANCH   8  18
ATOM     18  C   UNL A   1      34.249  20.306  25.124  1.00  0.00    -0.014 A 
ATOM     19  C   UNL A   1      33.336  17.722  24.408  1.00  0.00     0.031 A 
ATOM     20  C   UNL A   1      34.683  18.057  24.284  1.00  0.00     0.026 A 
ATOM     21  C   UNL A   1      32.464  18.660  24.965  1.00  0.00     0.026 A 
ATOM     22  C   UNL A   1      35.134  19.336  24.628  1.00  0.00     0.011 A 
ATOM     23  C   UNL A   1      32.909  19.942  25.307  1.00  0.00     0.011 A 
BRANCH  19  24
ATOM     24  N   UNL A   1      32.901  16.438  24.116  1.00  0.00    -0.399 N 
ATOM     25  H   UNL A   1      33.488  15.667  24.291  1.00  0.00     0.156 HD
ATOM     26  H   UNL A   1      32.005  16.296  23.732  1.00  0.00     0.156 HD
ENDBRANCH  19  24
ENDBRANCH   8  18
BRANCH  17  27
ATOM     27  C   UNL A   1      31.514  23.442  23.480  1.00  0.00     0.429 C 
ATOM     28  F   UNL A   1      31.920  22.232  23.023  1.00  0.00    -0.167 F 
ATOM     29  F   UNL A   1      30.254  23.626  23.020  1.00  0.00    -0.167 F 
ATOM     30  F   UNL A   1      32.284  24.377  22.877  1.00  0.00    -0.167 F 
ENDBRANCH  17  27
ENDBRANCH   4   7
ENDBRANCH   2   3
ENDBRANCH   1   2
BRANCH   1  31
ATOM     31  C   UNL A   1      32.603  29.040  25.928  1.00  0.00     0.118 C 
BRANCH  31  32
ATOM     32  N   UNL A   1      32.283  30.427  26.259  1.00  0.00    -0.352 N 
ATOM     33  C   UNL A   1      32.971  31.341  27.023  1.00  0.00     0.251 C 
ATOM     34  H   UNL A   1      31.440  30.761  25.874  1.00  0.00     0.163 HD
ATOM     35  O   UNL A   1      32.435  32.406  27.319  1.00  0.00    -0.269 OA
BRANCH  33  36
ATOM     36  C   UNL A   1      34.332  31.027  27.506  1.00  0.00     0.039 A 
ATOM     37  C   UNL A   1      34.684  29.714  27.810  1.00  0.00     0.014 A 
ATOM     38  C   UNL A   1      35.260  32.059  27.680  1.00  0.00     0.014 A 
ATOM     39  C   UNL A   1      35.869  29.464  28.485  1.00  0.00     0.010 A 
ATOM     40  C   UNL A   1      36.504  31.783  28.254  1.00  0.00     0.010 A 
ATOM     41  C   UNL A   1      36.795  30.494  28.721  1.00  0.00    -0.014 A 
BRANCH  41  42
ATOM     42  C   UNL A   1      38.043  30.171  29.462  1.00  0.00     0.031 A 
ATOM     43  C   UNL A   1      38.223  30.585  30.900  1.00  0.00     0.074 A 
ATOM     44  C   UNL A   1      38.978  29.412  28.857  1.00  0.00     0.049 A 
ATOM     45  N   UNL A   1      39.196  30.281  31.719  1.00  0.00    -0.248 NA
ATOM     46  C   UNL A   1      37.193  31.452  31.497  1.00  0.00     0.031 C 
ATOM     47  C   UNL A   1      38.926  28.975  27.459  1.00  0.00     0.029 A 
ATOM     48  N   UNL A   1      40.123  28.835  29.342  1.00  0.00    -0.354 N 
ATOM     49  C   UNL A   1      38.923  30.952  32.905  1.00  0.00     0.074 A 
ATOM     50  C   UNL A   1      37.694  31.685  32.703  1.00  0.00     0.031 C 
ATOM     51  C   UNL A   1      39.941  28.132  27.224  1.00  0.00     0.029 A 
ATOM     52  C   UNL A   1      40.750  28.015  28.433  1.00  0.00     0.049 A 
ATOM     53  H   UNL A   1      40.464  28.993  30.252  1.00  0.00     0.167 HD
ATOM     54  C   UNL A   1      39.619  30.939  34.065  1.00  0.00     0.034 A 
ATOM     55  C   UNL A   1      41.846  27.241  28.555  1.00  0.00     0.034 A 
ATOM     56  C   UNL A   1      40.800  30.152  34.289  1.00  0.00     0.049 A 
ATOM     57  C   UNL A   1      42.574  27.208  29.866  1.00  0.00     0.074 A 
ATOM     58  C   UNL A   1      41.543  30.037  35.450  1.00  0.00     0.029 A 
ATOM     59  N   UNL A   1      41.401  29.339  33.342  1.00  0.00    -0.354 N 
ATOM     60  N   UNL A   1      42.254  27.793  30.994  1.00  0.00    -0.248 NA
ATOM     61  C   UNL A   1      43.805  26.408  29.928  1.00  0.00     0.031 C 
ATOM     62  C   UNL A   1      42.596  29.150  35.205  1.00  0.00     0.029 A 
ATOM     63  C   UNL A   1      42.506  28.716  33.892  1.00  0.00     0.049 A 
ATOM     64  H   UNL A   1      41.088  29.223  32.415  1.00  0.00     0.167 HD
ATOM     65  C   UNL A   1      43.240  27.431  31.901  1.00  0.00     0.074 A 
ATOM     66  C   UNL A   1      44.157  26.556  31.200  1.00  0.00     0.031 C 
ATOM     67  C   UNL A   1      43.379  27.810  33.194  1.00  0.00     0.034 A 
BRANCH  54  68
ATOM     68  C   UNL A   1      39.097  31.753  35.217  1.00  0.00     0.023 A 
ATOM     69  C   UNL A   1      38.198  31.160  36.125  1.00  0.00     0.012 A 
ATOM     70  C   UNL A   1      39.571  33.057  35.456  1.00  0.00     0.148 A 
ATOM     71  C   UNL A   1      37.769  31.859  37.253  1.00  0.00     0.002 A 
ATOM     72  C   UNL A   1      39.161  33.737  36.598  1.00  0.00     0.091 A 
ATOM     73  F   UNL A   1      40.416  33.602  34.569  1.00  0.00    -0.205 F 
ATOM     74  C   UNL A   1      38.258  33.141  37.493  1.00  0.00     0.022 A 
BRANCH  72  75
ATOM     75  S   UNL A   1      39.771  35.370  37.030  1.00  0.00     0.127 S 
ATOM     76  O   UNL A   1      41.215  35.139  37.086  1.00  0.00    -0.237 OA
ATOM     77  O   UNL A   1      39.326  36.174  35.892  1.00  0.00    -0.237 OA
ATOM     78  O   UNL A   1      39.148  35.712  38.301  1.00  0.00    -0.744 OA
ENDBRANCH  72  75
ENDBRANCH  54  68
BRANCH  55  79
ATOM     79  C   UNL A   1      42.266  26.393  27.406  1.00  0.00     0.023 A 
ATOM     80  C   UNL A   1      43.088  26.946  26.407  1.00  0.00     0.012 A 
ATOM     81  C   UNL A   1      41.943  25.023  27.358  1.00  0.00     0.148 A 
ATOM     82  C   UNL A   1      43.585  26.147  25.377  1.00  0.00     0.002 A 
ATOM     83  C   UNL A   1      42.480  24.223  26.356  1.00  0.00     0.091 A 
ATOM     84  F   UNL A   1      41.154  24.524  28.319  1.00  0.00    -0.205 F 
ATOM     85  C   UNL A   1      43.292  24.785  25.360  1.00  0.00     0.022 A 
BRANCH  83  86
ATOM     86  S   UNL A   1      42.265  22.440  26.325  1.00  0.00     0.127 S 
ATOM     87  O   UNL A   1      42.888  22.088  25.051  1.00  0.00    -0.237 OA
ATOM     88  O   UNL A   1      43.013  22.028  27.512  1.00  0.00    -0.237 OA
ATOM     89  O   UNL A   1      40.829  22.212  26.407  1.00  0.00    -0.744 OA
ENDBRANCH  83  86
ENDBRANCH  55  79
BRANCH  67  90
ATOM     90  C   UNL A   1      44.564  27.295  33.960  1.00  0.00     0.023 A 
ATOM     91  C   UNL A   1      45.731  28.078  34.020  1.00  0.00     0.012 A 
ATOM     92  C   UNL A   1      44.459  26.130  34.744  1.00  0.00     0.148 A 
ATOM     93  C   UNL A   1      46.783  27.711  34.857  1.00  0.00     0.002 A 
ATOM     94  C   UNL A   1      45.498  25.787  35.600  1.00  0.00     0.091 A 
ATOM     95  F   UNL A   1      43.334  25.406  34.663  1.00  0.00    -0.205 F 
ATOM     96  C   UNL A   1      46.661  26.574  35.655  1.00  0.00     0.022 A 
BRANCH  94  97
ATOM     97  S   UNL A   1      45.408  24.390  36.725  1.00  0.00     0.127 S 
ATOM     98  O   UNL A   1      46.753  24.385  37.301  1.00  0.00    -0.237 OA
ATOM     99  O   UNL A   1      44.350  24.806  37.645  1.00  0.00    -0.237 OA
ATOM    100  O   UNL A   1      45.087  23.230  35.906  1.00  0.00    -0.744 OA
ENDBRANCH  94  97
ENDBRANCH  67  90
ENDBRANCH  41  42
ENDBRANCH  33  36
ENDBRANCH  31  32
ENDBRANCH   1  31
TORSDOF 16
ENDMDL
MODEL 3
REMARK VINA RESULT:     -12.6      2.699      8.028
REMARK SMILES Nc1ccc(-c2cc(Cl)cc3c2O[C@H](C(F)(F)F)C(C(=O)NCCCNC(=O)c2ccc(-c4c5nc(c(-c6cccc(S(=O)(=O)[O-])c6F)c6ccc([nH]6)c(-c6cccc(S(=O)(=O)[O-])c6F)c6nc(c(-c7cccc(S(=O)(=O)[O-])c7F)c7ccc4[nH]7)C=C6)C=C5)cc2)=C3)cc1
REMARK SMILES IDX 24 1 23 2 22 3 20 4 21 5 19 7 6 8 7 9 12 10 8 11 11 12 13 13
REMARK SMILES IDX 9 14 10 15 92 16 14 17 5 18 2 19 3 20 94 21 4 22 93 23 1 24
REMARK SMILES IDX 15 27 16 28 17 29 18 30 25 31 26 32 27 33 28 35 29 36 30 37
REMARK SMILES IDX 91 38 31 39 90 40 32 41 33 42 34 43 84 44 35 45 89 46 83 47
REMARK SMILES IDX 85 48 36 49 88 50 82 51 81 52 37 54 69 55 49 56 68 57 50 58
REMARK SMILES IDX 53 59 67 60 86 61 51 62 52 63 66 65 87 66 54 67 38 68 39 69
REMARK SMILES IDX 47 70 40 71 42 72 48 73 41 74 43 75 44 76 45 77 46 78 70 79
REMARK SMILES IDX 71 80 79 81 72 82 74 83 80 84 73 85 75 86 76 87 77 88 78 89
REMARK SMILES IDX 55 90 56 91 64 92 57 93 59 94 65 95 58 96 60 97 61 98 62 99
REMARK SMILES IDX 63 100
REMARK H PARENT 22 6 1 25 1 26 26 34 85 53 53 64
REMARK Flexibility Score: inf
ROOT
ATOM      1  C   UNL A   1      37.980  19.570  25.161  1.00  0.00     0.042 C 
ENDROOT
BRANCH   1   2
ATOM      2  C   UNL A   1      36.921  20.565  24.709  1.00  0.00     0.118 C 
BRANCH   2   3
ATOM      3  N   UNL A   1      35.572  20.131  25.042  1.00  0.00    -0.352 N 
ATOM      4  C   UNL A   1      34.329  20.665  25.026  1.00  0.00     0.251 C 
ATOM      5  O   UNL A   1      33.420  19.900  25.366  1.00  0.00    -0.270 OA
ATOM      6  H   UNL A   1      35.562  19.201  25.364  1.00  0.00     0.163 HD
BRANCH   4   7
ATOM      7  C   UNL A   1      34.001  22.067  24.634  1.00  0.00     0.067 C 
ATOM      8  C   UNL A   1      32.842  25.948  23.490  1.00  0.00     0.026 A 
ATOM      9  C   UNL A   1      32.651  26.218  22.127  1.00  0.00     0.033 A 
ATOM     10  C   UNL A   1      33.141  24.623  23.863  1.00  0.00     0.135 A 
ATOM     11  C   UNL A   1      32.762  25.195  21.180  1.00  0.00     0.042 A 
ATOM     12  C   UNL A   1      33.262  23.599  22.917  1.00  0.00     0.019 A 
ATOM     13  O   UNL A   1      33.260  24.354  25.204  1.00  0.00    -0.475 OA
ATOM     14  Cl  UNL A   1      32.528  25.554  19.512  1.00  0.00    -0.084 Cl
ATOM     15  C   UNL A   1      33.064  23.889  21.567  1.00  0.00     0.032 A 
ATOM     16  C   UNL A   1      33.572  22.245  23.369  1.00  0.00     0.025 C 
ATOM     17  C   UNL A   1      34.135  23.250  25.546  1.00  0.00     0.314 C 
BRANCH   8  18
ATOM     18  C   UNL A   1      32.757  27.021  24.493  1.00  0.00    -0.014 A 
ATOM     19  C   UNL A   1      32.682  28.968  26.548  1.00  0.00     0.031 A 
ATOM     20  C   UNL A   1      33.811  28.832  25.743  1.00  0.00     0.026 A 
ATOM     21  C   UNL A   1      31.564  28.180  26.269  1.00  0.00     0.026 A 
ATOM     22  C   UNL A   1      33.854  27.864  24.733  1.00  0.00     0.011 A 
ATOM     23  C   UNL A   1      31.603  27.207  25.263  1.00  0.00     0.011 A 
BRANCH  19  24
ATOM     24  N   UNL A   1      32.623  29.963  27.513  1.00  0.00    -0.399 N 
ATOM     25  H   UNL A   1      32.000  29.878  28.270  1.00  0.00     0.156 HD
ATOM     26  H   UNL A   1      33.204  30.754  27.441  1.00  0.00     0.156 HD
ENDBRANCH  19  24
ENDBRANCH   8  18
BRANCH  17  27
ATOM     27  C   UNL A   1      35.586  23.758  25.663  1.00  0.00     0.429 C 
ATOM     28  F   UNL A   1      35.607  25.070  26.005  1.00  0.00    -0.167 F 
ATOM     29  F   UNL A   1      36.294  23.100  26.611  1.00  0.00    -0.167 F 
ATOM     30  F   UNL A   1      36.281  23.635  24.509  1.00  0.00    -0.167 F 
ENDBRANCH  17  27
ENDBRANCH   4   7
ENDBRANCH   2   3
ENDBRANCH   1   2
BRANCH   1  31
ATOM     31  C   UNL A   1      39.274  20.247  25.593  1.00  0.00     0.118 C 
BRANCH  31  32
ATOM     32  N   UNL A   1      40.251  19.298  26.125  1.00  0.00    -0.352 N 
ATOM     33  C   UNL A   1      41.553  19.491  26.524  1.00  0.00     0.251 C 
ATOM     34  H   UNL A   1      39.924  18.373  26.212  1.00  0.00     0.163 HD
ATOM     35  O   UNL A   1      42.257  18.517  26.778  1.00  0.00    -0.269 OA
BRANCH  33  36
ATOM     36  C   UNL A   1      42.105  20.859  26.614  1.00  0.00     0.039 A 
ATOM     37  C   UNL A   1      42.449  21.398  27.851  1.00  0.00     0.014 A 
ATOM     38  C   UNL A   1      42.256  21.622  25.452  1.00  0.00     0.014 A 
ATOM     39  C   UNL A   1      42.733  22.751  27.952  1.00  0.00     0.010 A 
ATOM     40  C   UNL A   1      42.658  22.958  25.546  1.00  0.00     0.010 A 
ATOM     41  C   UNL A   1      42.838  23.552  26.802  1.00  0.00    -0.014 A 
BRANCH  41  42
ATOM     42  C   UNL A   1      43.130  25.000  26.971  1.00  0.00     0.031 A 
ATOM     43  C   UNL A   1      42.201  25.896  27.750  1.00  0.00     0.074 A 
ATOM     44  C   UNL A   1      44.294  25.486  26.496  1.00  0.00     0.049 A 
ATOM     45  N   UNL A   1      42.370  27.149  28.087  1.00  0.00    -0.248 NA
ATOM     46  C   UNL A   1      40.922  25.326  28.205  1.00  0.00     0.031 C 
ATOM     47  C   UNL A   1      45.260  24.721  25.702  1.00  0.00     0.029 A 
ATOM     48  N   UNL A   1      44.888  26.713  26.647  1.00  0.00    -0.354 N 
ATOM     49  C   UNL A   1      41.208  27.528  28.747  1.00  0.00     0.074 A 
ATOM     50  C   UNL A   1      40.336  26.376  28.764  1.00  0.00     0.031 C 
ATOM     51  C   UNL A   1      46.358  25.465  25.510  1.00  0.00     0.029 A 
ATOM     52  C   UNL A   1      46.154  26.777  26.113  1.00  0.00     0.049 A 
ATOM     53  H   UNL A   1      44.451  27.473  27.094  1.00  0.00     0.167 HD
ATOM     54  C   UNL A   1      40.905  28.720  29.311  1.00  0.00     0.034 A 
ATOM     55  C   UNL A   1      47.061  27.774  26.116  1.00  0.00     0.034 A 
ATOM     56  C   UNL A   1      41.802  29.841  29.359  1.00  0.00     0.049 A 
ATOM     57  C   UNL A   1      46.718  29.070  26.788  1.00  0.00     0.074 A 
ATOM     58  C   UNL A   1      41.599  31.073  29.954  1.00  0.00     0.029 A 
ATOM     59  N   UNL A   1      43.070  29.865  28.804  1.00  0.00    -0.354 N 
ATOM     60  N   UNL A   1      45.643  29.379  27.469  1.00  0.00    -0.248 NA
ATOM     61  C   UNL A   1      47.710  30.152  26.700  1.00  0.00     0.031 C 
ATOM     62  C   UNL A   1      42.749  31.843  29.760  1.00  0.00     0.029 A 
ATOM     63  C   UNL A   1      43.665  31.089  29.045  1.00  0.00     0.049 A 
ATOM     64  H   UNL A   1      43.487  29.120  28.311  1.00  0.00     0.167 HD
ATOM     65  C   UNL A   1      45.826  30.687  27.895  1.00  0.00     0.074 A 
ATOM     66  C   UNL A   1      47.128  31.107  27.416  1.00  0.00     0.031 C 
ATOM     67  C   UNL A   1      44.980  31.473  28.602  1.00  0.00     0.034 A 
BRANCH  54  68
ATOM     68  C   UNL A   1      39.568  28.870  29.982  1.00  0.00     0.023 A 
ATOM     69  C   UNL A   1      39.353  28.251  31.230  1.00  0.00     0.012 A 
ATOM     70  C   UNL A   1      38.570  29.698  29.434  1.00  0.00     0.148 A 
ATOM     71  C   UNL A   1      38.157  28.449  31.919  1.00  0.00     0.002 A 
ATOM     72  C   UNL A   1      37.392  29.912  30.141  1.00  0.00     0.091 A 
ATOM     73  F   UNL A   1      38.796  30.264  28.240  1.00  0.00    -0.205 F 
ATOM     74  C   UNL A   1      37.183  29.285  31.380  1.00  0.00     0.022 A 
BRANCH  72  75
ATOM     75  S   UNL A   1      36.095  31.014  29.562  1.00  0.00     0.127 S 
ATOM     76  O   UNL A   1      36.875  32.073  28.921  1.00  0.00    -0.237 OA
ATOM     77  O   UNL A   1      35.356  30.155  28.637  1.00  0.00    -0.237 OA
ATOM     78  O   UNL A   1      35.352  31.421  30.746  1.00  0.00    -0.744 OA
ENDBRANCH  72  75
ENDBRANCH  54  68
BRANCH  55  79
ATOM     79  C   UNL A   1      48.399  27.537  25.509  1.00  0.00     0.023 A 
ATOM     80  C   UNL A   1      49.451  27.077  26.322  1.00  0.00     0.012 A 
ATOM     81  C   UNL A   1      48.600  27.663  24.121  1.00  0.00     0.148 A 
ATOM     82  C   UNL A   1      50.685  26.743  25.762  1.00  0.00     0.002 A 
ATOM     83  C   UNL A   1      49.815  27.283  23.563  1.00  0.00     0.091 A 
ATOM     84  F   UNL A   1      47.582  28.108  23.372  1.00  0.00    -0.205 F 
ATOM     85  C   UNL A   1      50.861  26.833  24.383  1.00  0.00     0.022 A 
BRANCH  83  86
ATOM     86  S   UNL A   1      50.093  27.242  21.789  1.00  0.00     0.127 S 
ATOM     87  O   UNL A   1      49.034  26.340  21.344  1.00  0.00    -0.237 OA
ATOM     88  O   UNL A   1      49.903  28.645  21.424  1.00  0.00    -0.237 OA
ATOM     89  O   UNL A   1      51.452  26.750  21.612  1.00  0.00    -0.744 OA
ENDBRANCH  83  86
ENDBRANCH  55  79
BRANCH  67  90
ATOM     90  C   UNL A   1      45.410  32.878  28.914  1.00  0.00     0.023 A 
ATOM     91  C   UNL A   1      46.179  33.115  30.069  1.00  0.00     0.012 A 
ATOM     92  C   UNL A   1      45.196  33.916  27.987  1.00  0.00     0.148 A 
ATOM     93  C   UNL A   1      46.735  34.373  30.296  1.00  0.00     0.002 A 
ATOM     94  C   UNL A   1      45.780  35.157  28.205  1.00  0.00     0.091 A 
ATOM     95  F   UNL A   1      44.459  33.656  26.898  1.00  0.00    -0.205 F 
ATOM     96  C   UNL A   1      46.547  35.388  29.360  1.00  0.00     0.022 A 
BRANCH  94  97
ATOM     97  S   UNL A   1      45.664  36.505  27.023  1.00  0.00     0.127 S 
ATOM     98  O   UNL A   1      46.287  35.915  25.838  1.00  0.00    -0.237 OA
ATOM     99  O   UNL A   1      44.219  36.699  26.921  1.00  0.00    -0.237 OA
ATOM    100  O   UNL A   1      46.393  37.622  27.609  1.00  0.00    -0.744 OA
ENDBRANCH  94  97
ENDBRANCH  67  90
ENDBRANCH  41  42
ENDBRANCH  33  36
ENDBRANCH  31  32
ENDBRANCH   1  31
TORSDOF 16
ENDMDL
