MODEL 1
REMARK VINA RESULT:      -9.9      0.000      0.000
REMARK SMILES CC1=NN(c2ccccc2)C(=O)/C1=C\c1ccc(-c2cc(C(=O)NCCCNC(=O)c3ccc(-c4c5nc(c(-c6cccc(S(=O)(=O)[O-])c6F)c6ccc([nH]6)c(-c6cccc(S(=O)(=O)[O-])c6F)c6nc(c(-c7cccc(S(=O)(=O)[O-])c7F)c7ccc4[nH]7)C=C6)C=C5)cc3)ccc2Cl)o1
REMARK SMILES IDX 26 1 25 2 24 3 22 4 23 5 21 7 19 8 20 9 96 10 95 11 97 12
REMARK SMILES IDX 94 13 18 14 15 15 16 16 98 17 17 18 14 19 1 20 2 21 3 22
REMARK SMILES IDX 13 23 4 24 11 25 12 26 5 27 6 28 10 29 7 30 9 31 8 32 27 33
REMARK SMILES IDX 28 34 29 35 30 37 31 38 32 39 93 40 33 41 92 42 34 43 35 44
REMARK SMILES IDX 36 45 86 46 37 47 91 48 85 49 87 50 38 51 90 52 84 53 83 54
REMARK SMILES IDX 39 56 71 57 51 58 70 59 52 60 55 61 69 62 88 63 53 64 54 65
REMARK SMILES IDX 68 67 89 68 56 69 40 70 41 71 49 72 42 73 44 74 50 75 43 76
REMARK SMILES IDX 45 77 46 78 47 79 48 80 72 81 73 82 81 83 74 84 76 85 82 86
REMARK SMILES IDX 75 87 77 88 78 89 79 90 80 91 57 92 58 93 66 94 59 95 61 96
REMARK SMILES IDX 67 97 60 98 62 99 63 100 64 101 65 102
REMARK H PARENT 24 6 28 36 87 55 55 66
REMARK Flexibility Score: inf
ROOT
ATOM      1  C   UNL A   1      34.612  34.421  29.910  1.00  0.00     0.042 C 
ENDROOT
BRANCH   1   2
ATOM      2  C   UNL A   1      34.560  34.033  31.376  1.00  0.00     0.118 C 
BRANCH   2   3
ATOM      3  N   UNL A   1      34.895  32.639  31.644  1.00  0.00    -0.352 N 
ATOM      4  C   UNL A   1      35.891  32.052  32.395  1.00  0.00     0.251 C 
ATOM      5  O   UNL A   1      35.957  30.825  32.428  1.00  0.00    -0.269 OA
ATOM      6  H   UNL A   1      34.296  31.993  31.205  1.00  0.00     0.163 HD
BRANCH   4   7
ATOM      7  C   UNL A   1      36.906  32.854  33.133  1.00  0.00     0.040 A 
ATOM      8  C   UNL A   1      38.992  34.124  33.109  1.00  0.00     0.037 A 
ATOM      9  C   UNL A   1      38.054  33.303  32.456  1.00  0.00     0.027 A 
ATOM     10  C   UNL A   1      38.698  34.571  34.412  1.00  0.00     0.052 A 
ATOM     11  C   UNL A   1      37.614  34.047  35.110  1.00  0.00     0.022 A 
ATOM     12  Cl  UNL A   1      39.640  35.769  35.238  1.00  0.00    -0.084 Cl
ATOM     13  C   UNL A   1      36.777  33.125  34.495  1.00  0.00     0.015 A 
BRANCH   8  14
ATOM     14  C   UNL A   1      40.310  34.363  32.532  1.00  0.00     0.136 A 
ATOM     15  C   UNL A   1      41.759  34.810  30.916  1.00  0.00     0.128 A 
ATOM     16  C   UNL A   1      42.472  34.657  32.101  1.00  0.00     0.051 A 
ATOM     17  O   UNL A   1      40.416  34.662  31.204  1.00  0.00    -0.457 OA
ATOM     18  C   UNL A   1      41.562  34.313  33.106  1.00  0.00     0.051 A 
BRANCH  15  19
ATOM     19  C   UNL A   1      42.306  35.088  29.632  1.00  0.00     0.063 C 
ATOM     20  C   UNL A   1      44.094  35.548  27.105  1.00  0.00     0.069 C 
ATOM     21  C   UNL A   1      43.809  34.251  27.785  1.00  0.00     0.071 C 
ATOM     22  N   UNL A   1      44.386  33.119  27.468  1.00  0.00    -0.169 NA
ATOM     23  C   UNL A   1      42.879  34.107  28.920  1.00  0.00     0.068 C 
ATOM     24  N   UNL A   1      43.792  32.157  28.278  1.00  0.00    -0.196 N 
ATOM     25  C   UNL A   1      42.833  32.646  29.173  1.00  0.00     0.280 C 
ATOM     26  O   UNL A   1      42.136  32.057  29.971  1.00  0.00    -0.267 OA
BRANCH  24  27
ATOM     27  C   UNL A   1      44.107  30.796  28.100  1.00  0.00     0.069 A 
ATOM     28  C   UNL A   1      45.220  30.229  28.730  1.00  0.00     0.028 A 
ATOM     29  C   UNL A   1      43.288  29.981  27.307  1.00  0.00     0.028 A 
ATOM     30  C   UNL A   1      45.478  28.861  28.602  1.00  0.00     0.002 A 
ATOM     31  C   UNL A   1      43.576  28.627  27.137  1.00  0.00     0.002 A 
ATOM     32  C   UNL A   1      44.662  28.063  27.798  1.00  0.00     0.000 A 
ENDBRANCH  24  27
ENDBRANCH  15  19
ENDBRANCH   8  14
ENDBRANCH   4   7
ENDBRANCH   2   3
ENDBRANCH   1   2
BRANCH   1  33
ATOM     33  C   UNL A   1      35.421  33.484  29.032  1.00  0.00     0.118 C 
BRANCH  33  34
ATOM     34  N   UNL A   1      34.593  32.562  28.262  1.00  0.00    -0.352 N 
ATOM     35  C   UNL A   1      34.829  31.278  27.829  1.00  0.00     0.251 C 
ATOM     36  H   UNL A   1      33.712  32.922  28.008  1.00  0.00     0.163 HD
ATOM     37  O   UNL A   1      34.046  30.762  27.035  1.00  0.00    -0.269 OA
BRANCH  35  38
ATOM     38  C   UNL A   1      36.020  30.524  28.285  1.00  0.00     0.039 A 
ATOM     39  C   UNL A   1      37.246  30.738  27.646  1.00  0.00     0.014 A 
ATOM     40  C   UNL A   1      35.936  29.595  29.322  1.00  0.00     0.014 A 
ATOM     41  C   UNL A   1      38.393  30.083  28.103  1.00  0.00     0.010 A 
ATOM     42  C   UNL A   1      37.095  29.034  29.848  1.00  0.00     0.010 A 
ATOM     43  C   UNL A   1      38.337  29.260  29.240  1.00  0.00    -0.014 A 
BRANCH  43  44
ATOM     44  C   UNL A   1      39.558  28.633  29.811  1.00  0.00     0.031 A 
ATOM     45  C   UNL A   1      40.199  29.204  31.050  1.00  0.00     0.074 A 
ATOM     46  C   UNL A   1      40.145  27.606  29.162  1.00  0.00     0.049 A 
ATOM     47  N   UNL A   1      41.299  28.834  31.652  1.00  0.00    -0.248 NA
ATOM     48  C   UNL A   1      39.536  30.360  31.676  1.00  0.00     0.031 C 
ATOM     49  C   UNL A   1      39.671  27.016  27.907  1.00  0.00     0.029 A 
ATOM     50  N   UNL A   1      41.281  26.894  29.453  1.00  0.00    -0.354 N 
ATOM     51  C   UNL A   1      41.482  29.732  32.698  1.00  0.00     0.074 A 
ATOM     52  C   UNL A   1      40.400  30.689  32.625  1.00  0.00     0.031 C 
ATOM     53  C   UNL A   1      40.501  26.026  27.544  1.00  0.00     0.029 A 
ATOM     54  C   UNL A   1      41.588  25.937  28.513  1.00  0.00     0.049 A 
ATOM     55  H   UNL A   1      41.827  27.053  30.257  1.00  0.00     0.167 HD
ATOM     56  C   UNL A   1      42.444  29.745  33.651  1.00  0.00     0.034 A 
ATOM     57  C   UNL A   1      42.633  25.090  28.432  1.00  0.00     0.034 A 
ATOM     58  C   UNL A   1      43.495  28.769  33.744  1.00  0.00     0.049 A 
ATOM     59  C   UNL A   1      43.671  25.103  29.521  1.00  0.00     0.074 A 
ATOM     60  C   UNL A   1      44.463  28.638  34.725  1.00  0.00     0.029 A 
ATOM     61  N   UNL A   1      43.727  27.764  32.817  1.00  0.00    -0.354 N 
ATOM     62  N   UNL A   1      43.735  25.860  30.590  1.00  0.00    -0.248 NA
ATOM     63  C   UNL A   1      44.761  24.124  29.413  1.00  0.00     0.031 C 
ATOM     64  C   UNL A   1      45.304  27.579  34.370  1.00  0.00     0.029 A 
ATOM     65  C   UNL A   1      44.833  27.022  33.193  1.00  0.00     0.049 A 
ATOM     66  H   UNL A   1      43.187  27.604  32.011  1.00  0.00     0.167 HD
ATOM     67  C   UNL A   1      44.848  25.423  31.300  1.00  0.00     0.074 A 
ATOM     68  C   UNL A   1      45.415  24.321  30.549  1.00  0.00     0.031 C 
ATOM     69  C   UNL A   1      45.361  25.897  32.462  1.00  0.00     0.034 A 
BRANCH  56  70
ATOM     70  C   UNL A   1      42.381  30.828  34.698  1.00  0.00     0.023 A 
ATOM     71  C   UNL A   1      41.356  30.810  35.666  1.00  0.00     0.012 A 
ATOM     72  C   UNL A   1      43.370  31.829  34.760  1.00  0.00     0.148 A 
ATOM     73  C   UNL A   1      41.291  31.792  36.654  1.00  0.00     0.002 A 
ATOM     74  C   UNL A   1      43.328  32.775  35.778  1.00  0.00     0.091 A 
ATOM     75  F   UNL A   1      44.327  31.843  33.821  1.00  0.00    -0.205 F 
ATOM     76  C   UNL A   1      42.283  32.767  36.716  1.00  0.00     0.022 A 
BRANCH  74  77
ATOM     77  S   UNL A   1      44.603  34.021  35.998  1.00  0.00     0.127 S 
ATOM     78  O   UNL A   1      44.169  34.673  37.233  1.00  0.00    -0.237 OA
ATOM     79  O   UNL A   1      45.810  33.205  36.132  1.00  0.00    -0.237 OA
ATOM     80  O   UNL A   1      44.561  34.856  34.805  1.00  0.00    -0.744 OA
ENDBRANCH  74  77
ENDBRANCH  56  70
BRANCH  57  81
ATOM     81  C   UNL A   1      42.723  24.119  27.304  1.00  0.00     0.023 A 
ATOM     82  C   UNL A   1      43.456  24.461  26.150  1.00  0.00     0.012 A 
ATOM     83  C   UNL A   1      42.106  22.856  27.375  1.00  0.00     0.148 A 
ATOM     84  C   UNL A   1      43.540  23.578  25.073  1.00  0.00     0.002 A 
ATOM     85  C   UNL A   1      42.244  21.958  26.323  1.00  0.00     0.091 A 
ATOM     86  F   UNL A   1      41.408  22.551  28.478  1.00  0.00    -0.205 F 
ATOM     87  C   UNL A   1      42.943  22.324  25.163  1.00  0.00     0.022 A 
BRANCH  85  88
ATOM     88  S   UNL A   1      41.621  20.275  26.404  1.00  0.00     0.127 S 
ATOM     89  O   UNL A   1      40.184  20.479  26.249  1.00  0.00    -0.237 OA
ATOM     90  O   UNL A   1      42.284  19.654  25.257  1.00  0.00    -0.237 OA
ATOM     91  O   UNL A   1      42.049  19.757  27.696  1.00  0.00    -0.744 OA
ENDBRANCH  85  88
ENDBRANCH  57  81
BRANCH  69  92
ATOM     92  C   UNL A   1      46.573  25.203  33.027  1.00  0.00     0.023 A 
ATOM     93  C   UNL A   1      47.866  25.632  32.668  1.00  0.00     0.012 A 
ATOM     94  C   UNL A   1      46.425  24.168  33.973  1.00  0.00     0.148 A 
ATOM     95  C   UNL A   1      48.992  25.016  33.211  1.00  0.00     0.002 A 
ATOM     96  C   UNL A   1      47.551  23.597  34.551  1.00  0.00     0.091 A 
ATOM     97  F   UNL A   1      45.186  23.764  34.289  1.00  0.00    -0.205 F 
ATOM     98  C   UNL A   1      48.836  24.008  34.161  1.00  0.00     0.022 A 
BRANCH  96  99
ATOM     99  S   UNL A   1      47.445  22.366  35.855  1.00  0.00     0.127 S 
ATOM    100  O   UNL A   1      48.819  21.866  35.903  1.00  0.00    -0.237 OA
ATOM    101  O   UNL A   1      47.050  23.173  37.009  1.00  0.00    -0.237 OA
ATOM    102  O   UNL A   1      46.445  21.401  35.420  1.00  0.00    -0.744 OA
ENDBRANCH  96  99
ENDBRANCH  69  92
ENDBRANCH  43  44
ENDBRANCH  35  38
ENDBRANCH  33  34
ENDBRANCH   1  33
TORSDOF 16
ENDMDL
MODEL 2
REMARK VINA RESULT:      -9.6      5.015      8.604
REMARK SMILES CC1=NN(c2ccccc2)C(=O)/C1=C\c1ccc(-c2cc(C(=O)NCCCNC(=O)c3ccc(-c4c5nc(c(-c6cccc(S(=O)(=O)[O-])c6F)c6ccc([nH]6)c(-c6cccc(S(=O)(=O)[O-])c6F)c6nc(c(-c7cccc(S(=O)(=O)[O-])c7F)c7ccc4[nH]7)C=C6)C=C5)cc3)ccc2Cl)o1
REMARK SMILES IDX 26 1 25 2 24 3 22 4 23 5 21 7 19 8 20 9 96 10 95 11 97 12
REMARK SMILES IDX 94 13 18 14 15 15 16 16 98 17 17 18 14 19 1 20 2 21 3 22
REMARK SMILES IDX 13 23 4 24 11 25 12 26 5 27 6 28 10 29 7 30 9 31 8 32 27 33
REMARK SMILES IDX 28 34 29 35 30 37 31 38 32 39 93 40 33 41 92 42 34 43 35 44
REMARK SMILES IDX 36 45 86 46 37 47 91 48 85 49 87 50 38 51 90 52 84 53 83 54
REMARK SMILES IDX 39 56 71 57 51 58 70 59 52 60 55 61 69 62 88 63 53 64 54 65
REMARK SMILES IDX 68 67 89 68 56 69 40 70 41 71 49 72 42 73 44 74 50 75 43 76
REMARK SMILES IDX 45 77 46 78 47 79 48 80 72 81 73 82 81 83 74 84 76 85 82 86
REMARK SMILES IDX 75 87 77 88 78 89 79 90 80 91 57 92 58 93 66 94 59 95 61 96
REMARK SMILES IDX 67 97 60 98 62 99 63 100 64 101 65 102
REMARK H PARENT 24 6 28 36 87 55 55 66
REMARK Flexibility Score: inf
ROOT
ATOM      1  C   UNL A   1      33.823  29.274  24.044  1.00  0.00     0.042 C 
ENDROOT
BRANCH   1   2
ATOM      2  C   UNL A   1      33.390  28.416  22.869  1.00  0.00     0.118 C 
BRANCH   2   3
ATOM      3  N   UNL A   1      32.046  28.699  22.378  1.00  0.00    -0.352 N 
ATOM      4  C   UNL A   1      30.829  28.091  22.601  1.00  0.00     0.251 C 
ATOM      5  O   UNL A   1      29.836  28.533  22.026  1.00  0.00    -0.269 OA
ATOM      6  H   UNL A   1      31.999  29.472  21.770  1.00  0.00     0.163 HD
BRANCH   4   7
ATOM      7  C   UNL A   1      30.687  26.901  23.484  1.00  0.00     0.040 A 
ATOM      8  C   UNL A   1      31.262  24.578  23.976  1.00  0.00     0.037 A 
ATOM      9  C   UNL A   1      31.319  25.697  23.123  1.00  0.00     0.027 A 
ATOM     10  C   UNL A   1      30.656  24.729  25.238  1.00  0.00     0.052 A 
ATOM     11  C   UNL A   1      29.949  25.887  25.549  1.00  0.00     0.022 A 
ATOM     12  Cl  UNL A   1      30.725  23.515  26.473  1.00  0.00    -0.084 Cl
ATOM     13  C   UNL A   1      29.896  26.929  24.633  1.00  0.00     0.015 A 
BRANCH   8  14
ATOM     14  C   UNL A   1      31.656  23.255  23.505  1.00  0.00     0.136 A 
ATOM     15  C   UNL A   1      32.607  21.259  23.647  1.00  0.00     0.128 A 
ATOM     16  C   UNL A   1      32.030  21.370  22.387  1.00  0.00     0.051 A 
ATOM     17  O   UNL A   1      32.336  22.421  24.344  1.00  0.00    -0.457 OA
ATOM     18  C   UNL A   1      31.485  22.654  22.277  1.00  0.00     0.051 A 
BRANCH  15  19
ATOM     19  C   UNL A   1      33.336  20.143  24.147  1.00  0.00     0.063 C 
ATOM     20  C   UNL A   1      35.360  17.830  24.737  1.00  0.00     0.069 C 
ATOM     21  C   UNL A   1      35.597  19.295  24.883  1.00  0.00     0.071 C 
ATOM     22  N   UNL A   1      36.761  19.821  25.174  1.00  0.00    -0.169 NA
ATOM     23  C   UNL A   1      34.558  20.320  24.670  1.00  0.00     0.068 C 
ATOM     24  N   UNL A   1      36.535  21.188  25.290  1.00  0.00    -0.196 N 
ATOM     25  C   UNL A   1      35.219  21.595  25.041  1.00  0.00     0.280 C 
ATOM     26  O   UNL A   1      34.719  22.698  25.092  1.00  0.00    -0.267 OA
BRANCH  24  27
ATOM     27  C   UNL A   1      37.573  22.037  25.720  1.00  0.00     0.069 A 
ATOM     28  C   UNL A   1      37.345  23.402  25.923  1.00  0.00     0.028 A 
ATOM     29  C   UNL A   1      38.848  21.517  25.980  1.00  0.00     0.028 A 
ATOM     30  C   UNL A   1      38.365  24.219  26.420  1.00  0.00     0.002 A 
ATOM     31  C   UNL A   1      39.881  22.341  26.426  1.00  0.00     0.002 A 
ATOM     32  C   UNL A   1      39.634  23.690  26.662  1.00  0.00     0.000 A 
ENDBRANCH  24  27
ENDBRANCH  15  19
ENDBRANCH   8  14
ENDBRANCH   4   7
ENDBRANCH   2   3
ENDBRANCH   1   2
BRANCH   1  33
ATOM     33  C   UNL A   1      32.950  29.150  25.278  1.00  0.00     0.118 C 
BRANCH  33  34
ATOM     34  N   UNL A   1      32.568  30.441  25.842  1.00  0.00    -0.352 N 
ATOM     35  C   UNL A   1      33.120  31.183  26.860  1.00  0.00     0.251 C 
ATOM     36  H   UNL A   1      31.779  30.852  25.420  1.00  0.00     0.163 HD
ATOM     37  O   UNL A   1      32.512  32.165  27.280  1.00  0.00    -0.269 OA
BRANCH  35  38
ATOM     38  C   UNL A   1      34.416  30.803  27.468  1.00  0.00     0.039 A 
ATOM     39  C   UNL A   1      35.399  31.782  27.641  1.00  0.00     0.014 A 
ATOM     40  C   UNL A   1      34.679  29.487  27.851  1.00  0.00     0.014 A 
ATOM     41  C   UNL A   1      36.604  31.456  28.270  1.00  0.00     0.010 A 
ATOM     42  C   UNL A   1      35.827  29.190  28.578  1.00  0.00     0.010 A 
ATOM     43  C   UNL A   1      36.810  30.167  28.788  1.00  0.00    -0.014 A 
BRANCH  43  44
ATOM     44  C   UNL A   1      38.037  29.818  29.552  1.00  0.00     0.031 A 
ATOM     45  C   UNL A   1      38.259  30.378  30.934  1.00  0.00     0.074 A 
ATOM     46  C   UNL A   1      38.997  29.074  28.966  1.00  0.00     0.049 A 
ATOM     47  N   UNL A   1      39.293  30.240  31.722  1.00  0.00    -0.248 NA
ATOM     48  C   UNL A   1      37.194  31.229  31.491  1.00  0.00     0.031 C 
ATOM     49  C   UNL A   1      38.943  28.542  27.602  1.00  0.00     0.029 A 
ATOM     50  N   UNL A   1      40.219  28.658  29.433  1.00  0.00    -0.354 N 
ATOM     51  C   UNL A   1      39.023  31.015  32.844  1.00  0.00     0.074 A 
ATOM     52  C   UNL A   1      37.745  31.653  32.618  1.00  0.00     0.031 C 
ATOM     53  C   UNL A   1      40.071  27.861  27.348  1.00  0.00     0.029 A 
ATOM     54  C   UNL A   1      40.948  27.942  28.511  1.00  0.00     0.049 A 
ATOM     55  H   UNL A   1      40.544  28.852  30.341  1.00  0.00     0.167 HD
ATOM     56  C   UNL A   1      39.756  31.162  33.973  1.00  0.00     0.034 A 
ATOM     57  C   UNL A   1      42.187  27.419  28.586  1.00  0.00     0.034 A 
ATOM     58  C   UNL A   1      41.008  30.496  34.211  1.00  0.00     0.049 A 
ATOM     59  C   UNL A   1      42.968  27.569  29.864  1.00  0.00     0.074 A 
ATOM     60  C   UNL A   1      41.782  30.504  35.358  1.00  0.00     0.029 A 
ATOM     61  N   UNL A   1      41.677  29.714  33.282  1.00  0.00    -0.354 N 
ATOM     62  N   UNL A   1      42.622  28.176  30.975  1.00  0.00    -0.248 NA
ATOM     63  C   UNL A   1      44.292  26.936  29.913  1.00  0.00     0.031 C 
ATOM     64  C   UNL A   1      42.938  29.759  35.109  1.00  0.00     0.029 A 
ATOM     65  C   UNL A   1      42.863  29.249  33.824  1.00  0.00     0.049 A 
ATOM     66  H   UNL A   1      41.357  29.519  32.373  1.00  0.00     0.167 HD
ATOM     67  C   UNL A   1      43.669  27.963  31.865  1.00  0.00     0.074 A 
ATOM     68  C   UNL A   1      44.650  27.155  31.170  1.00  0.00     0.031 C 
ATOM     69  C   UNL A   1      43.810  28.406  33.138  1.00  0.00     0.034 A 
BRANCH  56  70
ATOM     70  C   UNL A   1      39.203  32.049  35.060  1.00  0.00     0.023 A 
ATOM     71  C   UNL A   1      39.217  33.450  34.898  1.00  0.00     0.012 A 
ATOM     72  C   UNL A   1      38.616  31.495  36.214  1.00  0.00     0.148 A 
ATOM     73  C   UNL A   1      38.694  34.286  35.883  1.00  0.00     0.002 A 
ATOM     74  C   UNL A   1      38.050  32.333  37.169  1.00  0.00     0.091 A 
ATOM     75  F   UNL A   1      38.627  30.163  36.362  1.00  0.00    -0.205 F 
ATOM     76  C   UNL A   1      38.101  33.728  37.012  1.00  0.00     0.022 A 
BRANCH  74  77
ATOM     77  S   UNL A   1      37.187  31.712  38.616  1.00  0.00     0.127 S 
ATOM     78  O   UNL A   1      38.216  31.836  39.649  1.00  0.00    -0.237 OA
ATOM     79  O   UNL A   1      36.080  32.660  38.743  1.00  0.00    -0.237 OA
ATOM     80  O   UNL A   1      36.789  30.349  38.295  1.00  0.00    -0.744 OA
ENDBRANCH  74  77
ENDBRANCH  56  70
BRANCH  57  81
ATOM     81  C   UNL A   1      42.749  26.657  27.434  1.00  0.00     0.023 A 
ATOM     82  C   UNL A   1      43.249  27.355  26.317  1.00  0.00     0.012 A 
ATOM     83  C   UNL A   1      42.810  25.250  27.448  1.00  0.00     0.148 A 
ATOM     84  C   UNL A   1      43.763  26.664  25.218  1.00  0.00     0.002 A 
ATOM     85  C   UNL A   1      43.377  24.571  26.376  1.00  0.00     0.091 A 
ATOM     86  F   UNL A   1      42.323  24.604  28.517  1.00  0.00    -0.205 F 
ATOM     87  C   UNL A   1      43.835  25.275  25.252  1.00  0.00     0.022 A 
BRANCH  85  88
ATOM     88  S   UNL A   1      43.633  22.793  26.387  1.00  0.00     0.127 S 
ATOM     89  O   UNL A   1      43.029  22.396  25.119  1.00  0.00    -0.237 OA
ATOM     90  O   UNL A   1      45.093  22.701  26.432  1.00  0.00    -0.237 OA
ATOM     91  O   UNL A   1      42.964  22.306  27.585  1.00  0.00    -0.744 OA
ENDBRANCH  85  88
ENDBRANCH  57  81
BRANCH  69  92
ATOM     92  C   UNL A   1      45.049  27.993  33.890  1.00  0.00     0.023 A 
ATOM     93  C   UNL A   1      46.167  28.848  33.937  1.00  0.00     0.012 A 
ATOM     94  C   UNL A   1      45.074  26.782  34.611  1.00  0.00     0.148 A 
ATOM     95  C   UNL A   1      47.305  28.487  34.657  1.00  0.00     0.002 A 
ATOM     96  C   UNL A   1      46.189  26.454  35.370  1.00  0.00     0.091 A 
ATOM     97  F   UNL A   1      44.005  25.974  34.540  1.00  0.00    -0.205 F 
ATOM     98  C   UNL A   1      47.312  27.298  35.382  1.00  0.00     0.022 A 
BRANCH  96  99
ATOM     99  S   UNL A   1      46.249  24.996  36.417  1.00  0.00     0.127 S 
ATOM    100  O   UNL A   1      46.076  23.922  35.439  1.00  0.00    -0.237 OA
ATOM    101  O   UNL A   1      47.590  25.084  36.994  1.00  0.00    -0.237 OA
ATOM    102  O   UNL A   1      45.165  25.144  37.378  1.00  0.00    -0.744 OA
ENDBRANCH  96  99
ENDBRANCH  69  92
ENDBRANCH  43  44
ENDBRANCH  35  38
ENDBRANCH  33  34
ENDBRANCH   1  33
TORSDOF 16
ENDMDL
MODEL 3
REMARK VINA RESULT:      -9.6      5.632     11.485
REMARK SMILES CC1=NN(c2ccccc2)C(=O)/C1=C\c1ccc(-c2cc(C(=O)NCCCNC(=O)c3ccc(-c4c5nc(c(-c6cccc(S(=O)(=O)[O-])c6F)c6ccc([nH]6)c(-c6cccc(S(=O)(=O)[O-])c6F)c6nc(c(-c7cccc(S(=O)(=O)[O-])c7F)c7ccc4[nH]7)C=C6)C=C5)cc3)ccc2Cl)o1
REMARK SMILES IDX 26 1 25 2 24 3 22 4 23 5 21 7 19 8 20 9 96 10 95 11 97 12
REMARK SMILES IDX 94 13 18 14 15 15 16 16 98 17 17 18 14 19 1 20 2 21 3 22
REMARK SMILES IDX 13 23 4 24 11 25 12 26 5 27 6 28 10 29 7 30 9 31 8 32 27 33
REMARK SMILES IDX 28 34 29 35 30 37 31 38 32 39 93 40 33 41 92 42 34 43 35 44
REMARK SMILES IDX 36 45 86 46 37 47 91 48 85 49 87 50 38 51 90 52 84 53 83 54
REMARK SMILES IDX 39 56 71 57 51 58 70 59 52 60 55 61 69 62 88 63 53 64 54 65
REMARK SMILES IDX 68 67 89 68 56 69 40 70 41 71 49 72 42 73 44 74 50 75 43 76
REMARK SMILES IDX 45 77 46 78 47 79 48 80 72 81 73 82 81 83 74 84 76 85 82 86
REMARK SMILES IDX 75 87 77 88 78 89 79 90 80 91 57 92 58 93 66 94 59 95 61 96
REMARK SMILES IDX 67 97 60 98 62 99 63 100 64 101 65 102
REMARK H PARENT 24 6 28 36 87 55 55 66
REMARK Flexibility Score: inf
ROOT
ATOM      1  C   UNL A   1      38.696  23.797  26.865  1.00  0.00     0.042 C 
ENDROOT
BRANCH   1   2
ATOM      2  C   UNL A   1      37.386  23.711  26.105  1.00  0.00     0.118 C 
BRANCH   2   3
ATOM      3  N   UNL A   1      37.535  23.533  24.664  1.00  0.00    -0.352 N 
ATOM      4  C   UNL A   1      36.616  23.358  23.652  1.00  0.00     0.251 C 
ATOM      5  O   UNL A   1      37.029  23.206  22.503  1.00  0.00    -0.269 OA
ATOM      6  H   UNL A   1      38.470  23.538  24.357  1.00  0.00     0.163 HD
BRANCH   4   7
ATOM      7  C   UNL A   1      35.151  23.313  23.908  1.00  0.00     0.040 A 
ATOM      8  C   UNL A   1      33.109  24.464  24.596  1.00  0.00     0.037 A 
ATOM      9  C   UNL A   1      34.505  24.456  24.414  1.00  0.00     0.027 A 
ATOM     10  C   UNL A   1      32.370  23.348  24.157  1.00  0.00     0.052 A 
ATOM     11  C   UNL A   1      33.020  22.187  23.749  1.00  0.00     0.022 A 
ATOM     12  Cl  UNL A   1      30.638  23.322  24.099  1.00  0.00    -0.084 Cl
ATOM     13  C   UNL A   1      34.407  22.149  23.713  1.00  0.00     0.015 A 
BRANCH   8  14
ATOM     14  C   UNL A   1      32.460  25.513  25.374  1.00  0.00     0.136 A 
ATOM     15  C   UNL A   1      31.748  27.568  25.800  1.00  0.00     0.128 A 
ATOM     16  C   UNL A   1      31.396  26.760  26.877  1.00  0.00     0.051 A 
ATOM     17  O   UNL A   1      32.375  26.775  24.859  1.00  0.00    -0.457 OA
ATOM     18  C   UNL A   1      31.902  25.479  26.633  1.00  0.00     0.051 A 
BRANCH  15  19
ATOM     19  C   UNL A   1      31.497  28.963  25.674  1.00  0.00     0.063 C 
ATOM     20  C   UNL A   1      30.882  32.006  26.067  1.00  0.00     0.069 C 
ATOM     21  C   UNL A   1      32.106  31.270  26.497  1.00  0.00     0.071 C 
ATOM     22  N   UNL A   1      33.059  31.800  27.222  1.00  0.00    -0.169 NA
ATOM     23  C   UNL A   1      32.358  29.850  26.191  1.00  0.00     0.068 C 
ATOM     24  N   UNL A   1      34.036  30.816  27.332  1.00  0.00    -0.196 N 
ATOM     25  C   UNL A   1      33.727  29.602  26.708  1.00  0.00     0.280 C 
ATOM     26  O   UNL A   1      34.380  28.585  26.609  1.00  0.00    -0.267 OA
BRANCH  24  27
ATOM     27  C   UNL A   1      35.262  31.111  27.958  1.00  0.00     0.069 A 
ATOM     28  C   UNL A   1      36.144  30.089  28.324  1.00  0.00     0.028 A 
ATOM     29  C   UNL A   1      35.631  32.443  28.195  1.00  0.00     0.028 A 
ATOM     30  C   UNL A   1      37.390  30.401  28.878  1.00  0.00     0.002 A 
ATOM     31  C   UNL A   1      36.852  32.751  28.795  1.00  0.00     0.002 A 
ATOM     32  C   UNL A   1      37.738  31.731  29.121  1.00  0.00     0.000 A 
ENDBRANCH  24  27
ENDBRANCH  15  19
ENDBRANCH   8  14
ENDBRANCH   4   7
ENDBRANCH   2   3
ENDBRANCH   1   2
BRANCH   1  33
ATOM     33  C   UNL A   1      39.495  25.063  26.616  1.00  0.00     0.118 C 
BRANCH  33  34
ATOM     34  N   UNL A   1      40.718  24.828  25.854  1.00  0.00    -0.352 N 
ATOM     35  C   UNL A   1      41.846  25.599  25.694  1.00  0.00     0.251 C 
ATOM     36  H   UNL A   1      40.739  23.970  25.373  1.00  0.00     0.163 HD
ATOM     37  O   UNL A   1      42.679  25.269  24.853  1.00  0.00    -0.269 OA
BRANCH  35  38
ATOM     38  C   UNL A   1      42.056  26.825  26.498  1.00  0.00     0.039 A 
ATOM     39  C   UNL A   1      42.792  26.742  27.684  1.00  0.00     0.014 A 
ATOM     40  C   UNL A   1      41.517  28.051  26.106  1.00  0.00     0.014 A 
ATOM     41  C   UNL A   1      43.054  27.899  28.424  1.00  0.00     0.010 A 
ATOM     42  C   UNL A   1      41.875  29.215  26.778  1.00  0.00     0.010 A 
ATOM     43  C   UNL A   1      42.638  29.154  27.952  1.00  0.00    -0.014 A 
BRANCH  43  44
ATOM     44  C   UNL A   1      42.990  30.412  28.662  1.00  0.00     0.031 A 
ATOM     45  C   UNL A   1      42.125  30.918  29.789  1.00  0.00     0.074 A 
ATOM     46  C   UNL A   1      44.034  31.149  28.233  1.00  0.00     0.049 A 
ATOM     47  N   UNL A   1      42.235  32.024  30.478  1.00  0.00    -0.248 NA
ATOM     48  C   UNL A   1      40.968  30.091  30.170  1.00  0.00     0.031 C 
ATOM     49  C   UNL A   1      44.900  30.813  27.100  1.00  0.00     0.029 A 
ATOM     50  N   UNL A   1      44.531  32.348  28.682  1.00  0.00    -0.354 N 
ATOM     51  C   UNL A   1      41.146  32.045  31.342  1.00  0.00     0.074 A 
ATOM     52  C   UNL A   1      40.364  30.861  31.062  1.00  0.00     0.031 C 
ATOM     53  C   UNL A   1      45.825  31.773  26.950  1.00  0.00     0.029 A 
ATOM     54  C   UNL A   1      45.597  32.813  27.947  1.00  0.00     0.049 A 
ATOM     55  H   UNL A   1      44.160  32.830  29.456  1.00  0.00     0.167 HD
ATOM     56  C   UNL A   1      40.837  32.950  32.300  1.00  0.00     0.034 A 
ATOM     57  C   UNL A   1      46.305  33.955  28.053  1.00  0.00     0.034 A 
ATOM     58  C   UNL A   1      41.637  34.106  32.602  1.00  0.00     0.049 A 
ATOM     59  C   UNL A   1      45.960  34.929  29.148  1.00  0.00     0.074 A 
ATOM     60  C   UNL A   1      41.462  35.032  33.615  1.00  0.00     0.029 A 
ATOM     61  N   UNL A   1      42.756  34.502  31.886  1.00  0.00    -0.354 N 
ATOM     62  N   UNL A   1      45.019  34.849  30.057  1.00  0.00    -0.248 NA
ATOM     63  C   UNL A   1      46.796  36.133  29.253  1.00  0.00     0.031 C 
ATOM     64  C   UNL A   1      42.452  36.011  33.486  1.00  0.00     0.029 A 
ATOM     65  C   UNL A   1      43.271  35.669  32.423  1.00  0.00     0.049 A 
ATOM     66  H   UNL A   1      43.129  34.025  31.110  1.00  0.00     0.167 HD
ATOM     67  C   UNL A   1      45.174  35.970  30.865  1.00  0.00     0.074 A 
ATOM     68  C   UNL A   1      46.312  36.702  30.349  1.00  0.00     0.031 C 
ATOM     69  C   UNL A   1      44.434  36.364  31.930  1.00  0.00     0.034 A 
BRANCH  56  70
ATOM     70  C   UNL A   1      39.597  32.706  33.123  1.00  0.00     0.023 A 
ATOM     71  C   UNL A   1      39.678  31.935  34.302  1.00  0.00     0.012 A 
ATOM     72  C   UNL A   1      38.366  33.289  32.764  1.00  0.00     0.148 A 
ATOM     73  C   UNL A   1      38.547  31.713  35.086  1.00  0.00     0.002 A 
ATOM     74  C   UNL A   1      37.254  33.106  33.579  1.00  0.00     0.091 A 
ATOM     75  F   UNL A   1      38.302  34.003  31.631  1.00  0.00    -0.205 F 
ATOM     76  C   UNL A   1      37.339  32.307  34.731  1.00  0.00     0.022 A 
BRANCH  74  77
ATOM     77  S   UNL A   1      35.674  33.896  33.256  1.00  0.00     0.127 S 
ATOM     78  O   UNL A   1      35.301  33.299  31.974  1.00  0.00    -0.237 OA
ATOM     79  O   UNL A   1      34.870  33.449  34.394  1.00  0.00    -0.237 OA
ATOM     80  O   UNL A   1      35.939  35.328  33.223  1.00  0.00    -0.744 OA
ENDBRANCH  74  77
ENDBRANCH  56  70
BRANCH  57  81
ATOM     81  C   UNL A   1      47.445  34.217  27.130  1.00  0.00     0.023 A 
ATOM     82  C   UNL A   1      47.230  34.961  25.953  1.00  0.00     0.012 A 
ATOM     83  C   UNL A   1      48.742  33.753  27.420  1.00  0.00     0.148 A 
ATOM     84  C   UNL A   1      48.277  35.203  25.063  1.00  0.00     0.002 A 
ATOM     85  C   UNL A   1      49.793  34.049  26.559  1.00  0.00     0.091 A 
ATOM     86  F   UNL A   1      48.926  33.042  28.541  1.00  0.00    -0.205 F 
ATOM     87  C   UNL A   1      49.559  34.756  25.370  1.00  0.00     0.022 A 
BRANCH  85  88
ATOM     88  S   UNL A   1      51.498  33.628  26.938  1.00  0.00     0.127 S 
ATOM     89  O   UNL A   1      52.206  34.194  25.794  1.00  0.00    -0.237 OA
ATOM     90  O   UNL A   1      51.706  34.333  28.203  1.00  0.00    -0.237 OA
ATOM     91  O   UNL A   1      51.531  32.177  27.046  1.00  0.00    -0.744 OA
ENDBRANCH  85  88
ENDBRANCH  57  81
BRANCH  69  92
ATOM     92  C   UNL A   1      44.852  37.621  32.647  1.00  0.00     0.023 A 
ATOM     93  C   UNL A   1      45.819  37.565  33.670  1.00  0.00     0.012 A 
ATOM     94  C   UNL A   1      44.335  38.872  32.252  1.00  0.00     0.148 A 
ATOM     95  C   UNL A   1      46.234  38.729  34.316  1.00  0.00     0.002 A 
ATOM     96  C   UNL A   1      44.794  40.032  32.862  1.00  0.00     0.091 A 
ATOM     97  F   UNL A   1      43.404  38.902  31.287  1.00  0.00    -0.205 F 
ATOM     98  C   UNL A   1      45.733  39.961  33.905  1.00  0.00     0.022 A 
BRANCH  96  99
ATOM     99  S   UNL A   1      44.281  41.669  32.330  1.00  0.00     0.127 S 
ATOM    100  O   UNL A   1      44.706  41.673  30.931  1.00  0.00    -0.237 OA
ATOM    101  O   UNL A   1      42.832  41.618  32.527  1.00  0.00    -0.237 OA
ATOM    102  O   UNL A   1      44.976  42.611  33.196  1.00  0.00    -0.744 OA
ENDBRANCH  96  99
ENDBRANCH  69  92
ENDBRANCH  43  44
ENDBRANCH  35  38
ENDBRANCH  33  34
ENDBRANCH   1  33
TORSDOF 16
ENDMDL
