MODEL 1
REMARK VINA RESULT:     -11.1      0.000      0.000
REMARK SMILES C#CC[C@@H](C(=O)NCCCNC(=O)c1ccc(-c2c3nc(c(-c4cccc(S(=O)(=O)[O-])c4F)c4ccc([nH]4)c(-c4cccc(S(=O)(=O)[O-])c4F)c4nc(c(-c5cccc(S(=O)(=O)[O-])c5F)c5ccc2[nH]5)C=C4)C=C3)cc1)[C@H]1CCS(=O)(=O)C1
REMARK SMILES IDX 9 1 8 2 7 3 5 4 6 5 4 7 3 8 2 9 1 10 77 11 78 12 83 13 79 14
REMARK SMILES IDX 80 15 81 16 82 17 10 18 11 19 12 20 13 22 14 23 15 24 76 25
REMARK SMILES IDX 16 26 75 27 17 28 18 29 19 30 69 31 20 32 74 33 68 34 70 35
REMARK SMILES IDX 21 36 73 37 67 38 66 39 22 41 54 42 34 43 53 44 35 45 38 46
REMARK SMILES IDX 52 47 71 48 36 49 37 50 51 52 72 53 39 54 23 55 24 56 32 57
REMARK SMILES IDX 25 58 27 59 33 60 26 61 28 62 29 63 30 64 31 65 55 66 56 67
REMARK SMILES IDX 64 68 57 69 59 70 65 71 58 72 60 73 61 74 62 75 63 76 40 77
REMARK SMILES IDX 41 78 49 79 42 80 44 81 50 82 43 83 45 84 46 85 47 86 48 87
REMARK H PARENT 7 6 11 21 70 40 38 51
REMARK Flexibility Score: inf
ROOT
ATOM      1  C   UNL A   1      34.297  21.803  26.641  1.00  0.00     0.042 C 
ENDROOT
BRANCH   1   2
ATOM      2  C   UNL A   1      33.515  22.481  27.776  1.00  0.00     0.117 C 
BRANCH   2   3
ATOM      3  N   UNL A   1      32.110  22.614  27.407  1.00  0.00    -0.356 N 
ATOM      4  C   UNL A   1      31.357  23.688  27.031  1.00  0.00     0.224 C 
ATOM      5  O   UNL A   1      30.135  23.560  27.165  1.00  0.00    -0.275 OA
ATOM      6  H   UNL A   1      31.610  21.767  27.433  1.00  0.00     0.163 HD
BRANCH   4   7
ATOM      7  C   UNL A   1      31.943  24.956  26.361  1.00  0.00     0.094 C 
BRANCH   7   8
ATOM      8  C   UNL A   1      30.898  26.086  26.161  1.00  0.00     0.103 C 
BRANCH   8   9
ATOM      9  C   UNL A   1      31.385  27.348  26.854  1.00  0.00    -0.106 C 
ATOM     10  C   UNL A   1      31.804  28.431  27.447  1.00  0.00     0.004 C 
ENDBRANCH   8   9
ENDBRANCH   7   8
BRANCH   7  11
ATOM     11  C   UNL A   1      32.563  24.483  25.003  1.00  0.00     0.018 C 
ATOM     12  C   UNL A   1      31.563  24.195  23.862  1.00  0.00     0.021 C 
ATOM     13  C   UNL A   1      33.568  25.460  24.386  1.00  0.00     0.141 C 
ATOM     14  C   UNL A   1      32.390  23.806  22.641  1.00  0.00     0.137 C 
ATOM     15  S   UNL A   1      33.890  24.774  22.757  1.00  0.00     0.150 S 
ATOM     16  O   UNL A   1      35.016  23.872  22.847  1.00  0.00    -0.229 OA
ATOM     17  O   UNL A   1      33.843  25.848  21.782  1.00  0.00    -0.229 OA
ENDBRANCH   7  11
ENDBRANCH   4   7
ENDBRANCH   2   3
ENDBRANCH   1   2
BRANCH   1  18
ATOM     18  C   UNL A   1      35.673  22.365  26.335  1.00  0.00     0.118 C 
BRANCH  18  19
ATOM     19  N   UNL A   1      36.602  21.295  25.989  1.00  0.00    -0.352 N 
ATOM     20  C   UNL A   1      37.957  21.306  25.732  1.00  0.00     0.251 C 
ATOM     21  H   UNL A   1      36.187  20.404  25.927  1.00  0.00     0.163 HD
ATOM     22  O   UNL A   1      38.427  20.351  25.114  1.00  0.00    -0.269 OA
BRANCH  20  23
ATOM     23  C   UNL A   1      38.865  22.406  26.167  1.00  0.00     0.039 A 
ATOM     24  C   UNL A   1      39.952  22.102  27.004  1.00  0.00     0.014 A 
ATOM     25  C   UNL A   1      38.609  23.743  25.876  1.00  0.00     0.014 A 
ATOM     26  C   UNL A   1      40.769  23.121  27.522  1.00  0.00     0.010 A 
ATOM     27  C   UNL A   1      39.488  24.743  26.290  1.00  0.00     0.010 A 
ATOM     28  C   UNL A   1      40.552  24.456  27.157  1.00  0.00    -0.014 A 
BRANCH  28  29
ATOM     29  C   UNL A   1      41.340  25.596  27.709  1.00  0.00     0.031 A 
ATOM     30  C   UNL A   1      40.635  26.660  28.517  1.00  0.00     0.074 A 
ATOM     31  C   UNL A   1      42.638  25.759  27.388  1.00  0.00     0.049 A 
ATOM     32  N   UNL A   1      41.057  27.840  28.891  1.00  0.00    -0.248 NA
ATOM     33  C   UNL A   1      39.244  26.372  28.913  1.00  0.00     0.031 C 
ATOM     34  C   UNL A   1      43.434  24.837  26.579  1.00  0.00     0.029 A 
ATOM     35  N   UNL A   1      43.504  26.794  27.662  1.00  0.00    -0.354 N 
ATOM     36  C   UNL A   1      39.967  28.461  29.494  1.00  0.00     0.074 A 
ATOM     37  C   UNL A   1      38.857  27.538  29.406  1.00  0.00     0.031 C 
ATOM     38  C   UNL A   1      44.661  25.352  26.405  1.00  0.00     0.029 A 
ATOM     39  C   UNL A   1      44.727  26.662  27.046  1.00  0.00     0.049 A 
ATOM     40  H   UNL A   1      43.270  27.554  28.241  1.00  0.00     0.167 HD
ATOM     41  C   UNL A   1      39.896  29.676  30.089  1.00  0.00     0.034 A 
ATOM     42  C   UNL A   1      45.771  27.512  26.973  1.00  0.00     0.034 A 
ATOM     43  C   UNL A   1      41.018  30.565  30.226  1.00  0.00     0.049 A 
ATOM     44  C   UNL A   1      45.692  28.841  27.674  1.00  0.00     0.074 A 
ATOM     45  C   UNL A   1      41.081  31.775  30.894  1.00  0.00     0.029 A 
ATOM     46  N   UNL A   1      42.273  30.341  29.682  1.00  0.00    -0.354 N 
ATOM     47  N   UNL A   1      44.691  29.363  28.339  1.00  0.00    -0.248 NA
ATOM     48  C   UNL A   1      46.896  29.685  27.643  1.00  0.00     0.031 C 
ATOM     49  C   UNL A   1      42.366  32.299  30.722  1.00  0.00     0.029 A 
ATOM     50  C   UNL A   1      43.117  31.394  29.990  1.00  0.00     0.049 A 
ATOM     51  H   UNL A   1      42.526  29.550  29.153  1.00  0.00     0.167 HD
ATOM     52  C   UNL A   1      45.156  30.572  28.845  1.00  0.00     0.074 A 
ATOM     53  C   UNL A   1      46.531  30.705  28.410  1.00  0.00     0.031 C 
ATOM     54  C   UNL A   1      44.501  31.487  29.601  1.00  0.00     0.034 A 
BRANCH  41  55
ATOM     55  C   UNL A   1      38.564  30.102  30.660  1.00  0.00     0.023 A 
ATOM     56  C   UNL A   1      38.206  29.725  31.971  1.00  0.00     0.012 A 
ATOM     57  C   UNL A   1      37.676  30.895  29.906  1.00  0.00     0.148 A 
ATOM     58  C   UNL A   1      36.963  30.074  32.499  1.00  0.00     0.002 A 
ATOM     59  C   UNL A   1      36.462  31.287  30.460  1.00  0.00     0.091 A 
ATOM     60  F   UNL A   1      38.021  31.235  28.657  1.00  0.00    -0.205 F 
ATOM     61  C   UNL A   1      36.096  30.861  31.747  1.00  0.00     0.022 A 
BRANCH  59  62
ATOM     62  S   UNL A   1      35.317  32.376  29.607  1.00  0.00     0.127 S 
ATOM     63  O   UNL A   1      36.188  33.493  29.242  1.00  0.00    -0.237 OA
ATOM     64  O   UNL A   1      34.886  31.547  28.480  1.00  0.00    -0.237 OA
ATOM     65  O   UNL A   1      34.268  32.686  30.567  1.00  0.00    -0.744 OA
ENDBRANCH  59  62
ENDBRANCH  41  55
BRANCH  42  66
ATOM     66  C   UNL A   1      47.003  27.098  26.241  1.00  0.00     0.023 A 
ATOM     67  C   UNL A   1      47.138  27.415  24.876  1.00  0.00     0.012 A 
ATOM     68  C   UNL A   1      48.064  26.450  26.905  1.00  0.00     0.148 A 
ATOM     69  C   UNL A   1      48.297  27.074  24.179  1.00  0.00     0.002 A 
ATOM     70  C   UNL A   1      49.237  26.164  26.218  1.00  0.00     0.091 A 
ATOM     71  F   UNL A   1      47.911  26.154  28.204  1.00  0.00    -0.205 F 
ATOM     72  C   UNL A   1      49.350  26.461  24.851  1.00  0.00     0.022 A 
BRANCH  70  73
ATOM     73  S   UNL A   1      50.696  25.499  27.029  1.00  0.00     0.127 S 
ATOM     74  O   UNL A   1      50.183  24.253  27.593  1.00  0.00    -0.237 OA
ATOM     75  O   UNL A   1      51.614  25.333  25.901  1.00  0.00    -0.237 OA
ATOM     76  O   UNL A   1      51.107  26.505  27.998  1.00  0.00    -0.744 OA
ENDBRANCH  70  73
ENDBRANCH  42  66
BRANCH  54  77
ATOM     77  C   UNL A   1      45.267  32.690  30.084  1.00  0.00     0.023 A 
ATOM     78  C   UNL A   1      46.028  32.624  31.266  1.00  0.00     0.012 A 
ATOM     79  C   UNL A   1      45.322  33.854  29.289  1.00  0.00     0.148 A 
ATOM     80  C   UNL A   1      46.817  33.705  31.659  1.00  0.00     0.002 A 
ATOM     81  C   UNL A   1      46.149  34.904  29.658  1.00  0.00     0.091 A 
ATOM     82  F   UNL A   1      44.574  33.900  28.176  1.00  0.00    -0.205 F 
ATOM     83  C   UNL A   1      46.890  34.837  30.849  1.00  0.00     0.022 A 
BRANCH  81  84
ATOM     84  S   UNL A   1      46.389  36.354  28.624  1.00  0.00     0.127 S 
ATOM     85  O   UNL A   1      47.380  37.106  29.392  1.00  0.00    -0.237 OA
ATOM     86  O   UNL A   1      46.895  35.767  27.384  1.00  0.00    -0.237 OA
ATOM     87  O   UNL A   1      45.082  36.988  28.508  1.00  0.00    -0.744 OA
ENDBRANCH  81  84
ENDBRANCH  54  77
ENDBRANCH  28  29
ENDBRANCH  20  23
ENDBRANCH  18  19
ENDBRANCH   1  18
TORSDOF 16
ENDMDL
MODEL 2
REMARK VINA RESULT:     -10.7      4.708      9.601
REMARK SMILES C#CC[C@@H](C(=O)NCCCNC(=O)c1ccc(-c2c3nc(c(-c4cccc(S(=O)(=O)[O-])c4F)c4ccc([nH]4)c(-c4cccc(S(=O)(=O)[O-])c4F)c4nc(c(-c5cccc(S(=O)(=O)[O-])c5F)c5ccc2[nH]5)C=C4)C=C3)cc1)[C@H]1CCS(=O)(=O)C1
REMARK SMILES IDX 9 1 8 2 7 3 5 4 6 5 4 7 3 8 2 9 1 10 77 11 78 12 83 13 79 14
REMARK SMILES IDX 80 15 81 16 82 17 10 18 11 19 12 20 13 22 14 23 15 24 76 25
REMARK SMILES IDX 16 26 75 27 17 28 18 29 19 30 69 31 20 32 74 33 68 34 70 35
REMARK SMILES IDX 21 36 73 37 67 38 66 39 22 41 54 42 34 43 53 44 35 45 38 46
REMARK SMILES IDX 52 47 71 48 36 49 37 50 51 52 72 53 39 54 23 55 24 56 32 57
REMARK SMILES IDX 25 58 27 59 33 60 26 61 28 62 29 63 30 64 31 65 55 66 56 67
REMARK SMILES IDX 64 68 57 69 59 70 65 71 58 72 60 73 61 74 62 75 63 76 40 77
REMARK SMILES IDX 41 78 49 79 42 80 44 81 50 82 43 83 45 84 46 85 47 86 48 87
REMARK H PARENT 7 6 11 21 70 40 38 51
REMARK Flexibility Score: inf
ROOT
ATOM      1  C   UNL A   1      32.878  27.720  24.656  1.00  0.00     0.042 C 
ENDROOT
BRANCH   1   2
ATOM      2  C   UNL A   1      33.599  26.389  24.917  1.00  0.00     0.117 C 
BRANCH   2   3
ATOM      3  N   UNL A   1      33.459  25.510  23.761  1.00  0.00    -0.356 N 
ATOM      4  C   UNL A   1      34.245  24.510  23.268  1.00  0.00     0.224 C 
ATOM      5  O   UNL A   1      34.068  24.225  22.078  1.00  0.00    -0.275 OA
ATOM      6  H   UNL A   1      32.641  25.669  23.238  1.00  0.00     0.163 HD
BRANCH   4   7
ATOM      7  C   UNL A   1      35.220  23.676  24.136  1.00  0.00     0.094 C 
BRANCH   7   8
ATOM      8  C   UNL A   1      36.339  22.983  23.314  1.00  0.00     0.103 C 
BRANCH   8   9
ATOM      9  C   UNL A   1      36.999  21.912  24.167  1.00  0.00    -0.106 C 
ATOM     10  C   UNL A   1      37.565  20.994  24.899  1.00  0.00     0.004 C 
ENDBRANCH   8   9
ENDBRANCH   7   8
BRANCH   7  11
ATOM     11  C   UNL A   1      34.336  22.641  24.911  1.00  0.00     0.018 C 
ATOM     12  C   UNL A   1      34.098  22.937  26.408  1.00  0.00     0.021 C 
ATOM     13  C   UNL A   1      32.930  22.446  24.336  1.00  0.00     0.141 C 
ATOM     14  C   UNL A   1      33.178  21.836  26.931  1.00  0.00     0.137 C 
ATOM     15  S   UNL A   1      32.100  21.429  25.563  1.00  0.00     0.150 S 
ATOM     16  O   UNL A   1      32.294  20.038  25.221  1.00  0.00    -0.229 OA
ATOM     17  O   UNL A   1      30.782  21.982  25.812  1.00  0.00    -0.229 OA
ENDBRANCH   7  11
ENDBRANCH   4   7
ENDBRANCH   2   3
ENDBRANCH   1   2
BRANCH   1  18
ATOM     18  C   UNL A   1      33.726  28.977  24.731  1.00  0.00     0.118 C 
BRANCH  18  19
ATOM     19  N   UNL A   1      32.978  30.069  25.344  1.00  0.00    -0.352 N 
ATOM     20  C   UNL A   1      33.093  30.681  26.574  1.00  0.00     0.251 C 
ATOM     21  H   UNL A   1      32.260  30.435  24.777  1.00  0.00     0.163 HD
ATOM     22  O   UNL A   1      32.122  31.315  26.988  1.00  0.00    -0.269 OA
BRANCH  20  23
ATOM     23  C   UNL A   1      34.325  30.612  27.412  1.00  0.00     0.039 A 
ATOM     24  C   UNL A   1      35.071  31.784  27.627  1.00  0.00     0.014 A 
ATOM     25  C   UNL A   1      34.834  29.408  27.891  1.00  0.00     0.014 A 
ATOM     26  C   UNL A   1      36.292  31.743  28.320  1.00  0.00     0.010 A 
ATOM     27  C   UNL A   1      35.983  29.385  28.682  1.00  0.00     0.010 A 
ATOM     28  C   UNL A   1      36.755  30.540  28.868  1.00  0.00    -0.014 A 
BRANCH  28  29
ATOM     29  C   UNL A   1      38.066  30.408  29.566  1.00  0.00     0.031 A 
ATOM     30  C   UNL A   1      39.135  29.522  28.971  1.00  0.00     0.074 A 
ATOM     31  C   UNL A   1      38.262  30.958  30.781  1.00  0.00     0.049 A 
ATOM     32  N   UNL A   1      40.242  29.076  29.505  1.00  0.00    -0.248 NA
ATOM     33  C   UNL A   1      38.896  29.032  27.602  1.00  0.00     0.031 C 
ATOM     34  C   UNL A   1      37.302  31.798  31.495  1.00  0.00     0.029 A 
ATOM     35  N   UNL A   1      39.321  30.846  31.653  1.00  0.00    -0.354 N 
ATOM     36  C   UNL A   1      40.789  28.198  28.574  1.00  0.00     0.074 A 
ATOM     37  C   UNL A   1      39.873  28.152  27.455  1.00  0.00     0.031 C 
ATOM     38  C   UNL A   1      37.803  32.109  32.702  1.00  0.00     0.029 A 
ATOM     39  C   UNL A   1      39.096  31.453  32.867  1.00  0.00     0.049 A 
ATOM     40  H   UNL A   1      40.157  30.377  31.430  1.00  0.00     0.167 HD
ATOM     41  C   UNL A   1      41.954  27.510  28.628  1.00  0.00     0.034 A 
ATOM     42  C   UNL A   1      39.829  31.453  33.999  1.00  0.00     0.034 A 
ATOM     43  C   UNL A   1      42.889  27.606  29.716  1.00  0.00     0.049 A 
ATOM     44  C   UNL A   1      41.142  30.718  34.030  1.00  0.00     0.074 A 
ATOM     45  C   UNL A   1      44.141  27.029  29.830  1.00  0.00     0.029 A 
ATOM     46  N   UNL A   1      42.671  28.324  30.883  1.00  0.00    -0.354 N 
ATOM     47  N   UNL A   1      41.698  29.986  33.095  1.00  0.00    -0.248 NA
ATOM     48  C   UNL A   1      41.945  30.834  35.256  1.00  0.00     0.031 C 
ATOM     49  C   UNL A   1      44.665  27.370  31.081  1.00  0.00     0.029 A 
ATOM     50  C   UNL A   1      43.761  28.198  31.726  1.00  0.00     0.049 A 
ATOM     51  H   UNL A   1      41.860  28.845  31.082  1.00  0.00     0.167 HD
ATOM     52  C   UNL A   1      42.933  29.594  33.600  1.00  0.00     0.074 A 
ATOM     53  C   UNL A   1      43.044  30.170  34.924  1.00  0.00     0.031 C 
ATOM     54  C   UNL A   1      43.885  28.825  33.017  1.00  0.00     0.034 A 
BRANCH  41  55
ATOM     55  C   UNL A   1      42.295  26.613  27.462  1.00  0.00     0.023 A 
ATOM     56  C   UNL A   1      43.003  27.130  26.357  1.00  0.00     0.012 A 
ATOM     57  C   UNL A   1      41.934  25.250  27.469  1.00  0.00     0.148 A 
ATOM     58  C   UNL A   1      43.288  26.327  25.253  1.00  0.00     0.002 A 
ATOM     59  C   UNL A   1      42.273  24.441  26.390  1.00  0.00     0.091 A 
ATOM     60  F   UNL A   1      41.249  24.774  28.518  1.00  0.00    -0.205 F 
ATOM     61  C   UNL A   1      42.931  24.982  25.274  1.00  0.00     0.022 A 
BRANCH  59  62
ATOM     62  S   UNL A   1      41.938  22.677  26.362  1.00  0.00     0.127 S 
ATOM     63  O   UNL A   1      42.535  22.283  25.087  1.00  0.00    -0.237 OA
ATOM     64  O   UNL A   1      42.662  22.207  27.545  1.00  0.00    -0.237 OA
ATOM     65  O   UNL A   1      40.491  22.543  26.445  1.00  0.00    -0.744 OA
ENDBRANCH  59  62
ENDBRANCH  41  55
BRANCH  42  66
ATOM     66  C   UNL A   1      39.349  32.223  35.183  1.00  0.00     0.023 A 
ATOM     67  C   UNL A   1      38.481  31.608  36.104  1.00  0.00     0.012 A 
ATOM     68  C   UNL A   1      39.798  33.536  35.431  1.00  0.00     0.148 A 
ATOM     69  C   UNL A   1      38.049  32.293  37.240  1.00  0.00     0.002 A 
ATOM     70  C   UNL A   1      39.409  34.191  36.592  1.00  0.00     0.091 A 
ATOM     71  F   UNL A   1      40.621  34.103  34.538  1.00  0.00    -0.205 F 
ATOM     72  C   UNL A   1      38.521  33.578  37.491  1.00  0.00     0.022 A 
BRANCH  70  73
ATOM     73  S   UNL A   1      40.070  35.792  37.069  1.00  0.00     0.127 S 
ATOM     74  O   UNL A   1      39.672  36.629  35.938  1.00  0.00    -0.237 OA
ATOM     75  O   UNL A   1      39.346  36.055  38.314  1.00  0.00    -0.237 OA
ATOM     76  O   UNL A   1      41.503  35.599  37.233  1.00  0.00    -0.744 OA
ENDBRANCH  70  73
ENDBRANCH  42  66
BRANCH  54  77
ATOM     77  C   UNL A   1      45.178  28.610  33.760  1.00  0.00     0.023 A 
ATOM     78  C   UNL A   1      46.170  29.608  33.769  1.00  0.00     0.012 A 
ATOM     79  C   UNL A   1      45.350  27.453  34.549  1.00  0.00     0.148 A 
ATOM     80  C   UNL A   1      47.323  29.450  34.539  1.00  0.00     0.002 A 
ATOM     81  C   UNL A   1      46.474  27.327  35.352  1.00  0.00     0.091 A 
ATOM     82  F   UNL A   1      44.399  26.508  34.510  1.00  0.00    -0.205 F 
ATOM     83  C   UNL A   1      47.468  28.319  35.341  1.00  0.00     0.022 A 
BRANCH  81  84
ATOM     84  S   UNL A   1      46.693  25.959  36.497  1.00  0.00     0.127 S 
ATOM     85  O   UNL A   1      48.133  26.010  36.747  1.00  0.00    -0.237 OA
ATOM     86  O   UNL A   1      45.863  26.368  37.628  1.00  0.00    -0.237 OA
ATOM     87  O   UNL A   1      46.227  24.769  35.799  1.00  0.00    -0.744 OA
ENDBRANCH  81  84
ENDBRANCH  54  77
ENDBRANCH  28  29
ENDBRANCH  20  23
ENDBRANCH  18  19
ENDBRANCH   1  18
TORSDOF 16
ENDMDL
MODEL 3
REMARK VINA RESULT:     -10.7      4.849      9.523
REMARK SMILES C#CC[C@@H](C(=O)NCCCNC(=O)c1ccc(-c2c3nc(c(-c4cccc(S(=O)(=O)[O-])c4F)c4ccc([nH]4)c(-c4cccc(S(=O)(=O)[O-])c4F)c4nc(c(-c5cccc(S(=O)(=O)[O-])c5F)c5ccc2[nH]5)C=C4)C=C3)cc1)[C@H]1CCS(=O)(=O)C1
REMARK SMILES IDX 9 1 8 2 7 3 5 4 6 5 4 7 3 8 2 9 1 10 77 11 78 12 83 13 79 14
REMARK SMILES IDX 80 15 81 16 82 17 10 18 11 19 12 20 13 22 14 23 15 24 76 25
REMARK SMILES IDX 16 26 75 27 17 28 18 29 19 30 69 31 20 32 74 33 68 34 70 35
REMARK SMILES IDX 21 36 73 37 67 38 66 39 22 41 54 42 34 43 53 44 35 45 38 46
REMARK SMILES IDX 52 47 71 48 36 49 37 50 51 52 72 53 39 54 23 55 24 56 32 57
REMARK SMILES IDX 25 58 27 59 33 60 26 61 28 62 29 63 30 64 31 65 55 66 56 67
REMARK SMILES IDX 64 68 57 69 59 70 65 71 58 72 60 73 61 74 62 75 63 76 40 77
REMARK SMILES IDX 41 78 49 79 42 80 44 81 50 82 43 83 45 84 46 85 47 86 48 87
REMARK H PARENT 7 6 11 21 70 40 38 51
REMARK Flexibility Score: inf
ROOT
ATOM      1  C   UNL A   1      33.026  27.656  25.959  1.00  0.00     0.042 C 
ENDROOT
BRANCH   1   2
ATOM      2  C   UNL A   1      31.547  27.657  26.375  1.00  0.00     0.117 C 
BRANCH   2   3
ATOM      3  N   UNL A   1      31.147  26.323  26.807  1.00  0.00    -0.356 N 
ATOM      4  C   UNL A   1      30.827  25.191  26.115  1.00  0.00     0.224 C 
ATOM      5  O   UNL A   1      30.158  24.355  26.733  1.00  0.00    -0.275 OA
ATOM      6  H   UNL A   1      31.099  26.219  27.784  1.00  0.00     0.163 HD
BRANCH   4   7
ATOM      7  C   UNL A   1      31.351  24.877  24.691  1.00  0.00     0.094 C 
BRANCH   7   8
ATOM      8  C   UNL A   1      30.283  25.080  23.584  1.00  0.00     0.103 C 
BRANCH   8   9
ATOM      9  C   UNL A   1      30.294  26.532  23.135  1.00  0.00    -0.106 C 
ATOM     10  C   UNL A   1      30.304  27.777  22.749  1.00  0.00     0.004 C 
ENDBRANCH   8   9
ENDBRANCH   7   8
BRANCH   7  11
ATOM     11  C   UNL A   1      31.879  23.404  24.736  1.00  0.00     0.018 C 
ATOM     12  C   UNL A   1      31.983  22.677  23.378  1.00  0.00     0.021 C 
ATOM     13  C   UNL A   1      33.269  23.242  25.358  1.00  0.00     0.141 C 
ATOM     14  C   UNL A   1      32.562  21.294  23.663  1.00  0.00     0.137 C 
ATOM     15  S   UNL A   1      33.689  21.526  25.032  1.00  0.00     0.150 S 
ATOM     16  O   UNL A   1      33.239  20.719  26.144  1.00  0.00    -0.229 OA
ATOM     17  O   UNL A   1      35.054  21.466  24.543  1.00  0.00    -0.229 OA
ENDBRANCH   7  11
ENDBRANCH   4   7
ENDBRANCH   2   3
ENDBRANCH   1   2
BRANCH   1  18
ATOM     18  C   UNL A   1      33.473  28.774  25.037  1.00  0.00     0.118 C 
BRANCH  18  19
ATOM     19  N   UNL A   1      32.905  30.050  25.460  1.00  0.00    -0.352 N 
ATOM     20  C   UNL A   1      33.120  30.821  26.583  1.00  0.00     0.251 C 
ATOM     21  H   UNL A   1      32.249  30.429  24.830  1.00  0.00     0.163 HD
ATOM     22  O   UNL A   1      32.261  31.653  26.876  1.00  0.00    -0.269 OA
BRANCH  20  23
ATOM     23  C   UNL A   1      34.331  30.695  27.444  1.00  0.00     0.039 A 
ATOM     24  C   UNL A   1      35.161  31.815  27.623  1.00  0.00     0.014 A 
ATOM     25  C   UNL A   1      34.740  29.477  27.981  1.00  0.00     0.014 A 
ATOM     26  C   UNL A   1      36.365  31.712  28.339  1.00  0.00     0.010 A 
ATOM     27  C   UNL A   1      35.873  29.402  28.792  1.00  0.00     0.010 A 
ATOM     28  C   UNL A   1      36.728  30.503  28.944  1.00  0.00    -0.014 A 
BRANCH  28  29
ATOM     29  C   UNL A   1      38.015  30.302  29.670  1.00  0.00     0.031 A 
ATOM     30  C   UNL A   1      39.049  29.361  29.097  1.00  0.00     0.074 A 
ATOM     31  C   UNL A   1      38.214  30.841  30.889  1.00  0.00     0.049 A 
ATOM     32  N   UNL A   1      40.119  28.857  29.654  1.00  0.00    -0.248 NA
ATOM     33  C   UNL A   1      38.813  28.884  27.722  1.00  0.00     0.031 C 
ATOM     34  C   UNL A   1      37.284  31.730  31.584  1.00  0.00     0.029 A 
ATOM     35  N   UNL A   1      39.246  30.674  31.783  1.00  0.00    -0.354 N 
ATOM     36  C   UNL A   1      40.638  27.952  28.734  1.00  0.00     0.074 A 
ATOM     37  C   UNL A   1      39.746  27.953  27.595  1.00  0.00     0.031 C 
ATOM     38  C   UNL A   1      37.774  32.015  32.801  1.00  0.00     0.029 A 
ATOM     39  C   UNL A   1      39.028  31.292  32.993  1.00  0.00     0.049 A 
ATOM     40  H   UNL A   1      40.061  30.162  31.578  1.00  0.00     0.167 HD
ATOM     41  C   UNL A   1      41.765  27.203  28.812  1.00  0.00     0.034 A 
ATOM     42  C   UNL A   1      39.735  31.254  34.141  1.00  0.00     0.034 A 
ATOM     43  C   UNL A   1      42.679  27.251  29.920  1.00  0.00     0.049 A 
ATOM     44  C   UNL A   1      41.007  30.451  34.198  1.00  0.00     0.074 A 
ATOM     45  C   UNL A   1      43.897  26.609  30.059  1.00  0.00     0.029 A 
ATOM     46  N   UNL A   1      42.475  27.979  31.082  1.00  0.00    -0.354 N 
ATOM     47  N   UNL A   1      41.543  29.691  33.275  1.00  0.00    -0.248 NA
ATOM     48  C   UNL A   1      41.789  30.524  35.442  1.00  0.00     0.031 C 
ATOM     49  C   UNL A   1      44.411  26.921  31.322  1.00  0.00     0.029 A 
ATOM     50  C   UNL A   1      43.538  27.796  31.948  1.00  0.00     0.049 A 
ATOM     51  H   UNL A   1      41.688  28.542  31.264  1.00  0.00     0.167 HD
ATOM     52  C   UNL A   1      42.745  29.234  33.806  1.00  0.00     0.074 A 
ATOM     53  C   UNL A   1      42.858  29.803  35.132  1.00  0.00     0.031 C 
ATOM     54  C   UNL A   1      43.668  28.416  33.242  1.00  0.00     0.034 A 
BRANCH  41  55
ATOM     55  C   UNL A   1      42.083  26.289  27.653  1.00  0.00     0.023 A 
ATOM     56  C   UNL A   1      42.785  26.786  26.534  1.00  0.00     0.012 A 
ATOM     57  C   UNL A   1      41.706  24.931  27.679  1.00  0.00     0.148 A 
ATOM     58  C   UNL A   1      43.049  25.967  25.437  1.00  0.00     0.002 A 
ATOM     59  C   UNL A   1      42.024  24.107  26.606  1.00  0.00     0.091 A 
ATOM     60  F   UNL A   1      41.027  24.475  28.740  1.00  0.00    -0.205 F 
ATOM     61  C   UNL A   1      42.677  24.626  25.477  1.00  0.00     0.022 A 
BRANCH  59  62
ATOM     62  S   UNL A   1      41.668  22.346  26.601  1.00  0.00     0.127 S 
ATOM     63  O   UNL A   1      40.206  22.341  26.593  1.00  0.00    -0.237 OA
ATOM     64  O   UNL A   1      42.285  21.911  25.346  1.00  0.00    -0.237 OA
ATOM     65  O   UNL A   1      42.291  21.808  27.801  1.00  0.00    -0.744 OA
ENDBRANCH  59  62
ENDBRANCH  41  55
BRANCH  42  66
ATOM     66  C   UNL A   1      39.271  32.048  35.314  1.00  0.00     0.023 A 
ATOM     67  C   UNL A   1      38.412  31.453  36.257  1.00  0.00     0.012 A 
ATOM     68  C   UNL A   1      39.727  33.364  35.532  1.00  0.00     0.148 A 
ATOM     69  C   UNL A   1      37.995  32.161  37.385  1.00  0.00     0.002 A 
ATOM     70  C   UNL A   1      39.353  34.042  36.685  1.00  0.00     0.091 A 
ATOM     71  F   UNL A   1      40.541  33.911  34.618  1.00  0.00    -0.205 F 
ATOM     72  C   UNL A   1      38.474  33.450  37.605  1.00  0.00     0.022 A 
BRANCH  70  73
ATOM     73  S   UNL A   1      40.024  35.651  37.122  1.00  0.00     0.127 S 
ATOM     74  O   UNL A   1      39.662  36.453  35.956  1.00  0.00    -0.237 OA
ATOM     75  O   UNL A   1      39.276  35.963  38.341  1.00  0.00    -0.237 OA
ATOM     76  O   UNL A   1      41.451  35.445  37.325  1.00  0.00    -0.744 OA
ENDBRANCH  70  73
ENDBRANCH  42  66
BRANCH  54  77
ATOM     77  C   UNL A   1      44.931  28.133  34.012  1.00  0.00     0.023 A 
ATOM     78  C   UNL A   1      46.036  28.999  33.913  1.00  0.00     0.012 A 
ATOM     79  C   UNL A   1      44.970  27.063  34.930  1.00  0.00     0.148 A 
ATOM     80  C   UNL A   1      47.168  28.793  34.702  1.00  0.00     0.002 A 
ATOM     81  C   UNL A   1      46.077  26.895  35.749  1.00  0.00     0.091 A 
ATOM     82  F   UNL A   1      43.911  26.240  34.994  1.00  0.00    -0.205 F 
ATOM     83  C   UNL A   1      47.183  27.752  35.630  1.00  0.00     0.022 A 
BRANCH  81  84
ATOM     84  S   UNL A   1      46.140  25.651  37.044  1.00  0.00     0.127 S 
ATOM     85  O   UNL A   1      47.294  26.094  37.825  1.00  0.00    -0.237 OA
ATOM     86  O   UNL A   1      44.849  25.831  37.707  1.00  0.00    -0.237 OA
ATOM     87  O   UNL A   1      46.303  24.371  36.368  1.00  0.00    -0.744 OA
ENDBRANCH  81  84
ENDBRANCH  54  77
ENDBRANCH  28  29
ENDBRANCH  20  23
ENDBRANCH  18  19
ENDBRANCH   1  18
TORSDOF 16
ENDMDL
