MODEL 1
REMARK VINA RESULT:     -13.3      0.000      0.000
REMARK SMILES CC(C)=C1[C@H]2CC[C@@H]1[C@@H](C(=O)Nc1cc(C)cc(C)c1)[C@@H]2C(=O)NCCCNC(=O)c1ccc(-c2c3nc(c(-c4cccc(S(=O)(=O)[O-])c4F)c4ccc([nH]4)c(-c4cccc(S(=O)(=O)[O-])c4F)c4nc(c(-c5cccc(S(=O)(=O)[O-])c5F)c5ccc2[nH]5)C=C4)C=C3)cc1
REMARK SMILES IDX 26 1 25 2 24 3 22 4 23 5 21 7 1 8 2 9 3 10 4 11 5 12 8 13
REMARK SMILES IDX 6 14 7 15 9 16 10 17 11 18 12 19 13 21 14 22 20 23 15 24
REMARK SMILES IDX 18 25 16 26 17 27 19 28 27 29 28 30 29 31 30 33 31 34 32 35
REMARK SMILES IDX 93 36 33 37 92 38 34 39 35 40 36 41 86 42 37 43 91 44 85 45
REMARK SMILES IDX 87 46 38 47 90 48 84 49 83 50 39 52 71 53 51 54 70 55 52 56
REMARK SMILES IDX 55 57 69 58 88 59 53 60 54 61 68 63 89 64 56 65 40 66 41 67
REMARK SMILES IDX 49 68 42 69 44 70 50 71 43 72 45 73 46 74 47 75 48 76 72 77
REMARK SMILES IDX 73 78 81 79 74 80 76 81 82 82 75 83 77 84 78 85 79 86 80 87
REMARK SMILES IDX 57 88 58 89 66 90 59 91 61 92 67 93 60 94 62 95 63 96 64 97
REMARK SMILES IDX 65 98
REMARK H PARENT 24 6 12 20 28 32 87 51 55 62
REMARK Flexibility Score: inf
ROOT
ATOM      1  C   UNL A   1      36.004  22.579  24.464  1.00  0.00     0.042 C 
ENDROOT
BRANCH   1   2
ATOM      2  C   UNL A   1      35.375  23.957  24.263  1.00  0.00     0.117 C 
BRANCH   2   3
ATOM      3  N   UNL A   1      33.960  23.871  23.956  1.00  0.00    -0.356 N 
ATOM      4  C   UNL A   1      32.962  24.793  24.008  1.00  0.00     0.224 C 
ATOM      5  O   UNL A   1      31.848  24.402  23.655  1.00  0.00    -0.275 OA
ATOM      6  H   UNL A   1      33.668  22.981  23.653  1.00  0.00     0.163 HD
BRANCH   4   7
ATOM      7  C   UNL A   1      33.239  26.256  24.357  1.00  0.00     0.098 C 
ATOM      8  C   UNL A   1      33.050  30.497  26.469  1.00  0.00     0.039 C 
ATOM      9  C   UNL A   1      33.625  29.107  26.464  1.00  0.00    -0.077 C 
ATOM     10  C   UNL A   1      34.885  28.932  27.266  1.00  0.00     0.039 C 
ATOM     11  C   UNL A   1      33.017  28.075  25.855  1.00  0.00    -0.064 C 
ATOM     12  C   UNL A   1      33.324  26.599  25.858  1.00  0.00     0.028 C 
ATOM     13  C   UNL A   1      31.715  28.003  25.112  1.00  0.00     0.028 C 
ATOM     14  C   UNL A   1      32.067  26.129  26.603  1.00  0.00     0.009 C 
ATOM     15  C   UNL A   1      30.971  27.085  26.100  1.00  0.00     0.009 C 
ATOM     16  C   UNL A   1      32.109  27.191  23.856  1.00  0.00     0.099 C 
BRANCH  16  17
ATOM     17  C   UNL A   1      32.265  28.090  22.618  1.00  0.00     0.228 C 
ATOM     18  O   UNL A   1      33.334  28.043  21.988  1.00  0.00    -0.274 OA
ATOM     19  N   UNL A   1      31.267  28.779  22.000  1.00  0.00    -0.326 N 
ATOM     20  H   UNL A   1      31.435  28.939  21.044  1.00  0.00     0.169 HD
BRANCH  19  21
ATOM     21  C   UNL A   1      30.056  29.303  22.447  1.00  0.00     0.041 A 
ATOM     22  C   UNL A   1      29.017  28.494  22.892  1.00  0.00     0.029 A 
ATOM     23  C   UNL A   1      29.930  30.691  22.534  1.00  0.00     0.029 A 
ATOM     24  C   UNL A   1      27.780  29.045  23.239  1.00  0.00    -0.049 A 
ATOM     25  C   UNL A   1      28.709  31.268  22.905  1.00  0.00    -0.049 A 
ATOM     26  C   UNL A   1      26.600  28.155  23.499  1.00  0.00     0.044 C 
ATOM     27  C   UNL A   1      27.631  30.436  23.232  1.00  0.00     0.007 A 
ATOM     28  C   UNL A   1      28.513  32.753  22.833  1.00  0.00     0.044 C 
ENDBRANCH  19  21
ENDBRANCH  16  17
ENDBRANCH   4   7
ENDBRANCH   2   3
ENDBRANCH   1   2
BRANCH   1  29
ATOM     29  C   UNL A   1      36.420  22.298  25.906  1.00  0.00     0.118 C 
BRANCH  29  30
ATOM     30  N   UNL A   1      37.481  21.305  25.971  1.00  0.00    -0.352 N 
ATOM     31  C   UNL A   1      38.835  21.495  26.113  1.00  0.00     0.251 C 
ATOM     32  H   UNL A   1      37.188  20.367  25.904  1.00  0.00     0.163 HD
ATOM     33  O   UNL A   1      39.599  20.567  25.859  1.00  0.00    -0.269 OA
BRANCH  31  34
ATOM     34  C   UNL A   1      39.375  22.798  26.568  1.00  0.00     0.039 A 
ATOM     35  C   UNL A   1      38.954  23.968  25.928  1.00  0.00     0.014 A 
ATOM     36  C   UNL A   1      40.346  22.870  27.571  1.00  0.00     0.014 A 
ATOM     37  C   UNL A   1      39.489  25.205  26.307  1.00  0.00     0.010 A 
ATOM     38  C   UNL A   1      40.822  24.109  27.999  1.00  0.00     0.010 A 
ATOM     39  C   UNL A   1      40.422  25.288  27.352  1.00  0.00    -0.014 A 
BRANCH  39  40
ATOM     40  C   UNL A   1      41.033  26.587  27.748  1.00  0.00     0.031 A 
ATOM     41  C   UNL A   1      42.480  26.865  27.425  1.00  0.00     0.074 A 
ATOM     42  C   UNL A   1      40.318  27.486  28.451  1.00  0.00     0.049 A 
ATOM     43  N   UNL A   1      43.213  27.902  27.740  1.00  0.00    -0.248 NA
ATOM     44  C   UNL A   1      43.209  25.827  26.676  1.00  0.00     0.031 C 
ATOM     45  C   UNL A   1      38.931  27.311  28.887  1.00  0.00     0.029 A 
ATOM     46  N   UNL A   1      40.668  28.718  28.946  1.00  0.00    -0.354 N 
ATOM     47  C   UNL A   1      44.491  27.624  27.268  1.00  0.00     0.074 A 
ATOM     48  C   UNL A   1      44.445  26.305  26.676  1.00  0.00     0.031 C 
ATOM     49  C   UNL A   1      38.547  28.397  29.578  1.00  0.00     0.029 A 
ATOM     50  C   UNL A   1      39.663  29.335  29.655  1.00  0.00     0.049 A 
ATOM     51  H   UNL A   1      41.554  29.124  28.805  1.00  0.00     0.167 HD
ATOM     52  C   UNL A   1      45.597  28.406  27.288  1.00  0.00     0.034 A 
ATOM     53  C   UNL A   1      39.643  30.521  30.296  1.00  0.00     0.034 A 
ATOM     54  C   UNL A   1      45.627  29.742  27.817  1.00  0.00     0.049 A 
ATOM     55  C   UNL A   1      40.869  31.397  30.253  1.00  0.00     0.074 A 
ATOM     56  C   UNL A   1      46.674  30.647  27.813  1.00  0.00     0.029 A 
ATOM     57  N   UNL A   1      44.558  30.371  28.435  1.00  0.00    -0.354 N 
ATOM     58  N   UNL A   1      42.023  31.174  29.672  1.00  0.00    -0.248 NA
ATOM     59  C   UNL A   1      40.774  32.706  30.916  1.00  0.00     0.031 C 
ATOM     60  C   UNL A   1      46.239  31.822  28.435  1.00  0.00     0.029 A 
ATOM     61  C   UNL A   1      44.916  31.652  28.814  1.00  0.00     0.049 A 
ATOM     62  H   UNL A   1      43.673  29.965  28.584  1.00  0.00     0.167 HD
ATOM     63  C   UNL A   1      42.776  32.327  29.865  1.00  0.00     0.074 A 
ATOM     64  C   UNL A   1      41.941  33.254  30.599  1.00  0.00     0.031 C 
ATOM     65  C   UNL A   1      44.050  32.588  29.483  1.00  0.00     0.034 A 
BRANCH  52  66
ATOM     66  C   UNL A   1      46.852  27.860  26.656  1.00  0.00     0.023 A 
ATOM     67  C   UNL A   1      47.779  27.160  27.455  1.00  0.00     0.012 A 
ATOM     68  C   UNL A   1      47.091  27.989  25.274  1.00  0.00     0.148 A 
ATOM     69  C   UNL A   1      48.942  26.631  26.897  1.00  0.00     0.002 A 
ATOM     70  C   UNL A   1      48.232  27.421  24.717  1.00  0.00     0.091 A 
ATOM     71  F   UNL A   1      46.210  28.675  24.532  1.00  0.00    -0.205 F 
ATOM     72  C   UNL A   1      49.164  26.752  25.529  1.00  0.00     0.022 A 
BRANCH  70  73
ATOM     73  S   UNL A   1      48.571  27.454  22.953  1.00  0.00     0.127 S 
ATOM     74  O   UNL A   1      49.857  28.148  22.912  1.00  0.00    -0.237 OA
ATOM     75  O   UNL A   1      48.635  26.030  22.623  1.00  0.00    -0.237 OA
ATOM     76  O   UNL A   1      47.454  28.167  22.346  1.00  0.00    -0.744 OA
ENDBRANCH  70  73
ENDBRANCH  52  66
BRANCH  53  77
ATOM     77  C   UNL A   1      38.393  30.991  30.958  1.00  0.00     0.023 A 
ATOM     78  C   UNL A   1      38.242  30.809  32.347  1.00  0.00     0.012 A 
ATOM     79  C   UNL A   1      37.370  31.637  30.236  1.00  0.00     0.148 A 
ATOM     80  C   UNL A   1      37.082  31.229  32.999  1.00  0.00     0.002 A 
ATOM     81  C   UNL A   1      36.241  32.101  30.902  1.00  0.00     0.091 A 
ATOM     82  F   UNL A   1      37.524  31.787  28.913  1.00  0.00    -0.205 F 
ATOM     83  C   UNL A   1      36.087  31.885  32.280  1.00  0.00     0.022 A 
BRANCH  81  84
ATOM     84  S   UNL A   1      34.974  33.070  30.076  1.00  0.00     0.127 S 
ATOM     85  O   UNL A   1      35.757  34.158  29.496  1.00  0.00    -0.237 OA
ATOM     86  O   UNL A   1      34.439  32.111  29.107  1.00  0.00    -0.237 OA
ATOM     87  O   UNL A   1      34.032  33.449  31.121  1.00  0.00    -0.744 OA
ENDBRANCH  81  84
ENDBRANCH  53  77
BRANCH  65  88
ATOM     88  C   UNL A   1      44.614  33.947  29.806  1.00  0.00     0.023 A 
ATOM     89  C   UNL A   1      45.292  34.150  31.024  1.00  0.00     0.012 A 
ATOM     90  C   UNL A   1      44.542  34.996  28.868  1.00  0.00     0.148 A 
ATOM     91  C   UNL A   1      45.866  35.387  31.315  1.00  0.00     0.002 A 
ATOM     92  C   UNL A   1      45.157  36.211  29.147  1.00  0.00     0.091 A 
ATOM     93  F   UNL A   1      43.874  34.789  27.724  1.00  0.00    -0.205 F 
ATOM     94  C   UNL A   1      45.809  36.412  30.374  1.00  0.00     0.022 A 
BRANCH  92  95
ATOM     95  S   UNL A   1      45.212  37.553  27.952  1.00  0.00     0.127 S 
ATOM     96  O   UNL A   1      43.795  37.880  27.805  1.00  0.00    -0.237 OA
ATOM     97  O   UNL A   1      46.002  38.565  28.655  1.00  0.00    -0.237 OA
ATOM     98  O   UNL A   1      45.857  37.004  26.767  1.00  0.00    -0.744 OA
ENDBRANCH  92  95
ENDBRANCH  65  88
ENDBRANCH  39  40
ENDBRANCH  31  34
ENDBRANCH  29  30
ENDBRANCH   1  29
TORSDOF 15
ENDMDL
MODEL 2
REMARK VINA RESULT:     -13.2      5.154     10.247
REMARK SMILES CC(C)=C1[C@H]2CC[C@@H]1[C@@H](C(=O)Nc1cc(C)cc(C)c1)[C@@H]2C(=O)NCCCNC(=O)c1ccc(-c2c3nc(c(-c4cccc(S(=O)(=O)[O-])c4F)c4ccc([nH]4)c(-c4cccc(S(=O)(=O)[O-])c4F)c4nc(c(-c5cccc(S(=O)(=O)[O-])c5F)c5ccc2[nH]5)C=C4)C=C3)cc1
REMARK SMILES IDX 26 1 25 2 24 3 22 4 23 5 21 7 1 8 2 9 3 10 4 11 5 12 8 13
REMARK SMILES IDX 6 14 7 15 9 16 10 17 11 18 12 19 13 21 14 22 20 23 15 24
REMARK SMILES IDX 18 25 16 26 17 27 19 28 27 29 28 30 29 31 30 33 31 34 32 35
REMARK SMILES IDX 93 36 33 37 92 38 34 39 35 40 36 41 86 42 37 43 91 44 85 45
REMARK SMILES IDX 87 46 38 47 90 48 84 49 83 50 39 52 71 53 51 54 70 55 52 56
REMARK SMILES IDX 55 57 69 58 88 59 53 60 54 61 68 63 89 64 56 65 40 66 41 67
REMARK SMILES IDX 49 68 42 69 44 70 50 71 43 72 45 73 46 74 47 75 48 76 72 77
REMARK SMILES IDX 73 78 81 79 74 80 76 81 82 82 75 83 77 84 78 85 79 86 80 87
REMARK SMILES IDX 57 88 58 89 66 90 59 91 61 92 67 93 60 94 62 95 63 96 64 97
REMARK SMILES IDX 65 98
REMARK H PARENT 24 6 12 20 28 32 87 51 55 62
REMARK Flexibility Score: inf
ROOT
ATOM      1  C   UNL A   1      32.705  28.249  26.054  1.00  0.00     0.042 C 
ENDROOT
BRANCH   1   2
ATOM      2  C   UNL A   1      32.904  26.811  26.531  1.00  0.00     0.117 C 
BRANCH   2   3
ATOM      3  N   UNL A   1      32.062  25.876  25.810  1.00  0.00    -0.356 N 
ATOM      4  C   UNL A   1      32.274  24.601  25.390  1.00  0.00     0.224 C 
ATOM      5  O   UNL A   1      31.330  24.061  24.809  1.00  0.00    -0.275 OA
ATOM      6  H   UNL A   1      31.171  26.230  25.584  1.00  0.00     0.163 HD
BRANCH   4   7
ATOM      7  C   UNL A   1      33.556  23.845  25.736  1.00  0.00     0.098 C 
ATOM      8  C   UNL A   1      37.672  21.526  25.319  1.00  0.00     0.039 C 
ATOM      9  C   UNL A   1      36.966  22.852  25.411  1.00  0.00    -0.077 C 
ATOM     10  C   UNL A   1      37.834  24.014  25.806  1.00  0.00     0.039 C 
ATOM     11  C   UNL A   1      35.671  23.006  25.084  1.00  0.00    -0.064 C 
ATOM     12  C   UNL A   1      34.822  24.244  24.950  1.00  0.00     0.028 C 
ATOM     13  C   UNL A   1      34.669  22.021  24.560  1.00  0.00     0.028 C 
ATOM     14  C   UNL A   1      34.578  24.163  23.436  1.00  0.00     0.009 C 
ATOM     15  C   UNL A   1      34.477  22.651  23.168  1.00  0.00     0.009 C 
ATOM     16  C   UNL A   1      33.431  22.330  25.436  1.00  0.00     0.099 C 
BRANCH  16  17
ATOM     17  C   UNL A   1      33.235  21.279  26.542  1.00  0.00     0.228 C 
ATOM     18  O   UNL A   1      33.147  21.671  27.718  1.00  0.00    -0.274 OA
ATOM     19  N   UNL A   1      32.924  19.967  26.352  1.00  0.00    -0.326 N 
ATOM     20  H   UNL A   1      32.440  19.565  27.109  1.00  0.00     0.169 HD
BRANCH  19  21
ATOM     21  C   UNL A   1      33.150  19.079  25.303  1.00  0.00     0.041 A 
ATOM     22  C   UNL A   1      32.657  19.302  24.022  1.00  0.00     0.029 A 
ATOM     23  C   UNL A   1      33.980  17.981  25.536  1.00  0.00     0.029 A 
ATOM     24  C   UNL A   1      32.816  18.344  23.017  1.00  0.00    -0.049 A 
ATOM     25  C   UNL A   1      34.178  17.020  24.537  1.00  0.00    -0.049 A 
ATOM     26  C   UNL A   1      32.091  18.487  21.712  1.00  0.00     0.044 C 
ATOM     27  C   UNL A   1      33.571  17.197  23.287  1.00  0.00     0.007 A 
ATOM     28  C   UNL A   1      34.924  15.753  24.833  1.00  0.00     0.044 C 
ENDBRANCH  19  21
ENDBRANCH  16  17
ENDBRANCH   4   7
ENDBRANCH   2   3
ENDBRANCH   1   2
BRANCH   1  29
ATOM     29  C   UNL A   1      34.000  29.055  25.975  1.00  0.00     0.118 C 
BRANCH  29  30
ATOM     30  N   UNL A   1      33.853  30.363  26.593  1.00  0.00    -0.352 N 
ATOM     31  C   UNL A   1      34.556  30.907  27.641  1.00  0.00     0.251 C 
ATOM     32  H   UNL A   1      33.153  30.937  26.207  1.00  0.00     0.163 HD
ATOM     33  O   UNL A   1      34.108  31.899  28.212  1.00  0.00    -0.269 OA
BRANCH  31  34
ATOM     34  C   UNL A   1      35.841  30.315  28.083  1.00  0.00     0.039 A 
ATOM     35  C   UNL A   1      35.908  29.696  29.335  1.00  0.00     0.014 A 
ATOM     36  C   UNL A   1      36.997  30.429  27.306  1.00  0.00     0.014 A 
ATOM     37  C   UNL A   1      37.123  29.174  29.795  1.00  0.00     0.010 A 
ATOM     38  C   UNL A   1      38.189  29.842  27.731  1.00  0.00     0.010 A 
ATOM     39  C   UNL A   1      38.273  29.235  28.993  1.00  0.00    -0.014 A 
BRANCH  39  40
ATOM     40  C   UNL A   1      39.585  28.722  29.474  1.00  0.00     0.031 A 
ATOM     41  C   UNL A   1      40.307  29.434  30.591  1.00  0.00     0.074 A 
ATOM     42  C   UNL A   1      40.160  27.663  28.873  1.00  0.00     0.049 A 
ATOM     43  N   UNL A   1      41.483  29.185  31.107  1.00  0.00    -0.248 NA
ATOM     44  C   UNL A   1      39.630  30.599  31.187  1.00  0.00     0.031 C 
ATOM     45  C   UNL A   1      39.601  26.926  27.738  1.00  0.00     0.029 A 
ATOM     46  N   UNL A   1      41.359  27.037  29.116  1.00  0.00    -0.354 N 
ATOM     47  C   UNL A   1      41.705  30.182  32.052  1.00  0.00     0.074 A 
ATOM     48  C   UNL A   1      40.557  31.062  32.013  1.00  0.00     0.031 C 
ATOM     49  C   UNL A   1      40.451  25.946  27.387  1.00  0.00     0.029 A 
ATOM     50  C   UNL A   1      41.624  25.997  28.254  1.00  0.00     0.049 A 
ATOM     51  H   UNL A   1      41.970  27.306  29.839  1.00  0.00     0.167 HD
ATOM     52  C   UNL A   1      42.748  30.336  32.901  1.00  0.00     0.034 A 
ATOM     53  C   UNL A   1      42.692  25.178  28.172  1.00  0.00     0.034 A 
ATOM     54  C   UNL A   1      43.857  29.425  32.985  1.00  0.00     0.049 A 
ATOM     55  C   UNL A   1      43.812  25.334  29.168  1.00  0.00     0.074 A 
ATOM     56  C   UNL A   1      44.924  29.445  33.866  1.00  0.00     0.029 A 
ATOM     57  N   UNL A   1      44.038  28.324  32.164  1.00  0.00    -0.354 N 
ATOM     58  N   UNL A   1      43.931  26.195  30.149  1.00  0.00    -0.248 NA
ATOM     59  C   UNL A   1      44.925  24.377  29.072  1.00  0.00     0.031 C 
ATOM     60  C   UNL A   1      45.754  28.358  33.572  1.00  0.00     0.029 A 
ATOM     61  C   UNL A   1      45.195  27.653  32.518  1.00  0.00     0.049 A 
ATOM     62  H   UNL A   1      43.432  28.057  31.435  1.00  0.00     0.167 HD
ATOM     63  C   UNL A   1      45.107  25.859  30.810  1.00  0.00     0.074 A 
ATOM     64  C   UNL A   1      45.655  24.705  30.130  1.00  0.00     0.031 C 
ATOM     65  C   UNL A   1      45.690  26.464  31.875  1.00  0.00     0.034 A 
BRANCH  52  66
ATOM     66  C   UNL A   1      42.704  31.497  33.862  1.00  0.00     0.023 A 
ATOM     67  C   UNL A   1      43.239  32.740  33.466  1.00  0.00     0.012 A 
ATOM     68  C   UNL A   1      42.091  31.380  35.124  1.00  0.00     0.148 A 
ATOM     69  C   UNL A   1      43.201  33.837  34.325  1.00  0.00     0.002 A 
ATOM     70  C   UNL A   1      42.018  32.490  35.959  1.00  0.00     0.091 A 
ATOM     71  F   UNL A   1      41.605  30.186  35.493  1.00  0.00    -0.205 F 
ATOM     72  C   UNL A   1      42.583  33.716  35.566  1.00  0.00     0.022 A 
BRANCH  70  73
ATOM     73  S   UNL A   1      41.173  32.458  37.545  1.00  0.00     0.127 S 
ATOM     74  O   UNL A   1      41.195  33.871  37.919  1.00  0.00    -0.237 OA
ATOM     75  O   UNL A   1      39.852  31.943  37.181  1.00  0.00    -0.237 OA
ATOM     76  O   UNL A   1      41.956  31.571  38.395  1.00  0.00    -0.744 OA
ENDBRANCH  70  73
ENDBRANCH  52  66
BRANCH  53  77
ATOM     77  C   UNL A   1      42.714  24.079  27.165  1.00  0.00     0.023 A 
ATOM     78  C   UNL A   1      43.360  24.293  25.931  1.00  0.00     0.012 A 
ATOM     79  C   UNL A   1      42.130  22.825  27.425  1.00  0.00     0.148 A 
ATOM     80  C   UNL A   1      43.394  23.290  24.961  1.00  0.00     0.002 A 
ATOM     81  C   UNL A   1      42.215  21.812  26.475  1.00  0.00     0.091 A 
ATOM     82  F   UNL A   1      41.507  22.644  28.597  1.00  0.00    -0.205 F 
ATOM     83  C   UNL A   1      42.832  22.047  25.237  1.00  0.00     0.022 A 
BRANCH  81  84
ATOM     84  S   UNL A   1      41.633  20.143  26.800  1.00  0.00     0.127 S 
ATOM     85  O   UNL A   1      42.570  19.693  27.826  1.00  0.00    -0.237 OA
ATOM     86  O   UNL A   1      40.269  20.383  27.273  1.00  0.00    -0.237 OA
ATOM     87  O   UNL A   1      41.707  19.450  25.520  1.00  0.00    -0.744 OA
ENDBRANCH  81  84
ENDBRANCH  53  77
BRANCH  65  88
ATOM     88  C   UNL A   1      46.966  25.866  32.408  1.00  0.00     0.023 A 
ATOM     89  C   UNL A   1      48.208  26.335  31.938  1.00  0.00     0.012 A 
ATOM     90  C   UNL A   1      46.932  24.900  33.433  1.00  0.00     0.148 A 
ATOM     91  C   UNL A   1      49.398  25.829  32.459  1.00  0.00     0.002 A 
ATOM     92  C   UNL A   1      48.123  24.435  33.980  1.00  0.00     0.091 A 
ATOM     93  F   UNL A   1      45.740  24.451  33.853  1.00  0.00    -0.205 F 
ATOM     94  C   UNL A   1      49.356  24.890  33.487  1.00  0.00     0.022 A 
BRANCH  92  95
ATOM     95  S   UNL A   1      48.158  23.296  35.370  1.00  0.00     0.127 S 
ATOM     96  O   UNL A   1      47.420  24.043  36.386  1.00  0.00    -0.237 OA
ATOM     97  O   UNL A   1      47.453  22.130  34.836  1.00  0.00    -0.237 OA
ATOM     98  O   UNL A   1      49.568  23.065  35.659  1.00  0.00    -0.744 OA
ENDBRANCH  92  95
ENDBRANCH  65  88
ENDBRANCH  39  40
ENDBRANCH  31  34
ENDBRANCH  29  30
ENDBRANCH   1  29
TORSDOF 15
ENDMDL
MODEL 3
REMARK VINA RESULT:     -13.1      5.572      8.326
REMARK SMILES CC(C)=C1[C@H]2CC[C@@H]1[C@@H](C(=O)Nc1cc(C)cc(C)c1)[C@@H]2C(=O)NCCCNC(=O)c1ccc(-c2c3nc(c(-c4cccc(S(=O)(=O)[O-])c4F)c4ccc([nH]4)c(-c4cccc(S(=O)(=O)[O-])c4F)c4nc(c(-c5cccc(S(=O)(=O)[O-])c5F)c5ccc2[nH]5)C=C4)C=C3)cc1
REMARK SMILES IDX 26 1 25 2 24 3 22 4 23 5 21 7 1 8 2 9 3 10 4 11 5 12 8 13
REMARK SMILES IDX 6 14 7 15 9 16 10 17 11 18 12 19 13 21 14 22 20 23 15 24
REMARK SMILES IDX 18 25 16 26 17 27 19 28 27 29 28 30 29 31 30 33 31 34 32 35
REMARK SMILES IDX 93 36 33 37 92 38 34 39 35 40 36 41 86 42 37 43 91 44 85 45
REMARK SMILES IDX 87 46 38 47 90 48 84 49 83 50 39 52 71 53 51 54 70 55 52 56
REMARK SMILES IDX 55 57 69 58 88 59 53 60 54 61 68 63 89 64 56 65 40 66 41 67
REMARK SMILES IDX 49 68 42 69 44 70 50 71 43 72 45 73 46 74 47 75 48 76 72 77
REMARK SMILES IDX 73 78 81 79 74 80 76 81 82 82 75 83 77 84 78 85 79 86 80 87
REMARK SMILES IDX 57 88 58 89 66 90 59 91 61 92 67 93 60 94 62 95 63 96 64 97
REMARK SMILES IDX 65 98
REMARK H PARENT 24 6 12 20 28 32 87 51 55 62
REMARK Flexibility Score: inf
ROOT
ATOM      1  C   UNL A   1      31.331  32.280  26.621  1.00  0.00     0.042 C 
ENDROOT
BRANCH   1   2
ATOM      2  C   UNL A   1      31.489  30.859  26.083  1.00  0.00     0.117 C 
BRANCH   2   3
ATOM      3  N   UNL A   1      32.838  30.355  26.262  1.00  0.00    -0.356 N 
ATOM      4  C   UNL A   1      33.420  29.177  25.916  1.00  0.00     0.224 C 
ATOM      5  O   UNL A   1      34.615  29.063  26.195  1.00  0.00    -0.275 OA
ATOM      6  H   UNL A   1      33.444  30.984  26.716  1.00  0.00     0.163 HD
BRANCH   4   7
ATOM      7  C   UNL A   1      32.668  28.116  25.113  1.00  0.00     0.098 C 
ATOM      8  C   UNL A   1      31.283  23.933  23.360  1.00  0.00     0.039 C 
ATOM      9  C   UNL A   1      31.166  24.946  24.466  1.00  0.00    -0.077 C 
ATOM     10  C   UNL A   1      29.931  24.829  25.314  1.00  0.00     0.039 C 
ATOM     11  C   UNL A   1      32.132  25.842  24.731  1.00  0.00    -0.064 C 
ATOM     12  C   UNL A   1      32.294  26.822  25.864  1.00  0.00     0.028 C 
ATOM     13  C   UNL A   1      33.476  26.051  24.096  1.00  0.00     0.028 C 
ATOM     14  C   UNL A   1      33.531  26.185  26.513  1.00  0.00     0.009 C 
ATOM     15  C   UNL A   1      34.336  25.656  25.312  1.00  0.00     0.009 C 
ATOM     16  C   UNL A   1      33.510  27.589  23.923  1.00  0.00     0.099 C 
BRANCH  16  17
ATOM     17  C   UNL A   1      33.242  28.008  22.468  1.00  0.00     0.228 C 
ATOM     18  O   UNL A   1      34.188  27.979  21.663  1.00  0.00    -0.274 OA
ATOM     19  N   UNL A   1      32.017  28.199  21.904  1.00  0.00    -0.326 N 
ATOM     20  H   UNL A   1      32.005  28.046  20.932  1.00  0.00     0.169 HD
BRANCH  19  21
ATOM     21  C   UNL A   1      30.779  28.566  22.425  1.00  0.00     0.041 A 
ATOM     22  C   UNL A   1      30.401  29.896  22.572  1.00  0.00     0.029 A 
ATOM     23  C   UNL A   1      29.860  27.557  22.716  1.00  0.00     0.029 A 
ATOM     24  C   UNL A   1      29.193  30.233  23.189  1.00  0.00    -0.049 A 
ATOM     25  C   UNL A   1      28.631  27.869  23.311  1.00  0.00    -0.049 A 
ATOM     26  C   UNL A   1      28.897  31.659  23.548  1.00  0.00     0.044 C 
ATOM     27  C   UNL A   1      28.316  29.210  23.567  1.00  0.00     0.007 A 
ATOM     28  C   UNL A   1      27.713  26.782  23.786  1.00  0.00     0.044 C 
ENDBRANCH  19  21
ENDBRANCH  16  17
ENDBRANCH   4   7
ENDBRANCH   2   3
ENDBRANCH   1   2
BRANCH   1  29
ATOM     29  C   UNL A   1      32.527  32.765  27.437  1.00  0.00     0.118 C 
BRANCH  29  30
ATOM     30  N   UNL A   1      32.465  34.199  27.675  1.00  0.00    -0.352 N 
ATOM     31  C   UNL A   1      33.097  34.943  28.643  1.00  0.00     0.251 C 
ATOM     32  H   UNL A   1      31.890  34.706  27.057  1.00  0.00     0.163 HD
ATOM     33  O   UNL A   1      32.705  36.085  28.871  1.00  0.00    -0.269 OA
BRANCH  31  34
ATOM     34  C   UNL A   1      34.239  34.384  29.405  1.00  0.00     0.039 A 
ATOM     35  C   UNL A   1      35.526  34.480  28.867  1.00  0.00     0.014 A 
ATOM     36  C   UNL A   1      34.043  33.704  30.610  1.00  0.00     0.014 A 
ATOM     37  C   UNL A   1      36.613  33.916  29.545  1.00  0.00     0.010 A 
ATOM     38  C   UNL A   1      35.136  33.209  31.322  1.00  0.00     0.010 A 
ATOM     39  C   UNL A   1      36.429  33.283  30.783  1.00  0.00    -0.014 A 
BRANCH  39  40
ATOM     40  C   UNL A   1      37.562  32.642  31.506  1.00  0.00     0.031 A 
ATOM     41  C   UNL A   1      38.295  31.483  30.876  1.00  0.00     0.074 A 
ATOM     42  C   UNL A   1      37.893  33.050  32.746  1.00  0.00     0.049 A 
ATOM     43  N   UNL A   1      39.261  30.751  31.368  1.00  0.00    -0.248 NA
ATOM     44  C   UNL A   1      37.865  31.074  29.528  1.00  0.00     0.031 C 
ATOM     45  C   UNL A   1      37.220  34.113  33.495  1.00  0.00     0.029 A 
ATOM     46  N   UNL A   1      38.863  32.601  33.607  1.00  0.00    -0.354 N 
ATOM     47  C   UNL A   1      39.523  29.774  30.413  1.00  0.00     0.074 A 
ATOM     48  C   UNL A   1      38.590  29.983  29.328  1.00  0.00     0.031 C 
ATOM     49  C   UNL A   1      37.801  34.238  34.700  1.00  0.00     0.029 A 
ATOM     50  C   UNL A   1      38.871  33.252  34.820  1.00  0.00     0.049 A 
ATOM     51  H   UNL A   1      39.496  31.882  33.379  1.00  0.00     0.167 HD
ATOM     52  C   UNL A   1      40.476  28.811  30.417  1.00  0.00     0.034 A 
ATOM     53  C   UNL A   1      39.650  33.073  35.905  1.00  0.00     0.034 A 
ATOM     54  C   UNL A   1      41.445  28.644  31.465  1.00  0.00     0.049 A 
ATOM     55  C   UNL A   1      40.741  32.035  35.860  1.00  0.00     0.074 A 
ATOM     56  C   UNL A   1      42.502  27.752  31.527  1.00  0.00     0.029 A 
ATOM     57  N   UNL A   1      41.484  29.391  32.631  1.00  0.00    -0.354 N 
ATOM     58  N   UNL A   1      41.065  31.219  34.887  1.00  0.00    -0.248 NA
ATOM     59  C   UNL A   1      41.601  31.922  37.048  1.00  0.00     0.031 C 
ATOM     60  C   UNL A   1      43.176  27.957  32.735  1.00  0.00     0.029 A 
ATOM     61  C   UNL A   1      42.548  28.986  33.418  1.00  0.00     0.049 A 
ATOM     62  H   UNL A   1      40.848  30.106  32.865  1.00  0.00     0.167 HD
ATOM     63  C   UNL A   1      42.187  30.526  35.326  1.00  0.00     0.074 A 
ATOM     64  C   UNL A   1      42.500  31.031  36.647  1.00  0.00     0.031 C 
ATOM     65  C   UNL A   1      42.887  29.548  34.700  1.00  0.00     0.034 A 
BRANCH  52  66
ATOM     66  C   UNL A   1      40.561  27.905  29.214  1.00  0.00     0.023 A 
ATOM     67  C   UNL A   1      39.683  26.807  29.114  1.00  0.00     0.012 A 
ATOM     68  C   UNL A   1      41.463  28.166  28.165  1.00  0.00     0.148 A 
ATOM     69  C   UNL A   1      39.728  25.959  28.008  1.00  0.00     0.002 A 
ATOM     70  C   UNL A   1      41.471  27.342  27.044  1.00  0.00     0.091 A 
ATOM     71  F   UNL A   1      42.304  29.203  28.285  1.00  0.00    -0.205 F 
ATOM     72  C   UNL A   1      40.613  26.231  26.970  1.00  0.00     0.022 A 
BRANCH  70  73
ATOM     73  S   UNL A   1      42.520  27.653  25.618  1.00  0.00     0.127 S 
ATOM     74  O   UNL A   1      43.848  27.677  26.228  1.00  0.00    -0.237 OA
ATOM     75  O   UNL A   1      42.255  26.484  24.778  1.00  0.00    -0.237 OA
ATOM     76  O   UNL A   1      42.063  28.918  25.057  1.00  0.00    -0.744 OA
ENDBRANCH  70  73
ENDBRANCH  52  66
BRANCH  53  77
ATOM     77  C   UNL A   1      39.488  33.957  37.095  1.00  0.00     0.023 A 
ATOM     78  C   UNL A   1      39.903  35.301  37.012  1.00  0.00     0.012 A 
ATOM     79  C   UNL A   1      38.907  33.491  38.290  1.00  0.00     0.148 A 
ATOM     80  C   UNL A   1      39.773  36.155  38.108  1.00  0.00     0.002 A 
ATOM     81  C   UNL A   1      38.732  34.362  39.359  1.00  0.00     0.091 A 
ATOM     82  F   UNL A   1      38.533  32.205  38.356  1.00  0.00    -0.205 F 
ATOM     83  C   UNL A   1      39.178  35.690  39.277  1.00  0.00     0.022 A 
BRANCH  81  84
ATOM     84  S   UNL A   1      37.857  33.881  40.854  1.00  0.00     0.127 S 
ATOM     85  O   UNL A   1      37.639  35.170  41.503  1.00  0.00    -0.237 OA
ATOM     86  O   UNL A   1      36.651  33.252  40.311  1.00  0.00    -0.237 OA
ATOM     87  O   UNL A   1      38.748  32.960  41.546  1.00  0.00    -0.744 OA
ENDBRANCH  81  84
ENDBRANCH  53  77
BRANCH  65  88
ATOM     88  C   UNL A   1      44.091  28.984  35.408  1.00  0.00     0.023 A 
ATOM     89  C   UNL A   1      45.353  29.581  35.223  1.00  0.00     0.012 A 
ATOM     90  C   UNL A   1      43.955  27.917  36.318  1.00  0.00     0.148 A 
ATOM     91  C   UNL A   1      46.468  29.105  35.911  1.00  0.00     0.002 A 
ATOM     92  C   UNL A   1      45.062  27.479  37.035  1.00  0.00     0.091 A 
ATOM     93  F   UNL A   1      42.749  27.349  36.464  1.00  0.00    -0.205 F 
ATOM     94  C   UNL A   1      46.321  28.064  36.825  1.00  0.00     0.022 A 
BRANCH  92  95
ATOM     95  S   UNL A   1      44.943  26.206  38.299  1.00  0.00     0.127 S 
ATOM     96  O   UNL A   1      44.179  26.891  39.340  1.00  0.00    -0.237 OA
ATOM     97  O   UNL A   1      44.212  25.145  37.605  1.00  0.00    -0.237 OA
ATOM     98  O   UNL A   1      46.315  25.863  38.648  1.00  0.00    -0.744 OA
ENDBRANCH  92  95
ENDBRANCH  65  88
ENDBRANCH  39  40
ENDBRANCH  31  34
ENDBRANCH  29  30
ENDBRANCH   1  29
TORSDOF 15
ENDMDL
