MODEL 1
REMARK VINA RESULT:     -12.5      0.000      0.000
REMARK SMILES Cc1cccc(Nc2ccccc2C(=O)NCCCNC(=O)c2ccc(-c3c4nc(c(-c5cccc(S(=O)(=O)[O-])c5F)c5ccc([nH]5)c(-c5cccc(S(=O)(=O)[O-])c5F)c5nc(c(-c6cccc(S(=O)(=O)[O-])c6F)c6ccc3[nH]6)C=C5)C=C4)cc2)c1C
REMARK SMILES IDX 18 1 17 2 16 3 14 4 15 5 13 7 8 8 9 9 10 10 12 11 11 12 7 13
REMARK SMILES IDX 6 15 1 16 2 17 3 18 86 19 4 20 87 21 5 22 19 23 20 24 21 25
REMARK SMILES IDX 22 27 23 28 24 29 85 30 25 31 84 32 26 33 27 34 28 35 78 36
REMARK SMILES IDX 29 37 83 38 77 39 79 40 30 41 82 42 76 43 75 44 31 46 63 47
REMARK SMILES IDX 43 48 62 49 44 50 47 51 61 52 80 53 45 54 46 55 60 57 81 58
REMARK SMILES IDX 48 59 32 60 33 61 41 62 34 63 36 64 42 65 35 66 37 67 38 68
REMARK SMILES IDX 39 69 40 70 64 71 65 72 73 73 66 74 68 75 74 76 67 77 69 78
REMARK SMILES IDX 70 79 71 80 72 81 49 82 50 83 58 84 51 85 53 86 59 87 52 88
REMARK SMILES IDX 54 89 55 90 56 91 57 92
REMARK H PARENT 16 6 7 14 20 26 79 45 47 56
REMARK Flexibility Score: inf
ROOT
ATOM      1  C   UNL A   1      31.636  28.950  26.166  1.00  0.00     0.042 C 
ENDROOT
BRANCH   1   2
ATOM      2  C   UNL A   1      32.156  27.733  26.894  1.00  0.00     0.118 C 
BRANCH   2   3
ATOM      3  N   UNL A   1      31.301  26.578  26.936  1.00  0.00    -0.352 N 
ATOM      4  C   UNL A   1      31.574  25.317  26.459  1.00  0.00     0.253 C 
ATOM      5  O   UNL A   1      30.863  24.396  26.875  1.00  0.00    -0.269 OA
ATOM      6  H   UNL A   1      30.419  26.704  27.355  1.00  0.00     0.163 HD
BRANCH   4   7
ATOM      7  C   UNL A   1      32.555  25.024  25.359  1.00  0.00     0.063 A 
ATOM      8  C   UNL A   1      32.408  25.108  23.957  1.00  0.00     0.051 A 
ATOM      9  C   UNL A   1      33.476  24.633  23.150  1.00  0.00     0.027 A 
ATOM     10  C   UNL A   1      34.675  24.166  23.686  1.00  0.00     0.002 A 
ATOM     11  C   UNL A   1      33.796  24.568  25.879  1.00  0.00     0.016 A 
ATOM     12  C   UNL A   1      34.846  24.158  25.057  1.00  0.00     0.001 A 
BRANCH   8  13
ATOM     13  N   UNL A   1      31.368  25.704  23.209  1.00  0.00    -0.355 N 
ATOM     14  H   UNL A   1      30.920  25.062  22.612  1.00  0.00     0.167 HD
BRANCH  13  15
ATOM     15  C   UNL A   1      30.816  26.998  23.112  1.00  0.00     0.042 A 
ATOM     16  C   UNL A   1      27.521  28.945  23.044  1.00  0.00     0.044 C 
ATOM     17  C   UNL A   1      28.980  28.592  22.932  1.00  0.00    -0.046 A 
ATOM     18  C   UNL A   1      29.861  29.550  22.406  1.00  0.00     0.004 A 
ATOM     19  C   UNL A   1      29.465  27.321  23.337  1.00  0.00    -0.025 A 
ATOM     20  C   UNL A   1      31.213  29.267  22.278  1.00  0.00     0.002 A 
ATOM     21  C   UNL A   1      28.528  26.364  24.028  1.00  0.00     0.047 C 
ATOM     22  C   UNL A   1      31.684  28.006  22.629  1.00  0.00     0.026 A 
ENDBRANCH  13  15
ENDBRANCH   8  13
ENDBRANCH   4   7
ENDBRANCH   2   3
ENDBRANCH   1   2
BRANCH   1  23
ATOM     23  C   UNL A   1      32.703  29.968  25.788  1.00  0.00     0.118 C 
BRANCH  23  24
ATOM     24  N   UNL A   1      32.525  31.299  26.374  1.00  0.00    -0.352 N 
ATOM     25  C   UNL A   1      33.282  32.020  27.278  1.00  0.00     0.251 C 
ATOM     26  H   UNL A   1      31.714  31.767  26.068  1.00  0.00     0.163 HD
ATOM     27  O   UNL A   1      32.882  33.098  27.689  1.00  0.00    -0.269 OA
BRANCH  25  28
ATOM     28  C   UNL A   1      34.561  31.470  27.783  1.00  0.00     0.039 A 
ATOM     29  C   UNL A   1      35.638  32.330  28.022  1.00  0.00     0.014 A 
ATOM     30  C   UNL A   1      34.691  30.111  28.052  1.00  0.00     0.014 A 
ATOM     31  C   UNL A   1      36.795  31.838  28.638  1.00  0.00     0.010 A 
ATOM     32  C   UNL A   1      35.766  29.660  28.800  1.00  0.00     0.010 A 
ATOM     33  C   UNL A   1      36.844  30.510  29.085  1.00  0.00    -0.014 A 
BRANCH  33  34
ATOM     34  C   UNL A   1      38.006  29.950  29.822  1.00  0.00     0.031 A 
ATOM     35  C   UNL A   1      38.280  30.417  31.231  1.00  0.00     0.074 A 
ATOM     36  C   UNL A   1      38.886  29.149  29.191  1.00  0.00     0.049 A 
ATOM     37  N   UNL A   1      39.327  30.206  31.984  1.00  0.00    -0.248 NA
ATOM     38  C   UNL A   1      37.267  31.290  31.850  1.00  0.00     0.031 C 
ATOM     39  C   UNL A   1      38.791  28.713  27.795  1.00  0.00     0.029 A 
ATOM     40  N   UNL A   1      40.060  28.589  29.631  1.00  0.00    -0.354 N 
ATOM     41  C   UNL A   1      39.126  30.969  33.129  1.00  0.00     0.074 A 
ATOM     42  C   UNL A   1      37.890  31.694  32.944  1.00  0.00     0.031 C 
ATOM     43  C   UNL A   1      39.856  27.953  27.495  1.00  0.00     0.029 A 
ATOM     44  C   UNL A   1      40.727  27.873  28.664  1.00  0.00     0.049 A 
ATOM     45  H   UNL A   1      40.393  28.690  30.552  1.00  0.00     0.167 HD
ATOM     46  C   UNL A   1      39.873  31.027  34.256  1.00  0.00     0.034 A 
ATOM     47  C   UNL A   1      41.911  27.233  28.711  1.00  0.00     0.034 A 
ATOM     48  C   UNL A   1      41.056  30.238  34.464  1.00  0.00     0.049 A 
ATOM     49  C   UNL A   1      42.677  27.223  30.007  1.00  0.00     0.074 A 
ATOM     50  C   UNL A   1      41.835  30.134  35.600  1.00  0.00     0.029 A 
ATOM     51  N   UNL A   1      41.620  29.405  33.509  1.00  0.00    -0.354 N 
ATOM     52  N   UNL A   1      42.395  27.833  31.134  1.00  0.00    -0.248 NA
ATOM     53  C   UNL A   1      43.897  26.407  30.055  1.00  0.00     0.031 C 
ATOM     54  C   UNL A   1      42.878  29.241  35.330  1.00  0.00     0.029 A 
ATOM     55  C   UNL A   1      42.735  28.774  34.031  1.00  0.00     0.049 A 
ATOM     56  H   UNL A   1      41.278  29.280  32.595  1.00  0.00     0.167 HD
ATOM     57  C   UNL A   1      43.381  27.449  32.034  1.00  0.00     0.074 A 
ATOM     58  C   UNL A   1      44.256  26.536  31.326  1.00  0.00     0.031 C 
ATOM     59  C   UNL A   1      43.559  27.828  33.325  1.00  0.00     0.034 A 
BRANCH  46  60
ATOM     60  C   UNL A   1      39.382  31.918  35.370  1.00  0.00     0.023 A 
ATOM     61  C   UNL A   1      38.426  31.425  36.284  1.00  0.00     0.012 A 
ATOM     62  C   UNL A   1      39.868  33.230  35.527  1.00  0.00     0.148 A 
ATOM     63  C   UNL A   1      37.917  32.238  37.295  1.00  0.00     0.002 A 
ATOM     64  C   UNL A   1      39.395  34.019  36.570  1.00  0.00     0.091 A 
ATOM     65  F   UNL A   1      40.760  33.695  34.640  1.00  0.00    -0.205 F 
ATOM     66  C   UNL A   1      38.409  33.531  37.444  1.00  0.00     0.022 A 
BRANCH  64  67
ATOM     67  S   UNL A   1      40.027  35.668  36.901  1.00  0.00     0.127 S 
ATOM     68  O   UNL A   1      41.461  35.413  37.033  1.00  0.00    -0.237 OA
ATOM     69  O   UNL A   1      39.646  36.393  35.688  1.00  0.00    -0.237 OA
ATOM     70  O   UNL A   1      39.354  36.117  38.111  1.00  0.00    -0.744 OA
ENDBRANCH  64  67
ENDBRANCH  46  60
BRANCH  47  71
ATOM     71  C   UNL A   1      42.395  26.480  27.519  1.00  0.00     0.023 A 
ATOM     72  C   UNL A   1      43.231  27.126  26.587  1.00  0.00     0.012 A 
ATOM     73  C   UNL A   1      42.085  25.118  27.333  1.00  0.00     0.148 A 
ATOM     74  C   UNL A   1      43.728  26.439  25.478  1.00  0.00     0.002 A 
ATOM     75  C   UNL A   1      42.627  24.425  26.256  1.00  0.00     0.091 A 
ATOM     76  F   UNL A   1      41.283  24.522  28.226  1.00  0.00    -0.205 F 
ATOM     77  C   UNL A   1      43.436  25.087  25.319  1.00  0.00     0.022 A 
BRANCH  75  78
ATOM     78  S   UNL A   1      42.422  22.653  26.044  1.00  0.00     0.127 S 
ATOM     79  O   UNL A   1      43.105  22.422  24.774  1.00  0.00    -0.237 OA
ATOM     80  O   UNL A   1      43.113  22.126  27.221  1.00  0.00    -0.237 OA
ATOM     81  O   UNL A   1      40.984  22.421  26.041  1.00  0.00    -0.744 OA
ENDBRANCH  75  78
ENDBRANCH  47  71
BRANCH  59  82
ATOM     82  C   UNL A   1      44.718  27.230  34.073  1.00  0.00     0.023 A 
ATOM     83  C   UNL A   1      45.985  27.843  34.008  1.00  0.00     0.012 A 
ATOM     84  C   UNL A   1      44.531  26.111  34.907  1.00  0.00     0.148 A 
ATOM     85  C   UNL A   1      47.056  27.333  34.740  1.00  0.00     0.002 A 
ATOM     86  C   UNL A   1      45.590  25.637  35.671  1.00  0.00     0.091 A 
ATOM     87  F   UNL A   1      43.322  25.531  34.938  1.00  0.00    -0.205 F 
ATOM     88  C   UNL A   1      46.856  26.239  35.579  1.00  0.00     0.022 A 
BRANCH  86  89
ATOM     89  S   UNL A   1      45.397  24.298  36.853  1.00  0.00     0.127 S 
ATOM     90  O   UNL A   1      44.964  23.200  35.990  1.00  0.00    -0.237 OA
ATOM     91  O   UNL A   1      46.752  24.157  37.387  1.00  0.00    -0.237 OA
ATOM     92  O   UNL A   1      44.414  24.759  37.823  1.00  0.00    -0.744 OA
ENDBRANCH  86  89
ENDBRANCH  59  82
ENDBRANCH  33  34
ENDBRANCH  25  28
ENDBRANCH  23  24
ENDBRANCH   1  23
TORSDOF 15
ENDMDL
MODEL 2
REMARK VINA RESULT:     -12.1      1.561      7.770
REMARK SMILES Cc1cccc(Nc2ccccc2C(=O)NCCCNC(=O)c2ccc(-c3c4nc(c(-c5cccc(S(=O)(=O)[O-])c5F)c5ccc([nH]5)c(-c5cccc(S(=O)(=O)[O-])c5F)c5nc(c(-c6cccc(S(=O)(=O)[O-])c6F)c6ccc3[nH]6)C=C5)C=C4)cc2)c1C
REMARK SMILES IDX 18 1 17 2 16 3 14 4 15 5 13 7 8 8 9 9 10 10 12 11 11 12 7 13
REMARK SMILES IDX 6 15 1 16 2 17 3 18 86 19 4 20 87 21 5 22 19 23 20 24 21 25
REMARK SMILES IDX 22 27 23 28 24 29 85 30 25 31 84 32 26 33 27 34 28 35 78 36
REMARK SMILES IDX 29 37 83 38 77 39 79 40 30 41 82 42 76 43 75 44 31 46 63 47
REMARK SMILES IDX 43 48 62 49 44 50 47 51 61 52 80 53 45 54 46 55 60 57 81 58
REMARK SMILES IDX 48 59 32 60 33 61 41 62 34 63 36 64 42 65 35 66 37 67 38 68
REMARK SMILES IDX 39 69 40 70 64 71 65 72 73 73 66 74 68 75 74 76 67 77 69 78
REMARK SMILES IDX 70 79 71 80 72 81 49 82 50 83 58 84 51 85 53 86 59 87 52 88
REMARK SMILES IDX 54 89 55 90 56 91 57 92
REMARK H PARENT 16 6 7 14 20 26 79 45 47 56
REMARK Flexibility Score: inf
ROOT
ATOM      1  C   UNL A   1      31.734  28.770  26.440  1.00  0.00     0.042 C 
ENDROOT
BRANCH   1   2
ATOM      2  C   UNL A   1      32.421  27.441  26.649  1.00  0.00     0.118 C 
BRANCH   2   3
ATOM      3  N   UNL A   1      31.581  26.294  26.862  1.00  0.00    -0.352 N 
ATOM      4  C   UNL A   1      31.853  24.986  26.536  1.00  0.00     0.253 C 
ATOM      5  O   UNL A   1      31.166  24.118  27.086  1.00  0.00    -0.269 OA
ATOM      6  H   UNL A   1      30.711  26.465  27.291  1.00  0.00     0.163 HD
BRANCH   4   7
ATOM      7  C   UNL A   1      32.802  24.565  25.449  1.00  0.00     0.063 A 
ATOM      8  C   UNL A   1      32.679  24.652  24.045  1.00  0.00     0.051 A 
ATOM      9  C   UNL A   1      33.689  24.043  23.254  1.00  0.00     0.027 A 
ATOM     10  C   UNL A   1      34.818  23.441  23.807  1.00  0.00     0.002 A 
ATOM     11  C   UNL A   1      33.974  23.969  25.987  1.00  0.00     0.016 A 
ATOM     12  C   UNL A   1      34.974  23.427  25.180  1.00  0.00     0.001 A 
BRANCH   8  13
ATOM     13  N   UNL A   1      31.725  25.362  23.281  1.00  0.00    -0.355 N 
ATOM     14  H   UNL A   1      31.247  24.780  22.646  1.00  0.00     0.167 HD
BRANCH  13  15
ATOM     15  C   UNL A   1      31.293  26.701  23.209  1.00  0.00     0.042 A 
ATOM     16  C   UNL A   1      28.186  28.937  23.126  1.00  0.00     0.044 C 
ATOM     17  C   UNL A   1      29.611  28.458  23.035  1.00  0.00    -0.046 A 
ATOM     18  C   UNL A   1      30.586  29.346  22.556  1.00  0.00     0.004 A 
ATOM     19  C   UNL A   1      29.971  27.138  23.415  1.00  0.00    -0.025 A 
ATOM     20  C   UNL A   1      31.910  28.948  22.450  1.00  0.00     0.002 A 
ATOM     21  C   UNL A   1      28.936  26.250  24.057  1.00  0.00     0.047 C 
ATOM     22  C   UNL A   1      32.258  27.640  22.774  1.00  0.00     0.026 A 
ENDBRANCH  13  15
ENDBRANCH   8  13
ENDBRANCH   4   7
ENDBRANCH   2   3
ENDBRANCH   1   2
BRANCH   1  23
ATOM     23  C   UNL A   1      32.637  29.875  25.911  1.00  0.00     0.118 C 
BRANCH  23  24
ATOM     24  N   UNL A   1      32.317  31.221  26.395  1.00  0.00    -0.352 N 
ATOM     25  C   UNL A   1      32.994  32.086  27.235  1.00  0.00     0.251 C 
ATOM     26  H   UNL A   1      31.462  31.575  26.061  1.00  0.00     0.163 HD
ATOM     27  O   UNL A   1      32.480  33.143  27.566  1.00  0.00    -0.269 OA
BRANCH  25  28
ATOM     28  C   UNL A   1      34.324  31.715  27.770  1.00  0.00     0.039 A 
ATOM     29  C   UNL A   1      35.301  32.702  27.939  1.00  0.00     0.014 A 
ATOM     30  C   UNL A   1      34.600  30.402  28.137  1.00  0.00     0.014 A 
ATOM     31  C   UNL A   1      36.504  32.384  28.581  1.00  0.00     0.010 A 
ATOM     32  C   UNL A   1      35.716  30.126  28.908  1.00  0.00     0.010 A 
ATOM     33  C   UNL A   1      36.696  31.105  29.123  1.00  0.00    -0.014 A 
BRANCH  33  34
ATOM     34  C   UNL A   1      37.911  30.730  29.892  1.00  0.00     0.031 A 
ATOM     35  C   UNL A   1      38.897  29.762  29.286  1.00  0.00     0.074 A 
ATOM     36  C   UNL A   1      38.055  31.134  31.169  1.00  0.00     0.049 A 
ATOM     37  N   UNL A   1      39.915  29.160  29.842  1.00  0.00    -0.248 NA
ATOM     38  C   UNL A   1      38.668  29.372  27.883  1.00  0.00     0.031 C 
ATOM     39  C   UNL A   1      37.115  31.984  31.904  1.00  0.00     0.029 A 
ATOM     40  N   UNL A   1      39.032  30.850  32.091  1.00  0.00    -0.354 N 
ATOM     41  C   UNL A   1      40.401  28.279  28.883  1.00  0.00     0.074 A 
ATOM     42  C   UNL A   1      39.529  28.379  27.735  1.00  0.00     0.031 C 
ATOM     43  C   UNL A   1      37.561  32.154  33.159  1.00  0.00     0.029 A 
ATOM     44  C   UNL A   1      38.799  31.401  33.330  1.00  0.00     0.049 A 
ATOM     45  H   UNL A   1      39.824  30.303  31.885  1.00  0.00     0.167 HD
ATOM     46  C   UNL A   1      41.500  27.491  28.929  1.00  0.00     0.034 A 
ATOM     47  C   UNL A   1      39.501  31.304  34.476  1.00  0.00     0.034 A 
ATOM     48  C   UNL A   1      42.407  27.461  30.043  1.00  0.00     0.049 A 
ATOM     49  C   UNL A   1      40.777  30.506  34.476  1.00  0.00     0.074 A 
ATOM     50  C   UNL A   1      43.606  26.784  30.162  1.00  0.00     0.029 A 
ATOM     51  N   UNL A   1      42.215  28.154  31.229  1.00  0.00    -0.354 N 
ATOM     52  N   UNL A   1      41.304  29.794  33.507  1.00  0.00    -0.248 NA
ATOM     53  C   UNL A   1      41.579  30.531  35.707  1.00  0.00     0.031 C 
ATOM     54  C   UNL A   1      44.137  27.062  31.426  1.00  0.00     0.029 A 
ATOM     55  C   UNL A   1      43.278  27.929  32.085  1.00  0.00     0.049 A 
ATOM     56  H   UNL A   1      41.438  28.722  31.432  1.00  0.00     0.167 HD
ATOM     57  C   UNL A   1      42.511  29.314  33.998  1.00  0.00     0.074 A 
ATOM     58  C   UNL A   1      42.649  29.835  35.344  1.00  0.00     0.031 C 
ATOM     59  C   UNL A   1      43.419  28.503  33.399  1.00  0.00     0.034 A 
BRANCH  46  60
ATOM     60  C   UNL A   1      41.813  26.663  27.708  1.00  0.00     0.023 A 
ATOM     61  C   UNL A   1      42.386  27.283  26.576  1.00  0.00     0.012 A 
ATOM     62  C   UNL A   1      41.558  25.278  27.676  1.00  0.00     0.148 A 
ATOM     63  C   UNL A   1      42.643  26.555  25.415  1.00  0.00     0.002 A 
ATOM     64  C   UNL A   1      41.867  24.548  26.533  1.00  0.00     0.091 A 
ATOM     65  F   UNL A   1      40.995  24.705  28.749  1.00  0.00    -0.205 F 
ATOM     66  C   UNL A   1      42.393  25.187  25.398  1.00  0.00     0.022 A 
BRANCH  64  67
ATOM     67  S   UNL A   1      41.662  22.766  26.438  1.00  0.00     0.127 S 
ATOM     68  O   UNL A   1      42.350  22.325  27.651  1.00  0.00    -0.237 OA
ATOM     69  O   UNL A   1      40.207  22.620  26.477  1.00  0.00    -0.237 OA
ATOM     70  O   UNL A   1      42.279  22.360  25.184  1.00  0.00    -0.744 OA
ENDBRANCH  64  67
ENDBRANCH  46  60
BRANCH  47  71
ATOM     71  C   UNL A   1      39.052  32.050  35.685  1.00  0.00     0.023 A 
ATOM     72  C   UNL A   1      39.274  33.439  35.761  1.00  0.00     0.012 A 
ATOM     73  C   UNL A   1      38.354  31.410  36.729  1.00  0.00     0.148 A 
ATOM     74  C   UNL A   1      38.835  34.173  36.865  1.00  0.00     0.002 A 
ATOM     75  C   UNL A   1      37.872  32.155  37.799  1.00  0.00     0.091 A 
ATOM     76  F   UNL A   1      38.158  30.086  36.641  1.00  0.00    -0.205 F 
ATOM     77  C   UNL A   1      38.124  33.533  37.877  1.00  0.00     0.022 A 
BRANCH  75  78
ATOM     78  S   UNL A   1      36.829  31.446  39.078  1.00  0.00     0.127 S 
ATOM     79  O   UNL A   1      35.652  32.309  39.017  1.00  0.00    -0.237 OA
ATOM     80  O   UNL A   1      36.623  30.085  38.582  1.00  0.00    -0.237 OA
ATOM     81  O   UNL A   1      37.607  31.523  40.308  1.00  0.00    -0.744 OA
ENDBRANCH  75  78
ENDBRANCH  47  71
BRANCH  59  82
ATOM     82  C   UNL A   1      44.661  28.156  34.172  1.00  0.00     0.023 A 
ATOM     83  C   UNL A   1      45.806  28.969  34.061  1.00  0.00     0.012 A 
ATOM     84  C   UNL A   1      44.664  27.073  35.073  1.00  0.00     0.148 A 
ATOM     85  C   UNL A   1      46.946  28.692  34.815  1.00  0.00     0.002 A 
ATOM     86  C   UNL A   1      45.786  26.832  35.856  1.00  0.00     0.091 A 
ATOM     87  F   UNL A   1      43.570  26.301  35.149  1.00  0.00    -0.205 F 
ATOM     88  C   UNL A   1      46.931  27.633  35.719  1.00  0.00     0.022 A 
BRANCH  86  89
ATOM     89  S   UNL A   1      45.819  25.553  37.117  1.00  0.00     0.127 S 
ATOM     90  O   UNL A   1      47.082  25.839  37.797  1.00  0.00    -0.237 OA
ATOM     91  O   UNL A   1      44.622  25.859  37.902  1.00  0.00    -0.237 OA
ATOM     92  O   UNL A   1      45.764  24.286  36.404  1.00  0.00    -0.744 OA
ENDBRANCH  86  89
ENDBRANCH  59  82
ENDBRANCH  33  34
ENDBRANCH  25  28
ENDBRANCH  23  24
ENDBRANCH   1  23
TORSDOF 15
ENDMDL
MODEL 3
REMARK VINA RESULT:     -12.0      2.500      8.459
REMARK SMILES Cc1cccc(Nc2ccccc2C(=O)NCCCNC(=O)c2ccc(-c3c4nc(c(-c5cccc(S(=O)(=O)[O-])c5F)c5ccc([nH]5)c(-c5cccc(S(=O)(=O)[O-])c5F)c5nc(c(-c6cccc(S(=O)(=O)[O-])c6F)c6ccc3[nH]6)C=C5)C=C4)cc2)c1C
REMARK SMILES IDX 18 1 17 2 16 3 14 4 15 5 13 7 8 8 9 9 10 10 12 11 11 12 7 13
REMARK SMILES IDX 6 15 1 16 2 17 3 18 86 19 4 20 87 21 5 22 19 23 20 24 21 25
REMARK SMILES IDX 22 27 23 28 24 29 85 30 25 31 84 32 26 33 27 34 28 35 78 36
REMARK SMILES IDX 29 37 83 38 77 39 79 40 30 41 82 42 76 43 75 44 31 46 63 47
REMARK SMILES IDX 43 48 62 49 44 50 47 51 61 52 80 53 45 54 46 55 60 57 81 58
REMARK SMILES IDX 48 59 32 60 33 61 41 62 34 63 36 64 42 65 35 66 37 67 38 68
REMARK SMILES IDX 39 69 40 70 64 71 65 72 73 73 66 74 68 75 74 76 67 77 69 78
REMARK SMILES IDX 70 79 71 80 72 81 49 82 50 83 58 84 51 85 53 86 59 87 52 88
REMARK SMILES IDX 54 89 55 90 56 91 57 92
REMARK H PARENT 16 6 7 14 20 26 79 45 47 56
REMARK Flexibility Score: inf
ROOT
ATOM      1  C   UNL A   1      31.858  31.716  26.698  1.00  0.00     0.042 C 
ENDROOT
BRANCH   1   2
ATOM      2  C   UNL A   1      32.069  30.222  26.757  1.00  0.00     0.118 C 
BRANCH   2   3
ATOM      3  N   UNL A   1      33.000  29.652  25.822  1.00  0.00    -0.352 N 
ATOM      4  C   UNL A   1      32.711  28.940  24.682  1.00  0.00     0.253 C 
ATOM      5  O   UNL A   1      33.618  28.821  23.852  1.00  0.00    -0.269 OA
ATOM      6  H   UNL A   1      33.955  29.787  26.021  1.00  0.00     0.163 HD
BRANCH   4   7
ATOM      7  C   UNL A   1      31.436  28.173  24.465  1.00  0.00     0.063 A 
ATOM      8  C   UNL A   1      31.054  26.890  24.915  1.00  0.00     0.051 A 
ATOM      9  C   UNL A   1      29.827  26.359  24.437  1.00  0.00     0.027 A 
ATOM     10  C   UNL A   1      28.965  27.081  23.614  1.00  0.00     0.002 A 
ATOM     11  C   UNL A   1      30.528  28.897  23.647  1.00  0.00     0.016 A 
ATOM     12  C   UNL A   1      29.305  28.367  23.238  1.00  0.00     0.001 A 
BRANCH   8  13
ATOM     13  N   UNL A   1      31.679  26.067  25.880  1.00  0.00    -0.355 N 
ATOM     14  H   UNL A   1      31.318  26.210  26.784  1.00  0.00     0.167 HD
BRANCH  13  15
ATOM     15  C   UNL A   1      32.694  25.089  25.858  1.00  0.00     0.042 A 
ATOM     16  C   UNL A   1      33.833  21.793  27.438  1.00  0.00     0.044 C 
ATOM     17  C   UNL A   1      33.820  23.076  26.650  1.00  0.00    -0.046 A 
ATOM     18  C   UNL A   1      35.015  23.510  26.057  1.00  0.00     0.004 A 
ATOM     19  C   UNL A   1      32.633  23.843  26.509  1.00  0.00    -0.025 A 
ATOM     20  C   UNL A   1      35.052  24.688  25.327  1.00  0.00     0.002 A 
ATOM     21  C   UNL A   1      31.334  23.288  27.033  1.00  0.00     0.047 C 
ATOM     22  C   UNL A   1      33.904  25.467  25.228  1.00  0.00     0.026 A 
ENDBRANCH  13  15
ENDBRANCH   8  13
ENDBRANCH   4   7
ENDBRANCH   2   3
ENDBRANCH   1   2
BRANCH   1  23
ATOM     23  C   UNL A   1      32.995  32.542  27.283  1.00  0.00     0.118 C 
BRANCH  23  24
ATOM     24  N   UNL A   1      32.642  33.919  27.637  1.00  0.00    -0.352 N 
ATOM     25  C   UNL A   1      33.148  34.789  28.584  1.00  0.00     0.251 C 
ATOM     26  H   UNL A   1      31.906  34.295  27.100  1.00  0.00     0.163 HD
ATOM     27  O   UNL A   1      32.627  35.881  28.752  1.00  0.00    -0.269 OA
BRANCH  25  28
ATOM     28  C   UNL A   1      34.297  34.385  29.426  1.00  0.00     0.039 A 
ATOM     29  C   UNL A   1      34.067  33.775  30.664  1.00  0.00     0.014 A 
ATOM     30  C   UNL A   1      35.602  34.578  28.984  1.00  0.00     0.014 A 
ATOM     31  C   UNL A   1      35.144  33.259  31.393  1.00  0.00     0.010 A 
ATOM     32  C   UNL A   1      36.645  33.931  29.627  1.00  0.00     0.010 A 
ATOM     33  C   UNL A   1      36.437  33.282  30.851  1.00  0.00    -0.014 A 
BRANCH  33  34
ATOM     34  C   UNL A   1      37.608  32.673  31.534  1.00  0.00     0.031 A 
ATOM     35  C   UNL A   1      38.333  31.527  30.874  1.00  0.00     0.074 A 
ATOM     36  C   UNL A   1      37.927  33.044  32.790  1.00  0.00     0.049 A 
ATOM     37  N   UNL A   1      39.250  30.735  31.364  1.00  0.00    -0.248 NA
ATOM     38  C   UNL A   1      37.925  31.186  29.499  1.00  0.00     0.031 C 
ATOM     39  C   UNL A   1      37.233  34.066  33.577  1.00  0.00     0.029 A 
ATOM     40  N   UNL A   1      38.895  32.573  33.642  1.00  0.00    -0.354 N 
ATOM     41  C   UNL A   1      39.477  29.772  30.387  1.00  0.00     0.074 A 
ATOM     42  C   UNL A   1      38.559  30.041  29.305  1.00  0.00     0.031 C 
ATOM     43  C   UNL A   1      37.798  34.147  34.793  1.00  0.00     0.029 A 
ATOM     44  C   UNL A   1      38.872  33.162  34.884  1.00  0.00     0.049 A 
ATOM     45  H   UNL A   1      39.545  31.878  33.387  1.00  0.00     0.167 HD
ATOM     46  C   UNL A   1      40.399  28.781  30.365  1.00  0.00     0.034 A 
ATOM     47  C   UNL A   1      39.625  32.930  35.977  1.00  0.00     0.034 A 
ATOM     48  C   UNL A   1      41.363  28.574  31.410  1.00  0.00     0.049 A 
ATOM     49  C   UNL A   1      40.714  31.894  35.897  1.00  0.00     0.074 A 
ATOM     50  C   UNL A   1      42.409  27.671  31.451  1.00  0.00     0.029 A 
ATOM     51  N   UNL A   1      41.404  29.294  32.594  1.00  0.00    -0.354 N 
ATOM     52  N   UNL A   1      41.013  31.088  34.905  1.00  0.00    -0.248 NA
ATOM     53  C   UNL A   1      41.596  31.761  37.064  1.00  0.00     0.031 C 
ATOM     54  C   UNL A   1      43.080  27.841  32.668  1.00  0.00     0.029 A 
ATOM     55  C   UNL A   1      42.462  28.864  33.373  1.00  0.00     0.049 A 
ATOM     56  H   UNL A   1      40.772  30.006  32.844  1.00  0.00     0.167 HD
ATOM     57  C   UNL A   1      42.134  30.379  35.313  1.00  0.00     0.074 A 
ATOM     58  C   UNL A   1      42.475  30.865  36.636  1.00  0.00     0.031 C 
ATOM     59  C   UNL A   1      42.814  29.401  34.663  1.00  0.00     0.034 A 
BRANCH  46  60
ATOM     60  C   UNL A   1      40.447  27.904  29.139  1.00  0.00     0.023 A 
ATOM     61  C   UNL A   1      39.547  26.824  29.021  1.00  0.00     0.012 A 
ATOM     62  C   UNL A   1      41.366  28.148  28.100  1.00  0.00     0.148 A 
ATOM     63  C   UNL A   1      39.598  25.967  27.923  1.00  0.00     0.002 A 
ATOM     64  C   UNL A   1      41.375  27.321  26.982  1.00  0.00     0.091 A 
ATOM     65  F   UNL A   1      42.230  29.165  28.233  1.00  0.00    -0.205 F 
ATOM     66  C   UNL A   1      40.505  26.221  26.900  1.00  0.00     0.022 A 
BRANCH  64  67
ATOM     67  S   UNL A   1      42.446  27.615  25.570  1.00  0.00     0.127 S 
ATOM     68  O   UNL A   1      43.765  27.654  26.202  1.00  0.00    -0.237 OA
ATOM     69  O   UNL A   1      42.202  26.430  24.745  1.00  0.00    -0.237 OA
ATOM     70  O   UNL A   1      41.995  28.866  24.980  1.00  0.00    -0.744 OA
ENDBRANCH  64  67
ENDBRANCH  46  60
BRANCH  47  71
ATOM     71  C   UNL A   1      39.426  33.754  37.203  1.00  0.00     0.023 A 
ATOM     72  C   UNL A   1      39.886  35.086  37.222  1.00  0.00     0.012 A 
ATOM     73  C   UNL A   1      38.733  33.253  38.323  1.00  0.00     0.148 A 
ATOM     74  C   UNL A   1      39.685  35.894  38.342  1.00  0.00     0.002 A 
ATOM     75  C   UNL A   1      38.489  34.080  39.414  1.00  0.00     0.091 A 
ATOM     76  F   UNL A   1      38.309  31.982  38.289  1.00  0.00    -0.205 F 
ATOM     77  C   UNL A   1      38.977  35.396  39.431  1.00  0.00     0.022 A 
BRANCH  75  78
ATOM     78  S   UNL A   1      37.468  33.572  40.802  1.00  0.00     0.127 S 
ATOM     79  O   UNL A   1      36.265  33.090  40.129  1.00  0.00    -0.237 OA
ATOM     80  O   UNL A   1      38.290  32.531  41.417  1.00  0.00    -0.237 OA
ATOM     81  O   UNL A   1      37.299  34.765  41.622  1.00  0.00    -0.744 OA
ENDBRANCH  75  78
ENDBRANCH  47  71
BRANCH  59  82
ATOM     82  C   UNL A   1      44.018  28.815  35.348  1.00  0.00     0.023 A 
ATOM     83  C   UNL A   1      45.293  29.370  35.121  1.00  0.00     0.012 A 
ATOM     84  C   UNL A   1      43.872  27.771  36.281  1.00  0.00     0.148 A 
ATOM     85  C   UNL A   1      46.410  28.874  35.792  1.00  0.00     0.002 A 
ATOM     86  C   UNL A   1      44.981  27.314  36.982  1.00  0.00     0.091 A 
ATOM     87  F   UNL A   1      42.653  27.244  36.467  1.00  0.00    -0.205 F 
ATOM     88  C   UNL A   1      46.252  27.856  36.730  1.00  0.00     0.022 A 
BRANCH  86  89
ATOM     89  S   UNL A   1      44.854  26.077  38.278  1.00  0.00     0.127 S 
ATOM     90  O   UNL A   1      43.985  26.747  39.244  1.00  0.00    -0.237 OA
ATOM     91  O   UNL A   1      44.234  24.953  37.576  1.00  0.00    -0.237 OA
ATOM     92  O   UNL A   1      46.216  25.827  38.729  1.00  0.00    -0.744 OA
ENDBRANCH  86  89
ENDBRANCH  59  82
ENDBRANCH  33  34
ENDBRANCH  25  28
ENDBRANCH  23  24
ENDBRANCH   1  23
TORSDOF 15
ENDMDL
