MODEL 1
REMARK VINA RESULT:     -11.4      0.000      0.000
REMARK SMILES COc1ccc(NCc2cc(C(=O)NCCCNC(=O)c3ccc(-c4c5nc(c(-c6cccc(S(=O)(=O)[O-])c6F)c6ccc([nH]6)c(-c6cccc(S(=O)(=O)[O-])c6F)c6nc(c(-c7cccc(S(=O)(=O)[O-])c7F)c7ccc4[nH]7)C=C6)C=C5)cc3)cs2)cc1Br
REMARK SMILES IDX 15 1 14 2 12 3 13 4 11 6 9 7 10 8 85 9 84 10 8 11 7 12 6 14
REMARK SMILES IDX 3 15 4 16 87 17 5 18 86 19 88 20 2 21 1 22 16 23 17 24 18 25
REMARK SMILES IDX 19 26 20 28 21 29 22 30 83 31 23 32 82 33 24 34 25 35 26 36
REMARK SMILES IDX 76 37 27 38 81 39 75 40 77 41 28 42 80 43 74 44 73 45 29 47
REMARK SMILES IDX 61 48 41 49 60 50 42 51 45 52 59 53 78 54 43 55 44 56 58 58
REMARK SMILES IDX 79 59 46 60 30 61 31 62 39 63 32 64 34 65 40 66 33 67 35 68
REMARK SMILES IDX 36 69 37 70 38 71 62 72 63 73 71 74 64 75 66 76 72 77 65 78
REMARK SMILES IDX 67 79 68 80 69 81 70 82 47 83 48 84 56 85 49 86 51 87 57 88
REMARK SMILES IDX 50 89 52 90 53 91 54 92 55 93
REMARK H PARENT 14 5 7 13 18 27 77 46 45 57
REMARK Flexibility Score: inf
ROOT
ATOM      1  C   UNL A   1      31.695  30.503  25.866  1.00  0.00     0.118 C 
ENDROOT
BRANCH   1   2
ATOM      2  N   UNL A   1      30.900  30.415  24.655  1.00  0.00    -0.352 N 
ATOM      3  C   UNL A   1      30.575  29.352  23.853  1.00  0.00     0.252 C 
ATOM      4  O   UNL A   1      29.765  29.561  22.949  1.00  0.00    -0.269 OA
ATOM      5  H   UNL A   1      30.526  31.275  24.356  1.00  0.00     0.163 HD
BRANCH   3   6
ATOM      6  C   UNL A   1      31.118  28.012  24.094  1.00  0.00     0.050 A 
ATOM      7  C   UNL A   1      31.362  25.781  24.825  1.00  0.00     0.024 A 
ATOM      8  C   UNL A   1      30.634  26.951  24.924  1.00  0.00     0.031 A 
ATOM      9  S   UNL A   1      32.734  25.997  23.832  1.00  0.00    -0.146 S 
ATOM     10  C   UNL A   1      32.314  27.621  23.510  1.00  0.00     0.079 A 
BRANCH   7  11
ATOM     11  C   UNL A   1      31.075  24.454  25.471  1.00  0.00     0.159 C 
BRANCH  11  12
ATOM     12  N   UNL A   1      32.171  23.946  26.279  1.00  0.00    -0.380 N 
ATOM     13  H   UNL A   1      32.194  24.248  27.215  1.00  0.00     0.160 HD
BRANCH  12  14
ATOM     14  C   UNL A   1      33.184  23.093  25.893  1.00  0.00     0.036 A 
ATOM     15  C   UNL A   1      35.153  21.172  25.194  1.00  0.00     0.133 A 
ATOM     16  C   UNL A   1      35.521  22.444  25.635  1.00  0.00     0.050 A 
ATOM     17  C   UNL A   1      33.799  20.850  25.107  1.00  0.00     0.062 A 
ATOM     18  C   UNL A   1      34.546  23.395  25.970  1.00  0.00     0.029 A 
ATOM     19  C   UNL A   1      32.834  21.810  25.443  1.00  0.00     0.045 A 
ATOM     20  Br  UNL A   1      33.182  19.123  24.627  1.00  0.00    -0.047 Br
BRANCH  15  21
ATOM     21  O   UNL A   1      36.168  20.274  25.002  1.00  0.00    -0.496 OA
ATOM     22  C   UNL A   1      37.451  20.898  24.997  1.00  0.00     0.278 C 
ENDBRANCH  15  21
ENDBRANCH  12  14
ENDBRANCH  11  12
ENDBRANCH   7  11
ENDBRANCH   3   6
ENDBRANCH   1   2
BRANCH   1  23
ATOM     23  C   UNL A   1      31.471  31.828  26.593  1.00  0.00     0.042 C 
BRANCH  23  24
ATOM     24  C   UNL A   1      32.761  32.438  27.137  1.00  0.00     0.118 C 
BRANCH  24  25
ATOM     25  N   UNL A   1      32.579  33.832  27.529  1.00  0.00    -0.352 N 
ATOM     26  C   UNL A   1      33.135  34.542  28.561  1.00  0.00     0.251 C 
ATOM     27  H   UNL A   1      31.957  34.343  26.962  1.00  0.00     0.163 HD
ATOM     28  O   UNL A   1      32.656  35.633  28.863  1.00  0.00    -0.269 OA
BRANCH  26  29
ATOM     29  C   UNL A   1      34.295  34.011  29.305  1.00  0.00     0.039 A 
ATOM     30  C   UNL A   1      34.070  33.107  30.349  1.00  0.00     0.014 A 
ATOM     31  C   UNL A   1      35.595  34.433  29.015  1.00  0.00     0.014 A 
ATOM     32  C   UNL A   1      35.153  32.590  31.063  1.00  0.00     0.010 A 
ATOM     33  C   UNL A   1      36.676  33.858  29.676  1.00  0.00     0.010 A 
ATOM     34  C   UNL A   1      36.467  32.938  30.713  1.00  0.00    -0.014 A 
BRANCH  34  35
ATOM     35  C   UNL A   1      37.634  32.341  31.410  1.00  0.00     0.031 A 
ATOM     36  C   UNL A   1      38.383  31.191  30.795  1.00  0.00     0.074 A 
ATOM     37  C   UNL A   1      37.962  32.782  32.640  1.00  0.00     0.049 A 
ATOM     38  N   UNL A   1      39.380  30.500  31.284  1.00  0.00    -0.248 NA
ATOM     39  C   UNL A   1      37.934  30.736  29.468  1.00  0.00     0.031 C 
ATOM     40  C   UNL A   1      37.260  33.836  33.376  1.00  0.00     0.029 A 
ATOM     41  N   UNL A   1      38.950  32.378  33.502  1.00  0.00    -0.354 N 
ATOM     42  C   UNL A   1      39.657  29.514  30.345  1.00  0.00     0.074 A 
ATOM     43  C   UNL A   1      38.697  29.671  29.274  1.00  0.00     0.031 C 
ATOM     44  C   UNL A   1      37.838  33.994  34.577  1.00  0.00     0.029 A 
ATOM     45  C   UNL A   1      38.927  33.033  34.711  1.00  0.00     0.049 A 
ATOM     46  H   UNL A   1      39.613  31.685  33.277  1.00  0.00     0.167 HD
ATOM     47  C   UNL A   1      40.640  28.581  30.356  1.00  0.00     0.034 A 
ATOM     48  C   UNL A   1      39.686  32.868  35.812  1.00  0.00     0.034 A 
ATOM     49  C   UNL A   1      41.610  28.451  31.411  1.00  0.00     0.049 A 
ATOM     50  C   UNL A   1      40.792  31.848  35.788  1.00  0.00     0.074 A 
ATOM     51  C   UNL A   1      42.693  27.593  31.483  1.00  0.00     0.029 A 
ATOM     52  N   UNL A   1      41.610  29.193  32.583  1.00  0.00    -0.354 N 
ATOM     53  N   UNL A   1      41.135  31.027  34.827  1.00  0.00    -0.248 NA
ATOM     54  C   UNL A   1      41.639  31.759  36.986  1.00  0.00     0.031 C 
ATOM     55  C   UNL A   1      43.330  27.796  32.711  1.00  0.00     0.029 A 
ATOM     56  C   UNL A   1      42.667  28.806  33.389  1.00  0.00     0.049 A 
ATOM     57  H   UNL A   1      40.954  29.891  32.808  1.00  0.00     0.167 HD
ATOM     58  C   UNL A   1      42.256  30.347  35.287  1.00  0.00     0.074 A 
ATOM     59  C   UNL A   1      42.547  30.870  36.606  1.00  0.00     0.031 C 
ATOM     60  C   UNL A   1      42.972  29.368  34.680  1.00  0.00     0.034 A 
BRANCH  47  61
ATOM     61  C   UNL A   1      40.744  27.659  29.168  1.00  0.00     0.023 A 
ATOM     62  C   UNL A   1      39.927  26.510  29.106  1.00  0.00     0.012 A 
ATOM     63  C   UNL A   1      41.607  27.948  28.093  1.00  0.00     0.148 A 
ATOM     64  C   UNL A   1      39.998  25.642  28.017  1.00  0.00     0.002 A 
ATOM     65  C   UNL A   1      41.637  27.105  26.988  1.00  0.00     0.091 A 
ATOM     66  F   UNL A   1      42.389  29.034  28.176  1.00  0.00    -0.205 F 
ATOM     67  C   UNL A   1      40.845  25.945  26.955  1.00  0.00     0.022 A 
BRANCH  65  68
ATOM     68  S   UNL A   1      42.632  27.447  25.533  1.00  0.00     0.127 S 
ATOM     69  O   UNL A   1      42.084  28.731  25.097  1.00  0.00    -0.237 OA
ATOM     70  O   UNL A   1      43.982  27.520  26.093  1.00  0.00    -0.237 OA
ATOM     71  O   UNL A   1      42.412  26.332  24.623  1.00  0.00    -0.744 OA
ENDBRANCH  65  68
ENDBRANCH  47  61
BRANCH  48  72
ATOM     72  C   UNL A   1      39.456  33.727  37.007  1.00  0.00     0.023 A 
ATOM     73  C   UNL A   1      39.871  35.073  36.988  1.00  0.00     0.012 A 
ATOM     74  C   UNL A   1      38.795  33.228  38.146  1.00  0.00     0.148 A 
ATOM     75  C   UNL A   1      39.661  35.897  38.094  1.00  0.00     0.002 A 
ATOM     76  C   UNL A   1      38.540  34.069  39.222  1.00  0.00     0.091 A 
ATOM     77  F   UNL A   1      38.417  31.942  38.148  1.00  0.00    -0.205 F 
ATOM     78  C   UNL A   1      38.987  35.399  39.205  1.00  0.00     0.022 A 
BRANCH  76  79
ATOM     79  S   UNL A   1      37.565  33.550  40.640  1.00  0.00     0.127 S 
ATOM     80  O   UNL A   1      36.350  33.053  40.001  1.00  0.00    -0.237 OA
ATOM     81  O   UNL A   1      38.417  32.519  41.232  1.00  0.00    -0.237 OA
ATOM     82  O   UNL A   1      37.404  34.741  41.464  1.00  0.00    -0.744 OA
ENDBRANCH  76  79
ENDBRANCH  48  72
BRANCH  60  83
ATOM     83  C   UNL A   1      44.168  28.820  35.415  1.00  0.00     0.023 A 
ATOM     84  C   UNL A   1      45.442  29.382  35.204  1.00  0.00     0.012 A 
ATOM     85  C   UNL A   1      44.013  27.794  36.369  1.00  0.00     0.148 A 
ATOM     86  C   UNL A   1      46.551  28.908  35.907  1.00  0.00     0.002 A 
ATOM     87  C   UNL A   1      45.112  27.364  37.102  1.00  0.00     0.091 A 
ATOM     88  F   UNL A   1      42.796  27.261  36.542  1.00  0.00    -0.205 F 
ATOM     89  C   UNL A   1      46.384  27.910  36.862  1.00  0.00     0.022 A 
BRANCH  87  90
ATOM     90  S   UNL A   1      44.975  26.154  38.423  1.00  0.00     0.127 S 
ATOM     91  O   UNL A   1      44.807  24.911  37.671  1.00  0.00    -0.237 OA
ATOM     92  O   UNL A   1      46.265  26.288  39.100  1.00  0.00    -0.237 OA
ATOM     93  O   UNL A   1      43.827  26.559  39.222  1.00  0.00    -0.744 OA
ENDBRANCH  87  90
ENDBRANCH  60  83
ENDBRANCH  34  35
ENDBRANCH  26  29
ENDBRANCH  24  25
ENDBRANCH  23  24
ENDBRANCH   1  23
TORSDOF 17
ENDMDL
MODEL 2
REMARK VINA RESULT:     -11.3      1.699      2.039
REMARK SMILES COc1ccc(NCc2cc(C(=O)NCCCNC(=O)c3ccc(-c4c5nc(c(-c6cccc(S(=O)(=O)[O-])c6F)c6ccc([nH]6)c(-c6cccc(S(=O)(=O)[O-])c6F)c6nc(c(-c7cccc(S(=O)(=O)[O-])c7F)c7ccc4[nH]7)C=C6)C=C5)cc3)cs2)cc1Br
REMARK SMILES IDX 15 1 14 2 12 3 13 4 11 6 9 7 10 8 85 9 84 10 8 11 7 12 6 14
REMARK SMILES IDX 3 15 4 16 87 17 5 18 86 19 88 20 2 21 1 22 16 23 17 24 18 25
REMARK SMILES IDX 19 26 20 28 21 29 22 30 83 31 23 32 82 33 24 34 25 35 26 36
REMARK SMILES IDX 76 37 27 38 81 39 75 40 77 41 28 42 80 43 74 44 73 45 29 47
REMARK SMILES IDX 61 48 41 49 60 50 42 51 45 52 59 53 78 54 43 55 44 56 58 58
REMARK SMILES IDX 79 59 46 60 30 61 31 62 39 63 32 64 34 65 40 66 33 67 35 68
REMARK SMILES IDX 36 69 37 70 38 71 62 72 63 73 71 74 64 75 66 76 72 77 65 78
REMARK SMILES IDX 67 79 68 80 69 81 70 82 47 83 48 84 56 85 49 86 51 87 57 88
REMARK SMILES IDX 50 89 52 90 53 91 54 92 55 93
REMARK H PARENT 14 5 7 13 18 27 77 46 45 57
REMARK Flexibility Score: inf
ROOT
ATOM      1  C   UNL A   1      31.255  30.475  25.305  1.00  0.00     0.118 C 
ENDROOT
BRANCH   1   2
ATOM      2  N   UNL A   1      30.269  30.560  24.244  1.00  0.00    -0.352 N 
ATOM      3  C   UNL A   1      29.818  29.631  23.342  1.00  0.00     0.252 C 
ATOM      4  O   UNL A   1      28.868  29.959  22.630  1.00  0.00    -0.269 OA
ATOM      5  H   UNL A   1      29.847  31.445  24.157  1.00  0.00     0.163 HD
BRANCH   3   6
ATOM      6  C   UNL A   1      30.398  28.287  23.266  1.00  0.00     0.050 A 
ATOM      7  C   UNL A   1      31.748  26.451  22.650  1.00  0.00     0.024 A 
ATOM      8  C   UNL A   1      31.357  27.742  22.353  1.00  0.00     0.031 A 
ATOM      9  S   UNL A   1      30.846  25.826  23.959  1.00  0.00    -0.146 S 
ATOM     10  C   UNL A   1      29.989  27.293  24.142  1.00  0.00     0.079 A 
BRANCH   7  11
ATOM     11  C   UNL A   1      32.801  25.622  21.970  1.00  0.00     0.159 C 
BRANCH  11  12
ATOM     12  N   UNL A   1      32.666  24.194  22.206  1.00  0.00    -0.380 N 
ATOM     13  H   UNL A   1      31.908  23.752  21.761  1.00  0.00     0.160 HD
BRANCH  12  14
ATOM     14  C   UNL A   1      33.472  23.383  22.978  1.00  0.00     0.036 A 
ATOM     15  C   UNL A   1      34.948  21.661  24.684  1.00  0.00     0.133 A 
ATOM     16  C   UNL A   1      35.482  22.881  24.265  1.00  0.00     0.050 A 
ATOM     17  C   UNL A   1      33.671  21.298  24.259  1.00  0.00     0.062 A 
ATOM     18  C   UNL A   1      34.755  23.725  23.414  1.00  0.00     0.029 A 
ATOM     19  C   UNL A   1      32.955  22.149  23.407  1.00  0.00     0.045 A 
ATOM     20  Br  UNL A   1      32.800  19.720  24.849  1.00  0.00    -0.047 Br
BRANCH  15  21
ATOM     21  O   UNL A   1      35.678  20.958  25.604  1.00  0.00    -0.496 OA
ATOM     22  C   UNL A   1      36.711  20.180  25.000  1.00  0.00     0.278 C 
ENDBRANCH  15  21
ENDBRANCH  12  14
ENDBRANCH  11  12
ENDBRANCH   7  11
ENDBRANCH   3   6
ENDBRANCH   1   2
BRANCH   1  23
ATOM     23  C   UNL A   1      31.161  31.663  26.260  1.00  0.00     0.042 C 
BRANCH  23  24
ATOM     24  C   UNL A   1      32.514  32.076  26.838  1.00  0.00     0.118 C 
BRANCH  24  25
ATOM     25  N   UNL A   1      32.520  33.472  27.260  1.00  0.00    -0.352 N 
ATOM     26  C   UNL A   1      33.259  34.102  28.228  1.00  0.00     0.251 C 
ATOM     27  H   UNL A   1      31.893  34.055  26.773  1.00  0.00     0.163 HD
ATOM     28  O   UNL A   1      32.931  35.229  28.592  1.00  0.00    -0.269 OA
BRANCH  26  29
ATOM     29  C   UNL A   1      34.436  33.442  28.829  1.00  0.00     0.039 A 
ATOM     30  C   UNL A   1      35.711  33.931  28.524  1.00  0.00     0.014 A 
ATOM     31  C   UNL A   1      34.296  32.320  29.648  1.00  0.00     0.014 A 
ATOM     32  C   UNL A   1      36.837  33.325  29.083  1.00  0.00     0.010 A 
ATOM     33  C   UNL A   1      35.414  31.766  30.265  1.00  0.00     0.010 A 
ATOM     34  C   UNL A   1      36.697  32.256  29.982  1.00  0.00    -0.014 A 
BRANCH  34  35
ATOM     35  C   UNL A   1      37.877  31.648  30.646  1.00  0.00     0.031 A 
ATOM     36  C   UNL A   1      38.673  30.575  29.955  1.00  0.00     0.074 A 
ATOM     37  C   UNL A   1      38.177  32.004  31.911  1.00  0.00     0.049 A 
ATOM     38  N   UNL A   1      39.689  29.884  30.402  1.00  0.00    -0.248 NA
ATOM     39  C   UNL A   1      38.255  30.209  28.591  1.00  0.00     0.031 C 
ATOM     40  C   UNL A   1      37.430  32.973  32.716  1.00  0.00     0.029 A 
ATOM     41  N   UNL A   1      39.170  31.569  32.752  1.00  0.00    -0.354 N 
ATOM     42  C   UNL A   1      40.012  28.984  29.394  1.00  0.00     0.074 A 
ATOM     43  C   UNL A   1      39.058  29.189  28.326  1.00  0.00     0.031 C 
ATOM     44  C   UNL A   1      37.989  33.058  33.933  1.00  0.00     0.029 A 
ATOM     45  C   UNL A   1      39.111  32.128  34.008  1.00  0.00     0.049 A 
ATOM     46  H   UNL A   1      39.859  30.919  32.484  1.00  0.00     0.167 HD
ATOM     47  C   UNL A   1      41.027  28.088  29.347  1.00  0.00     0.034 A 
ATOM     48  C   UNL A   1      39.864  31.905  35.102  1.00  0.00     0.034 A 
ATOM     49  C   UNL A   1      41.991  27.911  30.401  1.00  0.00     0.049 A 
ATOM     50  C   UNL A   1      41.006  30.930  35.014  1.00  0.00     0.074 A 
ATOM     51  C   UNL A   1      43.102  27.088  30.421  1.00  0.00     0.029 A 
ATOM     52  N   UNL A   1      41.952  28.560  31.626  1.00  0.00    -0.354 N 
ATOM     53  N   UNL A   1      41.388  30.197  33.997  1.00  0.00    -0.248 NA
ATOM     54  C   UNL A   1      41.843  30.778  36.213  1.00  0.00     0.031 C 
ATOM     55  C   UNL A   1      43.720  27.218  31.669  1.00  0.00     0.029 A 
ATOM     56  C   UNL A   1      43.014  28.149  32.413  1.00  0.00     0.049 A 
ATOM     57  H   UNL A   1      41.269  29.215  31.896  1.00  0.00     0.167 HD
ATOM     58  C   UNL A   1      42.528  29.523  34.419  1.00  0.00     0.074 A 
ATOM     59  C   UNL A   1      42.786  29.954  35.778  1.00  0.00     0.031 C 
ATOM     60  C   UNL A   1      43.285  28.620  33.748  1.00  0.00     0.034 A 
BRANCH  47  61
ATOM     61  C   UNL A   1      41.176  27.264  28.093  1.00  0.00     0.023 A 
ATOM     62  C   UNL A   1      41.778  27.835  26.953  1.00  0.00     0.012 A 
ATOM     63  C   UNL A   1      40.769  25.916  28.054  1.00  0.00     0.148 A 
ATOM     64  C   UNL A   1      41.935  27.095  25.782  1.00  0.00     0.002 A 
ATOM     65  C   UNL A   1      40.971  25.169  26.899  1.00  0.00     0.091 A 
ATOM     66  F   UNL A   1      40.181  25.393  29.140  1.00  0.00    -0.205 F 
ATOM     67  C   UNL A   1      41.540  25.760  25.758  1.00  0.00     0.022 A 
BRANCH  65  68
ATOM     68  S   UNL A   1      40.574  23.421  26.791  1.00  0.00     0.127 S 
ATOM     69  O   UNL A   1      39.141  23.461  26.505  1.00  0.00    -0.237 OA
ATOM     70  O   UNL A   1      41.407  22.985  25.670  1.00  0.00    -0.237 OA
ATOM     71  O   UNL A   1      40.939  22.845  28.078  1.00  0.00    -0.744 OA
ENDBRANCH  65  68
ENDBRANCH  47  61
BRANCH  48  72
ATOM     72  C   UNL A   1      39.591  32.661  36.356  1.00  0.00     0.023 A 
ATOM     73  C   UNL A   1      40.250  33.884  36.590  1.00  0.00     0.012 A 
ATOM     74  C   UNL A   1      38.655  32.193  37.299  1.00  0.00     0.148 A 
ATOM     75  C   UNL A   1      40.006  34.611  37.756  1.00  0.00     0.002 A 
ATOM     76  C   UNL A   1      38.375  32.950  38.431  1.00  0.00     0.091 A 
ATOM     77  F   UNL A   1      38.046  31.023  37.062  1.00  0.00    -0.205 F 
ATOM     78  C   UNL A   1      39.062  34.150  38.669  1.00  0.00     0.022 A 
BRANCH  76  79
ATOM     79  S   UNL A   1      37.083  32.500  39.595  1.00  0.00     0.127 S 
ATOM     80  O   UNL A   1      35.878  32.691  38.792  1.00  0.00    -0.237 OA
ATOM     81  O   UNL A   1      37.413  31.105  39.890  1.00  0.00    -0.237 OA
ATOM     82  O   UNL A   1      37.239  33.405  40.726  1.00  0.00    -0.744 OA
ENDBRANCH  76  79
ENDBRANCH  48  72
BRANCH  60  83
ATOM     83  C   UNL A   1      44.492  28.059  34.454  1.00  0.00     0.023 A 
ATOM     84  C   UNL A   1      45.728  28.731  34.378  1.00  0.00     0.012 A 
ATOM     85  C   UNL A   1      44.381  26.903  35.253  1.00  0.00     0.148 A 
ATOM     86  C   UNL A   1      46.843  28.243  35.059  1.00  0.00     0.002 A 
ATOM     87  C   UNL A   1      45.482  26.452  35.968  1.00  0.00     0.091 A 
ATOM     88  F   UNL A   1      43.201  26.269  35.298  1.00  0.00    -0.205 F 
ATOM     89  C   UNL A   1      46.718  27.112  35.862  1.00  0.00     0.022 A 
BRANCH  87  90
ATOM     90  S   UNL A   1      45.390  25.065  37.105  1.00  0.00     0.127 S 
ATOM     91  O   UNL A   1      45.042  23.965  36.206  1.00  0.00    -0.237 OA
ATOM     92  O   UNL A   1      46.752  25.010  37.637  1.00  0.00    -0.237 OA
ATOM     93  O   UNL A   1      44.372  25.414  38.086  1.00  0.00    -0.744 OA
ENDBRANCH  87  90
ENDBRANCH  60  83
ENDBRANCH  34  35
ENDBRANCH  26  29
ENDBRANCH  24  25
ENDBRANCH  23  24
ENDBRANCH   1  23
TORSDOF 17
ENDMDL
MODEL 3
REMARK VINA RESULT:     -11.0      3.370      8.635
REMARK SMILES COc1ccc(NCc2cc(C(=O)NCCCNC(=O)c3ccc(-c4c5nc(c(-c6cccc(S(=O)(=O)[O-])c6F)c6ccc([nH]6)c(-c6cccc(S(=O)(=O)[O-])c6F)c6nc(c(-c7cccc(S(=O)(=O)[O-])c7F)c7ccc4[nH]7)C=C6)C=C5)cc3)cs2)cc1Br
REMARK SMILES IDX 15 1 14 2 12 3 13 4 11 6 9 7 10 8 85 9 84 10 8 11 7 12 6 14
REMARK SMILES IDX 3 15 4 16 87 17 5 18 86 19 88 20 2 21 1 22 16 23 17 24 18 25
REMARK SMILES IDX 19 26 20 28 21 29 22 30 83 31 23 32 82 33 24 34 25 35 26 36
REMARK SMILES IDX 76 37 27 38 81 39 75 40 77 41 28 42 80 43 74 44 73 45 29 47
REMARK SMILES IDX 61 48 41 49 60 50 42 51 45 52 59 53 78 54 43 55 44 56 58 58
REMARK SMILES IDX 79 59 46 60 30 61 31 62 39 63 32 64 34 65 40 66 33 67 35 68
REMARK SMILES IDX 36 69 37 70 38 71 62 72 63 73 71 74 64 75 66 76 72 77 65 78
REMARK SMILES IDX 67 79 68 80 69 81 70 82 47 83 48 84 56 85 49 86 51 87 57 88
REMARK SMILES IDX 50 89 52 90 53 91 54 92 55 93
REMARK H PARENT 14 5 7 13 18 27 77 46 45 57
REMARK Flexibility Score: inf
ROOT
ATOM      1  C   UNL A   1      31.787  28.863  25.976  1.00  0.00     0.118 C 
ENDROOT
BRANCH   1   2
ATOM      2  N   UNL A   1      31.004  29.493  24.929  1.00  0.00    -0.352 N 
ATOM      3  C   UNL A   1      30.520  29.015  23.738  1.00  0.00     0.252 C 
ATOM      4  O   UNL A   1      29.768  29.754  23.104  1.00  0.00    -0.269 OA
ATOM      5  H   UNL A   1      30.779  30.435  25.106  1.00  0.00     0.163 HD
BRANCH   3   6
ATOM      6  C   UNL A   1      30.835  27.663  23.268  1.00  0.00     0.050 A 
ATOM      7  C   UNL A   1      30.872  25.314  23.034  1.00  0.00     0.024 A 
ATOM      8  C   UNL A   1      30.476  26.387  23.809  1.00  0.00     0.031 A 
ATOM      9  S   UNL A   1      31.813  25.833  21.707  1.00  0.00    -0.146 S 
ATOM     10  C   UNL A   1      31.639  27.473  22.155  1.00  0.00     0.079 A 
BRANCH   7  11
ATOM     11  C   UNL A   1      30.575  23.856  23.249  1.00  0.00     0.159 C 
BRANCH  11  12
ATOM     12  N   UNL A   1      31.659  22.973  22.852  1.00  0.00    -0.380 N 
ATOM     13  H   UNL A   1      31.508  22.442  22.038  1.00  0.00     0.160 HD
BRANCH  12  14
ATOM     14  C   UNL A   1      32.874  22.788  23.478  1.00  0.00     0.036 A 
ATOM     15  C   UNL A   1      35.286  22.499  24.947  1.00  0.00     0.133 A 
ATOM     16  C   UNL A   1      35.309  22.882  23.604  1.00  0.00     0.050 A 
ATOM     17  C   UNL A   1      34.058  22.265  25.564  1.00  0.00     0.062 A 
ATOM     18  C   UNL A   1      34.116  23.014  22.878  1.00  0.00     0.029 A 
ATOM     19  C   UNL A   1      32.873  22.399  24.827  1.00  0.00     0.045 A 
ATOM     20  Br  UNL A   1      33.897  21.848  27.407  1.00  0.00    -0.047 Br
BRANCH  15  21
ATOM     21  O   UNL A   1      36.485  22.509  25.606  1.00  0.00    -0.496 OA
ATOM     22  C   UNL A   1      36.962  23.832  25.846  1.00  0.00     0.278 C 
ENDBRANCH  15  21
ENDBRANCH  12  14
ENDBRANCH  11  12
ENDBRANCH   7  11
ENDBRANCH   3   6
ENDBRANCH   1   2
BRANCH   1  23
ATOM     23  C   UNL A   1      33.193  28.512  25.495  1.00  0.00     0.042 C 
BRANCH  23  24
ATOM     24  C   UNL A   1      34.284  28.918  26.484  1.00  0.00     0.118 C 
BRANCH  24  25
ATOM     25  N   UNL A   1      34.034  30.237  27.056  1.00  0.00    -0.352 N 
ATOM     26  C   UNL A   1      34.691  30.910  28.054  1.00  0.00     0.251 C 
ATOM     27  H   UNL A   1      33.272  30.721  26.662  1.00  0.00     0.163 HD
ATOM     28  O   UNL A   1      34.166  31.903  28.552  1.00  0.00    -0.269 OA
BRANCH  26  29
ATOM     29  C   UNL A   1      36.014  30.454  28.528  1.00  0.00     0.039 A 
ATOM     30  C   UNL A   1      36.082  29.675  29.687  1.00  0.00     0.014 A 
ATOM     31  C   UNL A   1      37.186  30.829  27.868  1.00  0.00     0.014 A 
ATOM     32  C   UNL A   1      37.321  29.231  30.152  1.00  0.00     0.010 A 
ATOM     33  C   UNL A   1      38.413  30.322  28.288  1.00  0.00     0.010 A 
ATOM     34  C   UNL A   1      38.495  29.525  29.439  1.00  0.00    -0.014 A 
BRANCH  34  35
ATOM     35  C   UNL A   1      39.813  28.998  29.873  1.00  0.00     0.031 A 
ATOM     36  C   UNL A   1      40.580  29.677  30.974  1.00  0.00     0.074 A 
ATOM     37  C   UNL A   1      40.356  27.956  29.212  1.00  0.00     0.049 A 
ATOM     38  N   UNL A   1      41.771  29.402  31.441  1.00  0.00    -0.248 NA
ATOM     39  C   UNL A   1      39.940  30.837  31.617  1.00  0.00     0.031 C 
ATOM     40  C   UNL A   1      39.744  27.266  28.074  1.00  0.00     0.029 A 
ATOM     41  N   UNL A   1      41.557  27.317  29.381  1.00  0.00    -0.354 N 
ATOM     42  C   UNL A   1      42.035  30.367  32.405  1.00  0.00     0.074 A 
ATOM     43  C   UNL A   1      40.897  31.260  32.429  1.00  0.00     0.031 C 
ATOM     44  C   UNL A   1      40.574  26.302  27.647  1.00  0.00     0.029 A 
ATOM     45  C   UNL A   1      41.788  26.326  28.456  1.00  0.00     0.049 A 
ATOM     46  H   UNL A   1      42.195  27.545  30.097  1.00  0.00     0.167 HD
ATOM     47  C   UNL A   1      43.113  30.484  33.217  1.00  0.00     0.034 A 
ATOM     48  C   UNL A   1      42.863  25.536  28.268  1.00  0.00     0.034 A 
ATOM     49  C   UNL A   1      44.228  29.574  33.208  1.00  0.00     0.049 A 
ATOM     50  C   UNL A   1      44.033  25.663  29.204  1.00  0.00     0.074 A 
ATOM     51  C   UNL A   1      45.331  29.557  34.042  1.00  0.00     0.029 A 
ATOM     52  N   UNL A   1      44.386  28.526  32.314  1.00  0.00    -0.354 N 
ATOM     53  N   UNL A   1      44.198  26.486  30.210  1.00  0.00    -0.248 NA
ATOM     54  C   UNL A   1      45.149  24.727  29.003  1.00  0.00     0.031 C 
ATOM     55  C   UNL A   1      46.171  28.516  33.634  1.00  0.00     0.029 A 
ATOM     56  C   UNL A   1      45.574  27.861  32.569  1.00  0.00     0.049 A 
ATOM     57  H   UNL A   1      43.748  28.290  31.603  1.00  0.00     0.167 HD
ATOM     58  C   UNL A   1      45.418  26.148  30.784  1.00  0.00     0.074 A 
ATOM     59  C   UNL A   1      45.939  25.029  30.025  1.00  0.00     0.031 C 
ATOM     60  C   UNL A   1      46.057  26.720  31.835  1.00  0.00     0.034 A 
BRANCH  47  61
ATOM     61  C   UNL A   1      43.115  31.611  34.219  1.00  0.00     0.023 A 
ATOM     62  C   UNL A   1      43.722  32.839  33.883  1.00  0.00     0.012 A 
ATOM     63  C   UNL A   1      42.479  31.477  35.469  1.00  0.00     0.148 A 
ATOM     64  C   UNL A   1      43.734  33.900  34.788  1.00  0.00     0.002 A 
ATOM     65  C   UNL A   1      42.452  32.555  36.347  1.00  0.00     0.091 A 
ATOM     66  F   UNL A   1      41.923  30.297  35.780  1.00  0.00    -0.205 F 
ATOM     67  C   UNL A   1      43.091  33.761  36.014  1.00  0.00     0.022 A 
BRANCH  65  68
ATOM     68  S   UNL A   1      41.581  32.506  37.917  1.00  0.00     0.127 S 
ATOM     69  O   UNL A   1      42.340  31.489  38.643  1.00  0.00    -0.237 OA
ATOM     70  O   UNL A   1      41.763  33.871  38.411  1.00  0.00    -0.237 OA
ATOM     71  O   UNL A   1      40.204  32.153  37.602  1.00  0.00    -0.744 OA
ENDBRANCH  65  68
ENDBRANCH  47  61
BRANCH  48  72
ATOM     72  C   UNL A   1      42.854  24.519  27.178  1.00  0.00     0.023 A 
ATOM     73  C   UNL A   1      43.521  24.791  25.968  1.00  0.00     0.012 A 
ATOM     74  C   UNL A   1      42.222  23.272  27.351  1.00  0.00     0.148 A 
ATOM     75  C   UNL A   1      43.531  23.852  24.936  1.00  0.00     0.002 A 
ATOM     76  C   UNL A   1      42.283  22.320  26.340  1.00  0.00     0.091 A 
ATOM     77  F   UNL A   1      41.585  23.038  28.507  1.00  0.00    -0.205 F 
ATOM     78  C   UNL A   1      42.922  22.614  25.126  1.00  0.00     0.022 A 
BRANCH  76  79
ATOM     79  S   UNL A   1      41.640  20.656  26.546  1.00  0.00     0.127 S 
ATOM     80  O   UNL A   1      42.256  19.957  25.422  1.00  0.00    -0.237 OA
ATOM     81  O   UNL A   1      42.163  20.290  27.862  1.00  0.00    -0.237 OA
ATOM     82  O   UNL A   1      40.189  20.784  26.491  1.00  0.00    -0.744 OA
ENDBRANCH  76  79
ENDBRANCH  48  72
BRANCH  60  83
ATOM     83  C   UNL A   1      47.375  26.125  32.258  1.00  0.00     0.023 A 
ATOM     84  C   UNL A   1      48.572  26.573  31.666  1.00  0.00     0.012 A 
ATOM     85  C   UNL A   1      47.431  25.172  33.295  1.00  0.00     0.148 A 
ATOM     86  C   UNL A   1      49.802  26.058  32.076  1.00  0.00     0.002 A 
ATOM     87  C   UNL A   1      48.662  24.702  33.733  1.00  0.00     0.091 A 
ATOM     88  F   UNL A   1      46.280  24.746  33.833  1.00  0.00    -0.205 F 
ATOM     89  C   UNL A   1      49.848  25.133  33.116  1.00  0.00     0.022 A 
BRANCH  87  90
ATOM     90  S   UNL A   1      48.825  23.586  35.131  1.00  0.00     0.127 S 
ATOM     91  O   UNL A   1      48.187  24.353  36.200  1.00  0.00    -0.237 OA
ATOM     92  O   UNL A   1      48.069  22.417  34.684  1.00  0.00    -0.237 OA
ATOM     93  O   UNL A   1      50.254  23.355  35.298  1.00  0.00    -0.744 OA
ENDBRANCH  87  90
ENDBRANCH  60  83
ENDBRANCH  34  35
ENDBRANCH  26  29
ENDBRANCH  24  25
ENDBRANCH  23  24
ENDBRANCH   1  23
TORSDOF 17
ENDMDL
