MODEL 1
REMARK VINA RESULT:     -11.8      0.000      0.000
REMARK SMILES C[C@@H](C(=O)NCCCNC(=O)c1ccc(-c2c3nc(c(-c4cccc(S(=O)(=O)[O-])c4F)c4ccc([nH]4)c(-c4cccc(S(=O)(=O)[O-])c4F)c4nc(c(-c5cccc(S(=O)(=O)[O-])c5F)c5ccc2[nH]5)C=C4)C=C3)cc1)c1ccc(C[C@H]2CCC[C@H]2O)cc1
REMARK SMILES IDX 6 1 5 2 3 3 4 4 2 6 1 7 75 8 76 9 87 10 77 11 86 12 78 13
REMARK SMILES IDX 79 14 80 15 81 16 84 17 82 18 83 19 85 20 7 22 8 23 9 24
REMARK SMILES IDX 10 25 11 27 12 28 13 29 74 30 14 31 73 32 15 33 16 34 17 35
REMARK SMILES IDX 67 36 18 37 72 38 66 39 68 40 19 41 71 42 65 43 64 44 20 46
REMARK SMILES IDX 52 47 32 48 51 49 33 50 36 51 50 52 69 53 34 54 35 55 49 57
REMARK SMILES IDX 70 58 37 59 21 60 22 61 30 62 23 63 25 64 31 65 24 66 26 67
REMARK SMILES IDX 27 68 28 69 29 70 53 71 54 72 62 73 55 74 57 75 63 76 56 77
REMARK SMILES IDX 58 78 59 79 60 80 61 81 38 82 39 83 47 84 40 85 42 86 48 87
REMARK SMILES IDX 41 88 43 89 44 90 45 91 46 92
REMARK H PARENT 5 5 85 21 9 26 68 45 36 56
REMARK Flexibility Score: inf
ROOT
ATOM      1  C   UNL A   1      36.067  19.667  24.985  1.00  0.00     0.117 C 
ENDROOT
BRANCH   1   2
ATOM      2  N   UNL A   1      35.774  20.836  25.791  1.00  0.00    -0.356 N 
ATOM      3  C   UNL A   1      35.563  22.126  25.396  1.00  0.00     0.227 C 
ATOM      4  O   UNL A   1      35.841  22.987  26.231  1.00  0.00    -0.274 OA
ATOM      5  H   UNL A   1      35.721  20.678  26.761  1.00  0.00     0.163 HD
BRANCH   3   6
ATOM      6  C   UNL A   1      35.003  22.417  23.989  1.00  0.00     0.105 C 
ATOM      7  C   UNL A   1      36.107  23.041  23.129  1.00  0.00     0.023 C 
BRANCH   6   8
ATOM      8  C   UNL A   1      33.721  23.264  23.930  1.00  0.00    -0.036 A 
ATOM      9  C   UNL A   1      32.718  23.209  24.904  1.00  0.00     0.005 A 
ATOM     10  C   UNL A   1      33.501  24.125  22.837  1.00  0.00     0.005 A 
ATOM     11  C   UNL A   1      31.572  23.998  24.817  1.00  0.00     0.004 A 
ATOM     12  C   UNL A   1      32.333  24.887  22.727  1.00  0.00     0.004 A 
ATOM     13  C   UNL A   1      31.338  24.801  23.705  1.00  0.00    -0.048 A 
BRANCH  13  14
ATOM     14  C   UNL A   1      30.018  25.506  23.546  1.00  0.00     0.041 C 
BRANCH  14  15
ATOM     15  C   UNL A   1      29.977  26.993  23.947  1.00  0.00     0.022 C 
ATOM     16  C   UNL A   1      31.161  27.490  24.795  1.00  0.00     0.007 C 
ATOM     17  C   UNL A   1      29.814  28.058  22.848  1.00  0.00     0.117 C 
ATOM     18  C   UNL A   1      31.326  28.976  24.464  1.00  0.00     0.003 C 
ATOM     19  C   UNL A   1      30.129  29.348  23.594  1.00  0.00     0.032 C 
BRANCH  17  20
ATOM     20  O   UNL A   1      30.713  27.962  21.758  1.00  0.00    -0.393 OA
ATOM     21  H   UNL A   1      30.846  28.841  21.371  1.00  0.00     0.210 HD
ENDBRANCH  17  20
ENDBRANCH  14  15
ENDBRANCH  13  14
ENDBRANCH   6   8
ENDBRANCH   3   6
ENDBRANCH   1   2
BRANCH   1  22
ATOM     22  C   UNL A   1      37.555  19.605  24.632  1.00  0.00     0.042 C 
BRANCH  22  23
ATOM     23  C   UNL A   1      38.489  20.092  25.737  1.00  0.00     0.118 C 
BRANCH  23  24
ATOM     24  N   UNL A   1      39.688  19.277  25.856  1.00  0.00    -0.352 N 
ATOM     25  C   UNL A   1      40.980  19.657  26.134  1.00  0.00     0.251 C 
ATOM     26  H   UNL A   1      39.556  18.311  25.717  1.00  0.00     0.163 HD
ATOM     27  O   UNL A   1      41.893  18.851  25.998  1.00  0.00    -0.269 OA
BRANCH  25  28
ATOM     28  C   UNL A   1      41.269  21.042  26.572  1.00  0.00     0.039 A 
ATOM     29  C   UNL A   1      41.845  21.244  27.829  1.00  0.00     0.014 A 
ATOM     30  C   UNL A   1      40.977  22.134  25.752  1.00  0.00     0.014 A 
ATOM     31  C   UNL A   1      42.200  22.534  28.231  1.00  0.00     0.010 A 
ATOM     32  C   UNL A   1      41.398  23.410  26.123  1.00  0.00     0.010 A 
ATOM     33  C   UNL A   1      42.021  23.623  27.362  1.00  0.00    -0.014 A 
BRANCH  33  34
ATOM     34  C   UNL A   1      42.525  24.979  27.705  1.00  0.00     0.031 A 
ATOM     35  C   UNL A   1      41.611  25.998  28.330  1.00  0.00     0.074 A 
ATOM     36  C   UNL A   1      43.778  25.328  27.348  1.00  0.00     0.049 A 
ATOM     37  N   UNL A   1      41.849  27.253  28.610  1.00  0.00    -0.248 NA
ATOM     38  C   UNL A   1      40.246  25.560  28.664  1.00  0.00     0.031 C 
ATOM     39  C   UNL A   1      44.738  24.452  26.670  1.00  0.00     0.029 A 
ATOM     40  N   UNL A   1      44.448  26.522  27.466  1.00  0.00    -0.354 N 
ATOM     41  C   UNL A   1      40.656  27.766  29.106  1.00  0.00     0.074 A 
ATOM     42  C   UNL A   1      39.691  26.690  29.082  1.00  0.00     0.031 C 
ATOM     43  C   UNL A   1      45.864  25.139  26.422  1.00  0.00     0.029 A 
ATOM     44  C   UNL A   1      45.695  26.514  26.882  1.00  0.00     0.049 A 
ATOM     45  H   UNL A   1      44.073  27.307  27.924  1.00  0.00     0.167 HD
ATOM     46  C   UNL A   1      40.395  29.017  29.553  1.00  0.00     0.034 A 
ATOM     47  C   UNL A   1      46.592  27.507  26.708  1.00  0.00     0.034 A 
ATOM     48  C   UNL A   1      41.370  30.073  29.617  1.00  0.00     0.049 A 
ATOM     49  C   UNL A   1      46.274  28.881  27.234  1.00  0.00     0.074 A 
ATOM     50  C   UNL A   1      41.231  31.334  30.170  1.00  0.00     0.029 A 
ATOM     51  N   UNL A   1      42.648  30.005  29.089  1.00  0.00    -0.354 N 
ATOM     52  N   UNL A   1      45.209  29.292  27.878  1.00  0.00    -0.248 NA
ATOM     53  C   UNL A   1      47.292  29.924  27.033  1.00  0.00     0.031 C 
ATOM     54  C   UNL A   1      42.410  32.046  29.935  1.00  0.00     0.029 A 
ATOM     55  C   UNL A   1      43.297  31.214  29.271  1.00  0.00     0.049 A 
ATOM     56  H   UNL A   1      43.038  29.215  28.650  1.00  0.00     0.167 HD
ATOM     57  C   UNL A   1      45.441  30.628  28.185  1.00  0.00     0.074 A 
ATOM     58  C   UNL A   1      46.759  30.950  27.681  1.00  0.00     0.031 C 
ATOM     59  C   UNL A   1      44.629  31.512  28.811  1.00  0.00     0.034 A 
BRANCH  46  60
ATOM     60  C   UNL A   1      39.004  29.326  30.041  1.00  0.00     0.023 A 
ATOM     61  C   UNL A   1      38.621  28.958  31.346  1.00  0.00     0.012 A 
ATOM     62  C   UNL A   1      38.118  30.077  29.244  1.00  0.00     0.148 A 
ATOM     63  C   UNL A   1      37.367  29.315  31.843  1.00  0.00     0.002 A 
ATOM     64  C   UNL A   1      36.889  30.468  29.762  1.00  0.00     0.091 A 
ATOM     65  F   UNL A   1      38.496  30.401  28.000  1.00  0.00    -0.205 F 
ATOM     66  C   UNL A   1      36.509  30.079  31.057  1.00  0.00     0.022 A 
BRANCH  64  67
ATOM     67  S   UNL A   1      35.747  31.524  28.863  1.00  0.00     0.127 S 
ATOM     68  O   UNL A   1      35.183  30.588  27.891  1.00  0.00    -0.237 OA
ATOM     69  O   UNL A   1      34.822  31.939  29.918  1.00  0.00    -0.237 OA
ATOM     70  O   UNL A   1      36.551  32.598  28.297  1.00  0.00    -0.744 OA
ENDBRANCH  64  67
ENDBRANCH  46  60
BRANCH  47  71
ATOM     71  C   UNL A   1      47.887  27.240  26.017  1.00  0.00     0.023 A 
ATOM     72  C   UNL A   1      48.996  26.800  26.766  1.00  0.00     0.012 A 
ATOM     73  C   UNL A   1      48.028  27.425  24.629  1.00  0.00     0.148 A 
ATOM     74  C   UNL A   1      50.232  26.595  26.152  1.00  0.00     0.002 A 
ATOM     75  C   UNL A   1      49.245  27.159  24.013  1.00  0.00     0.091 A 
ATOM     76  F   UNL A   1      46.966  27.857  23.933  1.00  0.00    -0.205 F 
ATOM     77  C   UNL A   1      50.355  26.765  24.776  1.00  0.00     0.022 A 
BRANCH  75  78
ATOM     78  S   UNL A   1      49.451  27.220  22.230  1.00  0.00     0.127 S 
ATOM     79  O   UNL A   1      48.934  28.548  21.914  1.00  0.00    -0.237 OA
ATOM     80  O   UNL A   1      50.901  27.074  22.088  1.00  0.00    -0.237 OA
ATOM     81  O   UNL A   1      48.685  26.097  21.708  1.00  0.00    -0.744 OA
ENDBRANCH  75  78
ENDBRANCH  47  71
BRANCH  59  82
ATOM     82  C   UNL A   1      45.140  32.913  29.024  1.00  0.00     0.023 A 
ATOM     83  C   UNL A   1      45.869  33.223  30.189  1.00  0.00     0.012 A 
ATOM     84  C   UNL A   1      44.978  33.895  28.027  1.00  0.00     0.148 A 
ATOM     85  C   UNL A   1      46.409  34.496  30.369  1.00  0.00     0.002 A 
ATOM     86  C   UNL A   1      45.563  35.144  28.190  1.00  0.00     0.091 A 
ATOM     87  F   UNL A   1      44.270  33.582  26.932  1.00  0.00    -0.205 F 
ATOM     88  C   UNL A   1      46.267  35.451  29.365  1.00  0.00     0.022 A 
BRANCH  86  89
ATOM     89  S   UNL A   1      45.520  36.408  26.913  1.00  0.00     0.127 S 
ATOM     90  O   UNL A   1      44.092  36.710  26.841  1.00  0.00    -0.237 OA
ATOM     91  O   UNL A   1      46.340  37.467  27.500  1.00  0.00    -0.237 OA
ATOM     92  O   UNL A   1      46.084  35.795  25.717  1.00  0.00    -0.744 OA
ENDBRANCH  86  89
ENDBRANCH  59  82
ENDBRANCH  33  34
ENDBRANCH  25  28
ENDBRANCH  23  24
ENDBRANCH  22  23
ENDBRANCH   1  22
TORSDOF 17
ENDMDL
MODEL 2
REMARK VINA RESULT:     -11.8      5.481     10.445
REMARK SMILES C[C@@H](C(=O)NCCCNC(=O)c1ccc(-c2c3nc(c(-c4cccc(S(=O)(=O)[O-])c4F)c4ccc([nH]4)c(-c4cccc(S(=O)(=O)[O-])c4F)c4nc(c(-c5cccc(S(=O)(=O)[O-])c5F)c5ccc2[nH]5)C=C4)C=C3)cc1)c1ccc(C[C@H]2CCC[C@H]2O)cc1
REMARK SMILES IDX 6 1 5 2 3 3 4 4 2 6 1 7 75 8 76 9 87 10 77 11 86 12 78 13
REMARK SMILES IDX 79 14 80 15 81 16 84 17 82 18 83 19 85 20 7 22 8 23 9 24
REMARK SMILES IDX 10 25 11 27 12 28 13 29 74 30 14 31 73 32 15 33 16 34 17 35
REMARK SMILES IDX 67 36 18 37 72 38 66 39 68 40 19 41 71 42 65 43 64 44 20 46
REMARK SMILES IDX 52 47 32 48 51 49 33 50 36 51 50 52 69 53 34 54 35 55 49 57
REMARK SMILES IDX 70 58 37 59 21 60 22 61 30 62 23 63 25 64 31 65 24 66 26 67
REMARK SMILES IDX 27 68 28 69 29 70 53 71 54 72 62 73 55 74 57 75 63 76 56 77
REMARK SMILES IDX 58 78 59 79 60 80 61 81 38 82 39 83 47 84 40 85 42 86 48 87
REMARK SMILES IDX 41 88 43 89 44 90 45 91 46 92
REMARK H PARENT 5 5 85 21 9 26 68 45 36 56
REMARK Flexibility Score: inf
ROOT
ATOM      1  C   UNL A   1      33.948  27.971  24.574  1.00  0.00     0.117 C 
ENDROOT
BRANCH   1   2
ATOM      2  N   UNL A   1      33.906  27.482  23.210  1.00  0.00    -0.356 N 
ATOM      3  C   UNL A   1      33.177  26.454  22.683  1.00  0.00     0.227 C 
ATOM      4  O   UNL A   1      33.666  25.913  21.691  1.00  0.00    -0.274 OA
ATOM      5  H   UNL A   1      34.487  27.956  22.573  1.00  0.00     0.163 HD
BRANCH   3   6
ATOM      6  C   UNL A   1      31.835  26.054  23.329  1.00  0.00     0.105 C 
ATOM      7  C   UNL A   1      31.472  24.632  22.887  1.00  0.00     0.023 C 
BRANCH   6   8
ATOM      8  C   UNL A   1      30.657  27.014  23.099  1.00  0.00    -0.036 A 
ATOM      9  C   UNL A   1      30.762  28.192  22.351  1.00  0.00     0.005 A 
ATOM     10  C   UNL A   1      29.406  26.740  23.685  1.00  0.00     0.005 A 
ATOM     11  C   UNL A   1      29.667  29.035  22.162  1.00  0.00     0.004 A 
ATOM     12  C   UNL A   1      28.318  27.605  23.530  1.00  0.00     0.004 A 
ATOM     13  C   UNL A   1      28.452  28.784  22.792  1.00  0.00    -0.048 A 
BRANCH  13  14
ATOM     14  C   UNL A   1      27.340  29.797  22.719  1.00  0.00     0.041 C 
BRANCH  14  15
ATOM     15  C   UNL A   1      27.697  31.243  23.112  1.00  0.00     0.022 C 
ATOM     16  C   UNL A   1      28.929  31.405  24.020  1.00  0.00     0.007 C 
ATOM     17  C   UNL A   1      27.894  32.291  22.002  1.00  0.00     0.117 C 
ATOM     18  C   UNL A   1      29.519  32.780  23.693  1.00  0.00     0.003 C 
ATOM     19  C   UNL A   1      28.519  33.455  22.760  1.00  0.00     0.032 C 
BRANCH  17  20
ATOM     20  O   UNL A   1      28.783  31.928  20.962  1.00  0.00    -0.393 OA
ATOM     21  H   UNL A   1      28.331  32.009  20.107  1.00  0.00     0.210 HD
ENDBRANCH  17  20
ENDBRANCH  14  15
ENDBRANCH  13  14
ENDBRANCH   6   8
ENDBRANCH   3   6
ENDBRANCH   1   2
BRANCH   1  22
ATOM     22  C   UNL A   1      33.217  29.310  24.697  1.00  0.00     0.042 C 
BRANCH  22  23
ATOM     23  C   UNL A   1      32.561  29.549  26.055  1.00  0.00     0.118 C 
BRANCH  23  24
ATOM     24  N   UNL A   1      32.358  30.962  26.337  1.00  0.00    -0.352 N 
ATOM     25  C   UNL A   1      33.096  31.811  27.128  1.00  0.00     0.251 C 
ATOM     26  H   UNL A   1      31.577  31.371  25.898  1.00  0.00     0.163 HD
ATOM     27  O   UNL A   1      32.656  32.921  27.402  1.00  0.00    -0.269 OA
BRANCH  25  28
ATOM     28  C   UNL A   1      34.404  31.375  27.667  1.00  0.00     0.039 A 
ATOM     29  C   UNL A   1      35.413  32.328  27.838  1.00  0.00     0.014 A 
ATOM     30  C   UNL A   1      34.638  30.040  28.003  1.00  0.00     0.014 A 
ATOM     31  C   UNL A   1      36.628  31.955  28.419  1.00  0.00     0.010 A 
ATOM     32  C   UNL A   1      35.822  29.685  28.648  1.00  0.00     0.010 A 
ATOM     33  C   UNL A   1      36.825  30.640  28.870  1.00  0.00    -0.014 A 
BRANCH  33  34
ATOM     34  C   UNL A   1      38.049  30.255  29.623  1.00  0.00     0.031 A 
ATOM     35  C   UNL A   1      39.031  29.277  29.037  1.00  0.00     0.074 A 
ATOM     36  C   UNL A   1      38.214  30.701  30.886  1.00  0.00     0.049 A 
ATOM     37  N   UNL A   1      40.099  28.757  29.584  1.00  0.00    -0.248 NA
ATOM     38  C   UNL A   1      38.772  28.806  27.667  1.00  0.00     0.031 C 
ATOM     39  C   UNL A   1      37.294  31.596  31.594  1.00  0.00     0.029 A 
ATOM     40  N   UNL A   1      39.192  30.433  31.814  1.00  0.00    -0.354 N 
ATOM     41  C   UNL A   1      40.610  27.864  28.650  1.00  0.00     0.074 A 
ATOM     42  C   UNL A   1      39.732  27.906  27.502  1.00  0.00     0.031 C 
ATOM     43  C   UNL A   1      37.742  31.791  32.844  1.00  0.00     0.029 A 
ATOM     44  C   UNL A   1      38.956  31.005  33.044  1.00  0.00     0.049 A 
ATOM     45  H   UNL A   1      39.985  29.884  31.618  1.00  0.00     0.167 HD
ATOM     46  C   UNL A   1      41.718  27.091  28.737  1.00  0.00     0.034 A 
ATOM     47  C   UNL A   1      39.622  30.889  34.211  1.00  0.00     0.034 A 
ATOM     48  C   UNL A   1      42.613  27.086  29.863  1.00  0.00     0.049 A 
ATOM     49  C   UNL A   1      40.859  30.034  34.266  1.00  0.00     0.074 A 
ATOM     50  C   UNL A   1      43.826  26.431  29.990  1.00  0.00     0.029 A 
ATOM     51  N   UNL A   1      42.384  27.739  31.062  1.00  0.00    -0.354 N 
ATOM     52  N   UNL A   1      41.433  29.351  33.306  1.00  0.00    -0.248 NA
ATOM     53  C   UNL A   1      41.558  29.953  35.558  1.00  0.00     0.031 C 
ATOM     54  C   UNL A   1      44.308  26.649  31.283  1.00  0.00     0.029 A 
ATOM     55  C   UNL A   1      43.414  27.475  31.947  1.00  0.00     0.049 A 
ATOM     56  H   UNL A   1      41.604  28.309  31.256  1.00  0.00     0.167 HD
ATOM     57  C   UNL A   1      42.573  28.786  33.869  1.00  0.00     0.074 A 
ATOM     58  C   UNL A   1      42.623  29.229  35.246  1.00  0.00     0.031 C 
ATOM     59  C   UNL A   1      43.484  27.961  33.301  1.00  0.00     0.034 A 
BRANCH  46  60
ATOM     60  C   UNL A   1      42.057  26.195  27.576  1.00  0.00     0.023 A 
ATOM     61  C   UNL A   1      42.862  26.681  26.526  1.00  0.00     0.012 A 
ATOM     62  C   UNL A   1      41.669  24.840  27.582  1.00  0.00     0.148 A 
ATOM     63  C   UNL A   1      43.258  25.837  25.489  1.00  0.00     0.002 A 
ATOM     64  C   UNL A   1      42.105  23.995  26.569  1.00  0.00     0.091 A 
ATOM     65  F   UNL A   1      40.889  24.404  28.580  1.00  0.00    -0.205 F 
ATOM     66  C   UNL A   1      42.891  24.494  25.517  1.00  0.00     0.022 A 
BRANCH  64  67
ATOM     67  S   UNL A   1      41.759  22.232  26.558  1.00  0.00     0.127 S 
ATOM     68  O   UNL A   1      40.303  22.219  26.411  1.00  0.00    -0.237 OA
ATOM     69  O   UNL A   1      42.494  21.785  25.374  1.00  0.00    -0.237 OA
ATOM     70  O   UNL A   1      42.261  21.714  27.821  1.00  0.00    -0.744 OA
ENDBRANCH  64  67
ENDBRANCH  46  60
BRANCH  47  71
ATOM     71  C   UNL A   1      39.145  31.611  35.426  1.00  0.00     0.023 A 
ATOM     72  C   UNL A   1      38.269  30.964  36.320  1.00  0.00     0.012 A 
ATOM     73  C   UNL A   1      39.546  32.933  35.697  1.00  0.00     0.148 A 
ATOM     74  C   UNL A   1      37.767  31.636  37.435  1.00  0.00     0.002 A 
ATOM     75  C   UNL A   1      39.092  33.576  36.843  1.00  0.00     0.091 A 
ATOM     76  F   UNL A   1      40.370  33.539  34.829  1.00  0.00    -0.205 F 
ATOM     77  C   UNL A   1      38.185  32.937  37.702  1.00  0.00     0.022 A 
BRANCH  75  78
ATOM     78  S   UNL A   1      39.687  35.198  37.332  1.00  0.00     0.127 S 
ATOM     79  O   UNL A   1      38.922  35.443  38.552  1.00  0.00    -0.237 OA
ATOM     80  O   UNL A   1      41.114  34.947  37.540  1.00  0.00    -0.237 OA
ATOM     81  O   UNL A   1      39.394  36.078  36.209  1.00  0.00    -0.744 OA
ENDBRANCH  75  78
ENDBRANCH  47  71
BRANCH  59  82
ATOM     82  C   UNL A   1      44.642  27.498  34.147  1.00  0.00     0.023 A 
ATOM     83  C   UNL A   1      45.810  28.281  34.222  1.00  0.00     0.012 A 
ATOM     84  C   UNL A   1      44.532  26.337  34.938  1.00  0.00     0.148 A 
ATOM     85  C   UNL A   1      46.863  27.902  35.055  1.00  0.00     0.002 A 
ATOM     86  C   UNL A   1      45.564  25.995  35.804  1.00  0.00     0.091 A 
ATOM     87  F   UNL A   1      43.416  25.601  34.840  1.00  0.00    -0.205 F 
ATOM     88  C   UNL A   1      46.734  26.768  35.854  1.00  0.00     0.022 A 
BRANCH  86  89
ATOM     89  S   UNL A   1      45.452  24.610  36.942  1.00  0.00     0.127 S 
ATOM     90  O   UNL A   1      46.756  24.659  37.601  1.00  0.00    -0.237 OA
ATOM     91  O   UNL A   1      44.325  24.998  37.790  1.00  0.00    -0.237 OA
ATOM     92  O   UNL A   1      45.217  23.429  36.122  1.00  0.00    -0.744 OA
ENDBRANCH  86  89
ENDBRANCH  59  82
ENDBRANCH  33  34
ENDBRANCH  25  28
ENDBRANCH  23  24
ENDBRANCH  22  23
ENDBRANCH   1  22
TORSDOF 17
ENDMDL
MODEL 3
REMARK VINA RESULT:     -11.7      6.019     10.728
REMARK SMILES C[C@@H](C(=O)NCCCNC(=O)c1ccc(-c2c3nc(c(-c4cccc(S(=O)(=O)[O-])c4F)c4ccc([nH]4)c(-c4cccc(S(=O)(=O)[O-])c4F)c4nc(c(-c5cccc(S(=O)(=O)[O-])c5F)c5ccc2[nH]5)C=C4)C=C3)cc1)c1ccc(C[C@H]2CCC[C@H]2O)cc1
REMARK SMILES IDX 6 1 5 2 3 3 4 4 2 6 1 7 75 8 76 9 87 10 77 11 86 12 78 13
REMARK SMILES IDX 79 14 80 15 81 16 84 17 82 18 83 19 85 20 7 22 8 23 9 24
REMARK SMILES IDX 10 25 11 27 12 28 13 29 74 30 14 31 73 32 15 33 16 34 17 35
REMARK SMILES IDX 67 36 18 37 72 38 66 39 68 40 19 41 71 42 65 43 64 44 20 46
REMARK SMILES IDX 52 47 32 48 51 49 33 50 36 51 50 52 69 53 34 54 35 55 49 57
REMARK SMILES IDX 70 58 37 59 21 60 22 61 30 62 23 63 25 64 31 65 24 66 26 67
REMARK SMILES IDX 27 68 28 69 29 70 53 71 54 72 62 73 55 74 57 75 63 76 56 77
REMARK SMILES IDX 58 78 59 79 60 80 61 81 38 82 39 83 47 84 40 85 42 86 48 87
REMARK SMILES IDX 41 88 43 89 44 90 45 91 46 92
REMARK H PARENT 5 5 85 21 9 26 68 45 36 56
REMARK Flexibility Score: inf
ROOT
ATOM      1  C   UNL A   1      33.395  34.579  28.958  1.00  0.00     0.117 C 
ENDROOT
BRANCH   1   2
ATOM      2  N   UNL A   1      33.549  35.876  29.586  1.00  0.00    -0.356 N 
ATOM      3  C   UNL A   1      32.982  36.352  30.733  1.00  0.00     0.227 C 
ATOM      4  O   UNL A   1      32.843  37.574  30.787  1.00  0.00    -0.274 OA
ATOM      5  H   UNL A   1      34.146  36.503  29.119  1.00  0.00     0.163 HD
BRANCH   3   6
ATOM      6  C   UNL A   1      32.573  35.373  31.853  1.00  0.00     0.105 C 
ATOM      7  C   UNL A   1      31.564  36.063  32.777  1.00  0.00     0.023 C 
BRANCH   6   8
ATOM      8  C   UNL A   1      33.721  34.752  32.666  1.00  0.00    -0.036 A 
ATOM      9  C   UNL A   1      34.500  35.479  33.574  1.00  0.00     0.005 A 
ATOM     10  C   UNL A   1      34.051  33.395  32.486  1.00  0.00     0.005 A 
ATOM     11  C   UNL A   1      35.529  34.877  34.295  1.00  0.00     0.004 A 
ATOM     12  C   UNL A   1      35.110  32.800  33.180  1.00  0.00     0.004 A 
ATOM     13  C   UNL A   1      35.884  33.551  34.068  1.00  0.00    -0.048 A 
BRANCH  13  14
ATOM     14  C   UNL A   1      37.109  32.973  34.726  1.00  0.00     0.041 C 
BRANCH  14  15
ATOM     15  C   UNL A   1      38.453  33.212  34.013  1.00  0.00     0.022 C 
ATOM     16  C   UNL A   1      38.363  33.595  32.525  1.00  0.00     0.007 C 
ATOM     17  C   UNL A   1      39.447  34.222  34.613  1.00  0.00     0.117 C 
ATOM     18  C   UNL A   1      39.594  34.456  32.233  1.00  0.00     0.003 C 
ATOM     19  C   UNL A   1      40.460  34.390  33.487  1.00  0.00     0.032 C 
BRANCH  17  20
ATOM     20  O   UNL A   1      38.921  35.501  34.912  1.00  0.00    -0.393 OA
ATOM     21  H   UNL A   1      38.332  35.785  34.195  1.00  0.00     0.210 HD
ENDBRANCH  17  20
ENDBRANCH  14  15
ENDBRANCH  13  14
ENDBRANCH   6   8
ENDBRANCH   3   6
ENDBRANCH   1   2
BRANCH   1  22
ATOM     22  C   UNL A   1      34.637  33.712  29.180  1.00  0.00     0.042 C 
BRANCH  22  23
ATOM     23  C   UNL A   1      35.136  32.991  27.930  1.00  0.00     0.118 C 
BRANCH  23  24
ATOM     24  N   UNL A   1      34.381  31.781  27.642  1.00  0.00    -0.352 N 
ATOM     25  C   UNL A   1      34.786  30.468  27.676  1.00  0.00     0.251 C 
ATOM     26  H   UNL A   1      33.441  31.924  27.385  1.00  0.00     0.163 HD
ATOM     27  O   UNL A   1      34.062  29.597  27.209  1.00  0.00    -0.269 OA
BRANCH  25  28
ATOM     28  C   UNL A   1      36.103  30.111  28.251  1.00  0.00     0.039 A 
ATOM     29  C   UNL A   1      36.163  29.681  29.579  1.00  0.00     0.014 A 
ATOM     30  C   UNL A   1      37.271  30.199  27.490  1.00  0.00     0.014 A 
ATOM     31  C   UNL A   1      37.382  29.262  30.119  1.00  0.00     0.010 A 
ATOM     32  C   UNL A   1      38.471  29.713  28.006  1.00  0.00     0.010 A 
ATOM     33  C   UNL A   1      38.538  29.233  29.322  1.00  0.00    -0.014 A 
BRANCH  33  34
ATOM     34  C   UNL A   1      39.812  28.655  29.828  1.00  0.00     0.031 A 
ATOM     35  C   UNL A   1      40.568  29.329  30.941  1.00  0.00     0.074 A 
ATOM     36  C   UNL A   1      40.345  27.584  29.203  1.00  0.00     0.049 A 
ATOM     37  N   UNL A   1      41.736  29.022  31.444  1.00  0.00    -0.248 NA
ATOM     38  C   UNL A   1      39.945  30.512  31.555  1.00  0.00     0.031 C 
ATOM     39  C   UNL A   1      39.744  26.885  28.063  1.00  0.00     0.029 A 
ATOM     40  N   UNL A   1      41.530  26.920  29.410  1.00  0.00    -0.354 N 
ATOM     41  C   UNL A   1      42.008  29.997  32.396  1.00  0.00     0.074 A 
ATOM     42  C   UNL A   1      40.888  30.912  32.397  1.00  0.00     0.031 C 
ATOM     43  C   UNL A   1      40.567  25.902  27.665  1.00  0.00     0.029 A 
ATOM     44  C   UNL A   1      41.772  25.925  28.489  1.00  0.00     0.049 A 
ATOM     45  H   UNL A   1      42.147  27.134  30.145  1.00  0.00     0.167 HD
ATOM     46  C   UNL A   1      43.088  30.111  33.205  1.00  0.00     0.034 A 
ATOM     47  C   UNL A   1      42.851  25.138  28.307  1.00  0.00     0.034 A 
ATOM     48  C   UNL A   1      44.179  29.174  33.232  1.00  0.00     0.049 A 
ATOM     49  C   UNL A   1      44.027  25.280  29.236  1.00  0.00     0.074 A 
ATOM     50  C   UNL A   1      45.255  29.137  34.103  1.00  0.00     0.029 A 
ATOM     51  N   UNL A   1      44.353  28.131  32.338  1.00  0.00    -0.354 N 
ATOM     52  N   UNL A   1      44.177  26.086  30.259  1.00  0.00    -0.248 NA
ATOM     53  C   UNL A   1      45.173  24.388  29.004  1.00  0.00     0.031 C 
ATOM     54  C   UNL A   1      46.103  28.100  33.706  1.00  0.00     0.029 A 
ATOM     55  C   UNL A   1      45.535  27.466  32.613  1.00  0.00     0.049 A 
ATOM     56  H   UNL A   1      43.727  27.897  31.614  1.00  0.00     0.167 HD
ATOM     57  C   UNL A   1      45.416  25.778  30.809  1.00  0.00     0.074 A 
ATOM     58  C   UNL A   1      45.964  24.693  30.023  1.00  0.00     0.031 C 
ATOM     59  C   UNL A   1      46.050  26.353  31.858  1.00  0.00     0.034 A 
BRANCH  46  60
ATOM     60  C   UNL A   1      43.148  31.274  34.159  1.00  0.00     0.023 A 
ATOM     61  C   UNL A   1      43.842  32.445  33.795  1.00  0.00     0.012 A 
ATOM     62  C   UNL A   1      42.423  31.244  35.367  1.00  0.00     0.148 A 
ATOM     63  C   UNL A   1      43.831  33.562  34.631  1.00  0.00     0.002 A 
ATOM     64  C   UNL A   1      42.380  32.376  36.172  1.00  0.00     0.091 A 
ATOM     65  F   UNL A   1      41.785  30.114  35.701  1.00  0.00    -0.205 F 
ATOM     66  C   UNL A   1      43.091  33.532  35.809  1.00  0.00     0.022 A 
BRANCH  64  67
ATOM     67  S   UNL A   1      41.388  32.468  37.667  1.00  0.00     0.127 S 
ATOM     68  O   UNL A   1      42.146  31.610  38.576  1.00  0.00    -0.237 OA
ATOM     69  O   UNL A   1      41.448  33.895  37.984  1.00  0.00    -0.237 OA
ATOM     70  O   UNL A   1      40.066  31.977  37.305  1.00  0.00    -0.744 OA
ENDBRANCH  64  67
ENDBRANCH  46  60
BRANCH  47  71
ATOM     71  C   UNL A   1      42.872  24.130  27.207  1.00  0.00     0.023 A 
ATOM     72  C   UNL A   1      43.542  24.428  26.004  1.00  0.00     0.012 A 
ATOM     73  C   UNL A   1      42.230  22.885  27.343  1.00  0.00     0.148 A 
ATOM     74  C   UNL A   1      43.531  23.523  24.941  1.00  0.00     0.002 A 
ATOM     75  C   UNL A   1      42.276  21.962  26.303  1.00  0.00     0.091 A 
ATOM     76  F   UNL A   1      41.586  22.622  28.490  1.00  0.00    -0.205 F 
ATOM     77  C   UNL A   1      42.907  22.288  25.093  1.00  0.00     0.022 A 
BRANCH  75  78
ATOM     78  S   UNL A   1      41.617  20.300  26.467  1.00  0.00     0.127 S 
ATOM     79  O   UNL A   1      40.179  20.537  26.381  1.00  0.00    -0.237 OA
ATOM     80  O   UNL A   1      42.201  19.627  25.305  1.00  0.00    -0.237 OA
ATOM     81  O   UNL A   1      42.106  19.809  27.748  1.00  0.00    -0.744 OA
ENDBRANCH  75  78
ENDBRANCH  47  71
BRANCH  59  82
ATOM     82  C   UNL A   1      47.399  25.810  32.253  1.00  0.00     0.023 A 
ATOM     83  C   UNL A   1      48.561  26.296  31.621  1.00  0.00     0.012 A 
ATOM     84  C   UNL A   1      47.519  24.889  33.312  1.00  0.00     0.148 A 
ATOM     85  C   UNL A   1      49.821  25.855  32.023  1.00  0.00     0.002 A 
ATOM     86  C   UNL A   1      48.780  24.494  33.740  1.00  0.00     0.091 A 
ATOM     87  F   UNL A   1      46.399  24.431  33.889  1.00  0.00    -0.205 F 
ATOM     88  C   UNL A   1      49.931  24.966  33.089  1.00  0.00     0.022 A 
BRANCH  86  89
ATOM     89  S   UNL A   1      49.028  23.430  35.166  1.00  0.00     0.127 S 
ATOM     90  O   UNL A   1      47.891  23.791  36.010  1.00  0.00    -0.237 OA
ATOM     91  O   UNL A   1      48.949  22.096  34.571  1.00  0.00    -0.237 OA
ATOM     92  O   UNL A   1      50.335  23.776  35.709  1.00  0.00    -0.744 OA
ENDBRANCH  86  89
ENDBRANCH  59  82
ENDBRANCH  33  34
ENDBRANCH  25  28
ENDBRANCH  23  24
ENDBRANCH  22  23
ENDBRANCH   1  22
TORSDOF 17
ENDMDL
