MODEL 1
REMARK VINA RESULT:     -13.5      0.000      0.000
REMARK SMILES C[C@H](c1ccccc1)N1C(=O)c2ccc(C(=O)NCCCNC(=O)c3ccc(-c4c5nc(c(-c6cccc(S(=O)(=O)[O-])c6F)c6ccc([nH]6)c(-c6cccc(S(=O)(=O)[O-])c6F)c6nc(c(-c7cccc(S(=O)(=O)[O-])c7F)c7ccc4[nH]7)C=C6)C=C5)cc3)cc2C1=O
REMARK SMILES IDX 20 1 19 2 18 3 16 4 17 5 15 7 9 8 10 9 90 10 11 11 12 12
REMARK SMILES IDX 89 13 91 14 13 15 88 16 14 17 2 18 1 19 3 20 4 21 8 22 5 23
REMARK SMILES IDX 7 24 6 25 21 26 22 27 23 28 24 30 25 31 26 32 87 33 27 34
REMARK SMILES IDX 86 35 28 36 29 37 30 38 80 39 31 40 85 41 79 42 81 43 32 44
REMARK SMILES IDX 84 45 78 46 77 47 33 49 65 50 45 51 64 52 46 53 49 54 63 55
REMARK SMILES IDX 82 56 47 57 48 58 62 60 83 61 50 62 34 63 35 64 43 65 36 66
REMARK SMILES IDX 38 67 44 68 37 69 39 70 40 71 41 72 42 73 66 74 67 75 75 76
REMARK SMILES IDX 68 77 70 78 76 79 69 80 71 81 72 82 73 83 74 84 51 85 52 86
REMARK SMILES IDX 60 87 53 88 55 89 61 90 54 91 56 92 57 93 58 94 59 95
REMARK H PARENT 18 6 22 29 81 48 49 59
REMARK Flexibility Score: inf
ROOT
ATOM      1  C   UNL A   1      35.478  21.347  25.743  1.00  0.00     0.042 C 
ENDROOT
BRANCH   1   2
ATOM      2  C   UNL A   1      35.481  20.054  24.932  1.00  0.00     0.118 C 
BRANCH   2   3
ATOM      3  N   UNL A   1      34.281  19.252  25.107  1.00  0.00    -0.352 N 
ATOM      4  C   UNL A   1      32.947  19.546  25.013  1.00  0.00     0.251 C 
ATOM      5  O   UNL A   1      32.128  18.668  25.284  1.00  0.00    -0.269 OA
ATOM      6  H   UNL A   1      34.462  18.312  25.338  1.00  0.00     0.163 HD
BRANCH   4   7
ATOM      7  C   UNL A   1      32.441  20.887  24.637  1.00  0.00     0.040 A 
ATOM      8  N   UNL A   1      30.561  25.089  24.778  1.00  0.00    -0.267 N 
ATOM      9  C   UNL A   1      31.031  24.683  23.558  1.00  0.00     0.262 C 
ATOM     10  C   UNL A   1      30.695  24.091  25.710  1.00  0.00     0.262 C 
ATOM     11  O   UNL A   1      30.974  25.213  22.465  1.00  0.00    -0.269 OA
ATOM     12  C   UNL A   1      31.623  23.366  23.749  1.00  0.00     0.053 A 
ATOM     13  C   UNL A   1      31.385  22.978  25.053  1.00  0.00     0.054 A 
ATOM     14  O   UNL A   1      30.328  24.062  26.870  1.00  0.00    -0.269 OA
ATOM     15  C   UNL A   1      32.320  22.575  22.860  1.00  0.00     0.015 A 
ATOM     16  C   UNL A   1      31.792  21.746  25.536  1.00  0.00     0.028 A 
ATOM     17  C   UNL A   1      32.738  21.325  23.320  1.00  0.00     0.015 A 
BRANCH   8  18
ATOM     18  C   UNL A   1      29.934  26.382  25.065  1.00  0.00     0.121 C 
ATOM     19  C   UNL A   1      28.983  26.829  23.951  1.00  0.00     0.037 C 
BRANCH  18  20
ATOM     20  C   UNL A   1      30.959  27.450  25.441  1.00  0.00    -0.025 A 
ATOM     21  C   UNL A   1      31.437  27.598  26.753  1.00  0.00     0.006 A 
ATOM     22  C   UNL A   1      31.433  28.341  24.465  1.00  0.00     0.006 A 
ATOM     23  C   UNL A   1      32.311  28.631  27.094  1.00  0.00     0.000 A 
ATOM     24  C   UNL A   1      32.334  29.359  24.800  1.00  0.00     0.000 A 
ATOM     25  C   UNL A   1      32.759  29.513  26.118  1.00  0.00     0.000 A 
ENDBRANCH  18  20
ENDBRANCH   8  18
ENDBRANCH   4   7
ENDBRANCH   2   3
ENDBRANCH   1   2
BRANCH   1  26
ATOM     26  C   UNL A   1      36.823  22.056  25.872  1.00  0.00     0.118 C 
BRANCH  26  27
ATOM     27  N   UNL A   1      37.946  21.141  26.021  1.00  0.00    -0.352 N 
ATOM     28  C   UNL A   1      39.272  21.367  26.295  1.00  0.00     0.251 C 
ATOM     29  H   UNL A   1      37.713  20.192  25.903  1.00  0.00     0.163 HD
ATOM     30  O   UNL A   1      40.057  20.423  26.212  1.00  0.00    -0.269 OA
BRANCH  28  31
ATOM     31  C   UNL A   1      39.782  22.708  26.672  1.00  0.00     0.039 A 
ATOM     32  C   UNL A   1      40.748  22.792  27.684  1.00  0.00     0.014 A 
ATOM     33  C   UNL A   1      39.280  23.882  26.106  1.00  0.00     0.014 A 
ATOM     34  C   UNL A   1      41.241  24.038  28.086  1.00  0.00     0.010 A 
ATOM     35  C   UNL A   1      39.824  25.119  26.456  1.00  0.00     0.010 A 
ATOM     36  C   UNL A   1      40.802  25.215  27.458  1.00  0.00    -0.014 A 
BRANCH  36  37
ATOM     37  C   UNL A   1      41.355  26.541  27.839  1.00  0.00     0.031 A 
ATOM     38  C   UNL A   1      42.783  26.900  27.518  1.00  0.00     0.074 A 
ATOM     39  C   UNL A   1      40.592  27.405  28.540  1.00  0.00     0.049 A 
ATOM     40  N   UNL A   1      43.439  27.999  27.790  1.00  0.00    -0.248 NA
ATOM     41  C   UNL A   1      43.590  25.880  26.827  1.00  0.00     0.031 C 
ATOM     42  C   UNL A   1      39.224  27.146  28.993  1.00  0.00     0.029 A 
ATOM     43  N   UNL A   1      40.866  28.663  29.015  1.00  0.00    -0.354 N 
ATOM     44  C   UNL A   1      44.738  27.792  27.340  1.00  0.00     0.074 A 
ATOM     45  C   UNL A   1      44.787  26.449  26.804  1.00  0.00     0.031 C 
ATOM     46  C   UNL A   1      38.776  28.214  29.672  1.00  0.00     0.029 A 
ATOM     47  C   UNL A   1      39.826  29.227  29.718  1.00  0.00     0.049 A 
ATOM     48  H   UNL A   1      41.725  29.120  28.866  1.00  0.00     0.167 HD
ATOM     49  C   UNL A   1      45.786  28.651  27.338  1.00  0.00     0.034 A 
ATOM     50  C   UNL A   1      39.725  30.426  30.324  1.00  0.00     0.034 A 
ATOM     51  C   UNL A   1      45.720  30.007  27.814  1.00  0.00     0.049 A 
ATOM     52  C   UNL A   1      40.877  31.391  30.236  1.00  0.00     0.074 A 
ATOM     53  C   UNL A   1      46.699  30.985  27.766  1.00  0.00     0.029 A 
ATOM     54  N   UNL A   1      44.613  30.580  28.419  1.00  0.00    -0.354 N 
ATOM     55  N   UNL A   1      42.039  31.236  29.651  1.00  0.00    -0.248 NA
ATOM     56  C   UNL A   1      40.686  32.713  30.851  1.00  0.00     0.031 C 
ATOM     57  C   UNL A   1      46.183  32.149  28.349  1.00  0.00     0.029 A 
ATOM     58  C   UNL A   1      44.881  31.897  28.750  1.00  0.00     0.049 A 
ATOM     59  H   UNL A   1      43.760  30.117  28.589  1.00  0.00     0.167 HD
ATOM     60  C   UNL A   1      42.705  32.447  29.798  1.00  0.00     0.074 A 
ATOM     61  C   UNL A   1      41.806  33.335  30.507  1.00  0.00     0.031 C 
ATOM     62  C   UNL A   1      43.956  32.788  29.401  1.00  0.00     0.034 A 
BRANCH  49  63
ATOM     63  C   UNL A   1      47.081  28.172  26.734  1.00  0.00     0.023 A 
ATOM     64  C   UNL A   1      48.144  27.809  27.586  1.00  0.00     0.012 A 
ATOM     65  C   UNL A   1      47.230  28.024  25.341  1.00  0.00     0.148 A 
ATOM     66  C   UNL A   1      49.347  27.338  27.061  1.00  0.00     0.002 A 
ATOM     67  C   UNL A   1      48.419  27.516  24.828  1.00  0.00     0.091 A 
ATOM     68  F   UNL A   1      46.218  28.394  24.545  1.00  0.00    -0.205 F 
ATOM     69  C   UNL A   1      49.481  27.183  25.685  1.00  0.00     0.022 A 
BRANCH  67  70
ATOM     70  S   UNL A   1      48.661  27.210  23.074  1.00  0.00     0.127 S 
ATOM     71  O   UNL A   1      50.085  27.500  22.917  1.00  0.00    -0.237 OA
ATOM     72  O   UNL A   1      48.310  25.794  22.953  1.00  0.00    -0.237 OA
ATOM     73  O   UNL A   1      47.755  28.117  22.383  1.00  0.00    -0.744 OA
ENDBRANCH  67  70
ENDBRANCH  49  63
BRANCH  50  74
ATOM     74  C   UNL A   1      38.447  30.817  30.982  1.00  0.00     0.023 A 
ATOM     75  C   UNL A   1      38.281  30.572  32.359  1.00  0.00     0.012 A 
ATOM     76  C   UNL A   1      37.417  31.463  30.271  1.00  0.00     0.148 A 
ATOM     77  C   UNL A   1      37.103  30.938  33.011  1.00  0.00     0.002 A 
ATOM     78  C   UNL A   1      36.268  31.873  30.938  1.00  0.00     0.091 A 
ATOM     79  F   UNL A   1      37.585  31.674  28.957  1.00  0.00    -0.205 F 
ATOM     80  C   UNL A   1      36.102  31.599  32.304  1.00  0.00     0.022 A 
BRANCH  78  81
ATOM     81  S   UNL A   1      34.993  32.850  30.131  1.00  0.00     0.127 S 
ATOM     82  O   UNL A   1      34.490  31.916  29.128  1.00  0.00    -0.237 OA
ATOM     83  O   UNL A   1      34.071  33.124  31.234  1.00  0.00    -0.237 OA
ATOM     84  O   UNL A   1      35.677  34.030  29.621  1.00  0.00    -0.744 OA
ENDBRANCH  78  81
ENDBRANCH  50  74
BRANCH  62  85
ATOM     85  C   UNL A   1      44.426  34.187  29.700  1.00  0.00     0.023 A 
ATOM     86  C   UNL A   1      45.037  34.465  30.940  1.00  0.00     0.012 A 
ATOM     87  C   UNL A   1      44.326  35.208  28.734  1.00  0.00     0.148 A 
ATOM     88  C   UNL A   1      45.512  35.743  31.224  1.00  0.00     0.002 A 
ATOM     89  C   UNL A   1      44.842  36.469  29.010  1.00  0.00     0.091 A 
ATOM     90  F   UNL A   1      43.721  34.932  27.570  1.00  0.00    -0.205 F 
ATOM     91  C   UNL A   1      45.426  36.742  30.257  1.00  0.00     0.022 A 
BRANCH  89  92
ATOM     92  S   UNL A   1      44.848  37.782  27.783  1.00  0.00     0.127 S 
ATOM     93  O   UNL A   1      43.426  37.914  27.477  1.00  0.00    -0.237 OA
ATOM     94  O   UNL A   1      45.419  38.907  28.526  1.00  0.00    -0.237 OA
ATOM     95  O   UNL A   1      45.688  37.298  26.695  1.00  0.00    -0.744 OA
ENDBRANCH  89  92
ENDBRANCH  62  85
ENDBRANCH  36  37
ENDBRANCH  28  31
ENDBRANCH  26  27
ENDBRANCH   1  26
TORSDOF 15
ENDMDL
MODEL 2
REMARK VINA RESULT:     -13.3      1.445      7.647
REMARK SMILES C[C@H](c1ccccc1)N1C(=O)c2ccc(C(=O)NCCCNC(=O)c3ccc(-c4c5nc(c(-c6cccc(S(=O)(=O)[O-])c6F)c6ccc([nH]6)c(-c6cccc(S(=O)(=O)[O-])c6F)c6nc(c(-c7cccc(S(=O)(=O)[O-])c7F)c7ccc4[nH]7)C=C6)C=C5)cc3)cc2C1=O
REMARK SMILES IDX 20 1 19 2 18 3 16 4 17 5 15 7 9 8 10 9 90 10 11 11 12 12
REMARK SMILES IDX 89 13 91 14 13 15 88 16 14 17 2 18 1 19 3 20 4 21 8 22 5 23
REMARK SMILES IDX 7 24 6 25 21 26 22 27 23 28 24 30 25 31 26 32 87 33 27 34
REMARK SMILES IDX 86 35 28 36 29 37 30 38 80 39 31 40 85 41 79 42 81 43 32 44
REMARK SMILES IDX 84 45 78 46 77 47 33 49 65 50 45 51 64 52 46 53 49 54 63 55
REMARK SMILES IDX 82 56 47 57 48 58 62 60 83 61 50 62 34 63 35 64 43 65 36 66
REMARK SMILES IDX 38 67 44 68 37 69 39 70 40 71 41 72 42 73 66 74 67 75 75 76
REMARK SMILES IDX 68 77 70 78 76 79 69 80 71 81 72 82 73 83 74 84 51 85 52 86
REMARK SMILES IDX 60 87 53 88 55 89 61 90 54 91 56 92 57 93 58 94 59 95
REMARK H PARENT 18 6 22 29 81 48 49 59
REMARK Flexibility Score: inf
ROOT
ATOM      1  C   UNL A   1      37.230  19.470  24.832  1.00  0.00     0.042 C 
ENDROOT
BRANCH   1   2
ATOM      2  C   UNL A   1      35.900  20.200  25.000  1.00  0.00     0.118 C 
BRANCH   2   3
ATOM      3  N   UNL A   1      34.753  19.313  25.088  1.00  0.00    -0.352 N 
ATOM      4  C   UNL A   1      33.405  19.523  24.964  1.00  0.00     0.251 C 
ATOM      5  O   UNL A   1      32.640  18.579  25.158  1.00  0.00    -0.269 OA
ATOM      6  H   UNL A   1      34.990  18.375  25.273  1.00  0.00     0.163 HD
BRANCH   4   7
ATOM      7  C   UNL A   1      32.822  20.848  24.646  1.00  0.00     0.040 A 
ATOM      8  N   UNL A   1      30.631  24.887  24.944  1.00  0.00    -0.267 N 
ATOM      9  C   UNL A   1      31.193  24.598  23.730  1.00  0.00     0.262 C 
ATOM     10  C   UNL A   1      30.790  23.841  25.818  1.00  0.00     0.262 C 
ATOM     11  O   UNL A   1      31.153  25.195  22.671  1.00  0.00    -0.269 OA
ATOM     12  C   UNL A   1      31.870  23.316  23.871  1.00  0.00     0.053 A 
ATOM     13  C   UNL A   1      31.593  22.826  25.132  1.00  0.00     0.054 A 
ATOM     14  O   UNL A   1      30.366  23.709  26.951  1.00  0.00    -0.269 OA
ATOM     15  C   UNL A   1      32.669  22.638  22.975  1.00  0.00     0.015 A 
ATOM     16  C   UNL A   1      32.065  21.596  25.559  1.00  0.00     0.028 A 
ATOM     17  C   UNL A   1      33.154  21.393  23.378  1.00  0.00     0.015 A 
BRANCH   8  18
ATOM     18  C   UNL A   1      29.896  26.111  25.276  1.00  0.00     0.121 C 
ATOM     19  C   UNL A   1      28.813  26.438  24.245  1.00  0.00     0.037 C 
BRANCH  18  20
ATOM     20  C   UNL A   1      30.829  27.287  25.557  1.00  0.00    -0.025 A 
ATOM     21  C   UNL A   1      31.440  27.474  26.808  1.00  0.00     0.006 A 
ATOM     22  C   UNL A   1      31.078  28.240  24.556  1.00  0.00     0.006 A 
ATOM     23  C   UNL A   1      32.224  28.597  27.071  1.00  0.00     0.000 A 
ATOM     24  C   UNL A   1      31.889  29.351  24.810  1.00  0.00     0.000 A 
ATOM     25  C   UNL A   1      32.448  29.538  26.072  1.00  0.00     0.000 A 
ENDBRANCH  18  20
ENDBRANCH   8  18
ENDBRANCH   4   7
ENDBRANCH   2   3
ENDBRANCH   1   2
BRANCH   1  26
ATOM     26  C   UNL A   1      38.462  20.198  25.361  1.00  0.00     0.118 C 
BRANCH  26  27
ATOM     27  N   UNL A   1      39.537  19.299  25.759  1.00  0.00    -0.352 N 
ATOM     28  C   UNL A   1      40.818  19.547  26.185  1.00  0.00     0.251 C 
ATOM     29  H   UNL A   1      39.303  18.344  25.714  1.00  0.00     0.163 HD
ATOM     30  O   UNL A   1      41.588  18.596  26.313  1.00  0.00    -0.269 OA
BRANCH  28  31
ATOM     31  C   UNL A   1      41.299  20.919  26.481  1.00  0.00     0.039 A 
ATOM     32  C   UNL A   1      41.832  21.678  25.431  1.00  0.00     0.014 A 
ATOM     33  C   UNL A   1      41.306  21.443  27.776  1.00  0.00     0.014 A 
ATOM     34  C   UNL A   1      42.317  22.969  25.670  1.00  0.00     0.010 A 
ATOM     35  C   UNL A   1      41.722  22.757  28.000  1.00  0.00     0.010 A 
ATOM     36  C   UNL A   1      42.244  23.531  26.953  1.00  0.00    -0.014 A 
BRANCH  36  37
ATOM     37  C   UNL A   1      42.708  24.921  27.211  1.00  0.00     0.031 A 
ATOM     38  C   UNL A   1      41.810  25.916  27.899  1.00  0.00     0.074 A 
ATOM     39  C   UNL A   1      43.917  25.313  26.761  1.00  0.00     0.049 A 
ATOM     40  N   UNL A   1      42.039  27.172  28.188  1.00  0.00    -0.248 NA
ATOM     41  C   UNL A   1      40.469  25.450  28.289  1.00  0.00     0.031 C 
ATOM     42  C   UNL A   1      44.848  24.475  26.002  1.00  0.00     0.029 A 
ATOM     43  N   UNL A   1      44.562  26.521  26.857  1.00  0.00    -0.354 N 
ATOM     44  C   UNL A   1      40.866  27.654  28.756  1.00  0.00     0.074 A 
ATOM     45  C   UNL A   1      39.914  26.565  28.744  1.00  0.00     0.031 C 
ATOM     46  C   UNL A   1      45.944  25.191  25.708  1.00  0.00     0.029 A 
ATOM     47  C   UNL A   1      45.792  26.542  26.241  1.00  0.00     0.049 A 
ATOM     48  H   UNL A   1      44.180  27.300  27.322  1.00  0.00     0.167 HD
ATOM     49  C   UNL A   1      40.611  28.880  29.275  1.00  0.00     0.034 A 
ATOM     50  C   UNL A   1      46.700  27.532  26.126  1.00  0.00     0.034 A 
ATOM     51  C   UNL A   1      41.578  29.944  29.344  1.00  0.00     0.049 A 
ATOM     52  C   UNL A   1      46.425  28.857  26.783  1.00  0.00     0.074 A 
ATOM     53  C   UNL A   1      41.447  31.188  29.937  1.00  0.00     0.029 A 
ATOM     54  N   UNL A   1      42.854  29.889  28.809  1.00  0.00    -0.354 N 
ATOM     55  N   UNL A   1      45.373  29.236  27.468  1.00  0.00    -0.248 NA
ATOM     56  C   UNL A   1      47.479  29.877  26.689  1.00  0.00     0.031 C 
ATOM     57  C   UNL A   1      42.646  31.888  29.754  1.00  0.00     0.029 A 
ATOM     58  C   UNL A   1      43.524  31.075  29.056  1.00  0.00     0.049 A 
ATOM     59  H   UNL A   1      43.230  29.119  28.324  1.00  0.00     0.167 HD
ATOM     60  C   UNL A   1      45.652  30.523  27.914  1.00  0.00     0.074 A 
ATOM     61  C   UNL A   1      46.982  30.850  27.442  1.00  0.00     0.031 C 
ATOM     62  C   UNL A   1      44.870  31.365  28.632  1.00  0.00     0.034 A 
BRANCH  49  63
ATOM     63  C   UNL A   1      39.251  29.115  29.880  1.00  0.00     0.023 A 
ATOM     64  C   UNL A   1      38.952  28.553  31.138  1.00  0.00     0.012 A 
ATOM     65  C   UNL A   1      38.296  29.931  29.243  1.00  0.00     0.148 A 
ATOM     66  C   UNL A   1      37.712  28.771  31.737  1.00  0.00     0.002 A 
ATOM     67  C   UNL A   1      37.077  30.176  29.866  1.00  0.00     0.091 A 
ATOM     68  F   UNL A   1      38.589  30.439  28.038  1.00  0.00    -0.205 F 
ATOM     69  C   UNL A   1      36.780  29.589  31.107  1.00  0.00     0.022 A 
BRANCH  67  70
ATOM     70  S   UNL A   1      35.839  31.276  29.167  1.00  0.00     0.127 S 
ATOM     71  O   UNL A   1      35.097  30.369  28.293  1.00  0.00    -0.237 OA
ATOM     72  O   UNL A   1      35.105  31.714  30.355  1.00  0.00    -0.237 OA
ATOM     73  O   UNL A   1      36.581  32.333  28.493  1.00  0.00    -0.744 OA
ENDBRANCH  67  70
ENDBRANCH  49  63
BRANCH  50  74
ATOM     74  C   UNL A   1      47.997  27.269  25.443  1.00  0.00     0.023 A 
ATOM     75  C   UNL A   1      49.066  26.729  26.184  1.00  0.00     0.012 A 
ATOM     76  C   UNL A   1      48.168  27.507  24.065  1.00  0.00     0.148 A 
ATOM     77  C   UNL A   1      50.290  26.456  25.573  1.00  0.00     0.002 A 
ATOM     78  C   UNL A   1      49.374  27.183  23.452  1.00  0.00     0.091 A 
ATOM     79  F   UNL A   1      47.146  28.037  23.379  1.00  0.00    -0.205 F 
ATOM     80  C   UNL A   1      50.440  26.672  24.206  1.00  0.00     0.022 A 
BRANCH  78  81
ATOM     81  S   UNL A   1      49.602  27.303  21.673  1.00  0.00     0.127 S 
ATOM     82  O   UNL A   1      49.236  28.693  21.417  1.00  0.00    -0.237 OA
ATOM     83  O   UNL A   1      51.026  27.003  21.525  1.00  0.00    -0.237 OA
ATOM     84  O   UNL A   1      48.719  26.294  21.103  1.00  0.00    -0.744 OA
ENDBRANCH  78  81
ENDBRANCH  50  74
BRANCH  62  85
ATOM     85  C   UNL A   1      45.435  32.719  28.976  1.00  0.00     0.023 A 
ATOM     86  C   UNL A   1      46.149  32.887  30.179  1.00  0.00     0.012 A 
ATOM     87  C   UNL A   1      45.318  33.801  28.083  1.00  0.00     0.148 A 
ATOM     88  C   UNL A   1      46.713  34.121  30.501  1.00  0.00     0.002 A 
ATOM     89  C   UNL A   1      45.920  35.016  28.392  1.00  0.00     0.091 A 
ATOM     90  F   UNL A   1      44.615  33.629  26.954  1.00  0.00    -0.205 F 
ATOM     91  C   UNL A   1      46.609  35.181  29.603  1.00  0.00     0.022 A 
BRANCH  89  92
ATOM     92  S   UNL A   1      45.906  36.401  27.247  1.00  0.00     0.127 S 
ATOM     93  O   UNL A   1      46.562  35.829  26.074  1.00  0.00    -0.237 OA
ATOM     94  O   UNL A   1      44.475  36.659  27.080  1.00  0.00    -0.237 OA
ATOM     95  O   UNL A   1      46.632  37.472  27.919  1.00  0.00    -0.744 OA
ENDBRANCH  89  92
ENDBRANCH  62  85
ENDBRANCH  36  37
ENDBRANCH  28  31
ENDBRANCH  26  27
ENDBRANCH   1  26
TORSDOF 15
ENDMDL
MODEL 3
REMARK VINA RESULT:     -13.3      5.009     10.372
REMARK SMILES C[C@H](c1ccccc1)N1C(=O)c2ccc(C(=O)NCCCNC(=O)c3ccc(-c4c5nc(c(-c6cccc(S(=O)(=O)[O-])c6F)c6ccc([nH]6)c(-c6cccc(S(=O)(=O)[O-])c6F)c6nc(c(-c7cccc(S(=O)(=O)[O-])c7F)c7ccc4[nH]7)C=C6)C=C5)cc3)cc2C1=O
REMARK SMILES IDX 20 1 19 2 18 3 16 4 17 5 15 7 9 8 10 9 90 10 11 11 12 12
REMARK SMILES IDX 89 13 91 14 13 15 88 16 14 17 2 18 1 19 3 20 4 21 8 22 5 23
REMARK SMILES IDX 7 24 6 25 21 26 22 27 23 28 24 30 25 31 26 32 87 33 27 34
REMARK SMILES IDX 86 35 28 36 29 37 30 38 80 39 31 40 85 41 79 42 81 43 32 44
REMARK SMILES IDX 84 45 78 46 77 47 33 49 65 50 45 51 64 52 46 53 49 54 63 55
REMARK SMILES IDX 82 56 47 57 48 58 62 60 83 61 50 62 34 63 35 64 43 65 36 66
REMARK SMILES IDX 38 67 44 68 37 69 39 70 40 71 41 72 42 73 66 74 67 75 75 76
REMARK SMILES IDX 68 77 70 78 76 79 69 80 71 81 72 82 73 83 74 84 51 85 52 86
REMARK SMILES IDX 60 87 53 88 55 89 61 90 54 91 56 92 57 93 58 94 59 95
REMARK H PARENT 18 6 22 29 81 48 49 59
REMARK Flexibility Score: inf
ROOT
ATOM      1  C   UNL A   1      32.257  29.600  24.930  1.00  0.00     0.042 C 
ENDROOT
BRANCH   1   2
ATOM      2  C   UNL A   1      30.893  30.284  24.898  1.00  0.00     0.118 C 
BRANCH   2   3
ATOM      3  N   UNL A   1      30.276  30.297  23.582  1.00  0.00    -0.352 N 
ATOM      4  C   UNL A   1      30.020  29.310  22.668  1.00  0.00     0.251 C 
ATOM      5  O   UNL A   1      29.535  29.624  21.581  1.00  0.00    -0.269 OA
ATOM      6  H   UNL A   1      29.984  31.191  23.290  1.00  0.00     0.163 HD
BRANCH   4   7
ATOM      7  C   UNL A   1      30.337  27.883  22.912  1.00  0.00     0.040 A 
ATOM      8  N   UNL A   1      32.275  23.709  22.756  1.00  0.00    -0.267 N 
ATOM      9  C   UNL A   1      31.227  23.852  23.625  1.00  0.00     0.262 C 
ATOM     10  C   UNL A   1      32.481  24.864  22.046  1.00  0.00     0.262 C 
ATOM     11  O   UNL A   1      30.654  23.037  24.324  1.00  0.00    -0.269 OA
ATOM     12  C   UNL A   1      30.803  25.243  23.553  1.00  0.00     0.053 A 
ATOM     13  C   UNL A   1      31.538  25.860  22.559  1.00  0.00     0.054 A 
ATOM     14  O   UNL A   1      33.268  25.087  21.145  1.00  0.00    -0.269 OA
ATOM     15  C   UNL A   1      29.861  25.917  24.301  1.00  0.00     0.015 A 
ATOM     16  C   UNL A   1      31.338  27.187  22.219  1.00  0.00     0.028 A 
ATOM     17  C   UNL A   1      29.637  27.256  23.975  1.00  0.00     0.015 A 
BRANCH   8  18
ATOM     18  C   UNL A   1      33.048  22.483  22.544  1.00  0.00     0.121 C 
ATOM     19  C   UNL A   1      32.154  21.251  22.375  1.00  0.00     0.037 C 
BRANCH  18  20
ATOM     20  C   UNL A   1      34.132  22.293  23.602  1.00  0.00    -0.025 A 
ATOM     21  C   UNL A   1      33.945  21.470  24.725  1.00  0.00     0.006 A 
ATOM     22  C   UNL A   1      35.355  22.974  23.484  1.00  0.00     0.006 A 
ATOM     23  C   UNL A   1      34.916  21.372  25.722  1.00  0.00     0.000 A 
ATOM     24  C   UNL A   1      36.341  22.853  24.470  1.00  0.00     0.000 A 
ATOM     25  C   UNL A   1      36.114  22.065  25.596  1.00  0.00     0.000 A 
ENDBRANCH  18  20
ENDBRANCH   8  18
ENDBRANCH   4   7
ENDBRANCH   2   3
ENDBRANCH   1   2
BRANCH   1  26
ATOM     26  C   UNL A   1      33.132  29.911  26.141  1.00  0.00     0.118 C 
BRANCH  26  27
ATOM     27  N   UNL A   1      33.074  31.307  26.552  1.00  0.00    -0.352 N 
ATOM     28  C   UNL A   1      33.817  32.018  27.461  1.00  0.00     0.251 C 
ATOM     29  H   UNL A   1      32.377  31.834  26.098  1.00  0.00     0.163 HD
ATOM     30  O   UNL A   1      33.462  33.162  27.741  1.00  0.00    -0.269 OA
BRANCH  28  31
ATOM     31  C   UNL A   1      35.018  31.447  28.117  1.00  0.00     0.039 A 
ATOM     32  C   UNL A   1      36.189  32.216  28.148  1.00  0.00     0.014 A 
ATOM     33  C   UNL A   1      35.039  30.149  28.633  1.00  0.00     0.014 A 
ATOM     34  C   UNL A   1      37.351  31.707  28.738  1.00  0.00     0.010 A 
ATOM     35  C   UNL A   1      36.177  29.671  29.285  1.00  0.00     0.010 A 
ATOM     36  C   UNL A   1      37.350  30.437  29.335  1.00  0.00    -0.014 A 
BRANCH  36  37
ATOM     37  C   UNL A   1      38.563  29.905  30.011  1.00  0.00     0.031 A 
ATOM     38  C   UNL A   1      38.942  30.375  31.393  1.00  0.00     0.074 A 
ATOM     39  C   UNL A   1      39.370  29.047  29.354  1.00  0.00     0.049 A 
ATOM     40  N   UNL A   1      39.972  30.035  32.125  1.00  0.00    -0.248 NA
ATOM     41  C   UNL A   1      38.067  31.378  32.022  1.00  0.00     0.031 C 
ATOM     42  C   UNL A   1      39.166  28.582  27.980  1.00  0.00     0.029 A 
ATOM     43  N   UNL A   1      40.533  28.432  29.743  1.00  0.00    -0.354 N 
ATOM     44  C   UNL A   1      39.890  30.805  33.280  1.00  0.00     0.074 A 
ATOM     45  C   UNL A   1      38.727  31.653  33.138  1.00  0.00     0.031 C 
ATOM     46  C   UNL A   1      40.165  27.750  27.646  1.00  0.00     0.029 A 
ATOM     47  C   UNL A   1      41.089  27.633  28.770  1.00  0.00     0.049 A 
ATOM     48  H   UNL A   1      40.933  28.549  30.635  1.00  0.00     0.167 HD
ATOM     49  C   UNL A   1      40.688  30.785  34.376  1.00  0.00     0.034 A 
ATOM     50  C   UNL A   1      42.209  26.884  28.784  1.00  0.00     0.034 A 
ATOM     51  C   UNL A   1      41.808  29.898  34.543  1.00  0.00     0.049 A 
ATOM     52  C   UNL A   1      43.031  26.818  30.042  1.00  0.00     0.074 A 
ATOM     53  C   UNL A   1      42.618  29.734  35.654  1.00  0.00     0.029 A 
ATOM     54  N   UNL A   1      42.274  29.021  33.577  1.00  0.00    -0.354 N 
ATOM     55  N   UNL A   1      42.836  27.425  31.187  1.00  0.00    -0.248 NA
ATOM     56  C   UNL A   1      44.202  25.929  30.026  1.00  0.00     0.031 C 
ATOM     57  C   UNL A   1      43.579  28.760  35.355  1.00  0.00     0.029 A 
ATOM     58  C   UNL A   1      43.359  28.312  34.062  1.00  0.00     0.049 A 
ATOM     59  H   UNL A   1      41.889  28.917  32.676  1.00  0.00     0.167 HD
ATOM     60  C   UNL A   1      43.837  26.968  32.036  1.00  0.00     0.074 A 
ATOM     61  C   UNL A   1      44.623  26.014  31.281  1.00  0.00     0.031 C 
ATOM     62  C   UNL A   1      44.096  27.322  33.320  1.00  0.00     0.034 A 
BRANCH  49  63
ATOM     63  C   UNL A   1      40.332  31.703  35.517  1.00  0.00     0.023 A 
ATOM     64  C   UNL A   1      41.110  32.859  35.737  1.00  0.00     0.012 A 
ATOM     65  C   UNL A   1      39.206  31.462  36.328  1.00  0.00     0.148 A 
ATOM     66  C   UNL A   1      40.793  33.743  36.768  1.00  0.00     0.002 A 
ATOM     67  C   UNL A   1      38.875  32.370  37.329  1.00  0.00     0.091 A 
ATOM     68  F   UNL A   1      38.492  30.348  36.119  1.00  0.00    -0.205 F 
ATOM     69  C   UNL A   1      39.672  33.503  37.556  1.00  0.00     0.022 A 
BRANCH  67  70
ATOM     70  S   UNL A   1      37.407  32.187  38.350  1.00  0.00     0.127 S 
ATOM     71  O   UNL A   1      37.138  30.755  38.227  1.00  0.00    -0.237 OA
ATOM     72  O   UNL A   1      37.888  32.606  39.667  1.00  0.00    -0.237 OA
ATOM     73  O   UNL A   1      36.404  33.067  37.766  1.00  0.00    -0.744 OA
ENDBRANCH  67  70
ENDBRANCH  49  63
BRANCH  50  74
ATOM     74  C   UNL A   1      42.560  26.059  27.594  1.00  0.00     0.023 A 
ATOM     75  C   UNL A   1      43.394  26.607  26.601  1.00  0.00     0.012 A 
ATOM     76  C   UNL A   1      42.114  24.730  27.459  1.00  0.00     0.148 A 
ATOM     77  C   UNL A   1      43.756  25.857  25.481  1.00  0.00     0.002 A 
ATOM     78  C   UNL A   1      42.521  23.971  26.367  1.00  0.00     0.091 A 
ATOM     79  F   UNL A   1      41.307  24.229  28.406  1.00  0.00    -0.205 F 
ATOM     80  C   UNL A   1      43.330  24.537  25.370  1.00  0.00     0.022 A 
BRANCH  78  81
ATOM     81  S   UNL A   1      42.129  22.223  26.220  1.00  0.00     0.127 S 
ATOM     82  O   UNL A   1      42.651  21.692  27.475  1.00  0.00    -0.237 OA
ATOM     83  O   UNL A   1      40.669  22.244  26.119  1.00  0.00    -0.237 OA
ATOM     84  O   UNL A   1      42.802  21.778  25.007  1.00  0.00    -0.744 OA
ENDBRANCH  78  81
ENDBRANCH  50  74
BRANCH  62  85
ATOM     85  C   UNL A   1      45.263  26.660  34.004  1.00  0.00     0.023 A 
ATOM     86  C   UNL A   1      46.543  27.240  33.909  1.00  0.00     0.012 A 
ATOM     87  C   UNL A   1      45.082  25.508  34.794  1.00  0.00     0.148 A 
ATOM     88  C   UNL A   1      47.631  26.666  34.564  1.00  0.00     0.002 A 
ATOM     89  C   UNL A   1      46.164  24.966  35.478  1.00  0.00     0.091 A 
ATOM     90  F   UNL A   1      43.861  24.956  34.854  1.00  0.00    -0.205 F 
ATOM     91  C   UNL A   1      47.440  25.537  35.358  1.00  0.00     0.022 A 
BRANCH  89  92
ATOM     92  S   UNL A   1      45.981  23.567  36.591  1.00  0.00     0.127 S 
ATOM     93  O   UNL A   1      47.360  23.337  37.014  1.00  0.00    -0.237 OA
ATOM     94  O   UNL A   1      45.105  24.104  37.633  1.00  0.00    -0.237 OA
ATOM     95  O   UNL A   1      45.379  22.507  35.792  1.00  0.00    -0.744 OA
ENDBRANCH  89  92
ENDBRANCH  62  85
ENDBRANCH  36  37
ENDBRANCH  28  31
ENDBRANCH  26  27
ENDBRANCH   1  26
TORSDOF 15
ENDMDL
