MODEL 1
REMARK VINA RESULT:     -11.3      0.000      0.000
REMARK SMILES O=C(NCCCNC(=O)c1cccc(S(=O)(=O)NC[C@@H]2CCOC2)c1)c1ccc(-c2c3nc(c(-c4cccc(S(=O)(=O)[O-])c4F)c4ccc([nH]4)c(-c4cccc(S(=O)(=O)[O-])c4F)c4nc(c(-c5cccc(S(=O)(=O)[O-])c5F)c5ccc2[nH]5)C=C4)C=C3)cc1
REMARK SMILES IDX 5 1 4 2 3 3 1 4 2 5 26 7 27 8 88 9 28 10 87 11 29 12 30 13
REMARK SMILES IDX 31 14 81 15 32 16 86 17 80 18 82 19 33 20 85 21 79 22 78 23
REMARK SMILES IDX 34 25 66 26 46 27 65 28 47 29 50 30 64 31 83 32 48 33 49 34
REMARK SMILES IDX 63 36 84 37 51 38 35 39 36 40 44 41 37 42 39 43 45 44 38 45
REMARK SMILES IDX 40 46 41 47 42 48 43 49 67 50 68 51 76 52 69 53 71 54 77 55
REMARK SMILES IDX 70 56 72 57 73 58 74 59 75 60 52 61 53 62 61 63 54 64 56 65
REMARK SMILES IDX 62 66 55 67 57 68 58 69 59 70 60 71 6 72 7 73 8 74 9 76
REMARK SMILES IDX 10 77 11 78 25 79 12 80 14 81 13 82 15 83 16 84 17 85 18 86
REMARK SMILES IDX 19 88 20 89 21 90 24 91 22 92 23 93
REMARK H PARENT 3 6 82 24 50 35 7 75 18 87
REMARK Flexibility Score: inf
ROOT
ATOM      1  C   UNL A   1      32.889  29.066  24.831  1.00  0.00     0.042 C 
ENDROOT
BRANCH   1   2
ATOM      2  C   UNL A   1      33.815  29.265  26.022  1.00  0.00     0.118 C 
BRANCH   2   3
ATOM      3  N   UNL A   1      33.696  30.590  26.611  1.00  0.00    -0.352 N 
ATOM      4  O   UNL A   1      33.982  32.228  28.118  1.00  0.00    -0.269 OA
ATOM      5  C   UNL A   1      34.398  31.176  27.637  1.00  0.00     0.251 C 
ATOM      6  H   UNL A   1      32.998  31.158  26.211  1.00  0.00     0.163 HD
BRANCH   5   7
ATOM      7  C   UNL A   1      35.617  30.537  28.181  1.00  0.00     0.039 A 
ATOM      8  C   UNL A   1      35.557  29.687  29.288  1.00  0.00     0.014 A 
ATOM      9  C   UNL A   1      36.844  30.766  27.550  1.00  0.00     0.014 A 
ATOM     10  C   UNL A   1      36.729  29.208  29.865  1.00  0.00     0.010 A 
ATOM     11  C   UNL A   1      38.011  30.201  28.072  1.00  0.00     0.010 A 
ATOM     12  C   UNL A   1      37.968  29.450  29.257  1.00  0.00    -0.014 A 
BRANCH  12  13
ATOM     13  C   UNL A   1      39.206  28.864  29.829  1.00  0.00     0.031 A 
ATOM     14  C   UNL A   1      39.831  29.441  31.069  1.00  0.00     0.074 A 
ATOM     15  C   UNL A   1      39.788  27.826  29.198  1.00  0.00     0.049 A 
ATOM     16  N   UNL A   1      40.947  29.101  31.661  1.00  0.00    -0.248 NA
ATOM     17  C   UNL A   1      39.118  30.550  31.724  1.00  0.00     0.031 C 
ATOM     18  C   UNL A   1      39.292  27.205  27.967  1.00  0.00     0.029 A 
ATOM     19  N   UNL A   1      40.933  27.126  29.485  1.00  0.00    -0.354 N 
ATOM     20  C   UNL A   1      41.099  29.983  32.722  1.00  0.00     0.074 A 
ATOM     21  C   UNL A   1      39.959  30.875  32.695  1.00  0.00     0.031 C 
ATOM     22  C   UNL A   1      40.126  26.221  27.604  1.00  0.00     0.029 A 
ATOM     23  C   UNL A   1      41.242  26.175  28.542  1.00  0.00     0.049 A 
ATOM     24  H   UNL A   1      41.479  27.290  30.287  1.00  0.00     0.167 HD
ATOM     25  C   UNL A   1      42.090  30.036  33.645  1.00  0.00     0.034 A 
ATOM     26  C   UNL A   1      42.317  25.373  28.423  1.00  0.00     0.034 A 
ATOM     27  C   UNL A   1      43.195  29.117  33.692  1.00  0.00     0.049 A 
ATOM     28  C   UNL A   1      43.388  25.431  29.472  1.00  0.00     0.074 A 
ATOM     29  C   UNL A   1      44.212  29.042  34.628  1.00  0.00     0.029 A 
ATOM     30  N   UNL A   1      43.433  28.115  32.763  1.00  0.00    -0.354 N 
ATOM     31  N   UNL A   1      43.451  26.191  30.539  1.00  0.00    -0.248 NA
ATOM     32  C   UNL A   1      44.519  24.506  29.322  1.00  0.00     0.031 C 
ATOM     33  C   UNL A   1      45.071  28.002  34.257  1.00  0.00     0.029 A 
ATOM     34  C   UNL A   1      44.582  27.420  33.099  1.00  0.00     0.049 A 
ATOM     35  H   UNL A   1      42.867  27.926  31.980  1.00  0.00     0.167 HD
ATOM     36  C   UNL A   1      44.612  25.818  31.204  1.00  0.00     0.074 A 
ATOM     37  C   UNL A   1      45.215  24.753  30.427  1.00  0.00     0.031 C 
ATOM     38  C   UNL A   1      45.137  26.322  32.347  1.00  0.00     0.034 A 
BRANCH  25  39
ATOM     39  C   UNL A   1      42.004  31.103  34.703  1.00  0.00     0.023 A 
ATOM     40  C   UNL A   1      41.425  30.799  35.952  1.00  0.00     0.012 A 
ATOM     41  C   UNL A   1      42.538  32.387  34.484  1.00  0.00     0.148 A 
ATOM     42  C   UNL A   1      41.350  31.766  36.954  1.00  0.00     0.002 A 
ATOM     43  C   UNL A   1      42.493  33.336  35.502  1.00  0.00     0.091 A 
ATOM     44  F   UNL A   1      43.062  32.671  33.283  1.00  0.00    -0.205 F 
ATOM     45  C   UNL A   1      41.892  33.030  36.733  1.00  0.00     0.022 A 
BRANCH  43  46
ATOM     46  S   UNL A   1      43.234  34.963  35.320  1.00  0.00     0.127 S 
ATOM     47  O   UNL A   1      42.885  35.592  36.591  1.00  0.00    -0.237 OA
ATOM     48  O   UNL A   1      44.655  34.648  35.166  1.00  0.00    -0.237 OA
ATOM     49  O   UNL A   1      42.616  35.540  34.133  1.00  0.00    -0.744 OA
ENDBRANCH  43  46
ENDBRANCH  25  39
BRANCH  26  50
ATOM     50  C   UNL A   1      42.388  24.424  27.278  1.00  0.00     0.023 A 
ATOM     51  C   UNL A   1      43.126  24.776  26.132  1.00  0.00     0.012 A 
ATOM     52  C   UNL A   1      41.816  23.138  27.363  1.00  0.00     0.148 A 
ATOM     53  C   UNL A   1      43.285  23.867  25.086  1.00  0.00     0.002 A 
ATOM     54  C   UNL A   1      42.027  22.219  26.342  1.00  0.00     0.091 A 
ATOM     55  F   UNL A   1      41.110  22.829  28.459  1.00  0.00    -0.205 F 
ATOM     56  C   UNL A   1      42.750  22.586  25.197  1.00  0.00     0.022 A 
BRANCH  54  57
ATOM     57  S   UNL A   1      41.505  20.505  26.467  1.00  0.00     0.127 S 
ATOM     58  O   UNL A   1      40.068  20.613  26.237  1.00  0.00    -0.237 OA
ATOM     59  O   UNL A   1      42.259  19.880  25.379  1.00  0.00    -0.237 OA
ATOM     60  O   UNL A   1      41.902  20.068  27.799  1.00  0.00    -0.744 OA
ENDBRANCH  54  57
ENDBRANCH  26  50
BRANCH  38  61
ATOM     61  C   UNL A   1      46.414  25.714  32.859  1.00  0.00     0.023 A 
ATOM     62  C   UNL A   1      47.649  26.297  32.517  1.00  0.00     0.012 A 
ATOM     63  C   UNL A   1      46.382  24.630  33.757  1.00  0.00     0.148 A 
ATOM     64  C   UNL A   1      48.837  25.801  33.051  1.00  0.00     0.002 A 
ATOM     65  C   UNL A   1      47.565  24.167  34.319  1.00  0.00     0.091 A 
ATOM     66  F   UNL A   1      45.196  24.078  34.051  1.00  0.00    -0.205 F 
ATOM     67  C   UNL A   1      48.794  24.746  33.961  1.00  0.00     0.022 A 
BRANCH  65  68
ATOM     68  S   UNL A   1      47.597  22.874  35.566  1.00  0.00     0.127 S 
ATOM     69  O   UNL A   1      46.615  23.367  36.531  1.00  0.00    -0.237 OA
ATOM     70  O   UNL A   1      47.171  21.699  34.807  1.00  0.00    -0.237 OA
ATOM     71  O   UNL A   1      48.971  22.816  36.046  1.00  0.00    -0.744 OA
ENDBRANCH  65  68
ENDBRANCH  38  61
ENDBRANCH  12  13
ENDBRANCH   5   7
ENDBRANCH   2   3
ENDBRANCH   1   2
BRANCH   1  72
ATOM     72  C   UNL A   1      31.511  29.683  25.006  1.00  0.00     0.118 C 
BRANCH  72  73
ATOM     73  N   UNL A   1      30.848  29.940  23.734  1.00  0.00    -0.352 N 
ATOM     74  C   UNL A   1      30.493  29.093  22.717  1.00  0.00     0.251 C 
ATOM     75  H   UNL A   1      30.615  30.883  23.579  1.00  0.00     0.163 HD
ATOM     76  O   UNL A   1      30.121  29.565  21.646  1.00  0.00    -0.269 OA
BRANCH  74  77
ATOM     77  C   UNL A   1      30.503  27.622  22.892  1.00  0.00     0.041 A 
ATOM     78  C   UNL A   1      29.520  27.025  23.689  1.00  0.00     0.014 A 
ATOM     79  C   UNL A   1      31.542  26.844  22.381  1.00  0.00     0.035 A 
ATOM     80  C   UNL A   1      29.564  25.653  23.947  1.00  0.00     0.002 A 
ATOM     81  C   UNL A   1      31.594  25.478  22.649  1.00  0.00     0.083 A 
ATOM     82  C   UNL A   1      30.604  24.876  23.430  1.00  0.00     0.022 A 
BRANCH  81  83
ATOM     83  S   UNL A   1      32.933  24.486  22.039  1.00  0.00     0.240 S 
ATOM     84  O   UNL A   1      32.579  23.097  22.218  1.00  0.00    -0.207 OA
ATOM     85  O   UNL A   1      33.271  25.020  20.739  1.00  0.00    -0.207 OA
BRANCH  83  86
ATOM     86  N   UNL A   1      34.249  24.822  23.011  1.00  0.00    -0.211 NA
ATOM     87  H   UNL A   1      33.939  25.585  23.613  1.00  0.00     0.141 HD
BRANCH  86  88
ATOM     88  C   UNL A   1      34.964  23.909  23.908  1.00  0.00     0.105 C 
BRANCH  88  89
ATOM     89  C   UNL A   1      35.085  24.358  25.364  1.00  0.00     0.032 C 
ATOM     90  C   UNL A   1      34.502  23.380  26.370  1.00  0.00     0.036 C 
ATOM     91  C   UNL A   1      34.152  25.544  25.600  1.00  0.00     0.165 C 
ATOM     92  C   UNL A   1      33.012  23.646  26.312  1.00  0.00     0.160 C 
ATOM     93  O   UNL A   1      32.852  24.999  25.867  1.00  0.00    -0.381 OA
ENDBRANCH  88  89
ENDBRANCH  86  88
ENDBRANCH  83  86
ENDBRANCH  81  83
ENDBRANCH  74  77
ENDBRANCH  72  73
ENDBRANCH   1  72
TORSDOF 17
ENDMDL
MODEL 2
REMARK VINA RESULT:     -11.1      4.769      8.037
REMARK SMILES O=C(NCCCNC(=O)c1cccc(S(=O)(=O)NC[C@@H]2CCOC2)c1)c1ccc(-c2c3nc(c(-c4cccc(S(=O)(=O)[O-])c4F)c4ccc([nH]4)c(-c4cccc(S(=O)(=O)[O-])c4F)c4nc(c(-c5cccc(S(=O)(=O)[O-])c5F)c5ccc2[nH]5)C=C4)C=C3)cc1
REMARK SMILES IDX 5 1 4 2 3 3 1 4 2 5 26 7 27 8 88 9 28 10 87 11 29 12 30 13
REMARK SMILES IDX 31 14 81 15 32 16 86 17 80 18 82 19 33 20 85 21 79 22 78 23
REMARK SMILES IDX 34 25 66 26 46 27 65 28 47 29 50 30 64 31 83 32 48 33 49 34
REMARK SMILES IDX 63 36 84 37 51 38 35 39 36 40 44 41 37 42 39 43 45 44 38 45
REMARK SMILES IDX 40 46 41 47 42 48 43 49 67 50 68 51 76 52 69 53 71 54 77 55
REMARK SMILES IDX 70 56 72 57 73 58 74 59 75 60 52 61 53 62 61 63 54 64 56 65
REMARK SMILES IDX 62 66 55 67 57 68 58 69 59 70 60 71 6 72 7 73 8 74 9 76
REMARK SMILES IDX 10 77 11 78 25 79 12 80 14 81 13 82 15 83 16 84 17 85 18 86
REMARK SMILES IDX 19 88 20 89 21 90 24 91 22 92 23 93
REMARK H PARENT 3 6 82 24 50 35 7 75 18 87
REMARK Flexibility Score: inf
ROOT
ATOM      1  C   UNL A   1      34.864  21.577  26.212  1.00  0.00     0.042 C 
ENDROOT
BRANCH   1   2
ATOM      2  C   UNL A   1      36.242  22.065  25.790  1.00  0.00     0.118 C 
BRANCH   2   3
ATOM      3  N   UNL A   1      37.244  21.012  25.817  1.00  0.00    -0.352 N 
ATOM      4  O   UNL A   1      39.285  20.083  25.750  1.00  0.00    -0.269 OA
ATOM      5  C   UNL A   1      38.607  21.081  25.981  1.00  0.00     0.251 C 
ATOM      6  H   UNL A   1      36.889  20.101  25.697  1.00  0.00     0.163 HD
BRANCH   5   7
ATOM      7  C   UNL A   1      39.256  22.345  26.394  1.00  0.00     0.039 A 
ATOM      8  C   UNL A   1      38.764  23.583  25.974  1.00  0.00     0.014 A 
ATOM      9  C   UNL A   1      40.360  22.293  27.251  1.00  0.00     0.014 A 
ATOM     10  C   UNL A   1      39.469  24.748  26.261  1.00  0.00     0.010 A 
ATOM     11  C   UNL A   1      41.009  23.474  27.622  1.00  0.00     0.010 A 
ATOM     12  C   UNL A   1      40.592  24.709  27.098  1.00  0.00    -0.014 A 
BRANCH  12  13
ATOM     13  C   UNL A   1      41.288  25.965  27.471  1.00  0.00     0.031 A 
ATOM     14  C   UNL A   1      40.594  27.017  28.291  1.00  0.00     0.074 A 
ATOM     15  C   UNL A   1      42.545  26.170  27.030  1.00  0.00     0.049 A 
ATOM     16  N   UNL A   1      41.025  28.200  28.645  1.00  0.00    -0.248 NA
ATOM     17  C   UNL A   1      39.237  26.706  28.768  1.00  0.00     0.031 C 
ATOM     18  C   UNL A   1      43.307  25.237  26.197  1.00  0.00     0.029 A 
ATOM     19  N   UNL A   1      43.393  27.235  27.196  1.00  0.00    -0.354 N 
ATOM     20  C   UNL A   1      39.979  28.796  29.337  1.00  0.00     0.074 A 
ATOM     21  C   UNL A   1      38.890  27.842  29.355  1.00  0.00     0.031 C 
ATOM     22  C   UNL A   1      44.505  25.769  25.924  1.00  0.00     0.029 A 
ATOM     23  C   UNL A   1      44.579  27.100  26.514  1.00  0.00     0.049 A 
ATOM     24  H   UNL A   1      43.174  28.019  27.750  1.00  0.00     0.167 HD
ATOM     25  C   UNL A   1      39.935  30.019  29.917  1.00  0.00     0.034 A 
ATOM     26  C   UNL A   1      45.602  27.961  26.352  1.00  0.00     0.034 A 
ATOM     27  C   UNL A   1      41.037  30.942  29.934  1.00  0.00     0.049 A 
ATOM     28  C   UNL A   1      45.541  29.300  27.027  1.00  0.00     0.074 A 
ATOM     29  C   UNL A   1      41.117  32.176  30.556  1.00  0.00     0.029 A 
ATOM     30  N   UNL A   1      42.252  30.737  29.297  1.00  0.00    -0.354 N 
ATOM     31  N   UNL A   1      44.590  29.795  27.781  1.00  0.00    -0.248 NA
ATOM     32  C   UNL A   1      46.700  30.185  26.857  1.00  0.00     0.031 C 
ATOM     33  C   UNL A   1      42.377  32.722  30.284  1.00  0.00     0.029 A 
ATOM     34  C   UNL A   1      43.086  31.822  29.505  1.00  0.00     0.049 A 
ATOM     35  H   UNL A   1      42.487  29.937  28.774  1.00  0.00     0.167 HD
ATOM     36  C   UNL A   1      45.045  31.039  28.200  1.00  0.00     0.074 A 
ATOM     37  C   UNL A   1      46.365  31.215  27.627  1.00  0.00     0.031 C 
ATOM     38  C   UNL A   1      44.421  31.956  28.977  1.00  0.00     0.034 A 
BRANCH  25  39
ATOM     39  C   UNL A   1      38.662  30.417  30.615  1.00  0.00     0.023 A 
ATOM     40  C   UNL A   1      38.480  30.085  31.974  1.00  0.00     0.012 A 
ATOM     41  C   UNL A   1      37.669  31.159  29.948  1.00  0.00     0.148 A 
ATOM     42  C   UNL A   1      37.317  30.457  32.646  1.00  0.00     0.002 A 
ATOM     43  C   UNL A   1      36.527  31.559  30.637  1.00  0.00     0.091 A 
ATOM     44  F   UNL A   1      37.841  31.444  28.649  1.00  0.00    -0.205 F 
ATOM     45  C   UNL A   1      36.346  31.202  31.982  1.00  0.00     0.022 A 
BRANCH  43  46
ATOM     46  S   UNL A   1      35.264  32.581  29.870  1.00  0.00     0.127 S 
ATOM     47  O   UNL A   1      34.350  32.810  30.986  1.00  0.00    -0.237 OA
ATOM     48  O   UNL A   1      36.021  33.761  29.452  1.00  0.00    -0.237 OA
ATOM     49  O   UNL A   1      34.736  31.787  28.768  1.00  0.00    -0.744 OA
ENDBRANCH  43  46
ENDBRANCH  25  39
BRANCH  26  50
ATOM     50  C   UNL A   1      46.780  27.540  25.544  1.00  0.00     0.023 A 
ATOM     51  C   UNL A   1      46.781  27.764  24.154  1.00  0.00     0.012 A 
ATOM     52  C   UNL A   1      47.934  27.016  26.160  1.00  0.00     0.148 A 
ATOM     53  C   UNL A   1      47.909  27.465  23.390  1.00  0.00     0.002 A 
ATOM     54  C   UNL A   1      49.073  26.773  25.402  1.00  0.00     0.091 A 
ATOM     55  F   UNL A   1      47.906  26.802  27.483  1.00  0.00    -0.205 F 
ATOM     56  C   UNL A   1      49.058  26.985  24.015  1.00  0.00     0.022 A 
BRANCH  54  57
ATOM     57  S   UNL A   1      50.640  26.300  26.142  1.00  0.00     0.127 S 
ATOM     58  O   UNL A   1      50.317  24.998  26.717  1.00  0.00    -0.237 OA
ATOM     59  O   UNL A   1      51.523  26.256  24.975  1.00  0.00    -0.237 OA
ATOM     60  O   UNL A   1      50.959  27.352  27.096  1.00  0.00    -0.744 OA
ENDBRANCH  54  57
ENDBRANCH  26  50
BRANCH  38  61
ATOM     61  C   UNL A   1      45.160  33.228  29.291  1.00  0.00     0.023 A 
ATOM     62  C   UNL A   1      46.014  33.280  30.409  1.00  0.00     0.012 A 
ATOM     63  C   UNL A   1      45.085  34.333  28.421  1.00  0.00     0.148 A 
ATOM     64  C   UNL A   1      46.773  34.420  30.666  1.00  0.00     0.002 A 
ATOM     65  C   UNL A   1      45.875  35.450  28.660  1.00  0.00     0.091 A 
ATOM     66  F   UNL A   1      44.249  34.268  27.375  1.00  0.00    -0.205 F 
ATOM     67  C   UNL A   1      46.714  35.499  29.785  1.00  0.00     0.022 A 
BRANCH  65  68
ATOM     68  S   UNL A   1      45.932  36.848  27.532  1.00  0.00     0.127 S 
ATOM     69  O   UNL A   1      46.346  36.208  26.285  1.00  0.00    -0.237 OA
ATOM     70  O   UNL A   1      44.546  37.316  27.547  1.00  0.00    -0.237 OA
ATOM     71  O   UNL A   1      46.890  37.785  28.103  1.00  0.00    -0.744 OA
ENDBRANCH  65  68
ENDBRANCH  38  61
ENDBRANCH  12  13
ENDBRANCH   5   7
ENDBRANCH   2   3
ENDBRANCH   1   2
BRANCH   1  72
ATOM     72  C   UNL A   1      33.959  21.196  25.053  1.00  0.00     0.118 C 
BRANCH  72  73
ATOM     73  N   UNL A   1      32.561  21.521  25.304  1.00  0.00    -0.352 N 
ATOM     74  C   UNL A   1      31.928  22.729  25.437  1.00  0.00     0.251 C 
ATOM     75  H   UNL A   1      31.969  20.740  25.392  1.00  0.00     0.163 HD
ATOM     76  O   UNL A   1      30.770  22.758  25.848  1.00  0.00    -0.269 OA
BRANCH  74  77
ATOM     77  C   UNL A   1      32.589  23.998  25.056  1.00  0.00     0.041 A 
ATOM     78  C   UNL A   1      33.156  24.797  26.056  1.00  0.00     0.014 A 
ATOM     79  C   UNL A   1      32.545  24.467  23.743  1.00  0.00     0.035 A 
ATOM     80  C   UNL A   1      33.701  26.042  25.735  1.00  0.00     0.002 A 
ATOM     81  C   UNL A   1      33.075  25.715  23.424  1.00  0.00     0.083 A 
ATOM     82  C   UNL A   1      33.658  26.507  24.417  1.00  0.00     0.022 A 
BRANCH  81  83
ATOM     83  S   UNL A   1      32.987  26.339  21.765  1.00  0.00     0.240 S 
ATOM     84  O   UNL A   1      33.922  27.435  21.649  1.00  0.00    -0.207 OA
ATOM     85  O   UNL A   1      33.060  25.186  20.896  1.00  0.00    -0.207 OA
BRANCH  83  86
ATOM     86  N   UNL A   1      31.443  26.943  21.570  1.00  0.00    -0.211 NA
ATOM     87  H   UNL A   1      31.063  26.429  20.775  1.00  0.00     0.141 HD
BRANCH  86  88
ATOM     88  C   UNL A   1      30.353  26.968  22.551  1.00  0.00     0.105 C 
BRANCH  88  89
ATOM     89  C   UNL A   1      30.180  28.273  23.326  1.00  0.00     0.032 C 
ATOM     90  C   UNL A   1      28.755  28.801  23.351  1.00  0.00     0.036 C 
ATOM     91  C   UNL A   1      30.852  29.407  22.555  1.00  0.00     0.165 C 
ATOM     92  C   UNL A   1      28.595  29.470  22.002  1.00  0.00     0.160 C 
ATOM     93  O   UNL A   1      29.907  29.854  21.573  1.00  0.00    -0.381 OA
ENDBRANCH  88  89
ENDBRANCH  86  88
ENDBRANCH  83  86
ENDBRANCH  81  83
ENDBRANCH  74  77
ENDBRANCH  72  73
ENDBRANCH   1  72
TORSDOF 17
ENDMDL
MODEL 3
REMARK VINA RESULT:     -11.0      2.364      8.321
REMARK SMILES O=C(NCCCNC(=O)c1cccc(S(=O)(=O)NC[C@@H]2CCOC2)c1)c1ccc(-c2c3nc(c(-c4cccc(S(=O)(=O)[O-])c4F)c4ccc([nH]4)c(-c4cccc(S(=O)(=O)[O-])c4F)c4nc(c(-c5cccc(S(=O)(=O)[O-])c5F)c5ccc2[nH]5)C=C4)C=C3)cc1
REMARK SMILES IDX 5 1 4 2 3 3 1 4 2 5 26 7 27 8 88 9 28 10 87 11 29 12 30 13
REMARK SMILES IDX 31 14 81 15 32 16 86 17 80 18 82 19 33 20 85 21 79 22 78 23
REMARK SMILES IDX 34 25 66 26 46 27 65 28 47 29 50 30 64 31 83 32 48 33 49 34
REMARK SMILES IDX 63 36 84 37 51 38 35 39 36 40 44 41 37 42 39 43 45 44 38 45
REMARK SMILES IDX 40 46 41 47 42 48 43 49 67 50 68 51 76 52 69 53 71 54 77 55
REMARK SMILES IDX 70 56 72 57 73 58 74 59 75 60 52 61 53 62 61 63 54 64 56 65
REMARK SMILES IDX 62 66 55 67 57 68 58 69 59 70 60 71 6 72 7 73 8 74 9 76
REMARK SMILES IDX 10 77 11 78 25 79 12 80 14 81 13 82 15 83 16 84 17 85 18 86
REMARK SMILES IDX 19 88 20 89 21 90 24 91 22 92 23 93
REMARK H PARENT 3 6 82 24 50 35 7 75 18 87
REMARK Flexibility Score: inf
ROOT
ATOM      1  C   UNL A   1      32.888  29.074  23.678  1.00  0.00     0.042 C 
ENDROOT
BRANCH   1   2
ATOM      2  C   UNL A   1      33.173  29.197  25.167  1.00  0.00     0.118 C 
BRANCH   2   3
ATOM      3  N   UNL A   1      32.618  30.410  25.748  1.00  0.00    -0.352 N 
ATOM      4  O   UNL A   1      32.269  32.009  27.283  1.00  0.00    -0.269 OA
ATOM      5  C   UNL A   1      33.018  31.139  26.842  1.00  0.00     0.251 C 
ATOM      6  H   UNL A   1      31.827  30.766  25.281  1.00  0.00     0.163 HD
BRANCH   5   7
ATOM      7  C   UNL A   1      34.311  30.862  27.505  1.00  0.00     0.039 A 
ATOM      8  C   UNL A   1      34.633  29.580  27.958  1.00  0.00     0.014 A 
ATOM      9  C   UNL A   1      35.239  31.899  27.645  1.00  0.00     0.014 A 
ATOM     10  C   UNL A   1      35.792  29.372  28.698  1.00  0.00     0.010 A 
ATOM     11  C   UNL A   1      36.450  31.665  28.301  1.00  0.00     0.010 A 
ATOM     12  C   UNL A   1      36.720  30.409  28.868  1.00  0.00    -0.014 A 
BRANCH  12  13
ATOM     13  C   UNL A   1      37.996  30.158  29.584  1.00  0.00     0.031 A 
ATOM     14  C   UNL A   1      39.051  29.266  28.991  1.00  0.00     0.074 A 
ATOM     15  C   UNL A   1      38.182  30.711  30.798  1.00  0.00     0.049 A 
ATOM     16  N   UNL A   1      40.187  28.881  29.510  1.00  0.00    -0.248 NA
ATOM     17  C   UNL A   1      38.792  28.727  27.646  1.00  0.00     0.031 C 
ATOM     18  C   UNL A   1      37.213  31.566  31.490  1.00  0.00     0.029 A 
ATOM     19  N   UNL A   1      39.231  30.621  31.677  1.00  0.00    -0.354 N 
ATOM     20  C   UNL A   1      40.756  28.016  28.584  1.00  0.00     0.074 A 
ATOM     21  C   UNL A   1      39.838  27.933  27.467  1.00  0.00     0.031 C 
ATOM     22  C   UNL A   1      37.711  31.918  32.683  1.00  0.00     0.029 A 
ATOM     23  C   UNL A   1      39.007  31.274  32.865  1.00  0.00     0.049 A 
ATOM     24  H   UNL A   1      40.064  30.136  31.475  1.00  0.00     0.167 HD
ATOM     25  C   UNL A   1      41.941  27.363  28.650  1.00  0.00     0.034 A 
ATOM     26  C   UNL A   1      39.744  31.327  33.991  1.00  0.00     0.034 A 
ATOM     27  C   UNL A   1      42.868  27.487  29.743  1.00  0.00     0.049 A 
ATOM     28  C   UNL A   1      41.066  30.618  34.030  1.00  0.00     0.074 A 
ATOM     29  C   UNL A   1      44.125  26.923  29.872  1.00  0.00     0.029 A 
ATOM     30  N   UNL A   1      42.639  28.222  30.897  1.00  0.00    -0.354 N 
ATOM     31  N   UNL A   1      41.641  29.904  33.093  1.00  0.00    -0.248 NA
ATOM     32  C   UNL A   1      41.853  30.742  35.264  1.00  0.00     0.031 C 
ATOM     33  C   UNL A   1      44.651  27.308  31.111  1.00  0.00     0.029 A 
ATOM     34  C   UNL A   1      43.728  28.122  31.746  1.00  0.00     0.049 A 
ATOM     35  H   UNL A   1      41.822  28.739  31.084  1.00  0.00     0.167 HD
ATOM     36  C   UNL A   1      42.871  29.516  33.611  1.00  0.00     0.074 A 
ATOM     37  C   UNL A   1      42.963  30.088  34.940  1.00  0.00     0.031 C 
ATOM     38  C   UNL A   1      43.829  28.747  33.042  1.00  0.00     0.034 A 
BRANCH  25  39
ATOM     39  C   UNL A   1      42.320  26.482  27.490  1.00  0.00     0.023 A 
ATOM     40  C   UNL A   1      43.070  27.019  26.424  1.00  0.00     0.012 A 
ATOM     41  C   UNL A   1      41.981  25.115  27.475  1.00  0.00     0.148 A 
ATOM     42  C   UNL A   1      43.448  26.218  25.347  1.00  0.00     0.002 A 
ATOM     43  C   UNL A   1      42.393  24.314  26.414  1.00  0.00     0.091 A 
ATOM     44  F   UNL A   1      41.244  24.623  28.482  1.00  0.00    -0.205 F 
ATOM     45  C   UNL A   1      43.119  24.865  25.347  1.00  0.00     0.022 A 
BRANCH  43  46
ATOM     46  S   UNL A   1      42.070  22.547  26.376  1.00  0.00     0.127 S 
ATOM     47  O   UNL A   1      42.674  22.107  27.631  1.00  0.00    -0.237 OA
ATOM     48  O   UNL A   1      40.608  22.493  26.354  1.00  0.00    -0.237 OA
ATOM     49  O   UNL A   1      42.706  22.061  25.158  1.00  0.00    -0.744 OA
ENDBRANCH  43  46
ENDBRANCH  25  39
BRANCH  26  50
ATOM     50  C   UNL A   1      39.244  32.125  35.145  1.00  0.00     0.023 A 
ATOM     51  C   UNL A   1      38.393  31.518  36.087  1.00  0.00     0.012 A 
ATOM     52  C   UNL A   1      39.691  33.443  35.366  1.00  0.00     0.148 A 
ATOM     53  C   UNL A   1      37.987  32.215  37.226  1.00  0.00     0.002 A 
ATOM     54  C   UNL A   1      39.329  34.110  36.530  1.00  0.00     0.091 A 
ATOM     55  F   UNL A   1      40.494  34.003  34.450  1.00  0.00    -0.205 F 
ATOM     56  C   UNL A   1      38.467  33.502  37.455  1.00  0.00     0.022 A 
BRANCH  54  57
ATOM     57  S   UNL A   1      40.018  35.707  36.979  1.00  0.00     0.127 S 
ATOM     58  O   UNL A   1      41.443  35.401  37.074  1.00  0.00    -0.237 OA
ATOM     59  O   UNL A   1      39.640  36.532  35.830  1.00  0.00    -0.237 OA
ATOM     60  O   UNL A   1      39.366  36.081  38.226  1.00  0.00    -0.744 OA
ENDBRANCH  54  57
ENDBRANCH  26  50
BRANCH  38  61
ATOM     61  C   UNL A   1      45.084  28.494  33.830  1.00  0.00     0.023 A 
ATOM     62  C   UNL A   1      46.148  29.415  33.761  1.00  0.00     0.012 A 
ATOM     63  C   UNL A   1      45.168  27.401  34.715  1.00  0.00     0.148 A 
ATOM     64  C   UNL A   1      47.284  29.243  34.550  1.00  0.00     0.002 A 
ATOM     65  C   UNL A   1      46.285  27.259  35.529  1.00  0.00     0.091 A 
ATOM     66  F   UNL A   1      44.152  26.527  34.748  1.00  0.00    -0.205 F 
ATOM     67  C   UNL A   1      47.347  28.174  35.443  1.00  0.00     0.022 A 
BRANCH  65  68
ATOM     68  S   UNL A   1      46.412  25.966  36.770  1.00  0.00     0.127 S 
ATOM     69  O   UNL A   1      45.155  26.129  37.499  1.00  0.00    -0.237 OA
ATOM     70  O   UNL A   1      46.491  24.756  35.952  1.00  0.00    -0.237 OA
ATOM     71  O   UNL A   1      47.619  26.260  37.531  1.00  0.00    -0.744 OA
ENDBRANCH  65  68
ENDBRANCH  38  61
ENDBRANCH  12  13
ENDBRANCH   5   7
ENDBRANCH   2   3
ENDBRANCH   1   2
BRANCH   1  72
ATOM     72  C   UNL A   1      31.836  28.034  23.331  1.00  0.00     0.118 C 
BRANCH  72  73
ATOM     73  N   UNL A   1      32.282  27.109  22.298  1.00  0.00    -0.352 N 
ATOM     74  C   UNL A   1      33.042  25.971  22.378  1.00  0.00     0.251 C 
ATOM     75  H   UNL A   1      31.987  27.339  21.389  1.00  0.00     0.163 HD
ATOM     76  O   UNL A   1      33.463  25.458  21.343  1.00  0.00    -0.269 OA
BRANCH  74  77
ATOM     77  C   UNL A   1      33.331  25.319  23.675  1.00  0.00     0.041 A 
ATOM     78  C   UNL A   1      34.660  25.201  24.096  1.00  0.00     0.014 A 
ATOM     79  C   UNL A   1      32.317  24.714  24.418  1.00  0.00     0.035 A 
ATOM     80  C   UNL A   1      34.966  24.506  25.269  1.00  0.00     0.002 A 
ATOM     81  C   UNL A   1      32.622  24.009  25.580  1.00  0.00     0.083 A 
ATOM     82  C   UNL A   1      33.947  23.905  26.012  1.00  0.00     0.022 A 
BRANCH  81  83
ATOM     83  S   UNL A   1      31.346  23.200  26.511  1.00  0.00     0.240 S 
ATOM     84  O   UNL A   1      31.828  23.008  27.859  1.00  0.00    -0.207 OA
ATOM     85  O   UNL A   1      30.126  23.928  26.240  1.00  0.00    -0.207 OA
BRANCH  83  86
ATOM     86  N   UNL A   1      31.131  21.700  25.810  1.00  0.00    -0.211 NA
ATOM     87  H   UNL A   1      30.816  21.900  24.861  1.00  0.00     0.141 HD
BRANCH  86  88
ATOM     88  C   UNL A   1      32.118  20.627  25.656  1.00  0.00     0.105 C 
BRANCH  88  89
ATOM     89  C   UNL A   1      32.740  20.485  24.268  1.00  0.00     0.032 C 
ATOM     90  C   UNL A   1      32.731  19.067  23.720  1.00  0.00     0.036 C 
ATOM     91  C   UNL A   1      34.249  20.701  24.371  1.00  0.00     0.165 C 
ATOM     92  C   UNL A   1      33.899  18.402  24.417  1.00  0.00     0.160 C 
ATOM     93  O   UNL A   1      34.819  19.445  24.766  1.00  0.00    -0.381 OA
ENDBRANCH  88  89
ENDBRANCH  86  88
ENDBRANCH  83  86
ENDBRANCH  81  83
ENDBRANCH  74  77
ENDBRANCH  72  73
ENDBRANCH   1  72
TORSDOF 17
ENDMDL
