MODEL 1
REMARK VINA RESULT:     -11.3      0.000      0.000
REMARK SMILES CC(C)(C[N@H+]1C[C@@H]2C[NH2+]C[C@H]2C1(C)C)C(=O)NCCCNC(=O)c1ccc(-c2c3nc(c(-c4cccc(S(=O)(=O)[O-])c4F)c4ccc([nH]4)c(-c4cccc(S(=O)(=O)[O-])c4F)c4nc(c(-c5cccc(S(=O)(=O)[O-])c5F)c5ccc2[nH]5)C=C4)C=C3)cc1
REMARK SMILES IDX 19 1 18 2 17 3 15 4 16 5 2 7 1 8 3 9 4 10 5 11 6 12 12 13
REMARK SMILES IDX 7 15 11 16 13 17 14 18 8 19 10 20 9 21 20 24 21 25 22 26
REMARK SMILES IDX 23 28 24 29 25 30 86 31 26 32 85 33 27 34 28 35 29 36 79 37
REMARK SMILES IDX 30 38 84 39 78 40 80 41 31 42 83 43 77 44 76 45 32 47 64 48
REMARK SMILES IDX 44 49 63 50 45 51 48 52 62 53 81 54 46 55 47 56 61 58 82 59
REMARK SMILES IDX 49 60 33 61 34 62 42 63 35 64 37 65 43 66 36 67 38 68 39 69
REMARK SMILES IDX 40 70 41 71 65 72 66 73 74 74 67 75 69 76 75 77 68 78 70 79
REMARK SMILES IDX 71 80 72 81 73 82 50 83 51 84 59 85 52 86 54 87 60 88 53 89
REMARK SMILES IDX 55 90 56 91 57 92 58 93
REMARK H PARENT 17 6 5 14 9 22 9 23 21 27 80 46 48 57
REMARK Flexibility Score: inf
ROOT
ATOM      1  C   UNL A   1      32.854  27.914  26.799  1.00  0.00     0.042 C 
ENDROOT
BRANCH   1   2
ATOM      2  C   UNL A   1      31.685  27.619  25.876  1.00  0.00     0.117 C 
BRANCH   2   3
ATOM      3  N   UNL A   1      30.799  26.603  26.412  1.00  0.00    -0.355 N 
ATOM      4  C   UNL A   1      30.654  25.276  26.170  1.00  0.00     0.231 C 
ATOM      5  O   UNL A   1      29.783  24.712  26.844  1.00  0.00    -0.274 OA
ATOM      6  H   UNL A   1      30.175  26.947  27.091  1.00  0.00     0.163 HD
BRANCH   4   7
ATOM      7  C   UNL A   1      31.527  24.493  25.169  1.00  0.00     0.092 C 
ATOM      8  C   UNL A   1      31.504  25.274  23.835  1.00  0.00     0.027 C 
ATOM      9  C   UNL A   1      30.849  23.154  24.774  1.00  0.00     0.027 C 
BRANCH   7  10
ATOM     10  C   UNL A   1      32.965  24.212  25.746  1.00  0.00     0.279 C 
BRANCH  10  11
ATOM     11  N   UNL A   1      34.176  24.271  24.892  1.00  0.00    -0.329 N 
ATOM     12  C   UNL A   1      35.365  24.829  25.642  1.00  0.00     0.272 C 
ATOM     13  C   UNL A   1      34.643  23.012  24.196  1.00  0.00     0.101 C 
ATOM     14  H   UNL A   1      33.839  24.884  24.150  1.00  0.00     0.348 HD
ATOM     15  C   UNL A   1      36.313  23.664  25.743  1.00  0.00     0.114 C 
ATOM     16  C   UNL A   1      36.166  23.088  24.364  1.00  0.00     0.119 C 
ATOM     17  C   UNL A   1      34.138  21.675  24.768  1.00  0.00     0.079 C 
ATOM     18  C   UNL A   1      34.339  23.140  22.691  1.00  0.00     0.079 C 
ATOM     19  C   UNL A   1      37.816  23.747  25.834  1.00  0.00     0.270 C 
ATOM     20  C   UNL A   1      37.122  21.920  24.428  1.00  0.00     0.271 C 
ATOM     21  N   UNL A   1      38.248  22.445  25.241  1.00  0.00    -0.345 N 
ATOM     22  H   UNL A   1      38.476  21.785  25.984  1.00  0.00     0.346 HD
ATOM     23  H   UNL A   1      39.076  22.576  24.659  1.00  0.00     0.346 HD
ENDBRANCH  10  11
ENDBRANCH   7  10
ENDBRANCH   4   7
ENDBRANCH   2   3
ENDBRANCH   1   2
BRANCH   1  24
ATOM     24  C   UNL A   1      33.883  28.867  26.211  1.00  0.00     0.118 C 
BRANCH  24  25
ATOM     25  N   UNL A   1      33.796  30.208  26.779  1.00  0.00    -0.352 N 
ATOM     26  C   UNL A   1      34.580  30.823  27.726  1.00  0.00     0.251 C 
ATOM     27  H   UNL A   1      33.060  30.760  26.428  1.00  0.00     0.163 HD
ATOM     28  O   UNL A   1      34.211  31.881  28.225  1.00  0.00    -0.269 OA
BRANCH  26  29
ATOM     29  C   UNL A   1      35.853  30.203  28.149  1.00  0.00     0.039 A 
ATOM     30  C   UNL A   1      36.972  30.311  27.319  1.00  0.00     0.014 A 
ATOM     31  C   UNL A   1      35.942  29.507  29.356  1.00  0.00     0.014 A 
ATOM     32  C   UNL A   1      38.195  29.780  27.735  1.00  0.00     0.010 A 
ATOM     33  C   UNL A   1      37.179  29.071  29.814  1.00  0.00     0.010 A 
ATOM     34  C   UNL A   1      38.316  29.187  29.003  1.00  0.00    -0.014 A 
BRANCH  34  35
ATOM     35  C   UNL A   1      39.619  28.679  29.503  1.00  0.00     0.031 A 
ATOM     36  C   UNL A   1      40.331  29.395  30.618  1.00  0.00     0.074 A 
ATOM     37  C   UNL A   1      40.207  27.636  28.884  1.00  0.00     0.049 A 
ATOM     38  N   UNL A   1      41.502  29.145  31.143  1.00  0.00    -0.248 NA
ATOM     39  C   UNL A   1      39.655  30.568  31.200  1.00  0.00     0.031 C 
ATOM     40  C   UNL A   1      39.658  26.918  27.732  1.00  0.00     0.029 A 
ATOM     41  N   UNL A   1      41.409  27.018  29.119  1.00  0.00    -0.354 N 
ATOM     42  C   UNL A   1      41.722  30.149  32.079  1.00  0.00     0.074 A 
ATOM     43  C   UNL A   1      40.580  31.034  32.024  1.00  0.00     0.031 C 
ATOM     44  C   UNL A   1      40.519  25.954  27.365  1.00  0.00     0.029 A 
ATOM     45  C   UNL A   1      41.690  26.006  28.232  1.00  0.00     0.049 A 
ATOM     46  H   UNL A   1      42.012  27.276  29.853  1.00  0.00     0.167 HD
ATOM     47  C   UNL A   1      42.763  30.303  32.930  1.00  0.00     0.034 A 
ATOM     48  C   UNL A   1      42.776  25.214  28.123  1.00  0.00     0.034 A 
ATOM     49  C   UNL A   1      43.872  29.392  33.013  1.00  0.00     0.049 A 
ATOM     50  C   UNL A   1      43.895  25.371  29.115  1.00  0.00     0.074 A 
ATOM     51  C   UNL A   1      44.925  29.398  33.910  1.00  0.00     0.029 A 
ATOM     52  N   UNL A   1      44.079  28.319  32.160  1.00  0.00    -0.354 N 
ATOM     53  N   UNL A   1      44.005  26.223  30.106  1.00  0.00    -0.248 NA
ATOM     54  C   UNL A   1      45.022  24.435  28.998  1.00  0.00     0.031 C 
ATOM     55  C   UNL A   1      45.785  28.345  33.580  1.00  0.00     0.029 A 
ATOM     56  C   UNL A   1      45.249  27.663  32.499  1.00  0.00     0.049 A 
ATOM     57  H   UNL A   1      43.480  28.061  31.422  1.00  0.00     0.167 HD
ATOM     58  C   UNL A   1      45.195  25.904  30.752  1.00  0.00     0.074 A 
ATOM     59  C   UNL A   1      45.758  24.768  30.050  1.00  0.00     0.031 C 
ATOM     60  C   UNL A   1      45.775  26.506  31.820  1.00  0.00     0.034 A 
BRANCH  47  61
ATOM     61  C   UNL A   1      42.725  31.478  33.874  1.00  0.00     0.023 A 
ATOM     62  C   UNL A   1      43.264  32.718  33.469  1.00  0.00     0.012 A 
ATOM     63  C   UNL A   1      42.121  31.371  35.141  1.00  0.00     0.148 A 
ATOM     64  C   UNL A   1      43.244  33.818  34.326  1.00  0.00     0.002 A 
ATOM     65  C   UNL A   1      42.060  32.486  35.971  1.00  0.00     0.091 A 
ATOM     66  F   UNL A   1      41.633  30.182  35.520  1.00  0.00    -0.205 F 
ATOM     67  C   UNL A   1      42.633  33.704  35.571  1.00  0.00     0.022 A 
BRANCH  65  68
ATOM     68  S   UNL A   1      41.220  32.464  37.559  1.00  0.00     0.127 S 
ATOM     69  O   UNL A   1      42.086  31.581  38.338  1.00  0.00    -0.237 OA
ATOM     70  O   UNL A   1      41.272  33.872  37.953  1.00  0.00    -0.237 OA
ATOM     71  O   UNL A   1      39.880  31.958  37.297  1.00  0.00    -0.744 OA
ENDBRANCH  65  68
ENDBRANCH  47  61
BRANCH  48  72
ATOM     72  C   UNL A   1      42.816  24.158  27.073  1.00  0.00     0.023 A 
ATOM     73  C   UNL A   1      43.578  24.370  25.908  1.00  0.00     0.012 A 
ATOM     74  C   UNL A   1      42.148  22.929  27.245  1.00  0.00     0.148 A 
ATOM     75  C   UNL A   1      43.650  23.389  24.918  1.00  0.00     0.002 A 
ATOM     76  C   UNL A   1      42.270  21.937  26.280  1.00  0.00     0.091 A 
ATOM     77  F   UNL A   1      41.425  22.751  28.358  1.00  0.00    -0.205 F 
ATOM     78  C   UNL A   1      43.006  22.170  25.108  1.00  0.00     0.022 A 
BRANCH  76  79
ATOM     79  S   UNL A   1      41.592  20.287  26.503  1.00  0.00     0.127 S 
ATOM     80  O   UNL A   1      42.146  19.910  27.801  1.00  0.00    -0.237 OA
ATOM     81  O   UNL A   1      40.154  20.551  26.498  1.00  0.00    -0.237 OA
ATOM     82  O   UNL A   1      42.064  19.510  25.365  1.00  0.00    -0.744 OA
ENDBRANCH  76  79
ENDBRANCH  48  72
BRANCH  60  83
ATOM     83  C   UNL A   1      47.073  25.932  32.325  1.00  0.00     0.023 A 
ATOM     84  C   UNL A   1      48.297  26.404  31.812  1.00  0.00     0.012 A 
ATOM     85  C   UNL A   1      47.079  24.978  33.362  1.00  0.00     0.148 A 
ATOM     86  C   UNL A   1      49.506  25.911  32.300  1.00  0.00     0.002 A 
ATOM     87  C   UNL A   1      48.287  24.531  33.880  1.00  0.00     0.091 A 
ATOM     88  F   UNL A   1      45.903  24.528  33.824  1.00  0.00    -0.205 F 
ATOM     89  C   UNL A   1      49.502  24.986  33.342  1.00  0.00     0.022 A 
BRANCH  87  90
ATOM     90  S   UNL A   1      48.380  23.415  35.284  1.00  0.00     0.127 S 
ATOM     91  O   UNL A   1      49.824  23.286  35.469  1.00  0.00    -0.237 OA
ATOM     92  O   UNL A   1      47.696  24.176  36.330  1.00  0.00    -0.237 OA
ATOM     93  O   UNL A   1      47.691  22.197  34.875  1.00  0.00    -0.744 OA
ENDBRANCH  87  90
ENDBRANCH  60  83
ENDBRANCH  34  35
ENDBRANCH  26  29
ENDBRANCH  24  25
ENDBRANCH   1  24
TORSDOF 15
ENDMDL
MODEL 2
REMARK VINA RESULT:     -11.1      4.982      9.716
REMARK SMILES CC(C)(C[N@H+]1C[C@@H]2C[NH2+]C[C@H]2C1(C)C)C(=O)NCCCNC(=O)c1ccc(-c2c3nc(c(-c4cccc(S(=O)(=O)[O-])c4F)c4ccc([nH]4)c(-c4cccc(S(=O)(=O)[O-])c4F)c4nc(c(-c5cccc(S(=O)(=O)[O-])c5F)c5ccc2[nH]5)C=C4)C=C3)cc1
REMARK SMILES IDX 19 1 18 2 17 3 15 4 16 5 2 7 1 8 3 9 4 10 5 11 6 12 12 13
REMARK SMILES IDX 7 15 11 16 13 17 14 18 8 19 10 20 9 21 20 24 21 25 22 26
REMARK SMILES IDX 23 28 24 29 25 30 86 31 26 32 85 33 27 34 28 35 29 36 79 37
REMARK SMILES IDX 30 38 84 39 78 40 80 41 31 42 83 43 77 44 76 45 32 47 64 48
REMARK SMILES IDX 44 49 63 50 45 51 48 52 62 53 81 54 46 55 47 56 61 58 82 59
REMARK SMILES IDX 49 60 33 61 34 62 42 63 35 64 37 65 43 66 36 67 38 68 39 69
REMARK SMILES IDX 40 70 41 71 65 72 66 73 74 74 67 75 69 76 75 77 68 78 70 79
REMARK SMILES IDX 71 80 72 81 73 82 50 83 51 84 59 85 52 86 54 87 60 88 53 89
REMARK SMILES IDX 55 90 56 91 57 92 58 93
REMARK H PARENT 17 6 5 14 9 22 9 23 21 27 80 46 48 57
REMARK Flexibility Score: inf
ROOT
ATOM      1  C   UNL A   1      36.060  21.702  24.514  1.00  0.00     0.042 C 
ENDROOT
BRANCH   1   2
ATOM      2  C   UNL A   1      35.365  20.936  25.626  1.00  0.00     0.117 C 
BRANCH   2   3
ATOM      3  N   UNL A   1      33.967  20.682  25.334  1.00  0.00    -0.355 N 
ATOM      4  C   UNL A   1      32.817  21.321  25.668  1.00  0.00     0.231 C 
ATOM      5  O   UNL A   1      31.785  20.813  25.214  1.00  0.00    -0.274 OA
ATOM      6  H   UNL A   1      33.823  19.883  24.778  1.00  0.00     0.163 HD
BRANCH   4   7
ATOM      7  C   UNL A   1      32.774  22.611  26.510  1.00  0.00     0.092 C 
ATOM      8  C   UNL A   1      33.404  22.281  27.883  1.00  0.00     0.027 C 
ATOM      9  C   UNL A   1      31.315  22.968  26.899  1.00  0.00     0.027 C 
BRANCH   7  10
ATOM     10  C   UNL A   1      33.435  23.823  25.753  1.00  0.00     0.279 C 
BRANCH  10  11
ATOM     11  N   UNL A   1      32.623  24.839  25.041  1.00  0.00    -0.329 N 
ATOM     12  C   UNL A   1      33.179  26.233  25.225  1.00  0.00     0.272 C 
ATOM     13  C   UNL A   1      32.360  24.659  23.563  1.00  0.00     0.101 C 
ATOM     14  H   UNL A   1      31.723  24.696  25.497  1.00  0.00     0.348 HD
ATOM     15  C   UNL A   1      33.650  26.623  23.850  1.00  0.00     0.114 C 
ATOM     16  C   UNL A   1      32.517  26.087  23.024  1.00  0.00     0.119 C 
ATOM     17  C   UNL A   1      33.311  23.722  22.797  1.00  0.00     0.079 C 
ATOM     18  C   UNL A   1      30.885  24.255  23.371  1.00  0.00     0.079 C 
ATOM     19  C   UNL A   1      33.733  28.026  23.305  1.00  0.00     0.270 C 
ATOM     20  C   UNL A   1      32.955  26.478  21.632  1.00  0.00     0.271 C 
ATOM     21  N   UNL A   1      33.580  27.810  21.834  1.00  0.00    -0.345 N 
ATOM     22  H   UNL A   1      34.495  27.835  21.383  1.00  0.00     0.346 HD
ATOM     23  H   UNL A   1      32.999  28.542  21.425  1.00  0.00     0.346 HD
ENDBRANCH  10  11
ENDBRANCH   7  10
ENDBRANCH   4   7
ENDBRANCH   2   3
ENDBRANCH   1   2
BRANCH   1  24
ATOM     24  C   UNL A   1      37.433  22.234  24.893  1.00  0.00     0.118 C 
BRANCH  24  25
ATOM     25  N   UNL A   1      38.276  21.220  25.519  1.00  0.00    -0.352 N 
ATOM     26  C   UNL A   1      39.438  21.356  26.240  1.00  0.00     0.251 C 
ATOM     27  H   UNL A   1      37.963  20.294  25.407  1.00  0.00     0.163 HD
ATOM     28  O   UNL A   1      40.111  20.363  26.499  1.00  0.00    -0.269 OA
BRANCH  26  29
ATOM     29  C   UNL A   1      39.880  22.692  26.689  1.00  0.00     0.039 A 
ATOM     30  C   UNL A   1      40.854  22.788  27.687  1.00  0.00     0.014 A 
ATOM     31  C   UNL A   1      39.329  23.850  26.137  1.00  0.00     0.014 A 
ATOM     32  C   UNL A   1      41.320  24.044  28.080  1.00  0.00     0.010 A 
ATOM     33  C   UNL A   1      39.866  25.091  26.453  1.00  0.00     0.010 A 
ATOM     34  C   UNL A   1      40.856  25.206  27.439  1.00  0.00    -0.014 A 
BRANCH  34  35
ATOM     35  C   UNL A   1      41.387  26.548  27.782  1.00  0.00     0.031 A 
ATOM     36  C   UNL A   1      42.819  26.896  27.476  1.00  0.00     0.074 A 
ATOM     37  C   UNL A   1      40.611  27.416  28.461  1.00  0.00     0.049 A 
ATOM     38  N   UNL A   1      43.481  27.987  27.759  1.00  0.00    -0.248 NA
ATOM     39  C   UNL A   1      43.625  25.869  26.791  1.00  0.00     0.031 C 
ATOM     40  C   UNL A   1      39.236  27.159  28.897  1.00  0.00     0.029 A 
ATOM     41  N   UNL A   1      40.877  28.678  28.929  1.00  0.00    -0.354 N 
ATOM     42  C   UNL A   1      44.783  27.764  27.329  1.00  0.00     0.074 A 
ATOM     43  C   UNL A   1      44.830  26.418  26.802  1.00  0.00     0.031 C 
ATOM     44  C   UNL A   1      38.779  28.232  29.562  1.00  0.00     0.029 A 
ATOM     45  C   UNL A   1      39.834  29.237  29.629  1.00  0.00     0.049 A 
ATOM     46  H   UNL A   1      41.733  29.139  28.778  1.00  0.00     0.167 HD
ATOM     47  C   UNL A   1      45.839  28.611  27.343  1.00  0.00     0.034 A 
ATOM     48  C   UNL A   1      39.741  30.423  30.262  1.00  0.00     0.034 A 
ATOM     49  C   UNL A   1      45.775  29.963  27.825  1.00  0.00     0.049 A 
ATOM     50  C   UNL A   1      40.910  31.368  30.216  1.00  0.00     0.074 A 
ATOM     51  C   UNL A   1      46.757  30.938  27.788  1.00  0.00     0.029 A 
ATOM     52  N   UNL A   1      44.671  30.531  28.443  1.00  0.00    -0.354 N 
ATOM     53  N   UNL A   1      42.083  31.202  29.654  1.00  0.00    -0.248 NA
ATOM     54  C   UNL A   1      40.731  32.677  30.859  1.00  0.00     0.031 C 
ATOM     55  C   UNL A   1      46.255  32.085  28.411  1.00  0.00     0.029 A 
ATOM     56  C   UNL A   1      44.950  31.836  28.806  1.00  0.00     0.049 A 
ATOM     57  H   UNL A   1      43.815  30.072  28.601  1.00  0.00     0.167 HD
ATOM     58  C   UNL A   1      42.770  32.396  29.844  1.00  0.00     0.074 A 
ATOM     59  C   UNL A   1      41.872  33.283  30.557  1.00  0.00     0.031 C 
ATOM     60  C   UNL A   1      44.032  32.723  29.474  1.00  0.00     0.034 A 
BRANCH  47  61
ATOM     61  C   UNL A   1      47.143  28.110  26.776  1.00  0.00     0.023 A 
ATOM     62  C   UNL A   1      48.172  27.694  27.647  1.00  0.00     0.012 A 
ATOM     63  C   UNL A   1      47.338  28.011  25.384  1.00  0.00     0.148 A 
ATOM     64  C   UNL A   1      49.388  27.231  27.145  1.00  0.00     0.002 A 
ATOM     65  C   UNL A   1      48.534  27.501  24.892  1.00  0.00     0.091 A 
ATOM     66  F   UNL A   1      46.360  28.430  24.569  1.00  0.00    -0.205 F 
ATOM     67  C   UNL A   1      49.564  27.125  25.769  1.00  0.00     0.022 A 
BRANCH  65  68
ATOM     68  S   UNL A   1      48.827  27.245  23.138  1.00  0.00     0.127 S 
ATOM     69  O   UNL A   1      50.287  27.274  23.075  1.00  0.00    -0.237 OA
ATOM     70  O   UNL A   1      48.234  25.926  22.915  1.00  0.00    -0.237 OA
ATOM     71  O   UNL A   1      48.148  28.338  22.455  1.00  0.00    -0.744 OA
ENDBRANCH  65  68
ENDBRANCH  47  61
BRANCH  48  72
ATOM     72  C   UNL A   1      38.465  30.805  30.932  1.00  0.00     0.023 A 
ATOM     73  C   UNL A   1      38.295  30.530  32.302  1.00  0.00     0.012 A 
ATOM     74  C   UNL A   1      37.445  31.480  30.233  1.00  0.00     0.148 A 
ATOM     75  C   UNL A   1      37.119  30.894  32.959  1.00  0.00     0.002 A 
ATOM     76  C   UNL A   1      36.301  31.889  30.907  1.00  0.00     0.091 A 
ATOM     77  F   UNL A   1      37.626  31.726  28.929  1.00  0.00    -0.205 F 
ATOM     78  C   UNL A   1      36.128  31.583  32.265  1.00  0.00     0.022 A 
BRANCH  76  79
ATOM     79  S   UNL A   1      35.035  32.902  30.131  1.00  0.00     0.127 S 
ATOM     80  O   UNL A   1      34.512  31.996  29.113  1.00  0.00    -0.237 OA
ATOM     81  O   UNL A   1      34.131  33.161  31.251  1.00  0.00    -0.237 OA
ATOM     82  O   UNL A   1      35.726  34.083  29.631  1.00  0.00    -0.744 OA
ENDBRANCH  76  79
ENDBRANCH  48  72
BRANCH  60  83
ATOM     83  C   UNL A   1      44.518  34.111  29.801  1.00  0.00     0.023 A 
ATOM     84  C   UNL A   1      45.230  34.346  30.994  1.00  0.00     0.012 A 
ATOM     85  C   UNL A   1      44.332  35.169  28.887  1.00  0.00     0.148 A 
ATOM     86  C   UNL A   1      45.721  35.617  31.287  1.00  0.00     0.002 A 
ATOM     87  C   UNL A   1      44.869  36.420  29.162  1.00  0.00     0.091 A 
ATOM     88  F   UNL A   1      43.635  34.930  27.766  1.00  0.00    -0.205 F 
ATOM     89  C   UNL A   1      45.552  36.649  30.367  1.00  0.00     0.022 A 
BRANCH  87  90
ATOM     90  S   UNL A   1      44.785  37.781  27.994  1.00  0.00     0.127 S 
ATOM     91  O   UNL A   1      43.343  37.983  27.874  1.00  0.00    -0.237 OA
ATOM     92  O   UNL A   1      45.493  38.845  28.708  1.00  0.00    -0.237 OA
ATOM     93  O   UNL A   1      45.455  37.316  26.787  1.00  0.00    -0.744 OA
ENDBRANCH  87  90
ENDBRANCH  60  83
ENDBRANCH  34  35
ENDBRANCH  26  29
ENDBRANCH  24  25
ENDBRANCH   1  24
TORSDOF 15
ENDMDL
MODEL 3
REMARK VINA RESULT:     -11.1      3.424      6.357
REMARK SMILES CC(C)(C[N@H+]1C[C@@H]2C[NH2+]C[C@H]2C1(C)C)C(=O)NCCCNC(=O)c1ccc(-c2c3nc(c(-c4cccc(S(=O)(=O)[O-])c4F)c4ccc([nH]4)c(-c4cccc(S(=O)(=O)[O-])c4F)c4nc(c(-c5cccc(S(=O)(=O)[O-])c5F)c5ccc2[nH]5)C=C4)C=C3)cc1
REMARK SMILES IDX 19 1 18 2 17 3 15 4 16 5 2 7 1 8 3 9 4 10 5 11 6 12 12 13
REMARK SMILES IDX 7 15 11 16 13 17 14 18 8 19 10 20 9 21 20 24 21 25 22 26
REMARK SMILES IDX 23 28 24 29 25 30 86 31 26 32 85 33 27 34 28 35 29 36 79 37
REMARK SMILES IDX 30 38 84 39 78 40 80 41 31 42 83 43 77 44 76 45 32 47 64 48
REMARK SMILES IDX 44 49 63 50 45 51 48 52 62 53 81 54 46 55 47 56 61 58 82 59
REMARK SMILES IDX 49 60 33 61 34 62 42 63 35 64 37 65 43 66 36 67 38 68 39 69
REMARK SMILES IDX 40 70 41 71 65 72 66 73 74 74 67 75 69 76 75 77 68 78 70 79
REMARK SMILES IDX 71 80 72 81 73 82 50 83 51 84 59 85 52 86 54 87 60 88 53 89
REMARK SMILES IDX 55 90 56 91 57 92 58 93
REMARK H PARENT 17 6 5 14 9 22 9 23 21 27 80 46 48 57
REMARK Flexibility Score: inf
ROOT
ATOM      1  C   UNL A   1      34.790  34.693  28.197  1.00  0.00     0.042 C 
ENDROOT
BRANCH   1   2
ATOM      2  C   UNL A   1      33.677  34.805  29.225  1.00  0.00     0.117 C 
BRANCH   2   3
ATOM      3  N   UNL A   1      33.414  36.179  29.609  1.00  0.00    -0.355 N 
ATOM      4  C   UNL A   1      33.200  36.784  30.804  1.00  0.00     0.231 C 
ATOM      5  O   UNL A   1      33.020  38.007  30.747  1.00  0.00    -0.274 OA
ATOM      6  H   UNL A   1      33.384  36.799  28.845  1.00  0.00     0.163 HD
BRANCH   4   7
ATOM      7  C   UNL A   1      33.221  36.038  32.153  1.00  0.00     0.092 C 
ATOM      8  C   UNL A   1      31.750  35.833  32.583  1.00  0.00     0.027 C 
ATOM      9  C   UNL A   1      33.766  36.952  33.282  1.00  0.00     0.027 C 
BRANCH   7  10
ATOM     10  C   UNL A   1      34.077  34.718  32.075  1.00  0.00     0.279 C 
BRANCH  10  11
ATOM     11  N   UNL A   1      35.490  34.674  32.522  1.00  0.00    -0.329 N 
ATOM     12  C   UNL A   1      35.619  34.943  34.004  1.00  0.00     0.272 C 
ATOM     13  C   UNL A   1      36.313  33.441  32.222  1.00  0.00     0.101 C 
ATOM     14  H   UNL A   1      35.882  35.412  31.939  1.00  0.00     0.348 HD
ATOM     15  C   UNL A   1      36.101  33.634  34.573  1.00  0.00     0.114 C 
ATOM     16  C   UNL A   1      37.103  33.248  33.524  1.00  0.00     0.119 C 
ATOM     17  C   UNL A   1      35.538  32.149  31.905  1.00  0.00     0.079 C 
ATOM     18  C   UNL A   1      37.328  33.784  31.115  1.00  0.00     0.079 C 
ATOM     19  C   UNL A   1      36.938  33.461  35.814  1.00  0.00     0.270 C 
ATOM     20  C   UNL A   1      37.618  31.939  34.075  1.00  0.00     0.271 C 
ATOM     21  N   UNL A   1      37.658  32.180  35.540  1.00  0.00    -0.345 N 
ATOM     22  H   UNL A   1      37.199  31.412  36.030  1.00  0.00     0.346 HD
ATOM     23  H   UNL A   1      38.624  32.238  35.864  1.00  0.00     0.346 HD
ENDBRANCH  10  11
ENDBRANCH   7  10
ENDBRANCH   4   7
ENDBRANCH   2   3
ENDBRANCH   1   2
BRANCH   1  24
ATOM     24  C   UNL A   1      35.403  33.306  28.096  1.00  0.00     0.118 C 
BRANCH  24  25
ATOM     25  N   UNL A   1      34.408  32.269  27.843  1.00  0.00    -0.352 N 
ATOM     26  C   UNL A   1      34.550  30.903  27.772  1.00  0.00     0.251 C 
ATOM     27  H   UNL A   1      33.492  32.599  27.700  1.00  0.00     0.163 HD
ATOM     28  O   UNL A   1      33.629  30.220  27.336  1.00  0.00    -0.269 OA
BRANCH  26  29
ATOM     29  C   UNL A   1      35.809  30.265  28.207  1.00  0.00     0.039 A 
ATOM     30  C   UNL A   1      36.904  30.256  27.339  1.00  0.00     0.014 A 
ATOM     31  C   UNL A   1      35.908  29.665  29.464  1.00  0.00     0.014 A 
ATOM     32  C   UNL A   1      38.116  29.705  27.761  1.00  0.00     0.010 A 
ATOM     33  C   UNL A   1      37.140  29.213  29.920  1.00  0.00     0.010 A 
ATOM     34  C   UNL A   1      38.254  29.212  29.070  1.00  0.00    -0.014 A 
BRANCH  34  35
ATOM     35  C   UNL A   1      39.550  28.689  29.571  1.00  0.00     0.031 A 
ATOM     36  C   UNL A   1      40.274  29.402  30.681  1.00  0.00     0.074 A 
ATOM     37  C   UNL A   1      40.122  27.634  28.958  1.00  0.00     0.049 A 
ATOM     38  N   UNL A   1      41.442  29.138  31.205  1.00  0.00    -0.248 NA
ATOM     39  C   UNL A   1      39.616  30.588  31.256  1.00  0.00     0.031 C 
ATOM     40  C   UNL A   1      39.562  26.916  27.811  1.00  0.00     0.029 A 
ATOM     41  N   UNL A   1      41.316  27.000  29.196  1.00  0.00    -0.354 N 
ATOM     42  C   UNL A   1      41.677  30.144  32.135  1.00  0.00     0.074 A 
ATOM     43  C   UNL A   1      40.549  31.046  32.076  1.00  0.00     0.031 C 
ATOM     44  C   UNL A   1      40.408  25.938  27.450  1.00  0.00     0.029 A 
ATOM     45  C   UNL A   1      41.581  25.978  28.315  1.00  0.00     0.049 A 
ATOM     46  H   UNL A   1      41.924  27.254  29.927  1.00  0.00     0.167 HD
ATOM     47  C   UNL A   1      42.722  30.289  32.984  1.00  0.00     0.034 A 
ATOM     48  C   UNL A   1      42.655  25.170  28.210  1.00  0.00     0.034 A 
ATOM     49  C   UNL A   1      43.818  29.363  33.071  1.00  0.00     0.049 A 
ATOM     50  C   UNL A   1      43.778  25.317  29.198  1.00  0.00     0.074 A 
ATOM     51  C   UNL A   1      44.872  29.360  33.966  1.00  0.00     0.029 A 
ATOM     52  N   UNL A   1      44.008  28.282  32.224  1.00  0.00    -0.354 N 
ATOM     53  N   UNL A   1      43.902  26.174  30.184  1.00  0.00    -0.248 NA
ATOM     54  C   UNL A   1      44.891  24.365  29.086  1.00  0.00     0.031 C 
ATOM     55  C   UNL A   1      45.716  28.293  33.642  1.00  0.00     0.029 A 
ATOM     56  C   UNL A   1      45.169  27.611  32.566  1.00  0.00     0.049 A 
ATOM     57  H   UNL A   1      43.405  28.028  31.489  1.00  0.00     0.167 HD
ATOM     58  C   UNL A   1      45.088  25.842  30.830  1.00  0.00     0.074 A 
ATOM     59  C   UNL A   1      45.634  24.694  30.135  1.00  0.00     0.031 C 
ATOM     60  C   UNL A   1      45.678  26.443  31.894  1.00  0.00     0.034 A 
BRANCH  47  61
ATOM     61  C   UNL A   1      42.702  31.471  33.920  1.00  0.00     0.023 A 
ATOM     62  C   UNL A   1      43.220  32.712  33.491  1.00  0.00     0.012 A 
ATOM     63  C   UNL A   1      42.135  31.368  35.205  1.00  0.00     0.148 A 
ATOM     64  C   UNL A   1      43.216  33.817  34.341  1.00  0.00     0.002 A 
ATOM     65  C   UNL A   1      42.089  32.489  36.028  1.00  0.00     0.091 A 
ATOM     66  F   UNL A   1      41.667  30.179  35.605  1.00  0.00    -0.205 F 
ATOM     67  C   UNL A   1      42.641  33.708  35.603  1.00  0.00     0.022 A 
BRANCH  65  68
ATOM     68  S   UNL A   1      41.295  32.473  37.639  1.00  0.00     0.127 S 
ATOM     69  O   UNL A   1      41.342  33.887  38.005  1.00  0.00    -0.237 OA
ATOM     70  O   UNL A   1      39.958  31.971  37.318  1.00  0.00    -0.237 OA
ATOM     71  O   UNL A   1      42.093  31.582  38.470  1.00  0.00    -0.744 OA
ENDBRANCH  65  68
ENDBRANCH  47  61
BRANCH  48  72
ATOM     72  C   UNL A   1      42.679  24.107  27.166  1.00  0.00     0.023 A 
ATOM     73  C   UNL A   1      43.385  24.329  25.969  1.00  0.00     0.012 A 
ATOM     74  C   UNL A   1      42.051  22.863  27.374  1.00  0.00     0.148 A 
ATOM     75  C   UNL A   1      43.442  23.342  24.983  1.00  0.00     0.002 A 
ATOM     76  C   UNL A   1      42.158  21.866  26.413  1.00  0.00     0.091 A 
ATOM     77  F   UNL A   1      41.379  22.676  28.518  1.00  0.00    -0.205 F 
ATOM     78  C   UNL A   1      42.838  22.109  25.209  1.00  0.00     0.022 A 
BRANCH  76  79
ATOM     79  S   UNL A   1      41.533  20.202  26.676  1.00  0.00     0.127 S 
ATOM     80  O   UNL A   1      41.914  19.540  25.431  1.00  0.00    -0.237 OA
ATOM     81  O   UNL A   1      42.288  19.781  27.856  1.00  0.00    -0.237 OA
ATOM     82  O   UNL A   1      40.101  20.349  26.900  1.00  0.00    -0.744 OA
ENDBRANCH  76  79
ENDBRANCH  48  72
BRANCH  60  83
ATOM     83  C   UNL A   1      46.968  25.854  32.401  1.00  0.00     0.023 A 
ATOM     84  C   UNL A   1      46.961  25.010  33.529  1.00  0.00     0.012 A 
ATOM     85  C   UNL A   1      48.177  26.078  31.711  1.00  0.00     0.148 A 
ATOM     86  C   UNL A   1      48.143  24.426  33.983  1.00  0.00     0.002 A 
ATOM     87  C   UNL A   1      49.340  25.451  32.139  1.00  0.00     0.091 A 
ATOM     88  F   UNL A   1      48.166  26.899  30.651  1.00  0.00    -0.205 F 
ATOM     89  C   UNL A   1      49.328  24.635  33.281  1.00  0.00     0.022 A 
BRANCH  87  90
ATOM     90  S   UNL A   1      50.891  25.583  31.242  1.00  0.00     0.127 S 
ATOM     91  O   UNL A   1      51.733  24.629  31.961  1.00  0.00    -0.237 OA
ATOM     92  O   UNL A   1      50.507  25.163  29.894  1.00  0.00    -0.237 OA
ATOM     93  O   UNL A   1      51.297  26.979  31.347  1.00  0.00    -0.744 OA
ENDBRANCH  87  90
ENDBRANCH  60  83
ENDBRANCH  34  35
ENDBRANCH  26  29
ENDBRANCH  24  25
ENDBRANCH   1  24
TORSDOF 15
ENDMDL
