MODEL 1
REMARK VINA RESULT:     -13.1      0.000      0.000
REMARK SMILES Cc1nc2nc(CNC(=O)OC(C)(C)C)nn2c(C)c1CCC(=O)NCCCNC(=O)c1ccc(-c2c3nc(c(-c4cccc(S(=O)(=O)[O-])c4F)c4ccc([nH]4)c(-c4cccc(S(=O)(=O)[O-])c4F)c4nc(c(-c5cccc(S(=O)(=O)[O-])c5F)c5ccc2[nH]5)C=C4)C=C3)cc1
REMARK SMILES IDX 23 1 24 2 25 3 22 5 21 6 20 7 1 8 2 9 3 10 4 11 18 12 5 13
REMARK SMILES IDX 17 14 19 15 6 16 16 17 7 18 8 19 9 20 10 22 11 23 12 24
REMARK SMILES IDX 13 25 14 26 15 27 26 28 27 29 28 30 29 31 30 32 31 34 32 35
REMARK SMILES IDX 33 36 94 37 34 38 93 39 35 40 36 41 37 42 87 43 38 44 92 45
REMARK SMILES IDX 86 46 88 47 39 48 91 49 85 50 84 51 40 53 72 54 52 55 71 56
REMARK SMILES IDX 53 57 56 58 70 59 89 60 54 61 55 62 69 64 90 65 57 66 41 67
REMARK SMILES IDX 42 68 50 69 43 70 45 71 51 72 44 73 46 74 47 75 48 76 49 77
REMARK SMILES IDX 73 78 74 79 82 80 75 81 77 82 83 83 76 84 78 85 79 86 80 87
REMARK SMILES IDX 81 88 58 89 59 90 67 91 60 92 62 93 68 94 61 95 63 96 64 97
REMARK SMILES IDX 65 98 66 99
REMARK H PARENT 25 4 8 21 29 33 88 52 56 63
REMARK Flexibility Score: inf
ROOT
ATOM      1  C   UNL A   1      30.857  24.513  26.520  1.00  0.00     0.220 C 
ATOM      2  O   UNL A   1      30.066  23.813  27.160  1.00  0.00    -0.275 OA
ATOM      3  N   UNL A   1      30.507  25.815  26.263  1.00  0.00    -0.356 N 
ATOM      4  H   UNL A   1      29.578  26.010  26.522  1.00  0.00     0.163 HD
ENDROOT
BRANCH   1   5
ATOM      5  C   UNL A   1      32.155  23.885  26.032  1.00  0.00     0.105 C 
BRANCH   5   6
ATOM      6  C   UNL A   1      31.993  23.124  24.692  1.00  0.00     0.049 C 
BRANCH   6   7
ATOM      7  C   UNL A   1      33.272  22.420  24.336  1.00  0.00    -0.005 A 
ATOM      8  C   UNL A   1      32.249  20.080  25.038  1.00  0.00     0.067 C 
ATOM      9  C   UNL A   1      33.455  20.957  24.687  1.00  0.00     0.046 A 
ATOM     10  N   UNL A   1      34.620  20.376  24.707  1.00  0.00    -0.216 NA
ATOM     11  C   UNL A   1      35.702  21.218  24.643  1.00  0.00     0.252 A 
ATOM     12  C   UNL A   1      34.391  23.088  23.937  1.00  0.00     0.048 A 
ATOM     13  N   UNL A   1      36.833  21.075  25.270  1.00  0.00    -0.192 NA
ATOM     14  N   UNL A   1      35.637  22.557  24.301  1.00  0.00    -0.201 N 
ATOM     15  C   UNL A   1      34.446  24.444  23.320  1.00  0.00     0.067 C 
ATOM     16  C   UNL A   1      37.462  22.300  25.478  1.00  0.00     0.172 A 
ATOM     17  N   UNL A   1      36.788  23.242  24.772  1.00  0.00    -0.148 NA
BRANCH  16  18
ATOM     18  C   UNL A   1      38.930  22.512  26.357  1.00  0.00     0.199 C 
BRANCH  18  19
ATOM     19  N   UNL A   1      40.521  22.118  25.939  1.00  0.00    -0.314 N 
ATOM     20  C   UNL A   1      41.944  22.304  26.026  1.00  0.00     0.408 C 
ATOM     21  H   UNL A   1      40.419  21.372  25.304  1.00  0.00     0.167 HD
ATOM     22  O   UNL A   1      42.646  21.453  25.475  1.00  0.00    -0.225 OA
BRANCH  20  23
ATOM     23  O   UNL A   1      42.539  23.373  26.657  1.00  0.00    -0.444 OA
BRANCH  23  24
ATOM     24  C   UNL A   1      42.426  23.983  28.045  1.00  0.00     0.106 C 
ATOM     25  C   UNL A   1      43.617  24.873  28.419  1.00  0.00     0.056 C 
ATOM     26  C   UNL A   1      41.107  24.742  28.237  1.00  0.00     0.056 C 
ATOM     27  C   UNL A   1      42.401  22.845  29.125  1.00  0.00     0.056 C 
ENDBRANCH  23  24
ENDBRANCH  20  23
ENDBRANCH  18  19
ENDBRANCH  16  18
ENDBRANCH   6   7
ENDBRANCH   5   6
ENDBRANCH   1   5
BRANCH   3  28
ATOM     28  C   UNL A   1      31.201  27.014  25.682  1.00  0.00     0.117 C 
BRANCH  28  29
ATOM     29  C   UNL A   1      32.532  27.446  26.394  1.00  0.00     0.042 C 
BRANCH  29  30
ATOM     30  C   UNL A   1      32.677  28.517  27.595  1.00  0.00     0.118 C 
BRANCH  30  31
ATOM     31  N   UNL A   1      33.644  29.918  27.429  1.00  0.00    -0.352 N 
ATOM     32  C   UNL A   1      35.000  30.641  27.734  1.00  0.00     0.251 C 
ATOM     33  H   UNL A   1      33.107  30.558  26.906  1.00  0.00     0.163 HD
ATOM     34  O   UNL A   1      34.984  31.829  27.366  1.00  0.00    -0.269 OA
BRANCH  32  35
ATOM     35  C   UNL A   1      36.496  30.121  28.428  1.00  0.00     0.039 A 
ATOM     36  C   UNL A   1      37.451  30.910  29.112  1.00  0.00     0.014 A 
ATOM     37  C   UNL A   1      37.013  28.835  28.315  1.00  0.00     0.014 A 
ATOM     38  C   UNL A   1      38.860  30.721  29.049  1.00  0.00     0.010 A 
ATOM     39  C   UNL A   1      38.424  28.638  28.130  1.00  0.00     0.010 A 
ATOM     40  C   UNL A   1      39.382  29.642  28.357  1.00  0.00    -0.014 A 
BRANCH  40  41
ATOM     41  C   UNL A   1      40.853  29.365  28.392  1.00  0.00     0.031 A 
ATOM     42  C   UNL A   1      41.139  29.093  29.814  1.00  0.00     0.074 A 
ATOM     43  C   UNL A   1      41.885  29.260  27.504  1.00  0.00     0.049 A 
ATOM     44  N   UNL A   1      41.483  29.977  30.694  1.00  0.00    -0.248 NA
ATOM     45  C   UNL A   1      40.608  27.840  30.367  1.00  0.00     0.031 C 
ATOM     46  C   UNL A   1      41.875  29.286  26.036  1.00  0.00     0.029 A 
ATOM     47  N   UNL A   1      43.230  29.010  27.762  1.00  0.00    -0.354 N 
ATOM     48  C   UNL A   1      41.414  29.273  31.884  1.00  0.00     0.074 A 
ATOM     49  C   UNL A   1      40.521  28.173  31.654  1.00  0.00     0.031 C 
ATOM     50  C   UNL A   1      43.063  28.826  25.552  1.00  0.00     0.029 A 
ATOM     51  C   UNL A   1      43.986  28.589  26.653  1.00  0.00     0.049 A 
ATOM     52  H   UNL A   1      43.623  29.119  28.658  1.00  0.00     0.167 HD
ATOM     53  C   UNL A   1      42.421  29.350  32.788  1.00  0.00     0.034 A 
ATOM     54  C   UNL A   1      45.254  28.073  26.651  1.00  0.00     0.034 A 
ATOM     55  C   UNL A   1      43.286  30.465  32.512  1.00  0.00     0.049 A 
ATOM     56  C   UNL A   1      45.914  28.541  27.884  1.00  0.00     0.074 A 
ATOM     57  C   UNL A   1      43.195  31.839  32.551  1.00  0.00     0.029 A 
ATOM     58  N   UNL A   1      44.342  30.144  31.700  1.00  0.00    -0.354 N 
ATOM     59  N   UNL A   1      46.305  29.770  28.062  1.00  0.00    -0.248 NA
ATOM     60  C   UNL A   1      45.956  27.684  29.062  1.00  0.00     0.031 C 
ATOM     61  C   UNL A   1      44.158  32.329  31.624  1.00  0.00     0.029 A 
ATOM     62  C   UNL A   1      44.835  31.249  31.063  1.00  0.00     0.049 A 
ATOM     63  H   UNL A   1      44.700  29.233  31.590  1.00  0.00     0.167 HD
ATOM     64  C   UNL A   1      46.155  29.952  29.420  1.00  0.00     0.074 A 
ATOM     65  C   UNL A   1      46.148  28.615  29.997  1.00  0.00     0.031 C 
ATOM     66  C   UNL A   1      45.680  31.133  29.896  1.00  0.00     0.034 A 
BRANCH  53  67
ATOM     67  C   UNL A   1      42.897  28.164  33.598  1.00  0.00     0.023 A 
ATOM     68  C   UNL A   1      43.916  27.377  33.034  1.00  0.00     0.012 A 
ATOM     69  C   UNL A   1      42.254  27.641  34.748  1.00  0.00     0.148 A 
ATOM     70  C   UNL A   1      44.276  26.145  33.592  1.00  0.00     0.002 A 
ATOM     71  C   UNL A   1      42.687  26.478  35.363  1.00  0.00     0.091 A 
ATOM     72  F   UNL A   1      41.105  28.161  35.182  1.00  0.00    -0.205 F 
ATOM     73  C   UNL A   1      43.681  25.707  34.771  1.00  0.00     0.022 A 
BRANCH  71  74
ATOM     74  S   UNL A   1      41.976  25.929  36.921  1.00  0.00     0.127 S 
ATOM     75  O   UNL A   1      41.411  24.635  36.548  1.00  0.00    -0.237 OA
ATOM     76  O   UNL A   1      43.158  25.869  37.779  1.00  0.00    -0.237 OA
ATOM     77  O   UNL A   1      41.015  26.957  37.304  1.00  0.00    -0.744 OA
ENDBRANCH  71  74
ENDBRANCH  53  67
BRANCH  54  78
ATOM     78  C   UNL A   1      46.039  27.137  25.778  1.00  0.00     0.023 A 
ATOM     79  C   UNL A   1      47.444  27.315  25.638  1.00  0.00     0.012 A 
ATOM     80  C   UNL A   1      45.509  25.886  25.411  1.00  0.00     0.148 A 
ATOM     81  C   UNL A   1      48.290  26.268  25.238  1.00  0.00     0.002 A 
ATOM     82  C   UNL A   1      46.359  24.840  25.026  1.00  0.00     0.091 A 
ATOM     83  F   UNL A   1      44.190  25.697  25.532  1.00  0.00    -0.205 F 
ATOM     84  C   UNL A   1      47.747  25.023  24.956  1.00  0.00     0.022 A 
BRANCH  82  85
ATOM     85  S   UNL A   1      45.746  23.177  24.715  1.00  0.00     0.127 S 
ATOM     86  O   UNL A   1      46.894  22.553  24.043  1.00  0.00    -0.237 OA
ATOM     87  O   UNL A   1      45.512  22.689  26.080  1.00  0.00    -0.237 OA
ATOM     88  O   UNL A   1      44.573  23.332  23.890  1.00  0.00    -0.744 OA
ENDBRANCH  82  85
ENDBRANCH  54  78
BRANCH  66  89
ATOM     89  C   UNL A   1      45.868  32.359  29.051  1.00  0.00     0.023 A 
ATOM     90  C   UNL A   1      46.982  33.213  29.168  1.00  0.00     0.012 A 
ATOM     91  C   UNL A   1      44.950  32.565  28.009  1.00  0.00     0.148 A 
ATOM     92  C   UNL A   1      47.177  34.251  28.252  1.00  0.00     0.002 A 
ATOM     93  C   UNL A   1      45.181  33.553  27.065  1.00  0.00     0.091 A 
ATOM     94  F   UNL A   1      43.882  31.756  27.940  1.00  0.00    -0.205 F 
ATOM     95  C   UNL A   1      46.289  34.406  27.188  1.00  0.00     0.022 A 
BRANCH  93  96
ATOM     96  S   UNL A   1      44.166  33.701  25.595  1.00  0.00     0.127 S 
ATOM     97  O   UNL A   1      43.119  34.622  26.036  1.00  0.00    -0.237 OA
ATOM     98  O   UNL A   1      45.108  34.263  24.627  1.00  0.00    -0.237 OA
ATOM     99  O   UNL A   1      43.713  32.352  25.277  1.00  0.00    -0.744 OA
ENDBRANCH  93  96
ENDBRANCH  66  89
ENDBRANCH  40  41
ENDBRANCH  32  35
ENDBRANCH  30  31
ENDBRANCH  29  30
ENDBRANCH  28  29
ENDBRANCH   3  28
TORSDOF 19
ENDMDL
MODEL 2
REMARK VINA RESULT:     -13.0      3.250      9.740
REMARK SMILES Cc1nc2nc(CNC(=O)OC(C)(C)C)nn2c(C)c1CCC(=O)NCCCNC(=O)c1ccc(-c2c3nc(c(-c4cccc(S(=O)(=O)[O-])c4F)c4ccc([nH]4)c(-c4cccc(S(=O)(=O)[O-])c4F)c4nc(c(-c5cccc(S(=O)(=O)[O-])c5F)c5ccc2[nH]5)C=C4)C=C3)cc1
REMARK SMILES IDX 23 1 24 2 25 3 22 5 21 6 20 7 1 8 2 9 3 10 4 11 18 12 5 13
REMARK SMILES IDX 17 14 19 15 6 16 16 17 7 18 8 19 9 20 10 22 11 23 12 24
REMARK SMILES IDX 13 25 14 26 15 27 26 28 27 29 28 30 29 31 30 32 31 34 32 35
REMARK SMILES IDX 33 36 94 37 34 38 93 39 35 40 36 41 37 42 87 43 38 44 92 45
REMARK SMILES IDX 86 46 88 47 39 48 91 49 85 50 84 51 40 53 72 54 52 55 71 56
REMARK SMILES IDX 53 57 56 58 70 59 89 60 54 61 55 62 69 64 90 65 57 66 41 67
REMARK SMILES IDX 42 68 50 69 43 70 45 71 51 72 44 73 46 74 47 75 48 76 49 77
REMARK SMILES IDX 73 78 74 79 82 80 75 81 77 82 83 83 76 84 78 85 79 86 80 87
REMARK SMILES IDX 81 88 58 89 59 90 67 91 60 92 62 93 68 94 61 95 63 96 64 97
REMARK SMILES IDX 65 98 66 99
REMARK H PARENT 25 4 8 21 29 33 88 52 56 63
REMARK Flexibility Score: inf
ROOT
ATOM      1  C   UNL A   1      37.343  22.886  25.521  1.00  0.00     0.220 C 
ATOM      2  O   UNL A   1      37.259  24.036  25.962  1.00  0.00    -0.275 OA
ATOM      3  N   UNL A   1      38.547  22.237  25.633  1.00  0.00    -0.356 N 
ATOM      4  H   UNL A   1      39.263  22.831  25.952  1.00  0.00     0.163 HD
ENDROOT
BRANCH   1   5
ATOM      5  C   UNL A   1      36.120  22.269  24.857  1.00  0.00     0.105 C 
BRANCH   5   6
ATOM      6  C   UNL A   1      35.582  21.028  25.615  1.00  0.00     0.049 C 
BRANCH   6   7
ATOM      7  C   UNL A   1      34.118  21.194  25.908  1.00  0.00    -0.005 A 
ATOM      8  C   UNL A   1      33.494  19.285  24.181  1.00  0.00     0.067 C 
ATOM      9  C   UNL A   1      33.089  20.470  25.063  1.00  0.00     0.046 A 
ATOM     10  N   UNL A   1      31.831  20.804  25.042  1.00  0.00    -0.216 NA
ATOM     11  C   UNL A   1      31.527  22.007  25.628  1.00  0.00     0.252 A 
ATOM     12  C   UNL A   1      33.639  22.165  26.737  1.00  0.00     0.048 A 
ATOM     13  N   UNL A   1      30.640  22.866  25.222  1.00  0.00    -0.192 NA
ATOM     14  N   UNL A   1      32.388  22.725  26.440  1.00  0.00    -0.201 N 
ATOM     15  C   UNL A   1      34.389  22.853  27.826  1.00  0.00     0.067 C 
ATOM     16  C   UNL A   1      30.957  24.162  25.623  1.00  0.00     0.172 A 
ATOM     17  N   UNL A   1      31.993  24.087  26.495  1.00  0.00    -0.148 NA
BRANCH  16  18
ATOM     18  C   UNL A   1      30.062  25.570  25.188  1.00  0.00     0.199 C 
BRANCH  18  19
ATOM     19  N   UNL A   1      30.581  27.023  24.495  1.00  0.00    -0.314 N 
ATOM     20  C   UNL A   1      31.497  28.126  24.385  1.00  0.00     0.408 C 
ATOM     21  H   UNL A   1      29.899  27.213  23.811  1.00  0.00     0.167 HD
ATOM     22  O   UNL A   1      31.329  28.889  23.431  1.00  0.00    -0.225 OA
BRANCH  20  23
ATOM     23  O   UNL A   1      32.509  28.374  25.285  1.00  0.00    -0.444 OA
BRANCH  23  24
ATOM     24  C   UNL A   1      32.567  28.995  26.672  1.00  0.00     0.106 C 
ATOM     25  C   UNL A   1      31.755  28.224  27.719  1.00  0.00     0.056 C 
ATOM     26  C   UNL A   1      34.009  29.201  27.153  1.00  0.00     0.056 C 
ATOM     27  C   UNL A   1      31.941  30.433  26.636  1.00  0.00     0.056 C 
ENDBRANCH  23  24
ENDBRANCH  20  23
ENDBRANCH  18  19
ENDBRANCH  16  18
ENDBRANCH   6   7
ENDBRANCH   5   6
ENDBRANCH   1   5
BRANCH   3  28
ATOM     28  C   UNL A   1      39.036  20.838  25.386  1.00  0.00     0.117 C 
BRANCH  28  29
ATOM     29  C   UNL A   1      40.121  20.305  26.389  1.00  0.00     0.042 C 
BRANCH  29  30
ATOM     30  C   UNL A   1      41.723  20.405  26.214  1.00  0.00     0.118 C 
BRANCH  30  31
ATOM     31  N   UNL A   1      42.478  21.860  25.725  1.00  0.00    -0.352 N 
ATOM     32  C   UNL A   1      42.538  23.423  25.818  1.00  0.00     0.251 C 
ATOM     33  H   UNL A   1      43.200  21.597  25.108  1.00  0.00     0.163 HD
ATOM     34  O   UNL A   1      43.359  23.904  25.017  1.00  0.00    -0.269 OA
BRANCH  32  35
ATOM     35  C   UNL A   1      41.739  24.586  26.816  1.00  0.00     0.039 A 
ATOM     36  C   UNL A   1      40.628  25.396  26.479  1.00  0.00     0.014 A 
ATOM     37  C   UNL A   1      42.159  24.955  28.089  1.00  0.00     0.014 A 
ATOM     38  C   UNL A   1      40.427  26.732  26.928  1.00  0.00     0.010 A 
ATOM     39  C   UNL A   1      42.072  26.326  28.509  1.00  0.00     0.010 A 
ATOM     40  C   UNL A   1      41.305  27.294  27.837  1.00  0.00    -0.014 A 
BRANCH  40  41
ATOM     41  C   UNL A   1      41.030  28.650  28.410  1.00  0.00     0.031 A 
ATOM     42  C   UNL A   1      42.245  29.429  28.100  1.00  0.00     0.074 A 
ATOM     43  C   UNL A   1      40.005  29.295  29.042  1.00  0.00     0.049 A 
ATOM     44  N   UNL A   1      43.286  29.534  28.861  1.00  0.00    -0.248 NA
ATOM     45  C   UNL A   1      42.471  29.766  26.688  1.00  0.00     0.031 C 
ATOM     46  C   UNL A   1      38.632  28.850  29.309  1.00  0.00     0.029 A 
ATOM     47  N   UNL A   1      39.968  30.598  29.529  1.00  0.00    -0.354 N 
ATOM     48  C   UNL A   1      44.206  30.165  28.043  1.00  0.00     0.074 A 
ATOM     49  C   UNL A   1      43.797  29.903  26.693  1.00  0.00     0.031 C 
ATOM     50  C   UNL A   1      37.857  29.913  29.666  1.00  0.00     0.029 A 
ATOM     51  C   UNL A   1      38.683  31.106  29.789  1.00  0.00     0.049 A 
ATOM     52  H   UNL A   1      40.785  31.127  29.680  1.00  0.00     0.167 HD
ATOM     53  C   UNL A   1      44.927  31.217  28.503  1.00  0.00     0.034 A 
ATOM     54  C   UNL A   1      38.333  32.401  30.061  1.00  0.00     0.034 A 
ATOM     55  C   UNL A   1      44.869  31.303  29.937  1.00  0.00     0.049 A 
ATOM     56  C   UNL A   1      39.534  33.071  30.595  1.00  0.00     0.074 A 
ATOM     57  C   UNL A   1      45.331  30.566  31.005  1.00  0.00     0.029 A 
ATOM     58  N   UNL A   1      43.847  32.095  30.391  1.00  0.00    -0.354 N 
ATOM     59  N   UNL A   1      40.010  32.842  31.784  1.00  0.00    -0.248 NA
ATOM     60  C   UNL A   1      40.380  33.865  29.714  1.00  0.00     0.031 C 
ATOM     61  C   UNL A   1      44.458  30.851  32.093  1.00  0.00     0.029 A 
ATOM     62  C   UNL A   1      43.503  31.775  31.675  1.00  0.00     0.049 A 
ATOM     63  H   UNL A   1      43.417  32.803  29.861  1.00  0.00     0.167 HD
ATOM     64  C   UNL A   1      41.366  33.022  31.619  1.00  0.00     0.074 A 
ATOM     65  C   UNL A   1      41.511  33.837  30.421  1.00  0.00     0.031 C 
ATOM     66  C   UNL A   1      42.240  32.190  32.244  1.00  0.00     0.034 A 
BRANCH  53  67
ATOM     67  C   UNL A   1      45.263  32.423  27.653  1.00  0.00     0.023 A 
ATOM     68  C   UNL A   1      44.195  33.045  26.982  1.00  0.00     0.012 A 
ATOM     69  C   UNL A   1      46.569  32.833  27.285  1.00  0.00     0.148 A 
ATOM     70  C   UNL A   1      44.420  34.024  26.008  1.00  0.00     0.002 A 
ATOM     71  C   UNL A   1      46.785  33.880  26.404  1.00  0.00     0.091 A 
ATOM     72  F   UNL A   1      47.635  32.118  27.645  1.00  0.00    -0.205 F 
ATOM     73  C   UNL A   1      45.713  34.462  25.737  1.00  0.00     0.022 A 
BRANCH  71  74
ATOM     74  S   UNL A   1      48.443  34.504  26.090  1.00  0.00     0.127 S 
ATOM     75  O   UNL A   1      48.165  35.681  25.273  1.00  0.00    -0.237 OA
ATOM     76  O   UNL A   1      48.915  34.783  27.445  1.00  0.00    -0.237 OA
ATOM     77  O   UNL A   1      49.156  33.420  25.425  1.00  0.00    -0.744 OA
ENDBRANCH  71  74
ENDBRANCH  53  67
BRANCH  54  78
ATOM     78  C   UNL A   1      37.111  33.253  29.875  1.00  0.00     0.023 A 
ATOM     79  C   UNL A   1      36.437  33.255  28.621  1.00  0.00     0.012 A 
ATOM     80  C   UNL A   1      36.398  33.737  30.989  1.00  0.00     0.148 A 
ATOM     81  C   UNL A   1      35.091  33.636  28.501  1.00  0.00     0.002 A 
ATOM     82  C   UNL A   1      35.051  34.103  30.865  1.00  0.00     0.091 A 
ATOM     83  F   UNL A   1      37.012  33.746  32.178  1.00  0.00    -0.205 F 
ATOM     84  C   UNL A   1      34.393  34.038  29.630  1.00  0.00     0.022 A 
BRANCH  82  85
ATOM     85  S   UNL A   1      34.053  34.563  32.290  1.00  0.00     0.127 S 
ATOM     86  O   UNL A   1      32.822  35.050  31.652  1.00  0.00    -0.237 OA
ATOM     87  O   UNL A   1      33.903  33.271  32.974  1.00  0.00    -0.237 OA
ATOM     88  O   UNL A   1      34.806  35.568  32.998  1.00  0.00    -0.744 OA
ENDBRANCH  82  85
ENDBRANCH  54  78
BRANCH  66  89
ATOM     89  C   UNL A   1      41.783  31.500  33.496  1.00  0.00     0.023 A 
ATOM     90  C   UNL A   1      41.083  30.278  33.492  1.00  0.00     0.012 A 
ATOM     91  C   UNL A   1      42.206  32.046  34.718  1.00  0.00     0.148 A 
ATOM     92  C   UNL A   1      40.819  29.610  34.691  1.00  0.00     0.002 A 
ATOM     93  C   UNL A   1      42.001  31.349  35.898  1.00  0.00     0.091 A 
ATOM     94  F   UNL A   1      42.844  33.227  34.695  1.00  0.00    -0.205 F 
ATOM     95  C   UNL A   1      41.298  30.134  35.891  1.00  0.00     0.022 A 
BRANCH  93  96
ATOM     96  S   UNL A   1      42.724  31.893  37.446  1.00  0.00     0.127 S 
ATOM     97  O   UNL A   1      41.640  31.645  38.395  1.00  0.00    -0.237 OA
ATOM     98  O   UNL A   1      43.873  30.996  37.579  1.00  0.00    -0.237 OA
ATOM     99  O   UNL A   1      43.078  33.295  37.258  1.00  0.00    -0.744 OA
ENDBRANCH  93  96
ENDBRANCH  66  89
ENDBRANCH  40  41
ENDBRANCH  32  35
ENDBRANCH  30  31
ENDBRANCH  29  30
ENDBRANCH  28  29
ENDBRANCH   3  28
TORSDOF 19
ENDMDL
MODEL 3
REMARK VINA RESULT:     -12.6      2.988      7.779
REMARK SMILES Cc1nc2nc(CNC(=O)OC(C)(C)C)nn2c(C)c1CCC(=O)NCCCNC(=O)c1ccc(-c2c3nc(c(-c4cccc(S(=O)(=O)[O-])c4F)c4ccc([nH]4)c(-c4cccc(S(=O)(=O)[O-])c4F)c4nc(c(-c5cccc(S(=O)(=O)[O-])c5F)c5ccc2[nH]5)C=C4)C=C3)cc1
REMARK SMILES IDX 23 1 24 2 25 3 22 5 21 6 20 7 1 8 2 9 3 10 4 11 18 12 5 13
REMARK SMILES IDX 17 14 19 15 6 16 16 17 7 18 8 19 9 20 10 22 11 23 12 24
REMARK SMILES IDX 13 25 14 26 15 27 26 28 27 29 28 30 29 31 30 32 31 34 32 35
REMARK SMILES IDX 33 36 94 37 34 38 93 39 35 40 36 41 37 42 87 43 38 44 92 45
REMARK SMILES IDX 86 46 88 47 39 48 91 49 85 50 84 51 40 53 72 54 52 55 71 56
REMARK SMILES IDX 53 57 56 58 70 59 89 60 54 61 55 62 69 64 90 65 57 66 41 67
REMARK SMILES IDX 42 68 50 69 43 70 45 71 51 72 44 73 46 74 47 75 48 76 49 77
REMARK SMILES IDX 73 78 74 79 82 80 75 81 77 82 83 83 76 84 78 85 79 86 80 87
REMARK SMILES IDX 81 88 58 89 59 90 67 91 60 92 62 93 68 94 61 95 63 96 64 97
REMARK SMILES IDX 65 98 66 99
REMARK H PARENT 25 4 8 21 29 33 88 52 56 63
REMARK Flexibility Score: inf
ROOT
ATOM      1  C   UNL A   1      34.581  21.797  26.953  1.00  0.00     0.220 C 
ATOM      2  O   UNL A   1      34.031  21.906  28.053  1.00  0.00    -0.275 OA
ATOM      3  N   UNL A   1      35.358  22.839  26.511  1.00  0.00    -0.356 N 
ATOM      4  H   UNL A   1      35.282  23.632  27.089  1.00  0.00     0.163 HD
ENDROOT
BRANCH   1   5
ATOM      5  C   UNL A   1      34.345  20.529  26.143  1.00  0.00     0.105 C 
BRANCH   5   6
ATOM      6  C   UNL A   1      32.848  20.135  26.059  1.00  0.00     0.049 C 
BRANCH   6   7
ATOM      7  C   UNL A   1      32.197  20.818  24.891  1.00  0.00    -0.005 A 
ATOM      8  C   UNL A   1      32.778  18.782  23.299  1.00  0.00     0.067 C 
ATOM      9  C   UNL A   1      32.334  20.234  23.498  1.00  0.00     0.046 A 
ATOM     10  N   UNL A   1      32.084  20.917  22.418  1.00  0.00    -0.216 NA
ATOM     11  C   UNL A   1      31.936  22.270  22.594  1.00  0.00     0.252 A 
ATOM     12  C   UNL A   1      31.695  22.084  24.965  1.00  0.00     0.048 A 
ATOM     13  N   UNL A   1      32.338  23.205  21.784  1.00  0.00    -0.192 NA
ATOM     14  N   UNL A   1      31.773  22.890  23.820  1.00  0.00    -0.201 N 
ATOM     15  C   UNL A   1      31.245  22.791  26.197  1.00  0.00     0.067 C 
ATOM     16  C   UNL A   1      32.581  24.399  22.459  1.00  0.00     0.172 A 
ATOM     17  N   UNL A   1      32.119  24.264  23.727  1.00  0.00    -0.148 NA
BRANCH  16  18
ATOM     18  C   UNL A   1      33.214  25.826  21.729  1.00  0.00     0.199 C 
BRANCH  18  19
ATOM     19  N   UNL A   1      33.436  27.376  22.370  1.00  0.00    -0.314 N 
ATOM     20  C   UNL A   1      33.587  28.289  23.470  1.00  0.00     0.408 C 
ATOM     21  H   UNL A   1      33.489  27.953  21.575  1.00  0.00     0.167 HD
ATOM     22  O   UNL A   1      33.895  29.449  23.186  1.00  0.00    -0.225 OA
BRANCH  20  23
ATOM     23  O   UNL A   1      33.383  27.943  24.787  1.00  0.00    -0.444 OA
BRANCH  23  24
ATOM     24  C   UNL A   1      32.670  28.598  25.958  1.00  0.00     0.106 C 
ATOM     25  C   UNL A   1      31.935  27.600  26.861  1.00  0.00     0.056 C 
ATOM     26  C   UNL A   1      33.610  29.482  26.788  1.00  0.00     0.056 C 
ATOM     27  C   UNL A   1      31.561  29.574  25.427  1.00  0.00     0.056 C 
ENDBRANCH  23  24
ENDBRANCH  20  23
ENDBRANCH  18  19
ENDBRANCH  16  18
ENDBRANCH   6   7
ENDBRANCH   5   6
ENDBRANCH   1   5
BRANCH   3  28
ATOM     28  C   UNL A   1      36.295  23.061  25.358  1.00  0.00     0.117 C 
BRANCH  28  29
ATOM     29  C   UNL A   1      37.618  22.215  25.379  1.00  0.00     0.042 C 
BRANCH  29  30
ATOM     30  C   UNL A   1      37.769  20.657  24.983  1.00  0.00     0.118 C 
BRANCH  30  31
ATOM     31  N   UNL A   1      39.200  19.784  25.325  1.00  0.00    -0.352 N 
ATOM     32  C   UNL A   1      40.695  19.814  25.793  1.00  0.00     0.251 C 
ATOM     33  H   UNL A   1      38.989  18.838  25.150  1.00  0.00     0.163 HD
ATOM     34  O   UNL A   1      41.234  18.697  25.692  1.00  0.00    -0.269 OA
BRANCH  32  35
ATOM     35  C   UNL A   1      41.714  21.050  26.444  1.00  0.00     0.039 A 
ATOM     36  C   UNL A   1      42.363  21.060  27.702  1.00  0.00     0.014 A 
ATOM     37  C   UNL A   1      41.956  22.276  25.834  1.00  0.00     0.014 A 
ATOM     38  C   UNL A   1      42.569  22.217  28.504  1.00  0.00     0.010 A 
ATOM     39  C   UNL A   1      42.045  23.471  26.626  1.00  0.00     0.010 A 
ATOM     40  C   UNL A   1      42.210  23.463  28.023  1.00  0.00    -0.014 A 
BRANCH  40  41
ATOM     41  C   UNL A   1      42.538  24.697  28.806  1.00  0.00     0.031 A 
ATOM     42  C   UNL A   1      41.423  25.618  28.519  1.00  0.00     0.074 A 
ATOM     43  C   UNL A   1      43.501  25.116  29.680  1.00  0.00     0.049 A 
ATOM     44  N   UNL A   1      41.386  26.478  27.553  1.00  0.00    -0.248 NA
ATOM     45  C   UNL A   1      40.114  25.269  29.089  1.00  0.00     0.031 C 
ATOM     46  C   UNL A   1      44.608  24.372  30.294  1.00  0.00     0.029 A 
ATOM     47  N   UNL A   1      43.634  26.357  30.295  1.00  0.00    -0.354 N 
ATOM     48  C   UNL A   1      40.075  26.920  27.580  1.00  0.00     0.074 A 
ATOM     49  C   UNL A   1      39.312  25.889  28.224  1.00  0.00     0.031 C 
ATOM     50  C   UNL A   1      45.121  25.077  31.341  1.00  0.00     0.029 A 
ATOM     51  C   UNL A   1      44.487  26.385  31.413  1.00  0.00     0.049 A 
ATOM     52  H   UNL A   1      43.164  27.159  29.970  1.00  0.00     0.167 HD
ATOM     53  C   UNL A   1      39.794  28.245  27.516  1.00  0.00     0.034 A 
ATOM     54  C   UNL A   1      44.636  27.394  32.327  1.00  0.00     0.034 A 
ATOM     55  C   UNL A   1      40.934  28.999  27.068  1.00  0.00     0.049 A 
ATOM     56  C   UNL A   1      44.211  28.642  31.668  1.00  0.00     0.074 A 
ATOM     57  C   UNL A   1      41.652  29.132  25.901  1.00  0.00     0.029 A 
ATOM     58  N   UNL A   1      41.725  29.446  28.094  1.00  0.00    -0.354 N 
ATOM     59  N   UNL A   1      44.911  29.237  30.746  1.00  0.00    -0.248 NA
ATOM     60  C   UNL A   1      42.860  29.151  31.867  1.00  0.00     0.031 C 
ATOM     61  C   UNL A   1      42.957  29.556  26.282  1.00  0.00     0.029 A 
ATOM     62  C   UNL A   1      42.998  29.700  27.666  1.00  0.00     0.049 A 
ATOM     63  H   UNL A   1      41.415  29.569  29.020  1.00  0.00     0.167 HD
ATOM     64  C   UNL A   1      43.948  29.818  29.948  1.00  0.00     0.074 A 
ATOM     65  C   UNL A   1      42.757  29.916  30.779  1.00  0.00     0.031 C 
ATOM     66  C   UNL A   1      44.098  29.816  28.598  1.00  0.00     0.034 A 
BRANCH  53  67
ATOM     67  C   UNL A   1      38.683  28.892  28.311  1.00  0.00     0.023 A 
ATOM     68  C   UNL A   1      37.745  29.654  27.591  1.00  0.00     0.012 A 
ATOM     69  C   UNL A   1      38.635  28.999  29.724  1.00  0.00     0.148 A 
ATOM     70  C   UNL A   1      36.813  30.467  28.245  1.00  0.00     0.002 A 
ATOM     71  C   UNL A   1      37.640  29.714  30.371  1.00  0.00     0.091 A 
ATOM     72  F   UNL A   1      39.641  28.552  30.476  1.00  0.00    -0.205 F 
ATOM     73  C   UNL A   1      36.740  30.477  29.634  1.00  0.00     0.022 A 
BRANCH  71  74
ATOM     74  S   UNL A   1      37.490  29.687  32.163  1.00  0.00     0.127 S 
ATOM     75  O   UNL A   1      38.689  30.414  32.569  1.00  0.00    -0.237 OA
ATOM     76  O   UNL A   1      36.230  30.402  32.364  1.00  0.00    -0.237 OA
ATOM     77  O   UNL A   1      37.440  28.279  32.537  1.00  0.00    -0.744 OA
ENDBRANCH  71  74
ENDBRANCH  53  67
BRANCH  54  78
ATOM     78  C   UNL A   1      45.031  27.493  33.773  1.00  0.00     0.023 A 
ATOM     79  C   UNL A   1      45.767  28.623  34.227  1.00  0.00     0.012 A 
ATOM     80  C   UNL A   1      44.377  26.716  34.748  1.00  0.00     0.148 A 
ATOM     81  C   UNL A   1      45.776  29.011  35.577  1.00  0.00     0.002 A 
ATOM     82  C   UNL A   1      44.378  27.116  36.091  1.00  0.00     0.091 A 
ATOM     83  F   UNL A   1      43.681  25.647  34.344  1.00  0.00    -0.205 F 
ATOM     84  C   UNL A   1      45.061  28.268  36.504  1.00  0.00     0.022 A 
BRANCH  82  85
ATOM     85  S   UNL A   1      43.417  26.253  37.345  1.00  0.00     0.127 S 
ATOM     86  O   UNL A   1      42.041  26.486  36.883  1.00  0.00    -0.237 OA
ATOM     87  O   UNL A   1      43.882  24.870  37.172  1.00  0.00    -0.237 OA
ATOM     88  O   UNL A   1      43.748  26.877  38.602  1.00  0.00    -0.744 OA
ENDBRANCH  82  85
ENDBRANCH  54  78
BRANCH  66  89
ATOM     89  C   UNL A   1      45.490  29.723  28.043  1.00  0.00     0.023 A 
ATOM     90  C   UNL A   1      46.347  30.833  27.918  1.00  0.00     0.012 A 
ATOM     91  C   UNL A   1      45.986  28.437  27.776  1.00  0.00     0.148 A 
ATOM     92  C   UNL A   1      47.681  30.658  27.539  1.00  0.00     0.002 A 
ATOM     93  C   UNL A   1      47.325  28.261  27.465  1.00  0.00     0.091 A 
ATOM     94  F   UNL A   1      45.140  27.400  27.873  1.00  0.00    -0.205 F 
ATOM     95  C   UNL A   1      48.176  29.370  27.335  1.00  0.00     0.022 A 
BRANCH  93  96
ATOM     96  S   UNL A   1      48.052  26.627  27.343  1.00  0.00     0.127 S 
ATOM     97  O   UNL A   1      48.010  26.378  25.903  1.00  0.00    -0.237 OA
ATOM     98  O   UNL A   1      49.392  26.846  27.888  1.00  0.00    -0.237 OA
ATOM     99  O   UNL A   1      47.214  25.748  28.150  1.00  0.00    -0.744 OA
ENDBRANCH  93  96
ENDBRANCH  66  89
ENDBRANCH  40  41
ENDBRANCH  32  35
ENDBRANCH  30  31
ENDBRANCH  29  30
ENDBRANCH  28  29
ENDBRANCH   3  28
TORSDOF 19
ENDMDL
