MODEL 1
REMARK VINA RESULT:     -11.9      0.000      0.000
REMARK SMILES C[C@@H](C(=O)NCCCNC(=O)c1ccc(-c2c3nc(c(-c4cccc(S(=O)(=O)[O-])c4F)c4ccc([nH]4)c(-c4cccc(S(=O)(=O)[O-])c4F)c4nc(c(-c5cccc(S(=O)(=O)[O-])c5F)c5ccc2[nH]5)C=C4)C=C3)cc1)c1ccc(C[C@H]2CCCC2=O)cc1F
REMARK SMILES IDX 7 1 6 2 5 3 3 4 4 5 2 7 1 8 75 9 76 10 87 11 77 12 86 13
REMARK SMILES IDX 88 14 78 15 79 16 80 17 81 18 84 19 82 20 83 21 85 22 8 23
REMARK SMILES IDX 9 24 10 25 11 27 12 28 13 29 74 30 14 31 73 32 15 33 16 34
REMARK SMILES IDX 17 35 67 36 18 37 72 38 66 39 68 40 19 41 71 42 65 43 64 44
REMARK SMILES IDX 20 46 52 47 32 48 51 49 33 50 36 51 50 52 69 53 34 54 35 55
REMARK SMILES IDX 49 57 70 58 37 59 21 60 22 61 30 62 23 63 25 64 31 65 24 66
REMARK SMILES IDX 26 67 27 68 28 69 29 70 53 71 54 72 62 73 55 74 57 75 63 76
REMARK SMILES IDX 56 77 58 78 59 79 60 80 61 81 38 82 39 83 47 84 40 85 42 86
REMARK SMILES IDX 48 87 41 88 43 89 44 90 45 91 46 92
REMARK H PARENT 5 6 9 26 68 45 36 56
REMARK Flexibility Score: inf
ROOT
ATOM      1  C   UNL A   1      33.426  27.613  26.677  1.00  0.00     0.042 C 
ENDROOT
BRANCH   1   2
ATOM      2  C   UNL A   1      31.934  27.439  26.411  1.00  0.00     0.117 C 
BRANCH   2   3
ATOM      3  N   UNL A   1      31.446  26.178  26.935  1.00  0.00    -0.356 N 
ATOM      4  C   UNL A   1      31.311  24.967  26.324  1.00  0.00     0.227 C 
ATOM      5  O   UNL A   1      30.800  24.065  26.994  1.00  0.00    -0.274 OA
ATOM      6  H   UNL A   1      31.169  26.200  27.879  1.00  0.00     0.163 HD
BRANCH   4   7
ATOM      7  C   UNL A   1      31.824  24.760  24.889  1.00  0.00     0.108 C 
ATOM      8  C   UNL A   1      30.724  24.932  23.836  1.00  0.00     0.023 C 
BRANCH   7   9
ATOM      9  C   UNL A   1      32.494  23.401  24.748  1.00  0.00    -0.000 A 
ATOM     10  C   UNL A   1      31.805  22.297  24.225  1.00  0.00     0.008 A 
ATOM     11  C   UNL A   1      33.802  23.208  25.200  1.00  0.00     0.127 A 
ATOM     12  C   UNL A   1      32.420  21.050  24.139  1.00  0.00     0.004 A 
ATOM     13  C   UNL A   1      34.413  21.956  25.141  1.00  0.00     0.043 A 
ATOM     14  F   UNL A   1      34.496  24.238  25.708  1.00  0.00    -0.207 F 
ATOM     15  C   UNL A   1      33.719  20.856  24.625  1.00  0.00    -0.044 A 
BRANCH  15  16
ATOM     16  C   UNL A   1      34.340  19.482  24.607  1.00  0.00     0.047 C 
BRANCH  16  17
ATOM     17  C   UNL A   1      33.428  18.328  24.171  1.00  0.00     0.060 C 
ATOM     18  C   UNL A   1      34.046  17.285  23.237  1.00  0.00     0.012 C 
ATOM     19  C   UNL A   1      32.959  17.476  25.327  1.00  0.00     0.136 C 
ATOM     20  C   UNL A   1      34.479  16.117  24.117  1.00  0.00     0.009 C 
ATOM     21  C   UNL A   1      33.477  16.064  25.262  1.00  0.00     0.076 C 
ATOM     22  O   UNL A   1      32.221  17.890  26.216  1.00  0.00    -0.299 OA
ENDBRANCH  16  17
ENDBRANCH  15  16
ENDBRANCH   7   9
ENDBRANCH   4   7
ENDBRANCH   2   3
ENDBRANCH   1   2
BRANCH   1  23
ATOM     23  C   UNL A   1      34.070  28.727  25.857  1.00  0.00     0.118 C 
BRANCH  23  24
ATOM     24  N   UNL A   1      33.765  30.052  26.381  1.00  0.00    -0.352 N 
ATOM     25  C   UNL A   1      34.349  30.738  27.415  1.00  0.00     0.251 C 
ATOM     26  H   UNL A   1      33.030  30.525  25.926  1.00  0.00     0.163 HD
ATOM     27  O   UNL A   1      33.819  31.763  27.842  1.00  0.00    -0.269 OA
BRANCH  25  28
ATOM     28  C   UNL A   1      35.604  30.244  28.021  1.00  0.00     0.039 A 
ATOM     29  C   UNL A   1      35.562  29.648  29.284  1.00  0.00     0.014 A 
ATOM     30  C   UNL A   1      36.822  30.383  27.351  1.00  0.00     0.014 A 
ATOM     31  C   UNL A   1      36.734  29.142  29.851  1.00  0.00     0.010 A 
ATOM     32  C   UNL A   1      37.970  29.803  27.878  1.00  0.00     0.010 A 
ATOM     33  C   UNL A   1      37.943  29.190  29.139  1.00  0.00    -0.014 A 
BRANCH  33  34
ATOM     34  C   UNL A   1      39.199  28.623  29.693  1.00  0.00     0.031 A 
ATOM     35  C   UNL A   1      39.852  29.269  30.885  1.00  0.00     0.074 A 
ATOM     36  C   UNL A   1      39.806  27.596  29.066  1.00  0.00     0.049 A 
ATOM     37  N   UNL A   1      41.000  28.998  31.447  1.00  0.00    -0.248 NA
ATOM     38  C   UNL A   1      39.131  30.392  31.508  1.00  0.00     0.031 C 
ATOM     39  C   UNL A   1      39.308  26.927  27.863  1.00  0.00     0.029 A 
ATOM     40  N   UNL A   1      40.992  26.960  29.334  1.00  0.00    -0.354 N 
ATOM     41  C   UNL A   1      41.161  29.940  32.455  1.00  0.00     0.074 A 
ATOM     42  C   UNL A   1      40.010  30.813  32.405  1.00  0.00     0.031 C 
ATOM     43  C   UNL A   1      40.184  25.979  27.493  1.00  0.00     0.029 A 
ATOM     44  C   UNL A   1      41.322  25.999  28.407  1.00  0.00     0.049 A 
ATOM     45  H   UNL A   1      41.554  27.173  30.113  1.00  0.00     0.167 HD
ATOM     46  C   UNL A   1      42.164  30.056  33.358  1.00  0.00     0.034 A 
ATOM     47  C   UNL A   1      42.425  25.233  28.294  1.00  0.00     0.034 A 
ATOM     48  C   UNL A   1      43.290  29.164  33.425  1.00  0.00     0.049 A 
ATOM     49  C   UNL A   1      43.514  25.360  29.324  1.00  0.00     0.074 A 
ATOM     50  C   UNL A   1      44.315  29.142  34.354  1.00  0.00     0.029 A 
ATOM     51  N   UNL A   1      43.547  28.145  32.522  1.00  0.00    -0.354 N 
ATOM     52  N   UNL A   1      43.583  26.164  30.357  1.00  0.00    -0.248 NA
ATOM     53  C   UNL A   1      44.662  24.450  29.195  1.00  0.00     0.031 C 
ATOM     54  C   UNL A   1      45.211  28.132  33.989  1.00  0.00     0.029 A 
ATOM     55  C   UNL A   1      44.720  27.495  32.861  1.00  0.00     0.049 A 
ATOM     56  H   UNL A   1      42.977  27.917  31.751  1.00  0.00     0.167 HD
ATOM     57  C   UNL A   1      44.757  25.830  31.024  1.00  0.00     0.074 A 
ATOM     58  C   UNL A   1      45.362  24.743  30.283  1.00  0.00     0.031 C 
ATOM     59  C   UNL A   1      45.287  26.379  32.144  1.00  0.00     0.034 A 
BRANCH  46  60
ATOM     60  C   UNL A   1      42.068  31.173  34.367  1.00  0.00     0.023 A 
ATOM     61  C   UNL A   1      41.481  30.931  35.628  1.00  0.00     0.012 A 
ATOM     62  C   UNL A   1      42.589  32.449  34.084  1.00  0.00     0.148 A 
ATOM     63  C   UNL A   1      41.367  31.955  36.567  1.00  0.00     0.002 A 
ATOM     64  C   UNL A   1      42.519  33.451  35.046  1.00  0.00     0.091 A 
ATOM     65  F   UNL A   1      43.127  32.669  32.875  1.00  0.00    -0.205 F 
ATOM     66  C   UNL A   1      41.895  33.210  36.280  1.00  0.00     0.022 A 
BRANCH  64  67
ATOM     67  S   UNL A   1      43.246  35.076  34.805  1.00  0.00     0.127 S 
ATOM     68  O   UNL A   1      43.017  35.697  36.109  1.00  0.00    -0.237 OA
ATOM     69  O   UNL A   1      44.644  34.748  34.524  1.00  0.00    -0.237 OA
ATOM     70  O   UNL A   1      42.528  35.676  33.690  1.00  0.00    -0.744 OA
ENDBRANCH  64  67
ENDBRANCH  46  60
BRANCH  47  71
ATOM     71  C   UNL A   1      42.525  24.239  27.188  1.00  0.00     0.023 A 
ATOM     72  C   UNL A   1      43.201  24.587  26.002  1.00  0.00     0.012 A 
ATOM     73  C   UNL A   1      41.993  22.942  27.322  1.00  0.00     0.148 A 
ATOM     74  C   UNL A   1      43.319  23.670  24.957  1.00  0.00     0.002 A 
ATOM     75  C   UNL A   1      42.163  22.016  26.299  1.00  0.00     0.091 A 
ATOM     76  F   UNL A   1      41.350  22.635  28.457  1.00  0.00    -0.205 F 
ATOM     77  C   UNL A   1      42.810  22.382  25.109  1.00  0.00     0.022 A 
BRANCH  75  78
ATOM     78  S   UNL A   1      41.659  20.299  26.457  1.00  0.00     0.127 S 
ATOM     79  O   UNL A   1      40.211  20.396  26.293  1.00  0.00    -0.237 OA
ATOM     80  O   UNL A   1      42.366  19.677  25.336  1.00  0.00    -0.237 OA
ATOM     81  O   UNL A   1      42.118  19.870  27.771  1.00  0.00    -0.744 OA
ENDBRANCH  75  78
ENDBRANCH  47  71
BRANCH  59  82
ATOM     82  C   UNL A   1      46.561  25.783  32.686  1.00  0.00     0.023 A 
ATOM     83  C   UNL A   1      47.808  26.330  32.327  1.00  0.00     0.012 A 
ATOM     84  C   UNL A   1      46.509  24.732  33.622  1.00  0.00     0.148 A 
ATOM     85  C   UNL A   1      48.986  25.818  32.869  1.00  0.00     0.002 A 
ATOM     86  C   UNL A   1      47.683  24.263  34.199  1.00  0.00     0.091 A 
ATOM     87  F   UNL A   1      45.313  24.213  33.936  1.00  0.00    -0.205 F 
ATOM     88  C   UNL A   1      48.923  24.797  33.814  1.00  0.00     0.022 A 
BRANCH  86  89
ATOM     89  S   UNL A   1      47.690  23.021  35.497  1.00  0.00     0.127 S 
ATOM     90  O   UNL A   1      47.648  21.782  34.723  1.00  0.00    -0.237 OA
ATOM     91  O   UNL A   1      48.966  23.281  36.165  1.00  0.00    -0.237 OA
ATOM     92  O   UNL A   1      46.515  23.286  36.315  1.00  0.00    -0.744 OA
ENDBRANCH  86  89
ENDBRANCH  59  82
ENDBRANCH  33  34
ENDBRANCH  25  28
ENDBRANCH  23  24
ENDBRANCH   1  23
TORSDOF 16
ENDMDL
MODEL 2
REMARK VINA RESULT:     -11.9      2.110      8.137
REMARK SMILES C[C@@H](C(=O)NCCCNC(=O)c1ccc(-c2c3nc(c(-c4cccc(S(=O)(=O)[O-])c4F)c4ccc([nH]4)c(-c4cccc(S(=O)(=O)[O-])c4F)c4nc(c(-c5cccc(S(=O)(=O)[O-])c5F)c5ccc2[nH]5)C=C4)C=C3)cc1)c1ccc(C[C@H]2CCCC2=O)cc1F
REMARK SMILES IDX 7 1 6 2 5 3 3 4 4 5 2 7 1 8 75 9 76 10 87 11 77 12 86 13
REMARK SMILES IDX 88 14 78 15 79 16 80 17 81 18 84 19 82 20 83 21 85 22 8 23
REMARK SMILES IDX 9 24 10 25 11 27 12 28 13 29 74 30 14 31 73 32 15 33 16 34
REMARK SMILES IDX 17 35 67 36 18 37 72 38 66 39 68 40 19 41 71 42 65 43 64 44
REMARK SMILES IDX 20 46 52 47 32 48 51 49 33 50 36 51 50 52 69 53 34 54 35 55
REMARK SMILES IDX 49 57 70 58 37 59 21 60 22 61 30 62 23 63 25 64 31 65 24 66
REMARK SMILES IDX 26 67 27 68 28 69 29 70 53 71 54 72 62 73 55 74 57 75 63 76
REMARK SMILES IDX 56 77 58 78 59 79 60 80 61 81 38 82 39 83 47 84 40 85 42 86
REMARK SMILES IDX 48 87 41 88 43 89 44 90 45 91 46 92
REMARK H PARENT 5 6 9 26 68 45 36 56
REMARK Flexibility Score: inf
ROOT
ATOM      1  C   UNL A   1      32.816  28.991  23.750  1.00  0.00     0.042 C 
ENDROOT
BRANCH   1   2
ATOM      2  C   UNL A   1      32.049  27.692  23.521  1.00  0.00     0.117 C 
BRANCH   2   3
ATOM      3  N   UNL A   1      32.836  26.738  22.765  1.00  0.00    -0.356 N 
ATOM      4  C   UNL A   1      33.443  25.586  23.168  1.00  0.00     0.227 C 
ATOM      5  O   UNL A   1      34.115  24.991  22.320  1.00  0.00    -0.274 OA
ATOM      6  H   UNL A   1      32.950  26.957  21.813  1.00  0.00     0.163 HD
BRANCH   4   7
ATOM      7  C   UNL A   1      33.239  25.061  24.599  1.00  0.00     0.108 C 
ATOM      8  C   UNL A   1      34.056  25.838  25.637  1.00  0.00     0.023 C 
BRANCH   7   9
ATOM      9  C   UNL A   1      33.552  23.572  24.675  1.00  0.00    -0.000 A 
ATOM     10  C   UNL A   1      34.830  23.111  25.023  1.00  0.00     0.008 A 
ATOM     11  C   UNL A   1      32.580  22.628  24.335  1.00  0.00     0.127 A 
ATOM     12  C   UNL A   1      35.111  21.747  25.050  1.00  0.00     0.004 A 
ATOM     13  C   UNL A   1      32.864  21.263  24.334  1.00  0.00     0.043 A 
ATOM     14  F   UNL A   1      31.345  23.028  23.996  1.00  0.00    -0.207 F 
ATOM     15  C   UNL A   1      34.142  20.809  24.675  1.00  0.00    -0.044 A 
BRANCH  15  16
ATOM     16  C   UNL A   1      34.486  19.341  24.623  1.00  0.00     0.047 C 
BRANCH  16  17
ATOM     17  C   UNL A   1      33.392  18.403  24.096  1.00  0.00     0.060 C 
ATOM     18  C   UNL A   1      33.820  17.381  23.040  1.00  0.00     0.012 C 
ATOM     19  C   UNL A   1      32.803  17.519  25.170  1.00  0.00     0.136 C 
ATOM     20  C   UNL A   1      34.066  16.071  23.780  1.00  0.00     0.009 C 
ATOM     21  C   UNL A   1      33.082  16.056  24.942  1.00  0.00     0.076 C 
ATOM     22  O   UNL A   1      32.154  17.948  26.118  1.00  0.00    -0.299 OA
ENDBRANCH  16  17
ENDBRANCH  15  16
ENDBRANCH   7   9
ENDBRANCH   4   7
ENDBRANCH   2   3
ENDBRANCH   1   2
BRANCH   1  23
ATOM     23  C   UNL A   1      33.210  29.224  25.205  1.00  0.00     0.118 C 
BRANCH  23  24
ATOM     24  N   UNL A   1      32.641  30.452  25.746  1.00  0.00    -0.352 N 
ATOM     25  C   UNL A   1      33.029  31.188  26.836  1.00  0.00     0.251 C 
ATOM     26  H   UNL A   1      31.862  30.805  25.257  1.00  0.00     0.163 HD
ATOM     27  O   UNL A   1      32.299  32.085  27.255  1.00  0.00    -0.269 OA
BRANCH  25  28
ATOM     28  C   UNL A   1      34.313  30.901  27.510  1.00  0.00     0.039 A 
ATOM     29  C   UNL A   1      35.258  31.921  27.638  1.00  0.00     0.014 A 
ATOM     30  C   UNL A   1      34.589  29.621  28.000  1.00  0.00     0.014 A 
ATOM     31  C   UNL A   1      36.458  31.673  28.308  1.00  0.00     0.010 A 
ATOM     32  C   UNL A   1      35.746  29.401  28.740  1.00  0.00     0.010 A 
ATOM     33  C   UNL A   1      36.700  30.418  28.889  1.00  0.00    -0.014 A 
BRANCH  33  34
ATOM     34  C   UNL A   1      37.946  30.133  29.644  1.00  0.00     0.031 A 
ATOM     35  C   UNL A   1      38.955  29.165  29.089  1.00  0.00     0.074 A 
ATOM     36  C   UNL A   1      38.123  30.661  30.871  1.00  0.00     0.049 A 
ATOM     37  N   UNL A   1      40.044  28.699  29.640  1.00  0.00    -0.248 NA
ATOM     38  C   UNL A   1      38.685  28.623  27.747  1.00  0.00     0.031 C 
ATOM     39  C   UNL A   1      37.187  31.561  31.548  1.00  0.00     0.029 A 
ATOM     40  N   UNL A   1      39.136  30.489  31.782  1.00  0.00    -0.354 N 
ATOM     41  C   UNL A   1      40.564  27.779  28.738  1.00  0.00     0.074 A 
ATOM     42  C   UNL A   1      39.650  27.726  27.618  1.00  0.00     0.031 C 
ATOM     43  C   UNL A   1      37.665  31.857  32.767  1.00  0.00     0.029 A 
ATOM     44  C   UNL A   1      38.919  31.139  32.974  1.00  0.00     0.049 A 
ATOM     45  H   UNL A   1      39.939  29.950  31.599  1.00  0.00     0.167 HD
ATOM     46  C   UNL A   1      41.709  27.060  28.819  1.00  0.00     0.034 A 
ATOM     47  C   UNL A   1      39.638  31.141  34.114  1.00  0.00     0.034 A 
ATOM     48  C   UNL A   1      42.630  27.143  29.920  1.00  0.00     0.049 A 
ATOM     49  C   UNL A   1      40.921  30.357  34.173  1.00  0.00     0.074 A 
ATOM     50  C   UNL A   1      43.859  26.523  30.061  1.00  0.00     0.029 A 
ATOM     51  N   UNL A   1      42.420  27.881  31.074  1.00  0.00    -0.354 N 
ATOM     52  N   UNL A   1      41.469  29.602  33.252  1.00  0.00    -0.248 NA
ATOM     53  C   UNL A   1      41.703  30.452  35.414  1.00  0.00     0.031 C 
ATOM     54  C   UNL A   1      44.374  26.857  31.317  1.00  0.00     0.029 A 
ATOM     55  C   UNL A   1      43.488  27.723  31.939  1.00  0.00     0.049 A 
ATOM     56  H   UNL A   1      41.626  28.436  31.252  1.00  0.00     0.167 HD
ATOM     57  C   UNL A   1      42.678  29.167  33.784  1.00  0.00     0.074 A 
ATOM     58  C   UNL A   1      42.787  29.753  35.104  1.00  0.00     0.031 C 
ATOM     59  C   UNL A   1      43.609  28.352  33.231  1.00  0.00     0.034 A 
BRANCH  46  60
ATOM     60  C   UNL A   1      42.041  26.145  27.668  1.00  0.00     0.023 A 
ATOM     61  C   UNL A   1      42.799  26.630  26.581  1.00  0.00     0.012 A 
ATOM     62  C   UNL A   1      41.634  24.797  27.675  1.00  0.00     0.148 A 
ATOM     63  C   UNL A   1      43.102  25.805  25.499  1.00  0.00     0.002 A 
ATOM     64  C   UNL A   1      41.985  23.966  26.618  1.00  0.00     0.091 A 
ATOM     65  F   UNL A   1      40.898  24.355  28.705  1.00  0.00    -0.205 F 
ATOM     66  C   UNL A   1      42.704  24.472  25.523  1.00  0.00     0.022 A 
BRANCH  64  67
ATOM     67  S   UNL A   1      41.593  22.213  26.593  1.00  0.00     0.127 S 
ATOM     68  O   UNL A   1      42.204  21.757  27.841  1.00  0.00    -0.237 OA
ATOM     69  O   UNL A   1      40.129  22.225  26.601  1.00  0.00    -0.237 OA
ATOM     70  O   UNL A   1      42.188  21.685  25.375  1.00  0.00    -0.744 OA
ENDBRANCH  64  67
ENDBRANCH  46  60
BRANCH  47  71
ATOM     71  C   UNL A   1      39.184  31.960  35.274  1.00  0.00     0.023 A 
ATOM     72  C   UNL A   1      38.301  31.397  36.216  1.00  0.00     0.012 A 
ATOM     73  C   UNL A   1      39.654  33.273  35.470  1.00  0.00     0.148 A 
ATOM     74  C   UNL A   1      37.871  32.137  37.317  1.00  0.00     0.002 A 
ATOM     75  C   UNL A   1      39.264  33.985  36.598  1.00  0.00     0.091 A 
ATOM     76  F   UNL A   1      40.489  33.789  34.558  1.00  0.00    -0.205 F 
ATOM     77  C   UNL A   1      38.360  33.427  37.514  1.00  0.00     0.022 A 
BRANCH  75  78
ATOM     78  S   UNL A   1      39.943  35.597  37.004  1.00  0.00     0.127 S 
ATOM     79  O   UNL A   1      39.248  35.909  38.251  1.00  0.00    -0.237 OA
ATOM     80  O   UNL A   1      41.367  35.293  37.152  1.00  0.00    -0.237 OA
ATOM     81  O   UNL A   1      39.626  36.458  35.873  1.00  0.00    -0.744 OA
ENDBRANCH  75  78
ENDBRANCH  47  71
BRANCH  59  82
ATOM     82  C   UNL A   1      44.865  28.081  34.018  1.00  0.00     0.023 A 
ATOM     83  C   UNL A   1      45.920  29.015  34.015  1.00  0.00     0.012 A 
ATOM     84  C   UNL A   1      44.958  26.935  34.832  1.00  0.00     0.148 A 
ATOM     85  C   UNL A   1      47.060  28.796  34.787  1.00  0.00     0.002 A 
ATOM     86  C   UNL A   1      46.074  26.750  35.639  1.00  0.00     0.091 A 
ATOM     87  F   UNL A   1      43.951  26.049  34.807  1.00  0.00    -0.205 F 
ATOM     88  C   UNL A   1      47.131  27.673  35.609  1.00  0.00     0.022 A 
BRANCH  86  89
ATOM     89  S   UNL A   1      46.206  25.387  36.803  1.00  0.00     0.127 S 
ATOM     90  O   UNL A   1      47.501  25.653  37.425  1.00  0.00    -0.237 OA
ATOM     91  O   UNL A   1      45.052  25.613  37.674  1.00  0.00    -0.237 OA
ATOM     92  O   UNL A   1      46.134  24.169  36.008  1.00  0.00    -0.744 OA
ENDBRANCH  86  89
ENDBRANCH  59  82
ENDBRANCH  33  34
ENDBRANCH  25  28
ENDBRANCH  23  24
ENDBRANCH   1  23
TORSDOF 16
ENDMDL
MODEL 3
REMARK VINA RESULT:     -11.8      2.811      7.981
REMARK SMILES C[C@@H](C(=O)NCCCNC(=O)c1ccc(-c2c3nc(c(-c4cccc(S(=O)(=O)[O-])c4F)c4ccc([nH]4)c(-c4cccc(S(=O)(=O)[O-])c4F)c4nc(c(-c5cccc(S(=O)(=O)[O-])c5F)c5ccc2[nH]5)C=C4)C=C3)cc1)c1ccc(C[C@H]2CCCC2=O)cc1F
REMARK SMILES IDX 7 1 6 2 5 3 3 4 4 5 2 7 1 8 75 9 76 10 87 11 77 12 86 13
REMARK SMILES IDX 88 14 78 15 79 16 80 17 81 18 84 19 82 20 83 21 85 22 8 23
REMARK SMILES IDX 9 24 10 25 11 27 12 28 13 29 74 30 14 31 73 32 15 33 16 34
REMARK SMILES IDX 17 35 67 36 18 37 72 38 66 39 68 40 19 41 71 42 65 43 64 44
REMARK SMILES IDX 20 46 52 47 32 48 51 49 33 50 36 51 50 52 69 53 34 54 35 55
REMARK SMILES IDX 49 57 70 58 37 59 21 60 22 61 30 62 23 63 25 64 31 65 24 66
REMARK SMILES IDX 26 67 27 68 28 69 29 70 53 71 54 72 62 73 55 74 57 75 63 76
REMARK SMILES IDX 56 77 58 78 59 79 60 80 61 81 38 82 39 83 47 84 40 85 42 86
REMARK SMILES IDX 48 87 41 88 43 89 44 90 45 91 46 92
REMARK H PARENT 5 6 9 26 68 45 36 56
REMARK Flexibility Score: inf
ROOT
ATOM      1  C   UNL A   1      32.746  28.942  23.557  1.00  0.00     0.042 C 
ENDROOT
BRANCH   1   2
ATOM      2  C   UNL A   1      31.935  27.682  23.271  1.00  0.00     0.117 C 
BRANCH   2   3
ATOM      3  N   UNL A   1      32.715  26.707  22.533  1.00  0.00    -0.356 N 
ATOM      4  C   UNL A   1      33.336  25.573  22.963  1.00  0.00     0.227 C 
ATOM      5  O   UNL A   1      33.997  24.953  22.124  1.00  0.00    -0.274 OA
ATOM      6  H   UNL A   1      32.811  26.895  21.572  1.00  0.00     0.163 HD
BRANCH   4   7
ATOM      7  C   UNL A   1      33.160  25.094  24.415  1.00  0.00     0.108 C 
ATOM      8  C   UNL A   1      33.977  25.920  25.414  1.00  0.00     0.023 C 
BRANCH   7   9
ATOM      9  C   UNL A   1      33.498  23.615  24.538  1.00  0.00    -0.000 A 
ATOM     10  C   UNL A   1      34.777  23.188  24.924  1.00  0.00     0.008 A 
ATOM     11  C   UNL A   1      32.551  22.644  24.205  1.00  0.00     0.127 A 
ATOM     12  C   UNL A   1      35.082  21.830  24.994  1.00  0.00     0.004 A 
ATOM     13  C   UNL A   1      32.859  21.284  24.247  1.00  0.00     0.043 A 
ATOM     14  F   UNL A   1      31.316  23.011  23.830  1.00  0.00    -0.207 F 
ATOM     15  C   UNL A   1      34.139  20.864  24.627  1.00  0.00    -0.044 A 
BRANCH  15  16
ATOM     16  C   UNL A   1      34.510  19.402  24.622  1.00  0.00     0.047 C 
BRANCH  16  17
ATOM     17  C   UNL A   1      33.437  18.428  24.117  1.00  0.00     0.060 C 
ATOM     18  C   UNL A   1      33.899  17.358  23.125  1.00  0.00     0.012 C 
ATOM     19  C   UNL A   1      32.831  17.593  25.220  1.00  0.00     0.136 C 
ATOM     20  C   UNL A   1      34.139  16.089  23.936  1.00  0.00     0.009 C 
ATOM     21  C   UNL A   1      33.128  16.124  25.074  1.00  0.00     0.076 C 
ATOM     22  O   UNL A   1      32.155  18.063  26.131  1.00  0.00    -0.299 OA
ENDBRANCH  16  17
ENDBRANCH  15  16
ENDBRANCH   7   9
ENDBRANCH   4   7
ENDBRANCH   2   3
ENDBRANCH   1   2
BRANCH   1  23
ATOM     23  C   UNL A   1      33.066  29.145  25.035  1.00  0.00     0.118 C 
BRANCH  23  24
ATOM     24  N   UNL A   1      32.444  30.345  25.580  1.00  0.00    -0.352 N 
ATOM     25  C   UNL A   1      32.792  31.086  26.680  1.00  0.00     0.251 C 
ATOM     26  H   UNL A   1      31.658  30.672  25.084  1.00  0.00     0.163 HD
ATOM     27  O   UNL A   1      32.023  31.950  27.099  1.00  0.00    -0.269 OA
BRANCH  25  28
ATOM     28  C   UNL A   1      34.078  30.841  27.367  1.00  0.00     0.039 A 
ATOM     29  C   UNL A   1      34.925  31.920  27.630  1.00  0.00     0.014 A 
ATOM     30  C   UNL A   1      34.454  29.547  27.735  1.00  0.00     0.014 A 
ATOM     31  C   UNL A   1      36.125  31.708  28.313  1.00  0.00     0.010 A 
ATOM     32  C   UNL A   1      35.606  29.351  28.488  1.00  0.00     0.010 A 
ATOM     33  C   UNL A   1      36.462  30.425  28.772  1.00  0.00    -0.014 A 
BRANCH  33  34
ATOM     34  C   UNL A   1      37.708  30.172  29.539  1.00  0.00     0.031 A 
ATOM     35  C   UNL A   1      38.747  29.230  28.992  1.00  0.00     0.074 A 
ATOM     36  C   UNL A   1      37.861  30.703  30.768  1.00  0.00     0.049 A 
ATOM     37  N   UNL A   1      39.843  28.792  29.552  1.00  0.00    -0.248 NA
ATOM     38  C   UNL A   1      38.502  28.682  27.646  1.00  0.00     0.031 C 
ATOM     39  C   UNL A   1      36.896  31.577  31.437  1.00  0.00     0.029 A 
ATOM     40  N   UNL A   1      38.869  30.555  31.687  1.00  0.00    -0.354 N 
ATOM     41  C   UNL A   1      40.393  27.887  28.653  1.00  0.00     0.074 A 
ATOM     42  C   UNL A   1      39.491  27.811  27.525  1.00  0.00     0.031 C 
ATOM     43  C   UNL A   1      37.356  31.884  32.661  1.00  0.00     0.029 A 
ATOM     44  C   UNL A   1      38.626  31.198  32.878  1.00  0.00     0.049 A 
ATOM     45  H   UNL A   1      39.687  30.038  31.511  1.00  0.00     0.167 HD
ATOM     46  C   UNL A   1      41.556  27.197  28.744  1.00  0.00     0.034 A 
ATOM     47  C   UNL A   1      39.334  31.218  34.024  1.00  0.00     0.034 A 
ATOM     48  C   UNL A   1      42.465  27.302  29.853  1.00  0.00     0.049 A 
ATOM     49  C   UNL A   1      40.636  30.467  34.094  1.00  0.00     0.074 A 
ATOM     50  C   UNL A   1      43.708  26.714  30.004  1.00  0.00     0.029 A 
ATOM     51  N   UNL A   1      42.226  28.033  31.006  1.00  0.00    -0.354 N 
ATOM     52  N   UNL A   1      41.212  29.728  33.177  1.00  0.00    -0.248 NA
ATOM     53  C   UNL A   1      41.405  30.581  35.341  1.00  0.00     0.031 C 
ATOM     54  C   UNL A   1      44.203  27.060  31.265  1.00  0.00     0.029 A 
ATOM     55  C   UNL A   1      43.290  27.902  31.880  1.00  0.00     0.049 A 
ATOM     56  H   UNL A   1      41.416  28.568  31.177  1.00  0.00     0.167 HD
ATOM     57  C   UNL A   1      42.426  29.323  33.719  1.00  0.00     0.074 A 
ATOM     58  C   UNL A   1      42.509  29.910  35.041  1.00  0.00     0.031 C 
ATOM     59  C   UNL A   1      43.384  28.533  33.173  1.00  0.00     0.034 A 
BRANCH  46  60
ATOM     60  C   UNL A   1      41.921  26.292  27.595  1.00  0.00     0.023 A 
ATOM     61  C   UNL A   1      42.590  26.820  26.471  1.00  0.00     0.012 A 
ATOM     62  C   UNL A   1      41.635  24.914  27.641  1.00  0.00     0.148 A 
ATOM     63  C   UNL A   1      42.921  26.003  25.391  1.00  0.00     0.002 A 
ATOM     64  C   UNL A   1      42.016  24.096  26.584  1.00  0.00     0.091 A 
ATOM     65  F   UNL A   1      40.982  24.430  28.708  1.00  0.00    -0.205 F 
ATOM     66  C   UNL A   1      42.643  24.641  25.452  1.00  0.00     0.022 A 
BRANCH  64  67
ATOM     67  S   UNL A   1      41.780  22.315  26.604  1.00  0.00     0.127 S 
ATOM     68  O   UNL A   1      42.445  21.916  25.365  1.00  0.00    -0.237 OA
ATOM     69  O   UNL A   1      42.484  21.926  27.826  1.00  0.00    -0.237 OA
ATOM     70  O   UNL A   1      40.341  22.101  26.640  1.00  0.00    -0.744 OA
ENDBRANCH  64  67
ENDBRANCH  46  60
BRANCH  47  71
ATOM     71  C   UNL A   1      38.849  32.023  35.180  1.00  0.00     0.023 A 
ATOM     72  C   UNL A   1      38.888  33.430  35.111  1.00  0.00     0.012 A 
ATOM     73  C   UNL A   1      38.312  31.405  36.326  1.00  0.00     0.148 A 
ATOM     74  C   UNL A   1      38.428  34.206  36.175  1.00  0.00     0.002 A 
ATOM     75  C   UNL A   1      37.804  32.185  37.358  1.00  0.00     0.091 A 
ATOM     76  F   UNL A   1      38.289  30.066  36.372  1.00  0.00    -0.205 F 
ATOM     77  C   UNL A   1      37.877  33.585  37.294  1.00  0.00     0.022 A 
BRANCH  75  78
ATOM     78  S   UNL A   1      36.958  31.479  38.776  1.00  0.00     0.127 S 
ATOM     79  O   UNL A   1      36.766  30.094  38.352  1.00  0.00    -0.237 OA
ATOM     80  O   UNL A   1      37.947  31.667  39.838  1.00  0.00    -0.237 OA
ATOM     81  O   UNL A   1      35.740  32.261  38.942  1.00  0.00    -0.744 OA
ENDBRANCH  75  78
ENDBRANCH  47  71
BRANCH  59  82
ATOM     82  C   UNL A   1      44.639  28.293  33.972  1.00  0.00     0.023 A 
ATOM     83  C   UNL A   1      45.726  29.184  33.869  1.00  0.00     0.012 A 
ATOM     84  C   UNL A   1      44.702  27.228  34.891  1.00  0.00     0.148 A 
ATOM     85  C   UNL A   1      46.867  28.999  34.648  1.00  0.00     0.002 A 
ATOM     86  C   UNL A   1      45.821  27.081  35.702  1.00  0.00     0.091 A 
ATOM     87  F   UNL A   1      43.665  26.380  34.960  1.00  0.00    -0.205 F 
ATOM     88  C   UNL A   1      46.909  27.958  35.573  1.00  0.00     0.022 A 
BRANCH  86  89
ATOM     89  S   UNL A   1      45.920  25.832  36.990  1.00  0.00     0.127 S 
ATOM     90  O   UNL A   1      44.753  26.154  37.807  1.00  0.00    -0.237 OA
ATOM     91  O   UNL A   1      45.806  24.590  36.224  1.00  0.00    -0.237 OA
ATOM     92  O   UNL A   1      47.209  26.025  37.640  1.00  0.00    -0.744 OA
ENDBRANCH  86  89
ENDBRANCH  59  82
ENDBRANCH  33  34
ENDBRANCH  25  28
ENDBRANCH  23  24
ENDBRANCH   1  23
TORSDOF 16
ENDMDL
