MODEL 1
REMARK VINA RESULT:     -12.1      0.000      0.000
REMARK SMILES COc1ccc(F)c(NC(=O)N2CCCC[C@@H]2C(=O)NCCCNC(=O)c2ccc(-c3c4nc(c(-c5cccc(S(=O)(=O)[O-])c5F)c5ccc([nH]5)c(-c5cccc(S(=O)(=O)[O-])c5F)c5nc(c(-c6cccc(S(=O)(=O)[O-])c6F)c6ccc3[nH]6)C=C5)C=C4)cc2)c1
REMARK SMILES IDX 22 1 21 2 20 3 18 4 19 5 17 7 12 8 13 9 14 10 16 11 15 12
REMARK SMILES IDX 10 13 9 14 11 16 8 17 3 18 4 19 90 20 5 21 6 22 7 23 2 24
REMARK SMILES IDX 1 25 23 26 24 27 25 28 26 30 27 31 28 32 89 33 29 34 88 35
REMARK SMILES IDX 30 36 31 37 32 38 82 39 33 40 87 41 81 42 83 43 34 44 86 45
REMARK SMILES IDX 80 46 79 47 35 49 67 50 47 51 66 52 48 53 51 54 65 55 84 56
REMARK SMILES IDX 49 57 50 58 64 60 85 61 52 62 36 63 37 64 45 65 38 66 40 67
REMARK SMILES IDX 46 68 39 69 41 70 42 71 43 72 44 73 68 74 69 75 77 76 70 77
REMARK SMILES IDX 72 78 78 79 71 80 73 81 74 82 75 83 76 84 53 85 54 86 62 87
REMARK SMILES IDX 55 88 57 89 63 90 56 91 58 92 59 93 60 94 61 95
REMARK H PARENT 20 6 9 15 24 29 83 48 51 59
REMARK Flexibility Score: inf
ROOT
ATOM      1  C   UNL A   1      31.717  32.126  26.690  1.00  0.00     0.042 C 
ENDROOT
BRANCH   1   2
ATOM      2  C   UNL A   1      31.757  30.611  26.819  1.00  0.00     0.117 C 
BRANCH   2   3
ATOM      3  N   UNL A   1      32.883  30.072  26.078  1.00  0.00    -0.354 N 
ATOM      4  C   UNL A   1      32.912  29.041  25.191  1.00  0.00     0.242 C 
ATOM      5  O   UNL A   1      34.005  28.511  24.966  1.00  0.00    -0.273 OA
ATOM      6  H   UNL A   1      33.747  30.514  26.241  1.00  0.00     0.163 HD
BRANCH   4   7
ATOM      7  C   UNL A   1      31.615  28.469  24.580  1.00  0.00     0.176 C 
ATOM      8  N   UNL A   1      31.113  27.195  25.178  1.00  0.00    -0.313 N 
ATOM      9  C   UNL A   1      30.109  26.464  24.409  1.00  0.00     0.122 C 
ATOM     10  C   UNL A   1      30.450  26.322  22.936  1.00  0.00     0.022 C 
ATOM     11  C   UNL A   1      31.855  28.366  23.056  1.00  0.00     0.035 C 
ATOM     12  C   UNL A   1      30.711  27.688  22.321  1.00  0.00     0.004 C 
BRANCH   8  13
ATOM     13  C   UNL A   1      31.311  26.737  26.465  1.00  0.00     0.322 C 
ATOM     14  N   UNL A   1      31.643  25.452  26.735  1.00  0.00    -0.305 N 
ATOM     15  H   UNL A   1      31.271  25.115  27.582  1.00  0.00     0.171 HD
ATOM     16  O   UNL A   1      31.107  27.473  27.437  1.00  0.00    -0.248 OA
BRANCH  14  17
ATOM     17  C   UNL A   1      32.414  24.507  26.040  1.00  0.00     0.082 A 
ATOM     18  C   UNL A   1      34.426  23.806  24.923  1.00  0.00     0.121 A 
ATOM     19  C   UNL A   1      33.766  22.708  24.373  1.00  0.00     0.049 A 
ATOM     20  C   UNL A   1      33.781  24.648  25.826  1.00  0.00     0.075 A 
ATOM     21  C   UNL A   1      32.432  22.475  24.703  1.00  0.00     0.045 A 
ATOM     22  C   UNL A   1      31.765  23.379  25.525  1.00  0.00     0.147 A 
ATOM     23  F   UNL A   1      30.463  23.180  25.789  1.00  0.00    -0.205 F 
BRANCH  18  24
ATOM     24  O   UNL A   1      35.716  24.122  24.592  1.00  0.00    -0.497 OA
ATOM     25  C   UNL A   1      36.228  23.204  23.619  1.00  0.00     0.278 C 
ENDBRANCH  18  24
ENDBRANCH  14  17
ENDBRANCH   8  13
ENDBRANCH   4   7
ENDBRANCH   2   3
ENDBRANCH   1   2
BRANCH   1  26
ATOM     26  C   UNL A   1      32.919  32.809  27.325  1.00  0.00     0.118 C 
BRANCH  26  27
ATOM     27  N   UNL A   1      32.633  34.185  27.702  1.00  0.00    -0.352 N 
ATOM     28  C   UNL A   1      33.132  34.910  28.757  1.00  0.00     0.251 C 
ATOM     29  H   UNL A   1      31.994  34.661  27.124  1.00  0.00     0.163 HD
ATOM     30  O   UNL A   1      32.626  35.982  29.064  1.00  0.00    -0.269 OA
BRANCH  28  31
ATOM     31  C   UNL A   1      34.278  34.372  29.518  1.00  0.00     0.039 A 
ATOM     32  C   UNL A   1      34.038  33.665  30.698  1.00  0.00     0.014 A 
ATOM     33  C   UNL A   1      35.582  34.553  29.051  1.00  0.00     0.014 A 
ATOM     34  C   UNL A   1      35.111  33.098  31.385  1.00  0.00     0.010 A 
ATOM     35  C   UNL A   1      36.635  33.905  29.683  1.00  0.00     0.010 A 
ATOM     36  C   UNL A   1      36.414  33.190  30.869  1.00  0.00    -0.014 A 
BRANCH  36  37
ATOM     37  C   UNL A   1      37.567  32.567  31.564  1.00  0.00     0.031 A 
ATOM     38  C   UNL A   1      38.293  31.415  30.924  1.00  0.00     0.074 A 
ATOM     39  C   UNL A   1      37.910  32.988  32.798  1.00  0.00     0.049 A 
ATOM     40  N   UNL A   1      39.281  30.702  31.398  1.00  0.00    -0.248 NA
ATOM     41  C   UNL A   1      37.833  30.985  29.591  1.00  0.00     0.031 C 
ATOM     42  C   UNL A   1      37.232  34.044  33.551  1.00  0.00     0.029 A 
ATOM     43  N   UNL A   1      38.903  32.562  33.645  1.00  0.00    -0.354 N 
ATOM     44  C   UNL A   1      39.534  29.723  30.445  1.00  0.00     0.074 A 
ATOM     45  C   UNL A   1      38.572  29.905  29.383  1.00  0.00     0.031 C 
ATOM     46  C   UNL A   1      37.836  34.194  34.740  1.00  0.00     0.029 A 
ATOM     47  C   UNL A   1      38.919  33.220  34.851  1.00  0.00     0.049 A 
ATOM     48  H   UNL A   1      39.544  31.852  33.410  1.00  0.00     0.167 HD
ATOM     49  C   UNL A   1      40.503  28.780  30.439  1.00  0.00     0.034 A 
ATOM     50  C   UNL A   1      39.709  33.055  35.931  1.00  0.00     0.034 A 
ATOM     51  C   UNL A   1      41.493  28.644  31.470  1.00  0.00     0.049 A 
ATOM     52  C   UNL A   1      40.803  32.023  35.881  1.00  0.00     0.074 A 
ATOM     53  C   UNL A   1      42.576  27.785  31.506  1.00  0.00     0.029 A 
ATOM     54  N   UNL A   1      41.521  29.378  32.645  1.00  0.00    -0.354 N 
ATOM     55  N   UNL A   1      41.123  31.208  34.906  1.00  0.00    -0.248 NA
ATOM     56  C   UNL A   1      41.666  31.905  37.067  1.00  0.00     0.031 C 
ATOM     57  C   UNL A   1      43.240  27.974  32.720  1.00  0.00     0.029 A 
ATOM     58  C   UNL A   1      42.593  28.979  33.423  1.00  0.00     0.049 A 
ATOM     59  H   UNL A   1      40.875  30.079  32.889  1.00  0.00     0.167 HD
ATOM     60  C   UNL A   1      42.236  30.501  35.346  1.00  0.00     0.074 A 
ATOM     61  C   UNL A   1      42.551  31.001  36.668  1.00  0.00     0.031 C 
ATOM     62  C   UNL A   1      42.924  29.517  34.717  1.00  0.00     0.034 A 
BRANCH  49  63
ATOM     63  C   UNL A   1      40.589  27.855  29.253  1.00  0.00     0.023 A 
ATOM     64  C   UNL A   1      39.686  26.779  29.144  1.00  0.00     0.012 A 
ATOM     65  C   UNL A   1      41.489  28.116  28.200  1.00  0.00     0.148 A 
ATOM     66  C   UNL A   1      39.687  25.964  28.013  1.00  0.00     0.002 A 
ATOM     67  C   UNL A   1      41.450  27.329  27.055  1.00  0.00     0.091 A 
ATOM     68  F   UNL A   1      42.352  29.132  28.335  1.00  0.00    -0.205 F 
ATOM     69  C   UNL A   1      40.559  26.248  26.965  1.00  0.00     0.022 A 
BRANCH  67  70
ATOM     70  S   UNL A   1      42.465  27.665  25.612  1.00  0.00     0.127 S 
ATOM     71  O   UNL A   1      41.934  28.954  25.172  1.00  0.00    -0.237 OA
ATOM     72  O   UNL A   1      43.807  27.724  26.191  1.00  0.00    -0.237 OA
ATOM     73  O   UNL A   1      42.243  26.557  24.693  1.00  0.00    -0.744 OA
ENDBRANCH  67  70
ENDBRANCH  49  63
BRANCH  50  74
ATOM     74  C   UNL A   1      39.528  33.934  37.121  1.00  0.00     0.023 A 
ATOM     75  C   UNL A   1      39.911  35.286  37.050  1.00  0.00     0.012 A 
ATOM     76  C   UNL A   1      38.926  33.452  38.301  1.00  0.00     0.148 A 
ATOM     77  C   UNL A   1      39.721  36.139  38.138  1.00  0.00     0.002 A 
ATOM     78  C   UNL A   1      38.685  34.320  39.359  1.00  0.00     0.091 A 
ATOM     79  F   UNL A   1      38.578  32.159  38.353  1.00  0.00    -0.205 F 
ATOM     80  C   UNL A   1      39.097  35.660  39.286  1.00  0.00     0.022 A 
BRANCH  78  81
ATOM     81  S   UNL A   1      37.760  33.829  40.820  1.00  0.00     0.127 S 
ATOM     82  O   UNL A   1      37.536  35.114  41.478  1.00  0.00    -0.237 OA
ATOM     83  O   UNL A   1      36.567  33.223  40.230  1.00  0.00    -0.237 OA
ATOM     84  O   UNL A   1      38.619  32.895  41.535  1.00  0.00    -0.744 OA
ENDBRANCH  78  81
ENDBRANCH  50  74
BRANCH  62  85
ATOM     85  C   UNL A   1      44.103  28.907  35.428  1.00  0.00     0.023 A 
ATOM     86  C   UNL A   1      45.364  29.531  35.348  1.00  0.00     0.012 A 
ATOM     87  C   UNL A   1      43.931  27.797  36.281  1.00  0.00     0.148 A 
ATOM     88  C   UNL A   1      46.439  29.049  36.093  1.00  0.00     0.002 A 
ATOM     89  C   UNL A   1      44.994  27.357  37.059  1.00  0.00     0.091 A 
ATOM     90  F   UNL A   1      42.725  27.213  36.331  1.00  0.00    -0.205 F 
ATOM     91  C   UNL A   1      46.251  27.975  36.958  1.00  0.00     0.022 A 
BRANCH  89  92
ATOM     92  S   UNL A   1      44.821  26.052  38.282  1.00  0.00     0.127 S 
ATOM     93  O   UNL A   1      43.829  26.626  39.191  1.00  0.00    -0.237 OA
ATOM     94  O   UNL A   1      44.331  24.935  37.473  1.00  0.00    -0.237 OA
ATOM     95  O   UNL A   1      46.145  25.855  38.854  1.00  0.00    -0.744 OA
ENDBRANCH  89  92
ENDBRANCH  62  85
ENDBRANCH  36  37
ENDBRANCH  28  31
ENDBRANCH  26  27
ENDBRANCH   1  26
TORSDOF 16
ENDMDL
MODEL 2
REMARK VINA RESULT:     -12.0      3.418      8.887
REMARK SMILES COc1ccc(F)c(NC(=O)N2CCCC[C@@H]2C(=O)NCCCNC(=O)c2ccc(-c3c4nc(c(-c5cccc(S(=O)(=O)[O-])c5F)c5ccc([nH]5)c(-c5cccc(S(=O)(=O)[O-])c5F)c5nc(c(-c6cccc(S(=O)(=O)[O-])c6F)c6ccc3[nH]6)C=C5)C=C4)cc2)c1
REMARK SMILES IDX 22 1 21 2 20 3 18 4 19 5 17 7 12 8 13 9 14 10 16 11 15 12
REMARK SMILES IDX 10 13 9 14 11 16 8 17 3 18 4 19 90 20 5 21 6 22 7 23 2 24
REMARK SMILES IDX 1 25 23 26 24 27 25 28 26 30 27 31 28 32 89 33 29 34 88 35
REMARK SMILES IDX 30 36 31 37 32 38 82 39 33 40 87 41 81 42 83 43 34 44 86 45
REMARK SMILES IDX 80 46 79 47 35 49 67 50 47 51 66 52 48 53 51 54 65 55 84 56
REMARK SMILES IDX 49 57 50 58 64 60 85 61 52 62 36 63 37 64 45 65 38 66 40 67
REMARK SMILES IDX 46 68 39 69 41 70 42 71 43 72 44 73 68 74 69 75 77 76 70 77
REMARK SMILES IDX 72 78 78 79 71 80 73 81 74 82 75 83 76 84 53 85 54 86 62 87
REMARK SMILES IDX 55 88 57 89 63 90 56 91 58 92 59 93 60 94 61 95
REMARK H PARENT 20 6 9 15 24 29 83 48 51 59
REMARK Flexibility Score: inf
ROOT
ATOM      1  C   UNL A   1      32.502  28.161  27.472  1.00  0.00     0.042 C 
ENDROOT
BRANCH   1   2
ATOM      2  C   UNL A   1      31.518  27.427  26.573  1.00  0.00     0.117 C 
BRANCH   2   3
ATOM      3  N   UNL A   1      31.381  26.046  27.000  1.00  0.00    -0.354 N 
ATOM      4  C   UNL A   1      31.880  24.917  26.427  1.00  0.00     0.242 C 
ATOM      5  O   UNL A   1      31.348  23.842  26.722  1.00  0.00    -0.273 OA
ATOM      6  H   UNL A   1      30.851  25.906  27.818  1.00  0.00     0.163 HD
BRANCH   4   7
ATOM      7  C   UNL A   1      32.989  24.982  25.354  1.00  0.00     0.176 C 
ATOM      8  N   UNL A   1      32.673  24.339  24.044  1.00  0.00    -0.313 N 
ATOM      9  C   UNL A   1      33.802  24.084  23.153  1.00  0.00     0.122 C 
ATOM     10  C   UNL A   1      34.994  23.446  23.844  1.00  0.00     0.022 C 
ATOM     11  C   UNL A   1      34.269  24.417  26.011  1.00  0.00     0.035 C 
ATOM     12  C   UNL A   1      35.426  24.285  25.034  1.00  0.00     0.004 C 
BRANCH   8  13
ATOM     13  C   UNL A   1      31.427  24.161  23.475  1.00  0.00     0.322 C 
ATOM     14  N   UNL A   1      30.519  25.162  23.390  1.00  0.00    -0.305 N 
ATOM     15  H   UNL A   1      29.586  24.859  23.469  1.00  0.00     0.171 HD
ATOM     16  O   UNL A   1      31.059  23.044  23.095  1.00  0.00    -0.248 OA
BRANCH  14  17
ATOM     17  C   UNL A   1      30.651  26.548  23.210  1.00  0.00     0.082 A 
ATOM     18  C   UNL A   1      31.960  28.560  23.046  1.00  0.00     0.121 A 
ATOM     19  C   UNL A   1      30.814  29.343  23.183  1.00  0.00     0.049 A 
ATOM     20  C   UNL A   1      31.870  27.172  22.965  1.00  0.00     0.075 A 
ATOM     21  C   UNL A   1      29.569  28.725  23.279  1.00  0.00     0.045 A 
ATOM     22  C   UNL A   1      29.497  27.335  23.300  1.00  0.00     0.147 A 
ATOM     23  F   UNL A   1      28.299  26.748  23.454  1.00  0.00    -0.205 F 
BRANCH  18  24
ATOM     24  O   UNL A   1      33.214  29.104  23.008  1.00  0.00    -0.497 OA
ATOM     25  C   UNL A   1      34.063  28.359  22.125  1.00  0.00     0.278 C 
ENDBRANCH  18  24
ENDBRANCH  14  17
ENDBRANCH   8  13
ENDBRANCH   4   7
ENDBRANCH   2   3
ENDBRANCH   1   2
BRANCH   1  26
ATOM     26  C   UNL A   1      33.594  28.881  26.695  1.00  0.00     0.118 C 
BRANCH  26  27
ATOM     27  N   UNL A   1      33.600  30.313  26.957  1.00  0.00    -0.352 N 
ATOM     28  C   UNL A   1      34.490  31.048  27.701  1.00  0.00     0.251 C 
ATOM     29  H   UNL A   1      32.866  30.824  26.546  1.00  0.00     0.163 HD
ATOM     30  O   UNL A   1      34.234  32.206  28.005  1.00  0.00    -0.269 OA
BRANCH  28  31
ATOM     31  C   UNL A   1      35.753  30.417  28.136  1.00  0.00     0.039 A 
ATOM     32  C   UNL A   1      36.882  30.527  27.322  1.00  0.00     0.014 A 
ATOM     33  C   UNL A   1      35.820  29.739  29.355  1.00  0.00     0.014 A 
ATOM     34  C   UNL A   1      38.094  29.991  27.757  1.00  0.00     0.010 A 
ATOM     35  C   UNL A   1      37.047  29.295  29.829  1.00  0.00     0.010 A 
ATOM     36  C   UNL A   1      38.193  29.395  29.026  1.00  0.00    -0.014 A 
BRANCH  36  37
ATOM     37  C   UNL A   1      39.478  28.849  29.525  1.00  0.00     0.031 A 
ATOM     38  C   UNL A   1      40.192  29.533  30.659  1.00  0.00     0.074 A 
ATOM     39  C   UNL A   1      40.035  27.786  28.912  1.00  0.00     0.049 A 
ATOM     40  N   UNL A   1      41.349  29.244  31.194  1.00  0.00    -0.248 NA
ATOM     41  C   UNL A   1      39.539  30.715  31.252  1.00  0.00     0.031 C 
ATOM     42  C   UNL A   1      39.475  27.086  27.755  1.00  0.00     0.029 A 
ATOM     43  N   UNL A   1      41.210  27.121  29.163  1.00  0.00    -0.354 N 
ATOM     44  C   UNL A   1      41.578  30.223  32.154  1.00  0.00     0.074 A 
ATOM     45  C   UNL A   1      40.462  31.138  32.103  1.00  0.00     0.031 C 
ATOM     46  C   UNL A   1      40.296  26.084  27.405  1.00  0.00     0.029 A 
ATOM     47  C   UNL A   1      41.460  26.092  28.287  1.00  0.00     0.049 A 
ATOM     48  H   UNL A   1      41.816  27.360  29.902  1.00  0.00     0.167 HD
ATOM     49  C   UNL A   1      42.609  30.328  33.023  1.00  0.00     0.034 A 
ATOM     50  C   UNL A   1      42.511  25.253  28.196  1.00  0.00     0.034 A 
ATOM     51  C   UNL A   1      43.685  29.381  33.108  1.00  0.00     0.049 A 
ATOM     52  C   UNL A   1      43.626  25.371  29.201  1.00  0.00     0.074 A 
ATOM     53  C   UNL A   1      44.722  29.347  34.021  1.00  0.00     0.029 A 
ATOM     54  N   UNL A   1      43.866  28.308  32.250  1.00  0.00    -0.354 N 
ATOM     55  N   UNL A   1      43.749  26.210  30.199  1.00  0.00    -0.248 NA
ATOM     56  C   UNL A   1      44.733  24.408  29.087  1.00  0.00     0.031 C 
ATOM     57  C   UNL A   1      45.553  28.272  33.695  1.00  0.00     0.029 A 
ATOM     58  C   UNL A   1      45.011  27.615  32.601  1.00  0.00     0.049 A 
ATOM     59  H   UNL A   1      43.270  28.074  31.503  1.00  0.00     0.167 HD
ATOM     60  C   UNL A   1      44.928  25.863  30.849  1.00  0.00     0.074 A 
ATOM     61  C   UNL A   1      45.471  24.722  30.144  1.00  0.00     0.031 C 
ATOM     62  C   UNL A   1      45.516  26.450  31.921  1.00  0.00     0.034 A 
BRANCH  49  63
ATOM     63  C   UNL A   1      42.600  31.473  34.002  1.00  0.00     0.023 A 
ATOM     64  C   UNL A   1      43.213  32.693  33.651  1.00  0.00     0.012 A 
ATOM     65  C   UNL A   1      41.894  31.376  35.217  1.00  0.00     0.148 A 
ATOM     66  C   UNL A   1      43.140  33.794  34.502  1.00  0.00     0.002 A 
ATOM     67  C   UNL A   1      41.784  32.492  36.037  1.00  0.00     0.091 A 
ATOM     68  F   UNL A   1      41.337  30.201  35.540  1.00  0.00    -0.205 F 
ATOM     69  C   UNL A   1      42.414  33.697  35.687  1.00  0.00     0.022 A 
BRANCH  67  70
ATOM     70  S   UNL A   1      40.797  32.502  37.538  1.00  0.00     0.127 S 
ATOM     71  O   UNL A   1      39.603  31.775  37.110  1.00  0.00    -0.237 OA
ATOM     72  O   UNL A   1      41.654  31.770  38.470  1.00  0.00    -0.237 OA
ATOM     73  O   UNL A   1      40.582  33.902  37.874  1.00  0.00    -0.744 OA
ENDBRANCH  67  70
ENDBRANCH  49  63
BRANCH  50  74
ATOM     74  C   UNL A   1      42.521  24.190  27.151  1.00  0.00     0.023 A 
ATOM     75  C   UNL A   1      43.189  24.421  25.934  1.00  0.00     0.012 A 
ATOM     76  C   UNL A   1      41.924  22.934  27.379  1.00  0.00     0.148 A 
ATOM     77  C   UNL A   1      43.243  23.431  24.953  1.00  0.00     0.002 A 
ATOM     78  C   UNL A   1      42.032  21.932  26.423  1.00  0.00     0.091 A 
ATOM     79  F   UNL A   1      41.284  22.738  28.540  1.00  0.00    -0.205 F 
ATOM     80  C   UNL A   1      42.677  22.184  25.201  1.00  0.00     0.022 A 
BRANCH  78  81
ATOM     81  S   UNL A   1      41.460  20.254  26.712  1.00  0.00     0.127 S 
ATOM     82  O   UNL A   1      42.234  19.872  27.891  1.00  0.00    -0.237 OA
ATOM     83  O   UNL A   1      40.032  20.461  26.953  1.00  0.00    -0.237 OA
ATOM     84  O   UNL A   1      41.764  19.517  25.493  1.00  0.00    -0.744 OA
ENDBRANCH  78  81
ENDBRANCH  50  74
BRANCH  62  85
ATOM     85  C   UNL A   1      46.810  25.872  32.427  1.00  0.00     0.023 A 
ATOM     86  C   UNL A   1      48.034  26.420  31.997  1.00  0.00     0.012 A 
ATOM     87  C   UNL A   1      46.809  24.878  33.429  1.00  0.00     0.148 A 
ATOM     88  C   UNL A   1      49.238  25.977  32.543  1.00  0.00     0.002 A 
ATOM     89  C   UNL A   1      48.008  24.481  34.005  1.00  0.00     0.091 A 
ATOM     90  F   UNL A   1      45.632  24.363  33.814  1.00  0.00    -0.205 F 
ATOM     91  C   UNL A   1      49.224  25.021  33.555  1.00  0.00     0.022 A 
BRANCH  89  92
ATOM     92  S   UNL A   1      48.084  23.339  35.389  1.00  0.00     0.127 S 
ATOM     93  O   UNL A   1      47.247  24.015  36.379  1.00  0.00    -0.237 OA
ATOM     94  O   UNL A   1      47.496  22.126  34.819  1.00  0.00    -0.237 OA
ATOM     95  O   UNL A   1      49.492  23.223  35.743  1.00  0.00    -0.744 OA
ENDBRANCH  89  92
ENDBRANCH  62  85
ENDBRANCH  36  37
ENDBRANCH  28  31
ENDBRANCH  26  27
ENDBRANCH   1  26
TORSDOF 16
ENDMDL
MODEL 3
REMARK VINA RESULT:     -11.9      2.314      3.099
REMARK SMILES COc1ccc(F)c(NC(=O)N2CCCC[C@@H]2C(=O)NCCCNC(=O)c2ccc(-c3c4nc(c(-c5cccc(S(=O)(=O)[O-])c5F)c5ccc([nH]5)c(-c5cccc(S(=O)(=O)[O-])c5F)c5nc(c(-c6cccc(S(=O)(=O)[O-])c6F)c6ccc3[nH]6)C=C5)C=C4)cc2)c1
REMARK SMILES IDX 22 1 21 2 20 3 18 4 19 5 17 7 12 8 13 9 14 10 16 11 15 12
REMARK SMILES IDX 10 13 9 14 11 16 8 17 3 18 4 19 90 20 5 21 6 22 7 23 2 24
REMARK SMILES IDX 1 25 23 26 24 27 25 28 26 30 27 31 28 32 89 33 29 34 88 35
REMARK SMILES IDX 30 36 31 37 32 38 82 39 33 40 87 41 81 42 83 43 34 44 86 45
REMARK SMILES IDX 80 46 79 47 35 49 67 50 47 51 66 52 48 53 51 54 65 55 84 56
REMARK SMILES IDX 49 57 50 58 64 60 85 61 52 62 36 63 37 64 45 65 38 66 40 67
REMARK SMILES IDX 46 68 39 69 41 70 42 71 43 72 44 73 68 74 69 75 77 76 70 77
REMARK SMILES IDX 72 78 78 79 71 80 73 81 74 82 75 83 76 84 53 85 54 86 62 87
REMARK SMILES IDX 55 88 57 89 63 90 56 91 58 92 59 93 60 94 61 95
REMARK H PARENT 20 6 9 15 24 29 83 48 51 59
REMARK Flexibility Score: inf
ROOT
ATOM      1  C   UNL A   1      31.639  29.073  27.117  1.00  0.00     0.042 C 
ENDROOT
BRANCH   1   2
ATOM      2  C   UNL A   1      31.583  27.604  26.726  1.00  0.00     0.117 C 
BRANCH   2   3
ATOM      3  N   UNL A   1      32.919  27.102  26.459  1.00  0.00    -0.354 N 
ATOM      4  C   UNL A   1      33.299  26.022  25.724  1.00  0.00     0.242 C 
ATOM      5  O   UNL A   1      34.426  25.560  25.928  1.00  0.00    -0.273 OA
ATOM      6  H   UNL A   1      33.653  27.616  26.867  1.00  0.00     0.163 HD
BRANCH   4   7
ATOM      7  C   UNL A   1      32.319  25.320  24.760  1.00  0.00     0.176 C 
ATOM      8  N   UNL A   1      31.915  23.930  25.130  1.00  0.00    -0.313 N 
ATOM      9  C   UNL A   1      31.282  23.134  24.083  1.00  0.00     0.122 C 
ATOM     10  C   UNL A   1      32.001  23.195  22.748  1.00  0.00     0.022 C 
ATOM     11  C   UNL A   1      32.948  25.410  23.351  1.00  0.00     0.035 C 
ATOM     12  C   UNL A   1      32.164  24.639  22.302  1.00  0.00     0.004 C 
BRANCH   8  13
ATOM     13  C   UNL A   1      31.861  23.382  26.396  1.00  0.00     0.322 C 
ATOM     14  N   UNL A   1      32.455  22.204  26.702  1.00  0.00    -0.305 N 
ATOM     15  H   UNL A   1      31.970  21.678  27.379  1.00  0.00     0.171 HD
ATOM     16  O   UNL A   1      31.187  23.911  27.287  1.00  0.00    -0.248 OA
BRANCH  14  17
ATOM     17  C   UNL A   1      33.629  21.587  26.241  1.00  0.00     0.082 A 
ATOM     18  C   UNL A   1      35.984  21.587  25.752  1.00  0.00     0.121 A 
ATOM     19  C   UNL A   1      35.851  20.419  25.001  1.00  0.00     0.049 A 
ATOM     20  C   UNL A   1      34.898  22.117  26.446  1.00  0.00     0.075 A 
ATOM     21  C   UNL A   1      34.607  19.799  24.914  1.00  0.00     0.045 A 
ATOM     22  C   UNL A   1      33.505  20.390  25.526  1.00  0.00     0.147 A 
ATOM     23  F   UNL A   1      32.299  19.818  25.387  1.00  0.00    -0.205 F 
BRANCH  18  24
ATOM     24  O   UNL A   1      37.164  22.276  25.826  1.00  0.00    -0.497 OA
ATOM     25  C   UNL A   1      37.100  23.476  25.047  1.00  0.00     0.278 C 
ENDBRANCH  18  24
ENDBRANCH  14  17
ENDBRANCH   8  13
ENDBRANCH   4   7
ENDBRANCH   2   3
ENDBRANCH   1   2
BRANCH   1  26
ATOM     26  C   UNL A   1      32.709  29.849  26.363  1.00  0.00     0.118 C 
BRANCH  26  27
ATOM     27  N   UNL A   1      32.523  31.288  26.472  1.00  0.00    -0.352 N 
ATOM     28  C   UNL A   1      33.238  32.193  27.218  1.00  0.00     0.251 C 
ATOM     29  H   UNL A   1      31.784  31.663  25.941  1.00  0.00     0.163 HD
ATOM     30  O   UNL A   1      32.820  33.333  27.372  1.00  0.00    -0.269 OA
BRANCH  28  31
ATOM     31  C   UNL A   1      34.510  31.768  27.835  1.00  0.00     0.039 A 
ATOM     32  C   UNL A   1      35.525  32.709  28.016  1.00  0.00     0.014 A 
ATOM     33  C   UNL A   1      34.686  30.446  28.250  1.00  0.00     0.014 A 
ATOM     34  C   UNL A   1      36.703  32.329  28.659  1.00  0.00     0.010 A 
ATOM     35  C   UNL A   1      35.816  30.096  28.976  1.00  0.00     0.010 A 
ATOM     36  C   UNL A   1      36.847  31.028  29.169  1.00  0.00    -0.014 A 
BRANCH  36  37
ATOM     37  C   UNL A   1      38.076  30.610  29.885  1.00  0.00     0.031 A 
ATOM     38  C   UNL A   1      39.030  29.644  29.235  1.00  0.00     0.074 A 
ATOM     39  C   UNL A   1      38.295  31.039  31.144  1.00  0.00     0.049 A 
ATOM     40  N   UNL A   1      40.121  29.115  29.722  1.00  0.00    -0.248 NA
ATOM     41  C   UNL A   1      38.701  29.186  27.873  1.00  0.00     0.031 C 
ATOM     42  C   UNL A   1      37.404  31.916  31.906  1.00  0.00     0.029 A 
ATOM     43  N   UNL A   1      39.326  30.778  32.013  1.00  0.00    -0.354 N 
ATOM     44  C   UNL A   1      40.586  28.241  28.747  1.00  0.00     0.074 A 
ATOM     45  C   UNL A   1      39.640  28.277  27.656  1.00  0.00     0.031 C 
ATOM     46  C   UNL A   1      37.931  32.131  33.121  1.00  0.00     0.029 A 
ATOM     47  C   UNL A   1      39.178  31.379  33.241  1.00  0.00     0.049 A 
ATOM     48  H   UNL A   1      40.097  30.213  31.779  1.00  0.00     0.167 HD
ATOM     49  C   UNL A   1      41.719  27.501  28.746  1.00  0.00     0.034 A 
ATOM     50  C   UNL A   1      39.952  31.325  34.343  1.00  0.00     0.034 A 
ATOM     51  C   UNL A   1      42.685  27.516  29.809  1.00  0.00     0.049 A 
ATOM     52  C   UNL A   1      41.225  30.524  34.300  1.00  0.00     0.074 A 
ATOM     53  C   UNL A   1      43.912  26.879  29.856  1.00  0.00     0.029 A 
ATOM     54  N   UNL A   1      42.536  28.195  31.007  1.00  0.00    -0.354 N 
ATOM     55  N   UNL A   1      41.725  29.825  33.311  1.00  0.00    -0.248 NA
ATOM     56  C   UNL A   1      42.058  30.526  35.513  1.00  0.00     0.031 C 
ATOM     57  C   UNL A   1      44.490  27.143  31.100  1.00  0.00     0.029 A 
ATOM     58  C   UNL A   1      43.640  27.977  31.811  1.00  0.00     0.049 A 
ATOM     59  H   UNL A   1      41.760  28.750  31.250  1.00  0.00     0.167 HD
ATOM     60  C   UNL A   1      42.939  29.327  33.768  1.00  0.00     0.074 A 
ATOM     61  C   UNL A   1      43.112  29.824  35.116  1.00  0.00     0.031 C 
ATOM     62  C   UNL A   1      43.822  28.517  33.133  1.00  0.00     0.034 A 
BRANCH  49  63
ATOM     63  C   UNL A   1      42.017  26.657  27.535  1.00  0.00     0.023 A 
ATOM     64  C   UNL A   1      42.712  27.222  26.447  1.00  0.00     0.012 A 
ATOM     65  C   UNL A   1      41.706  25.283  27.521  1.00  0.00     0.148 A 
ATOM     66  C   UNL A   1      43.079  26.437  25.355  1.00  0.00     0.002 A 
ATOM     67  C   UNL A   1      42.117  24.497  26.451  1.00  0.00     0.091 A 
ATOM     68  F   UNL A   1      41.026  24.771  28.557  1.00  0.00    -0.205 F 
ATOM     69  C   UNL A   1      42.793  25.074  25.364  1.00  0.00     0.022 A 
BRANCH  67  70
ATOM     70  S   UNL A   1      41.881  22.718  26.405  1.00  0.00     0.127 S 
ATOM     71  O   UNL A   1      42.582  22.296  27.618  1.00  0.00    -0.237 OA
ATOM     72  O   UNL A   1      40.425  22.602  26.472  1.00  0.00    -0.237 OA
ATOM     73  O   UNL A   1      42.475  22.261  25.156  1.00  0.00    -0.744 OA
ENDBRANCH  67  70
ENDBRANCH  49  63
BRANCH  50  74
ATOM     74  C   UNL A   1      39.569  32.105  35.554  1.00  0.00     0.023 A 
ATOM     75  C   UNL A   1      39.955  33.455  35.659  1.00  0.00     0.012 A 
ATOM     76  C   UNL A   1      38.778  31.536  36.571  1.00  0.00     0.148 A 
ATOM     77  C   UNL A   1      39.580  34.218  36.766  1.00  0.00     0.002 A 
ATOM     78  C   UNL A   1      38.359  32.316  37.641  1.00  0.00     0.091 A 
ATOM     79  F   UNL A   1      38.430  30.247  36.457  1.00  0.00    -0.205 F 
ATOM     80  C   UNL A   1      38.773  33.654  37.750  1.00  0.00     0.022 A 
BRANCH  78  81
ATOM     81  S   UNL A   1      37.202  31.718  38.880  1.00  0.00     0.127 S 
ATOM     82  O   UNL A   1      37.955  31.918  40.115  1.00  0.00    -0.237 OA
ATOM     83  O   UNL A   1      36.069  32.625  38.694  1.00  0.00    -0.237 OA
ATOM     84  O   UNL A   1      36.927  30.332  38.526  1.00  0.00    -0.744 OA
ENDBRANCH  78  81
ENDBRANCH  50  74
BRANCH  62  85
ATOM     85  C   UNL A   1      45.074  28.117  33.867  1.00  0.00     0.023 A 
ATOM     86  C   UNL A   1      46.180  28.990  33.887  1.00  0.00     0.012 A 
ATOM     87  C   UNL A   1      45.105  26.941  34.646  1.00  0.00     0.148 A 
ATOM     88  C   UNL A   1      47.303  28.690  34.656  1.00  0.00     0.002 A 
ATOM     89  C   UNL A   1      46.206  26.678  35.450  1.00  0.00     0.091 A 
ATOM     90  F   UNL A   1      44.046  26.120  34.602  1.00  0.00    -0.205 F 
ATOM     91  C   UNL A   1      47.310  27.545  35.448  1.00  0.00     0.022 A 
BRANCH  89  92
ATOM     92  S   UNL A   1      46.262  25.287  36.587  1.00  0.00     0.127 S 
ATOM     93  O   UNL A   1      46.333  24.153  35.666  1.00  0.00    -0.237 OA
ATOM     94  O   UNL A   1      47.495  25.547  37.330  1.00  0.00    -0.237 OA
ATOM     95  O   UNL A   1      45.044  25.364  37.382  1.00  0.00    -0.744 OA
ENDBRANCH  89  92
ENDBRANCH  62  85
ENDBRANCH  36  37
ENDBRANCH  28  31
ENDBRANCH  26  27
ENDBRANCH   1  26
TORSDOF 16
ENDMDL
