MODEL 1
REMARK VINA RESULT:     -11.9      0.000      0.000
REMARK SMILES CCc1nn(-c2ccc(Cl)nn2)c(CC)c1CC(=O)NCCCNC(=O)c1ccc(-c2c3nc(c(-c4cccc(S(=O)(=O)[O-])c4F)c4ccc([nH]4)c(-c4cccc(S(=O)(=O)[O-])c4F)c4nc(c(-c5cccc(S(=O)(=O)[O-])c5F)c5ccc2[nH]5)C=C4)C=C3)cc1
REMARK SMILES IDX 22 1 21 2 20 3 18 4 19 5 17 7 16 8 3 9 4 10 5 11 13 12 2 13
REMARK SMILES IDX 1 14 6 15 7 16 12 17 8 18 11 19 9 20 10 21 14 22 15 23 23 24
REMARK SMILES IDX 24 25 25 26 26 28 27 29 28 30 89 31 29 32 88 33 30 34 31 35
REMARK SMILES IDX 32 36 82 37 33 38 87 39 81 40 83 41 34 42 86 43 80 44 79 45
REMARK SMILES IDX 35 47 67 48 47 49 66 50 48 51 51 52 65 53 84 54 49 55 50 56
REMARK SMILES IDX 64 58 85 59 52 60 36 61 37 62 45 63 38 64 40 65 46 66 39 67
REMARK SMILES IDX 41 68 42 69 43 70 44 71 68 72 69 73 77 74 70 75 72 76 78 77
REMARK SMILES IDX 71 78 73 79 74 80 75 81 76 82 53 83 54 84 62 85 55 86 57 87
REMARK SMILES IDX 63 88 56 89 58 90 59 91 60 92 61 93
REMARK H PARENT 20 6 24 27 83 46 51 57
REMARK Flexibility Score: inf
ROOT
ATOM      1  C   UNL A   1      31.286  31.814  26.461  1.00  0.00     0.042 C 
ENDROOT
BRANCH   1   2
ATOM      2  C   UNL A   1      31.635  30.521  25.720  1.00  0.00     0.117 C 
BRANCH   2   3
ATOM      3  N   UNL A   1      32.610  29.684  26.393  1.00  0.00    -0.356 N 
ATOM      4  C   UNL A   1      33.573  28.888  25.835  1.00  0.00     0.224 C 
ATOM      5  O   UNL A   1      34.467  28.446  26.554  1.00  0.00    -0.275 OA
ATOM      6  H   UNL A   1      32.574  29.690  27.377  1.00  0.00     0.163 HD
BRANCH   4   7
ATOM      7  C   UNL A   1      33.554  28.601  24.344  1.00  0.00     0.139 C 
BRANCH   7   8
ATOM      8  C   UNL A   1      32.730  27.400  24.005  1.00  0.00     0.006 A 
ATOM      9  C   UNL A   1      31.467  27.374  23.348  1.00  0.00     0.067 A 
ATOM     10  N   UNL A   1      31.037  26.121  23.157  1.00  0.00    -0.171 NA
ATOM     11  N   UNL A   1      31.979  25.330  23.742  1.00  0.00    -0.217 N 
ATOM     12  C   UNL A   1      33.064  26.068  24.190  1.00  0.00     0.050 A 
BRANCH   9  13
ATOM     13  C   UNL A   1      30.691  28.570  22.877  1.00  0.00     0.055 C 
ATOM     14  C   UNL A   1      29.181  28.499  23.011  1.00  0.00     0.011 C 
ENDBRANCH   9  13
BRANCH  11  15
ATOM     15  C   UNL A   1      31.848  23.918  23.777  1.00  0.00     0.176 A 
ATOM     16  C   UNL A   1      31.316  23.317  24.913  1.00  0.00     0.054 A 
ATOM     17  N   UNL A   1      32.421  23.196  22.786  1.00  0.00    -0.129 NA
ATOM     18  C   UNL A   1      31.467  21.944  25.076  1.00  0.00     0.047 A 
ATOM     19  N   UNL A   1      32.576  21.843  22.951  1.00  0.00    -0.136 NA
ATOM     20  C   UNL A   1      32.131  21.253  24.084  1.00  0.00     0.151 A 
ATOM     21  Cl  UNL A   1      32.486  19.585  24.227  1.00  0.00    -0.060 Cl
ENDBRANCH  11  15
BRANCH  12  22
ATOM     22  C   UNL A   1      34.379  25.471  24.620  1.00  0.00     0.053 C 
ATOM     23  C   UNL A   1      34.356  24.794  25.981  1.00  0.00     0.011 C 
ENDBRANCH  12  22
ENDBRANCH   7   8
ENDBRANCH   4   7
ENDBRANCH   2   3
ENDBRANCH   1   2
BRANCH   1  24
ATOM     24  C   UNL A   1      32.483  32.408  27.179  1.00  0.00     0.118 C 
BRANCH  24  25
ATOM     25  N   UNL A   1      32.303  33.832  27.494  1.00  0.00    -0.352 N 
ATOM     26  C   UNL A   1      32.989  34.617  28.408  1.00  0.00     0.251 C 
ATOM     27  H   UNL A   1      31.598  34.293  26.985  1.00  0.00     0.163 HD
ATOM     28  O   UNL A   1      32.542  35.688  28.776  1.00  0.00    -0.269 OA
BRANCH  26  29
ATOM     29  C   UNL A   1      34.277  34.119  28.923  1.00  0.00     0.039 A 
ATOM     30  C   UNL A   1      34.409  33.580  30.207  1.00  0.00     0.014 A 
ATOM     31  C   UNL A   1      35.353  34.154  28.049  1.00  0.00     0.014 A 
ATOM     32  C   UNL A   1      35.627  33.003  30.566  1.00  0.00     0.010 A 
ATOM     33  C   UNL A   1      36.445  33.385  28.310  1.00  0.00     0.010 A 
ATOM     34  C   UNL A   1      36.633  32.901  29.599  1.00  0.00    -0.014 A 
BRANCH  34  35
ATOM     35  C   UNL A   1      37.898  32.225  29.847  1.00  0.00     0.031 A 
ATOM     36  C   UNL A   1      37.958  30.829  29.339  1.00  0.00     0.074 A 
ATOM     37  C   UNL A   1      38.991  32.943  30.198  1.00  0.00     0.049 A 
ATOM     38  N   UNL A   1      38.110  29.740  30.019  1.00  0.00    -0.248 NA
ATOM     39  C   UNL A   1      37.658  30.601  27.915  1.00  0.00     0.031 C 
ATOM     40  C   UNL A   1      39.088  34.404  30.363  1.00  0.00     0.029 A 
ATOM     41  N   UNL A   1      40.289  32.554  30.284  1.00  0.00    -0.354 N 
ATOM     42  C   UNL A   1      38.189  28.723  29.068  1.00  0.00     0.074 A 
ATOM     43  C   UNL A   1      37.650  29.269  27.853  1.00  0.00     0.031 C 
ATOM     44  C   UNL A   1      40.374  34.789  30.238  1.00  0.00     0.029 A 
ATOM     45  C   UNL A   1      41.203  33.603  30.175  1.00  0.00     0.049 A 
ATOM     46  H   UNL A   1      40.562  31.616  30.412  1.00  0.00     0.167 HD
ATOM     47  C   UNL A   1      38.973  27.626  29.270  1.00  0.00     0.034 A 
ATOM     48  C   UNL A   1      42.540  33.500  29.982  1.00  0.00     0.034 A 
ATOM     49  C   UNL A   1      39.374  27.524  30.652  1.00  0.00     0.049 A 
ATOM     50  C   UNL A   1      42.926  32.120  30.348  1.00  0.00     0.074 A 
ATOM     51  C   UNL A   1      38.712  27.445  31.861  1.00  0.00     0.029 A 
ATOM     52  N   UNL A   1      40.660  27.907  30.949  1.00  0.00    -0.354 N 
ATOM     53  N   UNL A   1      42.836  31.647  31.559  1.00  0.00    -0.248 NA
ATOM     54  C   UNL A   1      42.980  31.128  29.288  1.00  0.00     0.031 C 
ATOM     55  C   UNL A   1      39.489  28.241  32.754  1.00  0.00     0.029 A 
ATOM     56  C   UNL A   1      40.617  28.694  32.068  1.00  0.00     0.049 A 
ATOM     57  H   UNL A   1      41.470  27.660  30.445  1.00  0.00     0.167 HD
ATOM     58  C   UNL A   1      42.349  30.358  31.386  1.00  0.00     0.074 A 
ATOM     59  C   UNL A   1      42.578  30.054  29.974  1.00  0.00     0.031 C 
ATOM     60  C   UNL A   1      41.534  29.784  32.322  1.00  0.00     0.034 A 
BRANCH  47  61
ATOM     61  C   UNL A   1      39.718  26.871  28.185  1.00  0.00     0.023 A 
ATOM     62  C   UNL A   1      39.512  25.473  28.122  1.00  0.00     0.012 A 
ATOM     63  C   UNL A   1      40.793  27.386  27.423  1.00  0.00     0.148 A 
ATOM     64  C   UNL A   1      40.368  24.631  27.400  1.00  0.00     0.002 A 
ATOM     65  C   UNL A   1      41.591  26.556  26.641  1.00  0.00     0.091 A 
ATOM     66  F   UNL A   1      41.156  28.664  27.541  1.00  0.00    -0.205 F 
ATOM     67  C   UNL A   1      41.405  25.174  26.654  1.00  0.00     0.022 A 
BRANCH  65  68
ATOM     68  S   UNL A   1      42.915  27.220  25.622  1.00  0.00     0.127 S 
ATOM     69  O   UNL A   1      43.805  27.784  26.631  1.00  0.00    -0.237 OA
ATOM     70  O   UNL A   1      43.411  26.017  24.956  1.00  0.00    -0.237 OA
ATOM     71  O   UNL A   1      42.278  28.177  24.723  1.00  0.00    -0.744 OA
ENDBRANCH  65  68
ENDBRANCH  47  61
BRANCH  48  72
ATOM     72  C   UNL A   1      43.465  34.414  29.274  1.00  0.00     0.023 A 
ATOM     73  C   UNL A   1      44.143  35.419  29.990  1.00  0.00     0.012 A 
ATOM     74  C   UNL A   1      43.891  34.129  27.958  1.00  0.00     0.148 A 
ATOM     75  C   UNL A   1      45.229  36.100  29.424  1.00  0.00     0.002 A 
ATOM     76  C   UNL A   1      44.967  34.811  27.397  1.00  0.00     0.091 A 
ATOM     77  F   UNL A   1      43.297  33.129  27.293  1.00  0.00    -0.205 F 
ATOM     78  C   UNL A   1      45.647  35.791  28.132  1.00  0.00     0.022 A 
BRANCH  76  79
ATOM     79  S   UNL A   1      45.585  34.441  25.750  1.00  0.00     0.127 S 
ATOM     80  O   UNL A   1      46.547  35.523  25.539  1.00  0.00    -0.237 OA
ATOM     81  O   UNL A   1      46.179  33.121  25.941  1.00  0.00    -0.237 OA
ATOM     82  O   UNL A   1      44.423  34.487  24.872  1.00  0.00    -0.744 OA
ENDBRANCH  76  79
ENDBRANCH  48  72
BRANCH  60  83
ATOM     83  C   UNL A   1      41.382  30.483  33.652  1.00  0.00     0.023 A 
ATOM     84  C   UNL A   1      42.359  30.407  34.668  1.00  0.00     0.012 A 
ATOM     85  C   UNL A   1      40.315  31.380  33.810  1.00  0.00     0.148 A 
ATOM     86  C   UNL A   1      42.263  31.192  35.820  1.00  0.00     0.002 A 
ATOM     87  C   UNL A   1      40.246  32.194  34.934  1.00  0.00     0.091 A 
ATOM     88  F   UNL A   1      39.395  31.446  32.836  1.00  0.00    -0.205 F 
ATOM     89  C   UNL A   1      41.213  32.098  35.947  1.00  0.00     0.022 A 
BRANCH  87  90
ATOM     90  S   UNL A   1      38.993  33.468  35.089  1.00  0.00     0.127 S 
ATOM     91  O   UNL A   1      39.342  34.083  36.367  1.00  0.00    -0.237 OA
ATOM     92  O   UNL A   1      39.247  34.305  33.916  1.00  0.00    -0.237 OA
ATOM     93  O   UNL A   1      37.713  32.773  35.054  1.00  0.00    -0.744 OA
ENDBRANCH  87  90
ENDBRANCH  60  83
ENDBRANCH  34  35
ENDBRANCH  26  29
ENDBRANCH  24  25
ENDBRANCH   1  24
TORSDOF 17
ENDMDL
MODEL 2
REMARK VINA RESULT:     -11.9      4.297      9.648
REMARK SMILES CCc1nn(-c2ccc(Cl)nn2)c(CC)c1CC(=O)NCCCNC(=O)c1ccc(-c2c3nc(c(-c4cccc(S(=O)(=O)[O-])c4F)c4ccc([nH]4)c(-c4cccc(S(=O)(=O)[O-])c4F)c4nc(c(-c5cccc(S(=O)(=O)[O-])c5F)c5ccc2[nH]5)C=C4)C=C3)cc1
REMARK SMILES IDX 22 1 21 2 20 3 18 4 19 5 17 7 16 8 3 9 4 10 5 11 13 12 2 13
REMARK SMILES IDX 1 14 6 15 7 16 12 17 8 18 11 19 9 20 10 21 14 22 15 23 23 24
REMARK SMILES IDX 24 25 25 26 26 28 27 29 28 30 89 31 29 32 88 33 30 34 31 35
REMARK SMILES IDX 32 36 82 37 33 38 87 39 81 40 83 41 34 42 86 43 80 44 79 45
REMARK SMILES IDX 35 47 67 48 47 49 66 50 48 51 51 52 65 53 84 54 49 55 50 56
REMARK SMILES IDX 64 58 85 59 52 60 36 61 37 62 45 63 38 64 40 65 46 66 39 67
REMARK SMILES IDX 41 68 42 69 43 70 44 71 68 72 69 73 77 74 70 75 72 76 78 77
REMARK SMILES IDX 71 78 73 79 74 80 75 81 76 82 53 83 54 84 62 85 55 86 57 87
REMARK SMILES IDX 63 88 56 89 58 90 59 91 60 92 61 93
REMARK H PARENT 20 6 24 27 83 46 51 57
REMARK Flexibility Score: inf
ROOT
ATOM      1  C   UNL A   1      37.578  19.654  25.012  1.00  0.00     0.042 C 
ENDROOT
BRANCH   1   2
ATOM      2  C   UNL A   1      36.424  20.572  25.425  1.00  0.00     0.117 C 
BRANCH   2   3
ATOM      3  N   UNL A   1      35.140  20.223  24.848  1.00  0.00    -0.356 N 
ATOM      4  C   UNL A   1      33.966  20.925  24.905  1.00  0.00     0.224 C 
ATOM      5  O   UNL A   1      33.047  20.605  24.153  1.00  0.00    -0.275 OA
ATOM      6  H   UNL A   1      35.109  19.373  24.352  1.00  0.00     0.163 HD
BRANCH   4   7
ATOM      7  C   UNL A   1      33.830  22.105  25.850  1.00  0.00     0.139 C 
BRANCH   7   8
ATOM      8  C   UNL A   1      33.737  23.410  25.125  1.00  0.00     0.006 A 
ATOM      9  C   UNL A   1      34.794  24.133  24.503  1.00  0.00     0.067 A 
ATOM     10  N   UNL A   1      34.346  25.239  23.900  1.00  0.00    -0.171 NA
ATOM     11  N   UNL A   1      33.013  25.280  24.176  1.00  0.00    -0.217 N 
ATOM     12  C   UNL A   1      32.592  24.140  24.845  1.00  0.00     0.050 A 
BRANCH   9  13
ATOM     13  C   UNL A   1      36.240  23.729  24.469  1.00  0.00     0.055 C 
ATOM     14  C   UNL A   1      36.747  23.115  23.177  1.00  0.00     0.011 C 
ENDBRANCH   9  13
BRANCH  11  15
ATOM     15  C   UNL A   1      32.192  26.346  23.731  1.00  0.00     0.176 A 
ATOM     16  C   UNL A   1      31.709  27.262  24.659  1.00  0.00     0.054 A 
ATOM     17  N   UNL A   1      31.750  26.323  22.450  1.00  0.00    -0.129 NA
ATOM     18  C   UNL A   1      30.673  28.112  24.284  1.00  0.00     0.047 A 
ATOM     19  N   UNL A   1      30.724  27.157  22.084  1.00  0.00    -0.136 NA
ATOM     20  C   UNL A   1      30.192  28.002  22.996  1.00  0.00     0.151 A 
ATOM     21  Cl  UNL A   1      28.844  28.906  22.455  1.00  0.00    -0.060 Cl
ENDBRANCH  11  15
BRANCH  12  22
ATOM     22  C   UNL A   1      31.149  23.753  25.042  1.00  0.00     0.053 C 
ATOM     23  C   UNL A   1      30.584  24.083  26.414  1.00  0.00     0.011 C 
ENDBRANCH  12  22
ENDBRANCH   7   8
ENDBRANCH   4   7
ENDBRANCH   2   3
ENDBRANCH   1   2
BRANCH   1  24
ATOM     24  C   UNL A   1      38.928  20.197  25.440  1.00  0.00     0.118 C 
BRANCH  24  25
ATOM     25  N   UNL A   1      39.909  19.134  25.698  1.00  0.00    -0.352 N 
ATOM     26  C   UNL A   1      41.246  19.245  26.048  1.00  0.00     0.251 C 
ATOM     27  H   UNL A   1      39.569  18.214  25.610  1.00  0.00     0.163 HD
ATOM     28  O   UNL A   1      42.004  18.300  25.938  1.00  0.00    -0.269 OA
BRANCH  26  29
ATOM     29  C   UNL A   1      41.723  20.543  26.560  1.00  0.00     0.039 A 
ATOM     30  C   UNL A   1      42.302  21.506  25.727  1.00  0.00     0.014 A 
ATOM     31  C   UNL A   1      41.519  20.794  27.908  1.00  0.00     0.014 A 
ATOM     32  C   UNL A   1      42.598  22.759  26.261  1.00  0.00     0.010 A 
ATOM     33  C   UNL A   1      41.582  22.076  28.361  1.00  0.00     0.010 A 
ATOM     34  C   UNL A   1      42.219  23.034  27.580  1.00  0.00    -0.014 A 
BRANCH  34  35
ATOM     35  C   UNL A   1      42.392  24.342  28.193  1.00  0.00     0.031 A 
ATOM     36  C   UNL A   1      41.254  25.276  27.979  1.00  0.00     0.074 A 
ATOM     37  C   UNL A   1      43.346  24.527  29.136  1.00  0.00     0.049 A 
ATOM     38  N   UNL A   1      41.259  26.407  27.354  1.00  0.00    -0.248 NA
ATOM     39  C   UNL A   1      39.909  24.824  28.378  1.00  0.00     0.031 C 
ATOM     40  C   UNL A   1      44.284  23.522  29.669  1.00  0.00     0.029 A 
ATOM     41  N   UNL A   1      43.551  25.584  29.962  1.00  0.00    -0.354 N 
ATOM     42  C   UNL A   1      39.973  26.922  27.518  1.00  0.00     0.074 A 
ATOM     43  C   UNL A   1      39.146  25.814  27.910  1.00  0.00     0.031 C 
ATOM     44  C   UNL A   1      44.730  23.918  30.878  1.00  0.00     0.029 A 
ATOM     45  C   UNL A   1      44.265  25.268  31.119  1.00  0.00     0.049 A 
ATOM     46  H   UNL A   1      43.225  26.492  29.765  1.00  0.00     0.167 HD
ATOM     47  C   UNL A   1      39.758  28.263  27.624  1.00  0.00     0.034 A 
ATOM     48  C   UNL A   1      44.410  26.041  32.223  1.00  0.00     0.034 A 
ATOM     49  C   UNL A   1      40.918  29.009  27.204  1.00  0.00     0.049 A 
ATOM     50  C   UNL A   1      44.069  27.425  31.829  1.00  0.00     0.074 A 
ATOM     51  C   UNL A   1      41.672  29.080  26.049  1.00  0.00     0.029 A 
ATOM     52  N   UNL A   1      41.702  29.539  28.200  1.00  0.00    -0.354 N 
ATOM     53  N   UNL A   1      44.765  28.121  30.975  1.00  0.00    -0.248 NA
ATOM     54  C   UNL A   1      42.702  27.872  32.038  1.00  0.00     0.031 C 
ATOM     55  C   UNL A   1      43.020  29.199  26.500  1.00  0.00     0.029 A 
ATOM     56  C   UNL A   1      43.009  29.274  27.894  1.00  0.00     0.049 A 
ATOM     57  H   UNL A   1      41.380  30.024  28.994  1.00  0.00     0.167 HD
ATOM     58  C   UNL A   1      43.809  28.771  30.204  1.00  0.00     0.074 A 
ATOM     59  C   UNL A   1      42.573  28.681  30.982  1.00  0.00     0.031 C 
ATOM     60  C   UNL A   1      44.039  29.045  28.886  1.00  0.00     0.034 A 
BRANCH  47  61
ATOM     61  C   UNL A   1      38.680  28.913  28.473  1.00  0.00     0.023 A 
ATOM     62  C   UNL A   1      37.847  29.861  27.833  1.00  0.00     0.012 A 
ATOM     63  C   UNL A   1      38.613  28.863  29.884  1.00  0.00     0.148 A 
ATOM     64  C   UNL A   1      37.049  30.753  28.560  1.00  0.00     0.002 A 
ATOM     65  C   UNL A   1      37.757  29.695  30.599  1.00  0.00     0.091 A 
ATOM     66  F   UNL A   1      39.470  28.111  30.577  1.00  0.00    -0.205 F 
ATOM     67  C   UNL A   1      37.000  30.666  29.945  1.00  0.00     0.022 A 
BRANCH  65  68
ATOM     68  S   UNL A   1      37.624  29.585  32.390  1.00  0.00     0.127 S 
ATOM     69  O   UNL A   1      38.858  30.239  32.813  1.00  0.00    -0.237 OA
ATOM     70  O   UNL A   1      36.398  30.341  32.645  1.00  0.00    -0.237 OA
ATOM     71  O   UNL A   1      37.519  28.161  32.690  1.00  0.00    -0.744 OA
ENDBRANCH  65  68
ENDBRANCH  47  61
BRANCH  48  72
ATOM     72  C   UNL A   1      44.574  25.644  33.639  1.00  0.00     0.023 A 
ATOM     73  C   UNL A   1      45.849  25.298  34.128  1.00  0.00     0.012 A 
ATOM     74  C   UNL A   1      43.539  25.866  34.574  1.00  0.00     0.148 A 
ATOM     75  C   UNL A   1      46.093  25.205  35.504  1.00  0.00     0.002 A 
ATOM     76  C   UNL A   1      43.783  25.768  35.940  1.00  0.00     0.091 A 
ATOM     77  F   UNL A   1      42.340  26.260  34.123  1.00  0.00    -0.205 F 
ATOM     78  C   UNL A   1      45.064  25.448  36.411  1.00  0.00     0.022 A 
BRANCH  76  79
ATOM     79  S   UNL A   1      42.514  26.101  37.169  1.00  0.00     0.127 S 
ATOM     80  O   UNL A   1      42.064  27.439  36.782  1.00  0.00    -0.237 OA
ATOM     81  O   UNL A   1      41.554  25.032  36.908  1.00  0.00    -0.237 OA
ATOM     82  O   UNL A   1      43.187  26.041  38.459  1.00  0.00    -0.744 OA
ENDBRANCH  76  79
ENDBRANCH  48  72
BRANCH  60  83
ATOM     83  C   UNL A   1      45.439  28.852  28.355  1.00  0.00     0.023 A 
ATOM     84  C   UNL A   1      46.470  29.793  28.568  1.00  0.00     0.012 A 
ATOM     85  C   UNL A   1      45.767  27.611  27.786  1.00  0.00     0.148 A 
ATOM     86  C   UNL A   1      47.790  29.511  28.204  1.00  0.00     0.002 A 
ATOM     87  C   UNL A   1      47.086  27.315  27.470  1.00  0.00     0.091 A 
ATOM     88  F   UNL A   1      44.779  26.725  27.594  1.00  0.00    -0.205 F 
ATOM     89  C   UNL A   1      48.101  28.264  27.668  1.00  0.00     0.022 A 
BRANCH  87  90
ATOM     90  S   UNL A   1      47.565  25.683  26.900  1.00  0.00     0.127 S 
ATOM     91  O   UNL A   1      46.855  25.585  25.627  1.00  0.00    -0.237 OA
ATOM     92  O   UNL A   1      49.019  25.803  26.784  1.00  0.00    -0.237 OA
ATOM     93  O   UNL A   1      47.128  24.755  27.936  1.00  0.00    -0.744 OA
ENDBRANCH  87  90
ENDBRANCH  60  83
ENDBRANCH  34  35
ENDBRANCH  26  29
ENDBRANCH  24  25
ENDBRANCH   1  24
TORSDOF 17
ENDMDL
MODEL 3
REMARK VINA RESULT:     -11.7      4.646      9.618
REMARK SMILES CCc1nn(-c2ccc(Cl)nn2)c(CC)c1CC(=O)NCCCNC(=O)c1ccc(-c2c3nc(c(-c4cccc(S(=O)(=O)[O-])c4F)c4ccc([nH]4)c(-c4cccc(S(=O)(=O)[O-])c4F)c4nc(c(-c5cccc(S(=O)(=O)[O-])c5F)c5ccc2[nH]5)C=C4)C=C3)cc1
REMARK SMILES IDX 22 1 21 2 20 3 18 4 19 5 17 7 16 8 3 9 4 10 5 11 13 12 2 13
REMARK SMILES IDX 1 14 6 15 7 16 12 17 8 18 11 19 9 20 10 21 14 22 15 23 23 24
REMARK SMILES IDX 24 25 25 26 26 28 27 29 28 30 89 31 29 32 88 33 30 34 31 35
REMARK SMILES IDX 32 36 82 37 33 38 87 39 81 40 83 41 34 42 86 43 80 44 79 45
REMARK SMILES IDX 35 47 67 48 47 49 66 50 48 51 51 52 65 53 84 54 49 55 50 56
REMARK SMILES IDX 64 58 85 59 52 60 36 61 37 62 45 63 38 64 40 65 46 66 39 67
REMARK SMILES IDX 41 68 42 69 43 70 44 71 68 72 69 73 77 74 70 75 72 76 78 77
REMARK SMILES IDX 71 78 73 79 74 80 75 81 76 82 53 83 54 84 62 85 55 86 57 87
REMARK SMILES IDX 63 88 56 89 58 90 59 91 60 92 61 93
REMARK H PARENT 20 6 24 27 83 46 51 57
REMARK Flexibility Score: inf
ROOT
ATOM      1  C   UNL A   1      37.522  19.587  25.004  1.00  0.00     0.042 C 
ENDROOT
BRANCH   1   2
ATOM      2  C   UNL A   1      36.436  20.666  25.001  1.00  0.00     0.117 C 
BRANCH   2   3
ATOM      3  N   UNL A   1      36.929  22.018  25.181  1.00  0.00    -0.356 N 
ATOM      4  C   UNL A   1      36.300  23.196  24.883  1.00  0.00     0.224 C 
ATOM      5  O   UNL A   1      36.763  24.245  25.331  1.00  0.00    -0.275 OA
ATOM      6  H   UNL A   1      37.831  22.098  25.568  1.00  0.00     0.163 HD
BRANCH   4   7
ATOM      7  C   UNL A   1      35.030  23.193  24.053  1.00  0.00     0.139 C 
BRANCH   7   8
ATOM      8  C   UNL A   1      33.978  24.095  24.615  1.00  0.00     0.006 A 
ATOM      9  C   UNL A   1      33.468  24.109  25.943  1.00  0.00     0.067 A 
ATOM     10  N   UNL A   1      32.568  25.084  26.116  1.00  0.00    -0.171 NA
ATOM     11  N   UNL A   1      32.438  25.667  24.892  1.00  0.00    -0.217 N 
ATOM     12  C   UNL A   1      33.342  25.149  23.976  1.00  0.00     0.050 A 
BRANCH   9  13
ATOM     13  C   UNL A   1      33.881  23.192  27.058  1.00  0.00     0.055 C 
ATOM     14  C   UNL A   1      33.299  21.790  27.039  1.00  0.00     0.011 C 
ENDBRANCH   9  13
BRANCH  11  15
ATOM     15  C   UNL A   1      31.529  26.732  24.667  1.00  0.00     0.176 A 
ATOM     16  C   UNL A   1      30.341  26.476  23.990  1.00  0.00     0.054 A 
ATOM     17  N   UNL A   1      31.936  27.992  24.947  1.00  0.00    -0.129 NA
ATOM     18  C   UNL A   1      29.603  27.550  23.505  1.00  0.00     0.047 A 
ATOM     19  N   UNL A   1      31.211  29.051  24.462  1.00  0.00    -0.136 NA
ATOM     20  C   UNL A   1      30.092  28.818  23.737  1.00  0.00     0.151 A 
ATOM     21  Cl  UNL A   1      29.341  30.210  23.087  1.00  0.00    -0.060 Cl
ENDBRANCH  11  15
BRANCH  12  22
ATOM     22  C   UNL A   1      33.642  25.766  22.635  1.00  0.00     0.053 C 
ATOM     23  C   UNL A   1      32.858  25.177  21.474  1.00  0.00     0.011 C 
ENDBRANCH  12  22
ENDBRANCH   7   8
ENDBRANCH   4   7
ENDBRANCH   2   3
ENDBRANCH   1   2
BRANCH   1  24
ATOM     24  C   UNL A   1      38.862  20.118  25.478  1.00  0.00     0.118 C 
BRANCH  24  25
ATOM     25  N   UNL A   1      39.866  19.057  25.638  1.00  0.00    -0.352 N 
ATOM     26  C   UNL A   1      41.215  19.169  25.936  1.00  0.00     0.251 C 
ATOM     27  H   UNL A   1      39.533  18.138  25.518  1.00  0.00     0.163 HD
ATOM     28  O   UNL A   1      41.980  18.242  25.745  1.00  0.00    -0.269 OA
BRANCH  26  29
ATOM     29  C   UNL A   1      41.699  20.446  26.493  1.00  0.00     0.039 A 
ATOM     30  C   UNL A   1      42.376  21.390  25.714  1.00  0.00     0.014 A 
ATOM     31  C   UNL A   1      41.400  20.699  27.823  1.00  0.00     0.014 A 
ATOM     32  C   UNL A   1      42.676  22.629  26.279  1.00  0.00     0.010 A 
ATOM     33  C   UNL A   1      41.475  21.976  28.288  1.00  0.00     0.010 A 
ATOM     34  C   UNL A   1      42.206  22.912  27.567  1.00  0.00    -0.014 A 
BRANCH  34  35
ATOM     35  C   UNL A   1      42.378  24.210  28.201  1.00  0.00     0.031 A 
ATOM     36  C   UNL A   1      41.247  25.152  27.990  1.00  0.00     0.074 A 
ATOM     37  C   UNL A   1      43.324  24.377  29.155  1.00  0.00     0.049 A 
ATOM     38  N   UNL A   1      41.262  26.292  27.382  1.00  0.00    -0.248 NA
ATOM     39  C   UNL A   1      39.897  24.701  28.370  1.00  0.00     0.031 C 
ATOM     40  C   UNL A   1      44.254  23.360  29.681  1.00  0.00     0.029 A 
ATOM     41  N   UNL A   1      43.527  25.421  29.999  1.00  0.00    -0.354 N 
ATOM     42  C   UNL A   1      39.977  26.810  27.542  1.00  0.00     0.074 A 
ATOM     43  C   UNL A   1      39.142  25.700  27.910  1.00  0.00     0.031 C 
ATOM     44  C   UNL A   1      44.691  23.736  30.900  1.00  0.00     0.029 A 
ATOM     45  C   UNL A   1      44.229  25.084  31.157  1.00  0.00     0.049 A 
ATOM     46  H   UNL A   1      43.207  26.333  29.812  1.00  0.00     0.167 HD
ATOM     47  C   UNL A   1      39.767  28.151  27.666  1.00  0.00     0.034 A 
ATOM     48  C   UNL A   1      44.367  25.840  32.273  1.00  0.00     0.034 A 
ATOM     49  C   UNL A   1      40.934  28.898  27.268  1.00  0.00     0.049 A 
ATOM     50  C   UNL A   1      44.035  27.232  31.897  1.00  0.00     0.074 A 
ATOM     51  C   UNL A   1      41.699  28.983  26.121  1.00  0.00     0.029 A 
ATOM     52  N   UNL A   1      41.711  29.410  28.279  1.00  0.00    -0.354 N 
ATOM     53  N   UNL A   1      44.742  27.937  31.060  1.00  0.00    -0.248 NA
ATOM     54  C   UNL A   1      42.669  27.681  32.100  1.00  0.00     0.031 C 
ATOM     55  C   UNL A   1      43.043  29.089  26.586  1.00  0.00     0.029 A 
ATOM     56  C   UNL A   1      43.020  29.143  27.981  1.00  0.00     0.049 A 
ATOM     57  H   UNL A   1      41.384  29.884  29.077  1.00  0.00     0.167 HD
ATOM     58  C   UNL A   1      43.796  28.602  30.291  1.00  0.00     0.074 A 
ATOM     59  C   UNL A   1      42.553  28.506  31.056  1.00  0.00     0.031 C 
ATOM     60  C   UNL A   1      44.039  28.895  28.978  1.00  0.00     0.034 A 
BRANCH  47  61
ATOM     61  C   UNL A   1      38.684  28.793  28.514  1.00  0.00     0.023 A 
ATOM     62  C   UNL A   1      37.826  29.713  27.868  1.00  0.00     0.012 A 
ATOM     63  C   UNL A   1      38.631  28.765  29.927  1.00  0.00     0.148 A 
ATOM     64  C   UNL A   1      37.017  30.601  28.588  1.00  0.00     0.002 A 
ATOM     65  C   UNL A   1      37.765  29.591  30.637  1.00  0.00     0.091 A 
ATOM     66  F   UNL A   1      39.509  28.042  30.624  1.00  0.00    -0.205 F 
ATOM     67  C   UNL A   1      36.982  30.536  29.975  1.00  0.00     0.022 A 
BRANCH  65  68
ATOM     68  S   UNL A   1      37.652  29.508  32.430  1.00  0.00     0.127 S 
ATOM     69  O   UNL A   1      36.454  30.302  32.683  1.00  0.00    -0.237 OA
ATOM     70  O   UNL A   1      37.505  28.070  32.654  1.00  0.00    -0.237 OA
ATOM     71  O   UNL A   1      38.905  30.063  32.930  1.00  0.00    -0.744 OA
ENDBRANCH  65  68
ENDBRANCH  47  61
BRANCH  48  72
ATOM     72  C   UNL A   1      44.516  25.421  33.685  1.00  0.00     0.023 A 
ATOM     73  C   UNL A   1      43.377  25.288  34.502  1.00  0.00     0.012 A 
ATOM     74  C   UNL A   1      45.739  24.889  34.152  1.00  0.00     0.148 A 
ATOM     75  C   UNL A   1      43.446  24.622  35.732  1.00  0.00     0.002 A 
ATOM     76  C   UNL A   1      45.804  24.231  35.377  1.00  0.00     0.091 A 
ATOM     77  F   UNL A   1      46.813  24.950  33.354  1.00  0.00    -0.205 F 
ATOM     78  C   UNL A   1      44.656  24.086  36.166  1.00  0.00     0.022 A 
BRANCH  76  79
ATOM     79  S   UNL A   1      47.322  23.484  35.986  1.00  0.00     0.127 S 
ATOM     80  O   UNL A   1      47.622  22.511  34.934  1.00  0.00    -0.237 OA
ATOM     81  O   UNL A   1      48.224  24.632  36.034  1.00  0.00    -0.237 OA
ATOM     82  O   UNL A   1      46.984  22.895  37.274  1.00  0.00    -0.744 OA
ENDBRANCH  76  79
ENDBRANCH  48  72
BRANCH  60  83
ATOM     83  C   UNL A   1      45.444  28.704  28.458  1.00  0.00     0.023 A 
ATOM     84  C   UNL A   1      45.923  27.457  28.002  1.00  0.00     0.012 A 
ATOM     85  C   UNL A   1      46.236  29.845  28.256  1.00  0.00     0.148 A 
ATOM     86  C   UNL A   1      47.170  27.348  27.380  1.00  0.00     0.002 A 
ATOM     87  C   UNL A   1      47.453  29.742  27.595  1.00  0.00     0.091 A 
ATOM     88  F   UNL A   1      45.767  31.024  28.690  1.00  0.00    -0.205 F 
ATOM     89  C   UNL A   1      47.930  28.494  27.163  1.00  0.00     0.022 A 
BRANCH  87  90
ATOM     90  S   UNL A   1      48.411  31.198  27.172  1.00  0.00     0.127 S 
ATOM     91  O   UNL A   1      48.702  31.764  28.487  1.00  0.00    -0.237 OA
ATOM     92  O   UNL A   1      49.567  30.625  26.481  1.00  0.00    -0.237 OA
ATOM     93  O   UNL A   1      47.550  32.006  26.316  1.00  0.00    -0.744 OA
ENDBRANCH  87  90
ENDBRANCH  60  83
ENDBRANCH  34  35
ENDBRANCH  26  29
ENDBRANCH  24  25
ENDBRANCH   1  24
TORSDOF 17
ENDMDL
