MODEL 1
REMARK VINA RESULT:     -12.5      0.000      0.000
REMARK SMILES CC[C@](C)(NC(=O)c1cccc2ncccc12)C(=O)NCCCNC(=O)c1ccc(-c2c3nc(c(-c4cccc(S(=O)(=O)[O-])c4F)c4ccc([nH]4)c(-c4cccc(S(=O)(=O)[O-])c4F)c4nc(c(-c5cccc(S(=O)(=O)[O-])c5F)c5ccc2[nH]5)C=C4)C=C3)cc1
REMARK SMILES IDX 22 1 21 2 20 3 18 4 19 5 3 7 4 8 2 9 1 10 5 11 6 12 7 14
REMARK SMILES IDX 8 15 9 16 17 17 10 18 12 19 16 20 11 21 13 22 15 23 14 24
REMARK SMILES IDX 23 25 24 26 25 27 26 29 27 30 28 31 89 32 29 33 88 34 30 35
REMARK SMILES IDX 31 36 32 37 82 38 33 39 87 40 81 41 83 42 34 43 86 44 80 45
REMARK SMILES IDX 79 46 35 48 67 49 47 50 66 51 48 52 51 53 65 54 84 55 49 56
REMARK SMILES IDX 50 57 64 59 85 60 52 61 36 62 37 63 45 64 38 65 40 66 46 67
REMARK SMILES IDX 39 68 41 69 42 70 43 71 44 72 68 73 69 74 77 75 70 76 72 77
REMARK SMILES IDX 78 78 71 79 73 80 74 81 75 82 76 83 53 84 54 85 62 86 55 87
REMARK SMILES IDX 57 88 63 89 56 90 58 91 59 92 60 93 61 94
REMARK H PARENT 20 6 5 13 24 28 83 47 51 58
REMARK Flexibility Score: inf
ROOT
ATOM      1  C   UNL A   1      31.800  28.895  27.080  1.00  0.00     0.042 C 
ENDROOT
BRANCH   1   2
ATOM      2  C   UNL A   1      31.346  27.683  26.258  1.00  0.00     0.117 C 
BRANCH   2   3
ATOM      3  N   UNL A   1      31.260  27.802  24.807  1.00  0.00    -0.354 N 
ATOM      4  C   UNL A   1      31.628  26.997  23.757  1.00  0.00     0.245 C 
ATOM      5  O   UNL A   1      31.248  27.364  22.638  1.00  0.00    -0.272 OA
ATOM      6  H   UNL A   1      30.845  28.646  24.516  1.00  0.00     0.163 HD
BRANCH   4   7
ATOM      7  C   UNL A   1      32.411  25.663  23.933  1.00  0.00     0.116 C 
ATOM      8  C   UNL A   1      31.813  24.778  25.045  1.00  0.00     0.045 C 
BRANCH   7   9
ATOM      9  C   UNL A   1      33.855  26.083  24.382  1.00  0.00     0.035 C 
ATOM     10  C   UNL A   1      34.264  25.637  25.793  1.00  0.00     0.007 C 
ENDBRANCH   7   9
BRANCH   7  11
ATOM     11  N   UNL A   1      32.490  24.821  22.698  1.00  0.00    -0.338 N 
ATOM     12  C   UNL A   1      33.129  23.631  22.357  1.00  0.00     0.252 C 
ATOM     13  H   UNL A   1      31.968  25.195  21.953  1.00  0.00     0.164 HD
ATOM     14  O   UNL A   1      33.397  23.529  21.158  1.00  0.00    -0.269 OA
BRANCH  12  15
ATOM     15  C   UNL A   1      33.422  22.469  23.286  1.00  0.00     0.049 A 
ATOM     16  C   UNL A   1      32.472  21.463  23.410  1.00  0.00     0.014 A 
ATOM     17  C   UNL A   1      34.699  22.214  23.883  1.00  0.00     0.013 A 
ATOM     18  C   UNL A   1      32.643  20.313  24.164  1.00  0.00     0.003 A 
ATOM     19  C   UNL A   1      34.884  21.012  24.632  1.00  0.00     0.071 A 
ATOM     20  C   UNL A   1      35.859  23.015  23.773  1.00  0.00     0.013 A 
ATOM     21  C   UNL A   1      33.854  20.109  24.783  1.00  0.00     0.029 A 
ATOM     22  N   UNL A   1      36.037  20.633  25.190  1.00  0.00    -0.256 NA
ATOM     23  C   UNL A   1      37.077  22.602  24.315  1.00  0.00     0.021 A 
ATOM     24  C   UNL A   1      37.117  21.410  25.003  1.00  0.00     0.112 A 
ENDBRANCH  12  15
ENDBRANCH   7  11
ENDBRANCH   4   7
ENDBRANCH   2   3
ENDBRANCH   1   2
BRANCH   1  25
ATOM     25  C   UNL A   1      32.938  29.770  26.561  1.00  0.00     0.118 C 
BRANCH  25  26
ATOM     26  N   UNL A   1      32.795  31.180  26.849  1.00  0.00    -0.352 N 
ATOM     27  C   UNL A   1      33.639  32.025  27.526  1.00  0.00     0.251 C 
ATOM     28  H   UNL A   1      31.970  31.595  26.508  1.00  0.00     0.163 HD
ATOM     29  O   UNL A   1      33.294  33.196  27.683  1.00  0.00    -0.269 OA
BRANCH  27  30
ATOM     30  C   UNL A   1      34.926  31.559  28.098  1.00  0.00     0.039 A 
ATOM     31  C   UNL A   1      34.950  30.292  28.694  1.00  0.00     0.014 A 
ATOM     32  C   UNL A   1      36.076  32.355  28.131  1.00  0.00     0.014 A 
ATOM     33  C   UNL A   1      36.117  29.818  29.299  1.00  0.00     0.010 A 
ATOM     34  C   UNL A   1      37.260  31.857  28.692  1.00  0.00     0.010 A 
ATOM     35  C   UNL A   1      37.290  30.590  29.299  1.00  0.00    -0.014 A 
BRANCH  35  36
ATOM     36  C   UNL A   1      38.527  30.074  29.955  1.00  0.00     0.031 A 
ATOM     37  C   UNL A   1      38.923  30.543  31.331  1.00  0.00     0.074 A 
ATOM     38  C   UNL A   1      39.307  29.182  29.310  1.00  0.00     0.049 A 
ATOM     39  N   UNL A   1      39.935  30.165  32.072  1.00  0.00    -0.248 NA
ATOM     40  C   UNL A   1      38.086  31.582  31.950  1.00  0.00     0.031 C 
ATOM     41  C   UNL A   1      39.076  28.686  27.952  1.00  0.00     0.029 A 
ATOM     42  N   UNL A   1      40.458  28.544  29.704  1.00  0.00    -0.354 N 
ATOM     43  C   UNL A   1      39.871  30.933  33.230  1.00  0.00     0.074 A 
ATOM     44  C   UNL A   1      38.740  31.822  33.078  1.00  0.00     0.031 C 
ATOM     45  C   UNL A   1      40.048  27.817  27.630  1.00  0.00     0.029 A 
ATOM     46  C   UNL A   1      40.986  27.709  28.745  1.00  0.00     0.049 A 
ATOM     47  H   UNL A   1      40.868  28.671  30.590  1.00  0.00     0.167 HD
ATOM     48  C   UNL A   1      40.663  30.888  34.330  1.00  0.00     0.034 A 
ATOM     49  C   UNL A   1      42.094  26.943  28.759  1.00  0.00     0.034 A 
ATOM     50  C   UNL A   1      41.771  29.985  34.496  1.00  0.00     0.049 A 
ATOM     51  C   UNL A   1      42.942  26.891  30.004  1.00  0.00     0.074 A 
ATOM     52  C   UNL A   1      42.583  29.815  35.605  1.00  0.00     0.029 A 
ATOM     53  N   UNL A   1      42.234  29.110  33.526  1.00  0.00    -0.354 N 
ATOM     54  N   UNL A   1      42.770  27.510  31.146  1.00  0.00    -0.248 NA
ATOM     55  C   UNL A   1      44.113  26.002  29.974  1.00  0.00     0.031 C 
ATOM     56  C   UNL A   1      43.556  28.859  35.294  1.00  0.00     0.029 A 
ATOM     57  C   UNL A   1      43.326  28.405  34.005  1.00  0.00     0.049 A 
ATOM     58  H   UNL A   1      41.845  29.006  32.629  1.00  0.00     0.167 HD
ATOM     59  C   UNL A   1      43.783  27.054  31.983  1.00  0.00     0.074 A 
ATOM     60  C   UNL A   1      44.554  26.094  31.222  1.00  0.00     0.031 C 
ATOM     61  C   UNL A   1      44.056  27.410  33.263  1.00  0.00     0.034 A 
BRANCH  48  62
ATOM     62  C   UNL A   1      40.332  31.819  35.471  1.00  0.00     0.023 A 
ATOM     63  C   UNL A   1      41.095  32.991  35.656  1.00  0.00     0.012 A 
ATOM     64  C   UNL A   1      39.234  31.571  36.317  1.00  0.00     0.148 A 
ATOM     65  C   UNL A   1      40.795  33.880  36.687  1.00  0.00     0.002 A 
ATOM     66  C   UNL A   1      38.912  32.485  37.314  1.00  0.00     0.091 A 
ATOM     67  F   UNL A   1      38.529  30.446  36.137  1.00  0.00    -0.205 F 
ATOM     68  C   UNL A   1      39.699  33.633  37.509  1.00  0.00     0.022 A 
BRANCH  66  69
ATOM     69  S   UNL A   1      37.471  32.302  38.372  1.00  0.00     0.127 S 
ATOM     70  O   UNL A   1      37.925  32.946  39.603  1.00  0.00    -0.237 OA
ATOM     71  O   UNL A   1      36.452  33.050  37.634  1.00  0.00    -0.237 OA
ATOM     72  O   UNL A   1      37.222  30.872  38.469  1.00  0.00    -0.744 OA
ENDBRANCH  66  69
ENDBRANCH  48  62
BRANCH  49  73
ATOM     73  C   UNL A   1      42.439  26.108  27.572  1.00  0.00     0.023 A 
ATOM     74  C   UNL A   1      43.199  26.665  26.525  1.00  0.00     0.012 A 
ATOM     75  C   UNL A   1      42.027  24.764  27.481  1.00  0.00     0.148 A 
ATOM     76  C   UNL A   1      43.513  25.912  25.393  1.00  0.00     0.002 A 
ATOM     77  C   UNL A   1      42.392  24.002  26.377  1.00  0.00     0.091 A 
ATOM     78  F   UNL A   1      41.294  24.255  28.481  1.00  0.00    -0.205 F 
ATOM     79  C   UNL A   1      43.118  24.579  25.324  1.00  0.00     0.022 A 
BRANCH  77  80
ATOM     80  S   UNL A   1      42.038  22.245  26.261  1.00  0.00     0.127 S 
ATOM     81  O   UNL A   1      42.578  21.749  27.527  1.00  0.00    -0.237 OA
ATOM     82  O   UNL A   1      40.575  22.240  26.175  1.00  0.00    -0.237 OA
ATOM     83  O   UNL A   1      42.713  21.783  25.062  1.00  0.00    -0.744 OA
ENDBRANCH  77  80
ENDBRANCH  49  73
BRANCH  61  84
ATOM     84  C   UNL A   1      45.207  26.723  33.954  1.00  0.00     0.023 A 
ATOM     85  C   UNL A   1      46.507  27.261  33.866  1.00  0.00     0.012 A 
ATOM     86  C   UNL A   1      44.985  25.581  34.751  1.00  0.00     0.148 A 
ATOM     87  C   UNL A   1      47.573  26.651  34.528  1.00  0.00     0.002 A 
ATOM     88  C   UNL A   1      46.043  25.011  35.450  1.00  0.00     0.091 A 
ATOM     89  F   UNL A   1      43.747  25.072  34.808  1.00  0.00    -0.205 F 
ATOM     90  C   UNL A   1      47.339  25.535  35.329  1.00  0.00     0.022 A 
BRANCH  88  91
ATOM     91  S   UNL A   1      45.817  23.634  36.582  1.00  0.00     0.127 S 
ATOM     92  O   UNL A   1      47.192  23.359  36.996  1.00  0.00    -0.237 OA
ATOM     93  O   UNL A   1      44.975  24.223  37.623  1.00  0.00    -0.237 OA
ATOM     94  O   UNL A   1      45.174  22.580  35.809  1.00  0.00    -0.744 OA
ENDBRANCH  88  91
ENDBRANCH  61  84
ENDBRANCH  35  36
ENDBRANCH  27  30
ENDBRANCH  25  26
ENDBRANCH   1  25
TORSDOF 16
ENDMDL
MODEL 2
REMARK VINA RESULT:     -12.4      1.569      1.902
REMARK SMILES CC[C@](C)(NC(=O)c1cccc2ncccc12)C(=O)NCCCNC(=O)c1ccc(-c2c3nc(c(-c4cccc(S(=O)(=O)[O-])c4F)c4ccc([nH]4)c(-c4cccc(S(=O)(=O)[O-])c4F)c4nc(c(-c5cccc(S(=O)(=O)[O-])c5F)c5ccc2[nH]5)C=C4)C=C3)cc1
REMARK SMILES IDX 22 1 21 2 20 3 18 4 19 5 3 7 4 8 2 9 1 10 5 11 6 12 7 14
REMARK SMILES IDX 8 15 9 16 17 17 10 18 12 19 16 20 11 21 13 22 15 23 14 24
REMARK SMILES IDX 23 25 24 26 25 27 26 29 27 30 28 31 89 32 29 33 88 34 30 35
REMARK SMILES IDX 31 36 32 37 82 38 33 39 87 40 81 41 83 42 34 43 86 44 80 45
REMARK SMILES IDX 79 46 35 48 67 49 47 50 66 51 48 52 51 53 65 54 84 55 49 56
REMARK SMILES IDX 50 57 64 59 85 60 52 61 36 62 37 63 45 64 38 65 40 66 46 67
REMARK SMILES IDX 39 68 41 69 42 70 43 71 44 72 68 73 69 74 77 75 70 76 72 77
REMARK SMILES IDX 78 78 71 79 73 80 74 81 75 82 76 83 53 84 54 85 62 86 55 87
REMARK SMILES IDX 57 88 63 89 56 90 58 91 59 92 60 93 61 94
REMARK H PARENT 20 6 5 13 24 28 83 47 51 58
REMARK Flexibility Score: inf
ROOT
ATOM      1  C   UNL A   1      32.656  27.953  25.798  1.00  0.00     0.042 C 
ENDROOT
BRANCH   1   2
ATOM      2  C   UNL A   1      31.670  27.099  24.994  1.00  0.00     0.117 C 
BRANCH   2   3
ATOM      3  N   UNL A   1      30.520  26.512  25.673  1.00  0.00    -0.354 N 
ATOM      4  C   UNL A   1      30.203  25.247  26.101  1.00  0.00     0.245 C 
ATOM      5  O   UNL A   1      29.183  25.152  26.795  1.00  0.00    -0.272 OA
ATOM      6  H   UNL A   1      29.815  27.171  25.869  1.00  0.00     0.163 HD
BRANCH   4   7
ATOM      7  C   UNL A   1      31.087  23.998  25.811  1.00  0.00     0.116 C 
ATOM      8  C   UNL A   1      30.405  22.686  26.247  1.00  0.00     0.045 C 
BRANCH   7   9
ATOM      9  C   UNL A   1      32.373  24.184  26.693  1.00  0.00     0.035 C 
ATOM     10  C   UNL A   1      32.786  22.960  27.524  1.00  0.00     0.007 C 
ENDBRANCH   7   9
BRANCH   7  11
ATOM     11  N   UNL A   1      31.478  23.833  24.376  1.00  0.00    -0.338 N 
ATOM     12  C   UNL A   1      32.515  23.188  23.705  1.00  0.00     0.252 C 
ATOM     13  H   UNL A   1      30.857  24.286  23.761  1.00  0.00     0.164 HD
ATOM     14  O   UNL A   1      32.805  23.695  22.620  1.00  0.00    -0.269 OA
BRANCH  12  15
ATOM     15  C   UNL A   1      33.215  21.917  24.143  1.00  0.00     0.049 A 
ATOM     16  C   UNL A   1      32.554  20.705  23.985  1.00  0.00     0.014 A 
ATOM     17  C   UNL A   1      34.599  21.841  24.509  1.00  0.00     0.013 A 
ATOM     18  C   UNL A   1      33.106  19.468  24.273  1.00  0.00     0.003 A 
ATOM     19  C   UNL A   1      35.175  20.561  24.774  1.00  0.00     0.071 A 
ATOM     20  C   UNL A   1      35.511  22.919  24.592  1.00  0.00     0.013 A 
ATOM     21  C   UNL A   1      34.417  19.414  24.683  1.00  0.00     0.029 A 
ATOM     22  N   UNL A   1      36.461  20.353  25.070  1.00  0.00    -0.256 NA
ATOM     23  C   UNL A   1      36.864  22.701  24.857  1.00  0.00     0.021 A 
ATOM     24  C   UNL A   1      37.288  21.411  25.080  1.00  0.00     0.112 A 
ENDBRANCH  12  15
ENDBRANCH   7  11
ENDBRANCH   4   7
ENDBRANCH   2   3
ENDBRANCH   1   2
BRANCH   1  25
ATOM     25  C   UNL A   1      33.142  29.280  25.222  1.00  0.00     0.118 C 
BRANCH  25  26
ATOM     26  N   UNL A   1      32.572  30.454  25.844  1.00  0.00    -0.352 N 
ATOM     27  C   UNL A   1      33.055  31.221  26.875  1.00  0.00     0.251 C 
ATOM     28  H   UNL A   1      31.708  30.745  25.474  1.00  0.00     0.163 HD
ATOM     29  O   UNL A   1      32.376  32.168  27.270  1.00  0.00    -0.269 OA
BRANCH  27  30
ATOM     30  C   UNL A   1      34.348  30.920  27.540  1.00  0.00     0.039 A 
ATOM     31  C   UNL A   1      34.503  29.651  28.109  1.00  0.00     0.014 A 
ATOM     32  C   UNL A   1      35.368  31.867  27.684  1.00  0.00     0.014 A 
ATOM     33  C   UNL A   1      35.675  29.324  28.797  1.00  0.00     0.010 A 
ATOM     34  C   UNL A   1      36.562  31.520  28.329  1.00  0.00     0.010 A 
ATOM     35  C   UNL A   1      36.724  30.251  28.909  1.00  0.00    -0.014 A 
BRANCH  35  36
ATOM     36  C   UNL A   1      37.966  29.891  29.653  1.00  0.00     0.031 A 
ATOM     37  C   UNL A   1      38.218  30.427  31.039  1.00  0.00     0.074 A 
ATOM     38  C   UNL A   1      38.881  29.082  29.080  1.00  0.00     0.049 A 
ATOM     39  N   UNL A   1      39.216  30.179  31.850  1.00  0.00    -0.248 NA
ATOM     40  C   UNL A   1      37.232  31.375  31.579  1.00  0.00     0.031 C 
ATOM     41  C   UNL A   1      38.795  28.538  27.723  1.00  0.00     0.029 A 
ATOM     42  N   UNL A   1      40.069  28.586  29.560  1.00  0.00    -0.354 N 
ATOM     43  C   UNL A   1      38.993  30.957  32.982  1.00  0.00     0.074 A 
ATOM     44  C   UNL A   1      37.781  31.708  32.739  1.00  0.00     0.031 C 
ATOM     45  C   UNL A   1      39.877  27.779  27.484  1.00  0.00     0.029 A 
ATOM     46  C   UNL A   1      40.747  27.799  28.657  1.00  0.00     0.049 A 
ATOM     47  H   UNL A   1      40.404  28.775  30.467  1.00  0.00     0.167 HD
ATOM     48  C   UNL A   1      39.712  31.022  34.129  1.00  0.00     0.034 A 
ATOM     49  C   UNL A   1      41.932  27.165  28.758  1.00  0.00     0.034 A 
ATOM     50  C   UNL A   1      40.902  30.254  34.386  1.00  0.00     0.049 A 
ATOM     51  C   UNL A   1      42.698  27.232  30.054  1.00  0.00     0.074 A 
ATOM     52  C   UNL A   1      41.655  30.197  35.547  1.00  0.00     0.029 A 
ATOM     53  N   UNL A   1      41.522  29.420  33.469  1.00  0.00    -0.354 N 
ATOM     54  N   UNL A   1      42.386  27.848  31.168  1.00  0.00    -0.248 NA
ATOM     55  C   UNL A   1      43.961  26.482  30.119  1.00  0.00     0.031 C 
ATOM     56  C   UNL A   1      42.747  29.353  35.320  1.00  0.00     0.029 A 
ATOM     57  C   UNL A   1      42.653  28.853  34.032  1.00  0.00     0.049 A 
ATOM     58  H   UNL A   1      41.204  29.255  32.552  1.00  0.00     0.167 HD
ATOM     59  C   UNL A   1      43.387  27.526  32.077  1.00  0.00     0.074 A 
ATOM     60  C   UNL A   1      44.308  26.646  31.389  1.00  0.00     0.031 C 
ATOM     61  C   UNL A   1      43.536  27.933  33.361  1.00  0.00     0.034 A 
BRANCH  48  62
ATOM     62  C   UNL A   1      39.207  31.930  35.224  1.00  0.00     0.023 A 
ATOM     63  C   UNL A   1      38.245  31.450  36.137  1.00  0.00     0.012 A 
ATOM     64  C   UNL A   1      39.726  33.229  35.388  1.00  0.00     0.148 A 
ATOM     65  C   UNL A   1      37.780  32.261  37.172  1.00  0.00     0.002 A 
ATOM     66  C   UNL A   1      39.292  34.014  36.451  1.00  0.00     0.091 A 
ATOM     67  F   UNL A   1      40.629  33.674  34.504  1.00  0.00    -0.205 F 
ATOM     68  C   UNL A   1      38.310  33.537  37.335  1.00  0.00     0.022 A 
BRANCH  66  69
ATOM     69  S   UNL A   1      39.974  35.640  36.798  1.00  0.00     0.127 S 
ATOM     70  O   UNL A   1      41.401  35.343  36.913  1.00  0.00    -0.237 OA
ATOM     71  O   UNL A   1      39.604  36.392  35.597  1.00  0.00    -0.237 OA
ATOM     72  O   UNL A   1      39.329  36.095  38.021  1.00  0.00    -0.744 OA
ENDBRANCH  66  69
ENDBRANCH  48  62
BRANCH  49  73
ATOM     73  C   UNL A   1      42.444  26.353  27.617  1.00  0.00     0.023 A 
ATOM     74  C   UNL A   1      43.365  26.921  26.716  1.00  0.00     0.012 A 
ATOM     75  C   UNL A   1      42.030  25.020  27.425  1.00  0.00     0.148 A 
ATOM     76  C   UNL A   1      43.840  26.190  25.626  1.00  0.00     0.002 A 
ATOM     77  C   UNL A   1      42.549  24.279  26.370  1.00  0.00     0.091 A 
ATOM     78  F   UNL A   1      41.142  24.501  28.285  1.00  0.00    -0.205 F 
ATOM     79  C   UNL A   1      43.439  24.868  25.459  1.00  0.00     0.022 A 
BRANCH  77  80
ATOM     80  S   UNL A   1      42.189  22.533  26.152  1.00  0.00     0.127 S 
ATOM     81  O   UNL A   1      42.911  22.232  24.915  1.00  0.00    -0.237 OA
ATOM     82  O   UNL A   1      42.779  21.953  27.361  1.00  0.00    -0.237 OA
ATOM     83  O   UNL A   1      40.743  22.432  26.079  1.00  0.00    -0.744 OA
ENDBRANCH  77  80
ENDBRANCH  49  73
BRANCH  61  84
ATOM     84  C   UNL A   1      44.710  27.395  34.139  1.00  0.00     0.023 A 
ATOM     85  C   UNL A   1      45.946  28.073  34.115  1.00  0.00     0.012 A 
ATOM     86  C   UNL A   1      44.567  26.252  34.952  1.00  0.00     0.148 A 
ATOM     87  C   UNL A   1      47.029  27.601  34.857  1.00  0.00     0.002 A 
ATOM     88  C   UNL A   1      45.635  25.818  35.729  1.00  0.00     0.091 A 
ATOM     89  F   UNL A   1      43.391  25.608  34.949  1.00  0.00    -0.205 F 
ATOM     90  C   UNL A   1      46.870  26.482  35.672  1.00  0.00     0.022 A 
BRANCH  88  91
ATOM     91  S   UNL A   1      45.492  24.448  36.883  1.00  0.00     0.127 S 
ATOM     92  O   UNL A   1      45.264  23.321  35.980  1.00  0.00    -0.237 OA
ATOM     93  O   UNL A   1      46.803  24.452  37.533  1.00  0.00    -0.237 OA
ATOM     94  O   UNL A   1      44.380  24.779  37.764  1.00  0.00    -0.744 OA
ENDBRANCH  88  91
ENDBRANCH  61  84
ENDBRANCH  35  36
ENDBRANCH  27  30
ENDBRANCH  25  26
ENDBRANCH   1  25
TORSDOF 16
ENDMDL
MODEL 3
REMARK VINA RESULT:     -12.3      5.022     10.366
REMARK SMILES CC[C@](C)(NC(=O)c1cccc2ncccc12)C(=O)NCCCNC(=O)c1ccc(-c2c3nc(c(-c4cccc(S(=O)(=O)[O-])c4F)c4ccc([nH]4)c(-c4cccc(S(=O)(=O)[O-])c4F)c4nc(c(-c5cccc(S(=O)(=O)[O-])c5F)c5ccc2[nH]5)C=C4)C=C3)cc1
REMARK SMILES IDX 22 1 21 2 20 3 18 4 19 5 3 7 4 8 2 9 1 10 5 11 6 12 7 14
REMARK SMILES IDX 8 15 9 16 17 17 10 18 12 19 16 20 11 21 13 22 15 23 14 24
REMARK SMILES IDX 23 25 24 26 25 27 26 29 27 30 28 31 89 32 29 33 88 34 30 35
REMARK SMILES IDX 31 36 32 37 82 38 33 39 87 40 81 41 83 42 34 43 86 44 80 45
REMARK SMILES IDX 79 46 35 48 67 49 47 50 66 51 48 52 51 53 65 54 84 55 49 56
REMARK SMILES IDX 50 57 64 59 85 60 52 61 36 62 37 63 45 64 38 65 40 66 46 67
REMARK SMILES IDX 39 68 41 69 42 70 43 71 44 72 68 73 69 74 77 75 70 76 72 77
REMARK SMILES IDX 78 78 71 79 73 80 74 81 75 82 76 83 53 84 54 85 62 86 55 87
REMARK SMILES IDX 57 88 63 89 56 90 58 91 59 92 60 93 61 94
REMARK H PARENT 20 6 5 13 24 28 83 47 51 58
REMARK Flexibility Score: inf
ROOT
ATOM      1  C   UNL A   1      36.634  22.456  23.893  1.00  0.00     0.042 C 
ENDROOT
BRANCH   1   2
ATOM      2  C   UNL A   1      35.147  22.584  23.544  1.00  0.00     0.117 C 
BRANCH   2   3
ATOM      3  N   UNL A   1      34.152  22.054  24.470  1.00  0.00    -0.354 N 
ATOM      4  C   UNL A   1      32.974  22.534  24.987  1.00  0.00     0.245 C 
ATOM      5  O   UNL A   1      32.301  21.724  25.638  1.00  0.00    -0.272 OA
ATOM      6  H   UNL A   1      34.375  21.153  24.796  1.00  0.00     0.163 HD
BRANCH   4   7
ATOM      7  C   UNL A   1      32.451  23.978  24.730  1.00  0.00     0.116 C 
ATOM      8  C   UNL A   1      32.392  24.318  23.228  1.00  0.00     0.045 C 
BRANCH   7   9
ATOM      9  C   UNL A   1      33.508  24.929  25.395  1.00  0.00     0.035 C 
ATOM     10  C   UNL A   1      34.079  26.022  24.480  1.00  0.00     0.007 C 
ENDBRANCH   7   9
BRANCH   7  11
ATOM     11  N   UNL A   1      31.093  24.257  25.297  1.00  0.00    -0.338 N 
ATOM     12  C   UNL A   1      30.391  25.408  25.650  1.00  0.00     0.252 C 
ATOM     13  H   UNL A   1      30.575  23.435  25.456  1.00  0.00     0.164 HD
ATOM     14  O   UNL A   1      29.558  25.235  26.541  1.00  0.00    -0.269 OA
BRANCH  12  15
ATOM     15  C   UNL A   1      30.502  26.767  24.989  1.00  0.00     0.049 A 
ATOM     16  C   UNL A   1      29.767  27.006  23.834  1.00  0.00     0.014 A 
ATOM     17  C   UNL A   1      31.139  27.905  25.583  1.00  0.00     0.013 A 
ATOM     18  C   UNL A   1      29.719  28.223  23.174  1.00  0.00     0.003 A 
ATOM     19  C   UNL A   1      31.060  29.166  24.918  1.00  0.00     0.071 A 
ATOM     20  C   UNL A   1      31.818  27.941  26.823  1.00  0.00     0.013 A 
ATOM     21  C   UNL A   1      30.386  29.293  23.723  1.00  0.00     0.029 A 
ATOM     22  N   UNL A   1      31.564  30.309  25.393  1.00  0.00    -0.256 NA
ATOM     23  C   UNL A   1      32.306  29.141  27.344  1.00  0.00     0.021 A 
ATOM     24  C   UNL A   1      32.149  30.289  26.601  1.00  0.00     0.112 A 
ENDBRANCH  12  15
ENDBRANCH   7  11
ENDBRANCH   4   7
ENDBRANCH   2   3
ENDBRANCH   1   2
BRANCH   1  25
ATOM     25  C   UNL A   1      37.050  22.297  25.354  1.00  0.00     0.118 C 
BRANCH  25  26
ATOM     26  N   UNL A   1      38.022  21.254  25.594  1.00  0.00    -0.352 N 
ATOM     27  C   UNL A   1      39.264  21.331  26.175  1.00  0.00     0.251 C 
ATOM     28  H   UNL A   1      37.753  20.355  25.297  1.00  0.00     0.163 HD
ATOM     29  O   UNL A   1      39.942  20.307  26.247  1.00  0.00    -0.269 OA
BRANCH  27  30
ATOM     30  C   UNL A   1      39.817  22.611  26.683  1.00  0.00     0.039 A 
ATOM     31  C   UNL A   1      39.412  23.790  26.045  1.00  0.00     0.014 A 
ATOM     32  C   UNL A   1      40.769  22.676  27.706  1.00  0.00     0.014 A 
ATOM     33  C   UNL A   1      39.937  25.023  26.440  1.00  0.00     0.010 A 
ATOM     34  C   UNL A   1      41.255  23.919  28.135  1.00  0.00     0.010 A 
ATOM     35  C   UNL A   1      40.860  25.105  27.495  1.00  0.00    -0.014 A 
BRANCH  35  36
ATOM     36  C   UNL A   1      41.419  26.428  27.901  1.00  0.00     0.031 A 
ATOM     37  C   UNL A   1      42.851  26.787  27.596  1.00  0.00     0.074 A 
ATOM     38  C   UNL A   1      40.640  27.314  28.555  1.00  0.00     0.049 A 
ATOM     39  N   UNL A   1      43.488  27.907  27.829  1.00  0.00    -0.248 NA
ATOM     40  C   UNL A   1      43.680  25.750  26.962  1.00  0.00     0.031 C 
ATOM     41  C   UNL A   1      39.255  27.077  28.966  1.00  0.00     0.029 A 
ATOM     42  N   UNL A   1      40.904  28.587  28.999  1.00  0.00    -0.354 N 
ATOM     43  C   UNL A   1      44.794  27.703  27.396  1.00  0.00     0.074 A 
ATOM     44  C   UNL A   1      44.866  26.341  26.915  1.00  0.00     0.031 C 
ATOM     45  C   UNL A   1      38.789  28.169  29.595  1.00  0.00     0.029 A 
ATOM     46  C   UNL A   1      39.846  29.176  29.654  1.00  0.00     0.049 A 
ATOM     47  H   UNL A   1      41.770  29.036  28.863  1.00  0.00     0.167 HD
ATOM     48  C   UNL A   1      45.832  28.575  27.373  1.00  0.00     0.034 A 
ATOM     49  C   UNL A   1      39.735  30.387  30.235  1.00  0.00     0.034 A 
ATOM     50  C   UNL A   1      45.757  29.940  27.824  1.00  0.00     0.049 A 
ATOM     51  C   UNL A   1      40.896  31.346  30.173  1.00  0.00     0.074 A 
ATOM     52  C   UNL A   1      46.735  30.918  27.770  1.00  0.00     0.029 A 
ATOM     53  N   UNL A   1      44.649  30.518  28.422  1.00  0.00    -0.354 N 
ATOM     54  N   UNL A   1      42.071  31.186  29.615  1.00  0.00    -0.248 NA
ATOM     55  C   UNL A   1      40.699  32.669  30.784  1.00  0.00     0.031 C 
ATOM     56  C   UNL A   1      46.228  32.079  28.364  1.00  0.00     0.029 A 
ATOM     57  C   UNL A   1      44.921  31.835  28.753  1.00  0.00     0.049 A 
ATOM     58  H   UNL A   1      43.794  30.059  28.588  1.00  0.00     0.167 HD
ATOM     59  C   UNL A   1      42.736  32.397  29.770  1.00  0.00     0.074 A 
ATOM     60  C   UNL A   1      41.827  33.288  30.458  1.00  0.00     0.031 C 
ATOM     61  C   UNL A   1      43.992  32.735  29.387  1.00  0.00     0.034 A 
BRANCH  48  62
ATOM     62  C   UNL A   1      47.142  28.091  26.800  1.00  0.00     0.023 A 
ATOM     63  C   UNL A   1      48.169  27.669  27.670  1.00  0.00     0.012 A 
ATOM     64  C   UNL A   1      47.334  27.992  25.408  1.00  0.00     0.148 A 
ATOM     65  C   UNL A   1      49.379  27.195  27.165  1.00  0.00     0.002 A 
ATOM     66  C   UNL A   1      48.526  27.475  24.913  1.00  0.00     0.091 A 
ATOM     67  F   UNL A   1      46.354  28.410  24.596  1.00  0.00    -0.205 F 
ATOM     68  C   UNL A   1      49.554  27.089  25.789  1.00  0.00     0.022 A 
BRANCH  66  69
ATOM     69  S   UNL A   1      48.818  27.217  23.158  1.00  0.00     0.127 S 
ATOM     70  O   UNL A   1      50.279  27.214  23.100  1.00  0.00    -0.237 OA
ATOM     71  O   UNL A   1      48.197  25.910  22.932  1.00  0.00    -0.237 OA
ATOM     72  O   UNL A   1      48.166  28.324  22.475  1.00  0.00    -0.744 OA
ENDBRANCH  66  69
ENDBRANCH  48  62
BRANCH  49  73
ATOM     73  C   UNL A   1      38.451  30.793  30.877  1.00  0.00     0.023 A 
ATOM     74  C   UNL A   1      38.225  30.489  32.233  1.00  0.00     0.012 A 
ATOM     75  C   UNL A   1      37.460  31.485  30.154  1.00  0.00     0.148 A 
ATOM     76  C   UNL A   1      37.021  30.836  32.850  1.00  0.00     0.002 A 
ATOM     77  C   UNL A   1      36.287  31.877  30.788  1.00  0.00     0.091 A 
ATOM     78  F   UNL A   1      37.689  31.753  28.861  1.00  0.00    -0.205 F 
ATOM     79  C   UNL A   1      36.058  31.537  32.130  1.00  0.00     0.022 A 
BRANCH  77  80
ATOM     80  S   UNL A   1      35.048  32.894  29.977  1.00  0.00     0.127 S 
ATOM     81  O   UNL A   1      35.870  33.955  29.394  1.00  0.00    -0.237 OA
ATOM     82  O   UNL A   1      34.480  31.955  29.007  1.00  0.00    -0.237 OA
ATOM     83  O   UNL A   1      34.130  33.308  31.022  1.00  0.00    -0.744 OA
ENDBRANCH  77  80
ENDBRANCH  49  73
BRANCH  61  84
ATOM     84  C   UNL A   1      44.453  34.146  29.651  1.00  0.00     0.023 A 
ATOM     85  C   UNL A   1      45.050  34.476  30.884  1.00  0.00     0.012 A 
ATOM     86  C   UNL A   1      44.356  35.131  28.647  1.00  0.00     0.148 A 
ATOM     87  C   UNL A   1      45.510  35.772  31.126  1.00  0.00     0.002 A 
ATOM     88  C   UNL A   1      44.863  36.405  28.876  1.00  0.00     0.091 A 
ATOM     89  F   UNL A   1      43.768  34.805  27.487  1.00  0.00    -0.205 F 
ATOM     90  C   UNL A   1      45.427  36.731  30.119  1.00  0.00     0.022 A 
BRANCH  88  91
ATOM     91  S   UNL A   1      44.890  37.673  27.604  1.00  0.00     0.127 S 
ATOM     92  O   UNL A   1      45.752  37.064  26.593  1.00  0.00    -0.237 OA
ATOM     93  O   UNL A   1      43.479  37.765  27.227  1.00  0.00    -0.237 OA
ATOM     94  O   UNL A   1      45.423  38.870  28.242  1.00  0.00    -0.744 OA
ENDBRANCH  88  91
ENDBRANCH  61  84
ENDBRANCH  35  36
ENDBRANCH  27  30
ENDBRANCH  25  26
ENDBRANCH   1  25
TORSDOF 16
ENDMDL
