MODEL 1
REMARK VINA RESULT:     -12.4      0.000      0.000
REMARK SMILES Cn1ncc(C(=O)NCCCNC(=O)c2ccc(-c3c4nc(c(-c5cccc(S(=O)(=O)[O-])c5F)c5ccc([nH]5)c(-c5cccc(S(=O)(=O)[O-])c5F)c5nc(c(-c6cccc(S(=O)(=O)[O-])c6F)c6ccc3[nH]6)C=C5)C=C4)cc2)c1NS(=O)(=O)[C@@H]1CCS(=O)(=O)C1
REMARK SMILES IDX 10 1 9 2 8 3 6 4 7 5 5 7 1 8 2 9 3 10 78 11 4 12 79 13 80 15
REMARK SMILES IDX 81 16 82 17 83 18 84 19 89 20 85 21 86 22 87 23 88 24 11 25
REMARK SMILES IDX 12 26 13 27 14 29 15 30 16 31 77 32 17 33 76 34 18 35 19 36
REMARK SMILES IDX 20 37 70 38 21 39 75 40 69 41 71 42 22 43 74 44 68 45 67 46
REMARK SMILES IDX 23 48 55 49 35 50 54 51 36 52 39 53 53 54 72 55 37 56 38 57
REMARK SMILES IDX 52 59 73 60 40 61 24 62 25 63 33 64 26 65 28 66 34 67 27 68
REMARK SMILES IDX 29 69 30 70 31 71 32 72 56 73 57 74 65 75 58 76 60 77 66 78
REMARK SMILES IDX 59 79 61 80 62 81 63 82 64 83 41 84 42 85 50 86 43 87 45 88
REMARK SMILES IDX 51 89 44 90 46 91 47 92 48 93 49 94
REMARK H PARENT 8 6 79 14 12 28 71 47 39 58
REMARK Flexibility Score: inf
ROOT
ATOM      1  C   UNL A   1      31.667  29.869  27.278  1.00  0.00     0.042 C 
ENDROOT
BRANCH   1   2
ATOM      2  C   UNL A   1      32.197  28.366  27.253  1.00  0.00     0.118 C 
BRANCH   2   3
ATOM      3  N   UNL A   1      31.412  27.100  27.268  1.00  0.00    -0.352 N 
ATOM      4  C   UNL A   1      31.202  26.057  26.357  1.00  0.00     0.256 C 
ATOM      5  O   UNL A   1      30.224  25.325  26.447  1.00  0.00    -0.269 OA
ATOM      6  H   UNL A   1      30.930  26.965  28.116  1.00  0.00     0.163 HD
BRANCH   4   7
ATOM      7  C   UNL A   1      32.192  25.822  25.378  1.00  0.00     0.102 A 
ATOM      8  C   UNL A   1      32.806  23.998  22.610  1.00  0.00     0.176 C 
ATOM      9  N   UNL A   1      32.949  25.133  23.503  1.00  0.00    -0.251 N 
ATOM     10  N   UNL A   1      34.042  25.094  24.314  1.00  0.00    -0.179 NA
ATOM     11  C   UNL A   1      31.955  25.955  24.039  1.00  0.00     0.150 A 
ATOM     12  C   UNL A   1      33.549  25.470  25.496  1.00  0.00     0.151 A 
BRANCH  11  13
ATOM     13  N   UNL A   1      30.804  26.593  23.520  1.00  0.00    -0.267 N 
ATOM     14  H   UNL A   1      29.988  26.048  23.439  1.00  0.00     0.181 HD
BRANCH  13  15
ATOM     15  S   UNL A   1      30.705  28.218  23.024  1.00  0.00     0.237 S 
ATOM     16  O   UNL A   1      31.722  28.932  23.776  1.00  0.00    -0.206 OA
ATOM     17  O   UNL A   1      30.937  28.053  21.598  1.00  0.00    -0.206 OA
BRANCH  15  18
ATOM     18  C   UNL A   1      29.242  29.300  23.060  1.00  0.00     0.145 C 
ATOM     19  C   UNL A   1      27.975  29.383  22.179  1.00  0.00     0.039 C 
ATOM     20  C   UNL A   1      29.385  30.681  23.757  1.00  0.00     0.158 C 
ATOM     21  C   UNL A   1      27.834  30.793  21.622  1.00  0.00     0.138 C 
ATOM     22  S   UNL A   1      28.120  31.771  23.058  1.00  0.00     0.151 S 
ATOM     23  O   UNL A   1      28.651  33.019  22.607  1.00  0.00    -0.229 OA
ATOM     24  O   UNL A   1      26.934  31.692  23.897  1.00  0.00    -0.229 OA
ENDBRANCH  15  18
ENDBRANCH  13  15
ENDBRANCH  11  13
ENDBRANCH   4   7
ENDBRANCH   2   3
ENDBRANCH   1   2
BRANCH   1  25
ATOM     25  C   UNL A   1      32.188  31.086  26.435  1.00  0.00     0.118 C 
BRANCH  25  26
ATOM     26  N   UNL A   1      32.226  32.384  27.159  1.00  0.00    -0.352 N 
ATOM     27  C   UNL A   1      33.258  33.036  27.837  1.00  0.00     0.251 C 
ATOM     28  H   UNL A   1      31.370  32.871  27.161  1.00  0.00     0.163 HD
ATOM     29  O   UNL A   1      33.041  34.146  28.321  1.00  0.00    -0.269 OA
BRANCH  27  30
ATOM     30  C   UNL A   1      34.604  32.445  27.985  1.00  0.00     0.039 A 
ATOM     31  C   UNL A   1      35.750  33.233  28.001  1.00  0.00     0.014 A 
ATOM     32  C   UNL A   1      34.750  31.070  28.048  1.00  0.00     0.014 A 
ATOM     33  C   UNL A   1      36.986  32.647  28.322  1.00  0.00     0.010 A 
ATOM     34  C   UNL A   1      35.940  30.493  28.485  1.00  0.00     0.010 A 
ATOM     35  C   UNL A   1      37.065  31.292  28.703  1.00  0.00    -0.014 A 
BRANCH  35  36
ATOM     36  C   UNL A   1      38.228  30.764  29.482  1.00  0.00     0.031 A 
ATOM     37  C   UNL A   1      39.164  29.710  28.941  1.00  0.00     0.074 A 
ATOM     38  C   UNL A   1      38.348  31.139  30.776  1.00  0.00     0.049 A 
ATOM     39  N   UNL A   1      40.168  29.119  29.541  1.00  0.00    -0.248 NA
ATOM     40  C   UNL A   1      38.931  29.235  27.568  1.00  0.00     0.031 C 
ATOM     41  C   UNL A   1      37.435  32.046  31.481  1.00  0.00     0.029 A 
ATOM     42  N   UNL A   1      39.262  30.792  31.743  1.00  0.00    -0.354 N 
ATOM     43  C   UNL A   1      40.662  28.182  28.640  1.00  0.00     0.074 A 
ATOM     44  C   UNL A   1      39.823  28.259  27.462  1.00  0.00     0.031 C 
ATOM     45  C   UNL A   1      37.850  32.209  32.744  1.00  0.00     0.029 A 
ATOM     46  C   UNL A   1      39.028  31.381  32.966  1.00  0.00     0.049 A 
ATOM     47  H   UNL A   1      40.013  30.178  31.577  1.00  0.00     0.167 HD
ATOM     48  C   UNL A   1      41.731  27.356  28.763  1.00  0.00     0.034 A 
ATOM     49  C   UNL A   1      39.671  31.269  34.146  1.00  0.00     0.034 A 
ATOM     50  C   UNL A   1      42.593  27.308  29.914  1.00  0.00     0.049 A 
ATOM     51  C   UNL A   1      40.888  30.393  34.236  1.00  0.00     0.074 A 
ATOM     52  C   UNL A   1      43.762  26.585  30.085  1.00  0.00     0.029 A 
ATOM     53  N   UNL A   1      42.379  27.999  31.096  1.00  0.00    -0.354 N 
ATOM     54  N   UNL A   1      41.440  29.657  33.303  1.00  0.00    -0.248 NA
ATOM     55  C   UNL A   1      41.590  30.357  35.527  1.00  0.00     0.031 C 
ATOM     56  C   UNL A   1      44.238  26.817  31.379  1.00  0.00     0.029 A 
ATOM     57  C   UNL A   1      43.384  27.710  32.004  1.00  0.00     0.049 A 
ATOM     58  H   UNL A   1      41.623  28.606  31.266  1.00  0.00     0.167 HD
ATOM     59  C   UNL A   1      42.576  29.103  33.881  1.00  0.00     0.074 A 
ATOM     60  C   UNL A   1      42.641  29.601  35.240  1.00  0.00     0.031 C 
ATOM     61  C   UNL A   1      43.476  28.251  33.336  1.00  0.00     0.034 A 
BRANCH  48  62
ATOM     62  C   UNL A   1      42.077  26.469  27.591  1.00  0.00     0.023 A 
ATOM     63  C   UNL A   1      42.849  26.989  26.531  1.00  0.00     0.012 A 
ATOM     64  C   UNL A   1      41.710  25.109  27.572  1.00  0.00     0.148 A 
ATOM     65  C   UNL A   1      43.214  26.182  25.454  1.00  0.00     0.002 A 
ATOM     66  C   UNL A   1      42.117  24.300  26.517  1.00  0.00     0.091 A 
ATOM     67  F   UNL A   1      40.967  24.633  28.582  1.00  0.00    -0.205 F 
ATOM     68  C   UNL A   1      42.857  24.838  25.451  1.00  0.00     0.022 A 
BRANCH  66  69
ATOM     69  S   UNL A   1      41.778  22.535  26.459  1.00  0.00     0.127 S 
ATOM     70  O   UNL A   1      42.354  22.084  27.725  1.00  0.00    -0.237 OA
ATOM     71  O   UNL A   1      40.317  22.504  26.408  1.00  0.00    -0.237 OA
ATOM     72  O   UNL A   1      42.439  22.039  25.260  1.00  0.00    -0.744 OA
ENDBRANCH  66  69
ENDBRANCH  48  62
BRANCH  49  73
ATOM     73  C   UNL A   1      39.210  32.062  35.321  1.00  0.00     0.023 A 
ATOM     74  C   UNL A   1      38.331  31.475  36.252  1.00  0.00     0.012 A 
ATOM     75  C   UNL A   1      39.665  33.377  35.543  1.00  0.00     0.148 A 
ATOM     76  C   UNL A   1      37.884  32.194  37.360  1.00  0.00     0.002 A 
ATOM     77  C   UNL A   1      39.267  34.065  36.683  1.00  0.00     0.091 A 
ATOM     78  F   UNL A   1      40.500  33.920  34.645  1.00  0.00    -0.205 F 
ATOM     79  C   UNL A   1      38.360  33.485  37.582  1.00  0.00     0.022 A 
BRANCH  77  80
ATOM     80  S   UNL A   1      39.957  35.664  37.126  1.00  0.00     0.127 S 
ATOM     81  O   UNL A   1      39.267  35.955  38.378  1.00  0.00    -0.237 OA
ATOM     82  O   UNL A   1      41.381  35.355  37.259  1.00  0.00    -0.237 OA
ATOM     83  O   UNL A   1      39.647  36.550  36.009  1.00  0.00    -0.744 OA
ENDBRANCH  77  80
ENDBRANCH  49  73
BRANCH  61  84
ATOM     84  C   UNL A   1      44.646  27.826  34.182  1.00  0.00     0.023 A 
ATOM     85  C   UNL A   1      45.820  28.603  34.205  1.00  0.00     0.012 A 
ATOM     86  C   UNL A   1      44.544  26.701  35.025  1.00  0.00     0.148 A 
ATOM     87  C   UNL A   1      46.884  28.255  35.037  1.00  0.00     0.002 A 
ATOM     88  C   UNL A   1      45.587  26.389  35.887  1.00  0.00     0.091 A 
ATOM     89  F   UNL A   1      43.425  25.962  34.971  1.00  0.00    -0.205 F 
ATOM     90  C   UNL A   1      46.762  27.158  35.887  1.00  0.00     0.022 A 
BRANCH  88  91
ATOM     91  S   UNL A   1      45.480  25.055  37.086  1.00  0.00     0.127 S 
ATOM     92  O   UNL A   1      44.516  25.595  38.044  1.00  0.00    -0.237 OA
ATOM     93  O   UNL A   1      44.978  23.949  36.272  1.00  0.00    -0.237 OA
ATOM     94  O   UNL A   1      46.829  24.868  37.601  1.00  0.00    -0.744 OA
ENDBRANCH  88  91
ENDBRANCH  61  84
ENDBRANCH  35  36
ENDBRANCH  27  30
ENDBRANCH  25  26
ENDBRANCH   1  25
TORSDOF 16
ENDMDL
MODEL 2
REMARK VINA RESULT:     -12.3      4.992     10.035
REMARK SMILES Cn1ncc(C(=O)NCCCNC(=O)c2ccc(-c3c4nc(c(-c5cccc(S(=O)(=O)[O-])c5F)c5ccc([nH]5)c(-c5cccc(S(=O)(=O)[O-])c5F)c5nc(c(-c6cccc(S(=O)(=O)[O-])c6F)c6ccc3[nH]6)C=C5)C=C4)cc2)c1NS(=O)(=O)[C@@H]1CCS(=O)(=O)C1
REMARK SMILES IDX 10 1 9 2 8 3 6 4 7 5 5 7 1 8 2 9 3 10 78 11 4 12 79 13 80 15
REMARK SMILES IDX 81 16 82 17 83 18 84 19 89 20 85 21 86 22 87 23 88 24 11 25
REMARK SMILES IDX 12 26 13 27 14 29 15 30 16 31 77 32 17 33 76 34 18 35 19 36
REMARK SMILES IDX 20 37 70 38 21 39 75 40 69 41 71 42 22 43 74 44 68 45 67 46
REMARK SMILES IDX 23 48 55 49 35 50 54 51 36 52 39 53 53 54 72 55 37 56 38 57
REMARK SMILES IDX 52 59 73 60 40 61 24 62 25 63 33 64 26 65 28 66 34 67 27 68
REMARK SMILES IDX 29 69 30 70 31 71 32 72 56 73 57 74 65 75 58 76 60 77 66 78
REMARK SMILES IDX 59 79 61 80 62 81 63 82 64 83 41 84 42 85 50 86 43 87 45 88
REMARK SMILES IDX 51 89 44 90 46 91 47 92 48 93 49 94
REMARK H PARENT 8 6 79 14 12 28 71 47 39 58
REMARK Flexibility Score: inf
ROOT
ATOM      1  C   UNL A   1      37.027  21.791  24.025  1.00  0.00     0.042 C 
ENDROOT
BRANCH   1   2
ATOM      2  C   UNL A   1      36.188  23.124  23.779  1.00  0.00     0.118 C 
BRANCH   2   3
ATOM      3  N   UNL A   1      34.876  23.287  23.092  1.00  0.00    -0.352 N 
ATOM      4  C   UNL A   1      33.659  22.592  23.107  1.00  0.00     0.256 C 
ATOM      5  O   UNL A   1      32.864  22.687  22.181  1.00  0.00    -0.269 OA
ATOM      6  H   UNL A   1      34.861  24.062  22.486  1.00  0.00     0.163 HD
BRANCH   4   7
ATOM      7  C   UNL A   1      33.339  21.842  24.260  1.00  0.00     0.102 A 
ATOM      8  C   UNL A   1      33.588  21.909  27.622  1.00  0.00     0.176 C 
ATOM      9  N   UNL A   1      33.007  21.531  26.348  1.00  0.00    -0.251 N 
ATOM     10  N   UNL A   1      33.356  20.294  25.899  1.00  0.00    -0.179 NA
ATOM     11  C   UNL A   1      32.602  22.351  25.292  1.00  0.00     0.150 A 
ATOM     12  C   UNL A   1      33.618  20.508  24.608  1.00  0.00     0.151 A 
BRANCH  11  13
ATOM     13  N   UNL A   1      31.868  23.556  25.194  1.00  0.00    -0.267 N 
ATOM     14  H   UNL A   1      30.984  23.508  24.765  1.00  0.00     0.181 HD
BRANCH  13  15
ATOM     15  S   UNL A   1      32.379  25.081  25.753  1.00  0.00     0.237 S 
ATOM     16  O   UNL A   1      31.695  25.298  27.015  1.00  0.00    -0.206 OA
ATOM     17  O   UNL A   1      33.814  24.853  25.813  1.00  0.00    -0.206 OA
BRANCH  15  18
ATOM     18  C   UNL A   1      32.273  26.674  24.877  1.00  0.00     0.145 C 
ATOM     19  C   UNL A   1      31.779  28.076  25.303  1.00  0.00     0.039 C 
ATOM     20  C   UNL A   1      32.220  26.641  23.326  1.00  0.00     0.158 C 
ATOM     21  C   UNL A   1      30.701  28.549  24.339  1.00  0.00     0.138 C 
ATOM     22  S   UNL A   1      31.430  28.175  22.780  1.00  0.00     0.151 S 
ATOM     23  O   UNL A   1      30.355  27.951  21.865  1.00  0.00    -0.229 OA
ATOM     24  O   UNL A   1      32.471  29.159  22.526  1.00  0.00    -0.229 OA
ENDBRANCH  15  18
ENDBRANCH  13  15
ENDBRANCH  11  13
ENDBRANCH   4   7
ENDBRANCH   2   3
ENDBRANCH   1   2
BRANCH   1  25
ATOM     25  C   UNL A   1      37.345  21.095  25.395  1.00  0.00     0.118 C 
BRANCH  25  26
ATOM     26  N   UNL A   1      38.636  20.359  25.443  1.00  0.00    -0.352 N 
ATOM     27  C   UNL A   1      39.849  20.657  26.069  1.00  0.00     0.251 C 
ATOM     28  H   UNL A   1      38.636  19.510  24.944  1.00  0.00     0.163 HD
ATOM     29  O   UNL A   1      40.769  19.844  25.995  1.00  0.00    -0.269 OA
BRANCH  27  30
ATOM     30  C   UNL A   1      40.062  21.908  26.826  1.00  0.00     0.039 A 
ATOM     31  C   UNL A   1      40.977  21.983  27.870  1.00  0.00     0.014 A 
ATOM     32  C   UNL A   1      39.294  23.024  26.542  1.00  0.00     0.014 A 
ATOM     33  C   UNL A   1      41.274  23.232  28.440  1.00  0.00     0.010 A 
ATOM     34  C   UNL A   1      39.660  24.284  27.009  1.00  0.00     0.010 A 
ATOM     35  C   UNL A   1      40.715  24.415  27.915  1.00  0.00    -0.014 A 
BRANCH  35  36
ATOM     36  C   UNL A   1      41.338  25.752  28.162  1.00  0.00     0.031 A 
ATOM     37  C   UNL A   1      40.596  26.891  28.820  1.00  0.00     0.074 A 
ATOM     38  C   UNL A   1      42.561  25.990  27.636  1.00  0.00     0.049 A 
ATOM     39  N   UNL A   1      41.000  28.121  29.030  1.00  0.00    -0.248 NA
ATOM     40  C   UNL A   1      39.221  26.634  29.273  1.00  0.00     0.031 C 
ATOM     41  C   UNL A   1      43.345  25.028  26.852  1.00  0.00     0.029 A 
ATOM     42  N   UNL A   1      43.356  27.112  27.650  1.00  0.00    -0.354 N 
ATOM     43  C   UNL A   1      39.924  28.790  29.602  1.00  0.00     0.074 A 
ATOM     44  C   UNL A   1      38.836  27.838  29.675  1.00  0.00     0.031 C 
ATOM     45  C   UNL A   1      44.510  25.584  26.495  1.00  0.00     0.029 A 
ATOM     46  C   UNL A   1      44.545  26.960  26.971  1.00  0.00     0.049 A 
ATOM     47  H   UNL A   1      43.098  27.947  28.102  1.00  0.00     0.167 HD
ATOM     48  C   UNL A   1      39.853  30.067  30.056  1.00  0.00     0.034 A 
ATOM     49  C   UNL A   1      45.554  27.823  26.740  1.00  0.00     0.034 A 
ATOM     50  C   UNL A   1      40.947  31.002  30.025  1.00  0.00     0.049 A 
ATOM     51  C   UNL A   1      45.474  29.212  27.305  1.00  0.00     0.074 A 
ATOM     52  C   UNL A   1      41.003  32.279  30.560  1.00  0.00     0.029 A 
ATOM     53  N   UNL A   1      42.172  30.773  29.419  1.00  0.00    -0.354 N 
ATOM     54  N   UNL A   1      44.512  29.758  28.006  1.00  0.00    -0.248 NA
ATOM     55  C   UNL A   1      46.630  30.092  27.079  1.00  0.00     0.031 C 
ATOM     56  C   UNL A   1      42.250  32.831  30.252  1.00  0.00     0.029 A 
ATOM     57  C   UNL A   1      42.984  31.887  29.554  1.00  0.00     0.049 A 
ATOM     58  H   UNL A   1      42.426  29.941  28.958  1.00  0.00     0.167 HD
ATOM     59  C   UNL A   1      44.962  31.030  28.340  1.00  0.00     0.074 A 
ATOM     60  C   UNL A   1      46.289  31.167  27.777  1.00  0.00     0.031 C 
ATOM     61  C   UNL A   1      44.325  31.999  29.041  1.00  0.00     0.034 A 
BRANCH  48  62
ATOM     62  C   UNL A   1      38.560  30.521  30.689  1.00  0.00     0.023 A 
ATOM     63  C   UNL A   1      38.360  30.328  32.072  1.00  0.00     0.012 A 
ATOM     64  C   UNL A   1      37.582  31.204  29.940  1.00  0.00     0.148 A 
ATOM     65  C   UNL A   1      37.190  30.771  32.690  1.00  0.00     0.002 A 
ATOM     66  C   UNL A   1      36.439  31.683  30.573  1.00  0.00     0.091 A 
ATOM     67  F   UNL A   1      37.783  31.370  28.625  1.00  0.00    -0.205 F 
ATOM     68  C   UNL A   1      36.236  31.455  31.943  1.00  0.00     0.022 A 
BRANCH  66  69
ATOM     69  S   UNL A   1      35.187  32.649  29.717  1.00  0.00     0.127 S 
ATOM     70  O   UNL A   1      34.658  31.670  28.769  1.00  0.00    -0.237 OA
ATOM     71  O   UNL A   1      34.273  32.999  30.804  1.00  0.00    -0.237 OA
ATOM     72  O   UNL A   1      35.889  33.778  29.124  1.00  0.00    -0.744 OA
ENDBRANCH  66  69
ENDBRANCH  48  62
BRANCH  49  73
ATOM     73  C   UNL A   1      46.759  27.371  25.986  1.00  0.00     0.023 A 
ATOM     74  C   UNL A   1      46.846  27.620  24.603  1.00  0.00     0.012 A 
ATOM     75  C   UNL A   1      47.834  26.733  26.637  1.00  0.00     0.148 A 
ATOM     76  C   UNL A   1      47.962  27.208  23.874  1.00  0.00     0.002 A 
ATOM     77  C   UNL A   1      48.970  26.384  25.917  1.00  0.00     0.091 A 
ATOM     78  F   UNL A   1      47.733  26.502  27.953  1.00  0.00    -0.205 F 
ATOM     79  C   UNL A   1      49.028  26.600  24.532  1.00  0.00     0.022 A 
BRANCH  77  80
ATOM     80  S   UNL A   1      50.449  25.744  26.714  1.00  0.00     0.127 S 
ATOM     81  O   UNL A   1      49.962  24.501  27.302  1.00  0.00    -0.237 OA
ATOM     82  O   UNL A   1      51.358  25.579  25.579  1.00  0.00    -0.237 OA
ATOM     83  O   UNL A   1      50.866  26.774  27.658  1.00  0.00    -0.744 OA
ENDBRANCH  77  80
ENDBRANCH  49  73
BRANCH  61  84
ATOM     84  C   UNL A   1      45.062  33.288  29.289  1.00  0.00     0.023 A 
ATOM     85  C   UNL A   1      45.869  33.431  30.435  1.00  0.00     0.012 A 
ATOM     86  C   UNL A   1      45.024  34.325  28.336  1.00  0.00     0.148 A 
ATOM     87  C   UNL A   1      46.607  34.595  30.639  1.00  0.00     0.002 A 
ATOM     88  C   UNL A   1      45.801  35.461  28.521  1.00  0.00     0.091 A 
ATOM     89  F   UNL A   1      44.232  34.177  27.263  1.00  0.00    -0.205 F 
ATOM     90  C   UNL A   1      46.585  35.603  29.678  1.00  0.00     0.022 A 
BRANCH  88  91
ATOM     91  S   UNL A   1      45.912  36.764  27.290  1.00  0.00     0.127 S 
ATOM     92  O   UNL A   1      46.811  37.714  27.946  1.00  0.00    -0.237 OA
ATOM     93  O   UNL A   1      46.496  36.061  26.149  1.00  0.00    -0.237 OA
ATOM     94  O   UNL A   1      44.551  37.238  27.081  1.00  0.00    -0.744 OA
ENDBRANCH  88  91
ENDBRANCH  61  84
ENDBRANCH  35  36
ENDBRANCH  27  30
ENDBRANCH  25  26
ENDBRANCH   1  25
TORSDOF 16
ENDMDL
MODEL 3
REMARK VINA RESULT:     -12.3      4.934      7.781
REMARK SMILES Cn1ncc(C(=O)NCCCNC(=O)c2ccc(-c3c4nc(c(-c5cccc(S(=O)(=O)[O-])c5F)c5ccc([nH]5)c(-c5cccc(S(=O)(=O)[O-])c5F)c5nc(c(-c6cccc(S(=O)(=O)[O-])c6F)c6ccc3[nH]6)C=C5)C=C4)cc2)c1NS(=O)(=O)[C@@H]1CCS(=O)(=O)C1
REMARK SMILES IDX 10 1 9 2 8 3 6 4 7 5 5 7 1 8 2 9 3 10 78 11 4 12 79 13 80 15
REMARK SMILES IDX 81 16 82 17 83 18 84 19 89 20 85 21 86 22 87 23 88 24 11 25
REMARK SMILES IDX 12 26 13 27 14 29 15 30 16 31 77 32 17 33 76 34 18 35 19 36
REMARK SMILES IDX 20 37 70 38 21 39 75 40 69 41 71 42 22 43 74 44 68 45 67 46
REMARK SMILES IDX 23 48 55 49 35 50 54 51 36 52 39 53 53 54 72 55 37 56 38 57
REMARK SMILES IDX 52 59 73 60 40 61 24 62 25 63 33 64 26 65 28 66 34 67 27 68
REMARK SMILES IDX 29 69 30 70 31 71 32 72 56 73 57 74 65 75 58 76 60 77 66 78
REMARK SMILES IDX 59 79 61 80 62 81 63 82 64 83 41 84 42 85 50 86 43 87 45 88
REMARK SMILES IDX 51 89 44 90 46 91 47 92 48 93 49 94
REMARK H PARENT 8 6 79 14 12 28 71 47 39 58
REMARK Flexibility Score: inf
ROOT
ATOM      1  C   UNL A   1      36.493  22.213  23.802  1.00  0.00     0.042 C 
ENDROOT
BRANCH   1   2
ATOM      2  C   UNL A   1      35.452  23.360  23.429  1.00  0.00     0.118 C 
BRANCH   2   3
ATOM      3  N   UNL A   1      34.081  23.228  22.865  1.00  0.00    -0.352 N 
ATOM      4  C   UNL A   1      33.038  22.303  23.008  1.00  0.00     0.256 C 
ATOM      5  O   UNL A   1      32.162  22.199  22.158  1.00  0.00    -0.269 OA
ATOM      6  H   UNL A   1      33.853  23.961  22.249  1.00  0.00     0.163 HD
BRANCH   4   7
ATOM      7  C   UNL A   1      32.980  21.548  24.200  1.00  0.00     0.102 A 
ATOM      8  C   UNL A   1      33.632  21.752  27.502  1.00  0.00     0.176 C 
ATOM      9  N   UNL A   1      32.961  21.253  26.316  1.00  0.00    -0.251 N 
ATOM     10  N   UNL A   1      33.435  20.069  25.840  1.00  0.00    -0.179 NA
ATOM     11  C   UNL A   1      32.309  21.973  25.312  1.00  0.00     0.150 A 
ATOM     12  C   UNL A   1      33.499  20.281  24.524  1.00  0.00     0.151 A 
BRANCH  11  13
ATOM     13  N   UNL A   1      31.395  23.052  25.295  1.00  0.00    -0.267 N 
ATOM     14  H   UNL A   1      30.505  22.879  24.910  1.00  0.00     0.181 HD
BRANCH  13  15
ATOM     15  S   UNL A   1      31.696  24.621  25.881  1.00  0.00     0.237 S 
ATOM     16  O   UNL A   1      31.259  24.626  27.266  1.00  0.00    -0.206 OA
ATOM     17  O   UNL A   1      33.128  24.701  25.644  1.00  0.00    -0.206 OA
BRANCH  15  18
ATOM     18  C   UNL A   1      31.097  26.196  25.191  1.00  0.00     0.145 C 
ATOM     19  C   UNL A   1      29.883  26.560  24.307  1.00  0.00     0.039 C 
ATOM     20  C   UNL A   1      32.127  27.345  25.020  1.00  0.00     0.158 C 
ATOM     21  C   UNL A   1      30.363  27.282  23.056  1.00  0.00     0.138 C 
ATOM     22  S   UNL A   1      31.495  28.449  23.732  1.00  0.00     0.151 S 
ATOM     23  O   UNL A   1      32.460  28.724  22.714  1.00  0.00    -0.229 OA
ATOM     24  O   UNL A   1      30.722  29.502  24.372  1.00  0.00    -0.229 OA
ENDBRANCH  15  18
ENDBRANCH  13  15
ENDBRANCH  11  13
ENDBRANCH   4   7
ENDBRANCH   2   3
ENDBRANCH   1   2
BRANCH   1  25
ATOM     25  C   UNL A   1      36.842  21.657  25.227  1.00  0.00     0.118 C 
BRANCH  25  26
ATOM     26  N   UNL A   1      38.081  20.837  25.299  1.00  0.00    -0.352 N 
ATOM     27  C   UNL A   1      39.308  21.069  25.923  1.00  0.00     0.251 C 
ATOM     28  H   UNL A   1      38.026  19.978  24.820  1.00  0.00     0.163 HD
ATOM     29  O   UNL A   1      40.173  20.195  25.872  1.00  0.00    -0.269 OA
BRANCH  27  30
ATOM     30  C   UNL A   1      39.602  22.320  26.652  1.00  0.00     0.039 A 
ATOM     31  C   UNL A   1      40.579  22.378  27.640  1.00  0.00     0.014 A 
ATOM     32  C   UNL A   1      38.852  23.456  26.400  1.00  0.00     0.014 A 
ATOM     33  C   UNL A   1      40.944  23.624  28.177  1.00  0.00     0.010 A 
ATOM     34  C   UNL A   1      39.281  24.709  26.830  1.00  0.00     0.010 A 
ATOM     35  C   UNL A   1      40.391  24.818  27.671  1.00  0.00    -0.014 A 
BRANCH  35  36
ATOM     36  C   UNL A   1      41.066  26.138  27.866  1.00  0.00     0.031 A 
ATOM     37  C   UNL A   1      42.481  26.408  27.412  1.00  0.00     0.074 A 
ATOM     38  C   UNL A   1      40.433  27.070  28.615  1.00  0.00     0.049 A 
ATOM     39  N   UNL A   1      43.205  27.487  27.583  1.00  0.00    -0.248 NA
ATOM     40  C   UNL A   1      43.185  25.327  26.705  1.00  0.00     0.031 C 
ATOM     41  C   UNL A   1      39.117  26.900  29.241  1.00  0.00     0.029 A 
ATOM     42  N   UNL A   1      40.811  28.333  29.005  1.00  0.00    -0.354 N 
ATOM     43  C   UNL A   1      44.454  27.206  27.041  1.00  0.00     0.074 A 
ATOM     44  C   UNL A   1      44.401  25.840  26.566  1.00  0.00     0.031 C 
ATOM     45  C   UNL A   1      38.785  28.018  29.899  1.00  0.00     0.029 A 
ATOM     46  C   UNL A   1      39.881  28.972  29.796  1.00  0.00     0.049 A 
ATOM     47  H   UNL A   1      41.667  28.743  28.744  1.00  0.00     0.167 HD
ATOM     48  C   UNL A   1      45.537  28.015  26.919  1.00  0.00     0.034 A 
ATOM     49  C   UNL A   1      39.898  30.183  30.388  1.00  0.00     0.034 A 
ATOM     50  C   UNL A   1      45.578  29.388  27.350  1.00  0.00     0.049 A 
ATOM     51  C   UNL A   1      41.084  31.081  30.186  1.00  0.00     0.074 A 
ATOM     52  C   UNL A   1      46.590  30.316  27.169  1.00  0.00     0.029 A 
ATOM     53  N   UNL A   1      44.574  30.029  28.058  1.00  0.00    -0.354 N 
ATOM     54  N   UNL A   1      42.181  30.850  29.508  1.00  0.00    -0.248 NA
ATOM     55  C   UNL A   1      41.024  32.415  30.799  1.00  0.00     0.031 C 
ATOM     56  C   UNL A   1      46.209  31.509  27.792  1.00  0.00     0.029 A 
ATOM     57  C   UNL A   1      44.946  31.335  28.332  1.00  0.00     0.049 A 
ATOM     58  H   UNL A   1      43.722  29.616  28.327  1.00  0.00     0.167 HD
ATOM     59  C   UNL A   1      42.922  32.024  29.578  1.00  0.00     0.074 A 
ATOM     60  C   UNL A   1      42.144  32.967  30.352  1.00  0.00     0.031 C 
ATOM     61  C   UNL A   1      44.144  32.288  29.055  1.00  0.00     0.034 A 
BRANCH  48  62
ATOM     62  C   UNL A   1      46.760  27.459  26.232  1.00  0.00     0.023 A 
ATOM     63  C   UNL A   1      46.958  27.709  24.857  1.00  0.00     0.012 A 
ATOM     64  C   UNL A   1      47.749  26.761  26.954  1.00  0.00     0.148 A 
ATOM     65  C   UNL A   1      48.098  27.238  24.206  1.00  0.00     0.002 A 
ATOM     66  C   UNL A   1      48.904  26.336  26.307  1.00  0.00     0.091 A 
ATOM     67  F   UNL A   1      47.541  26.523  28.257  1.00  0.00    -0.205 F 
ATOM     68  C   UNL A   1      49.073  26.561  24.931  1.00  0.00     0.022 A 
BRANCH  66  69
ATOM     69  S   UNL A   1      50.258  25.526  27.168  1.00  0.00     0.127 S 
ATOM     70  O   UNL A   1      51.231  25.355  26.090  1.00  0.00    -0.237 OA
ATOM     71  O   UNL A   1      50.627  26.527  28.170  1.00  0.00    -0.237 OA
ATOM     72  O   UNL A   1      49.707  24.295  27.714  1.00  0.00    -0.744 OA
ENDBRANCH  66  69
ENDBRANCH  48  62
BRANCH  49  73
ATOM     73  C   UNL A   1      38.717  30.639  31.177  1.00  0.00     0.023 A 
ATOM     74  C   UNL A   1      38.711  30.470  32.575  1.00  0.00     0.012 A 
ATOM     75  C   UNL A   1      37.623  31.274  30.558  1.00  0.00     0.148 A 
ATOM     76  C   UNL A   1      37.620  30.889  33.338  1.00  0.00     0.002 A 
ATOM     77  C   UNL A   1      36.568  31.746  31.330  1.00  0.00     0.091 A 
ATOM     78  F   UNL A   1      37.645  31.424  29.226  1.00  0.00    -0.205 F 
ATOM     79  C   UNL A   1      36.554  31.536  32.718  1.00  0.00     0.022 A 
BRANCH  77  80
ATOM     80  S   UNL A   1      35.236  32.730  30.633  1.00  0.00     0.127 S 
ATOM     81  O   UNL A   1      34.751  31.866  29.562  1.00  0.00    -0.237 OA
ATOM     82  O   UNL A   1      34.332  32.870  31.775  1.00  0.00    -0.237 OA
ATOM     83  O   UNL A   1      35.850  33.983  30.209  1.00  0.00    -0.744 OA
ENDBRANCH  77  80
ENDBRANCH  49  73
BRANCH  61  84
ATOM     84  C   UNL A   1      44.712  33.668  29.255  1.00  0.00     0.023 A 
ATOM     85  C   UNL A   1      45.540  33.937  30.361  1.00  0.00     0.012 A 
ATOM     86  C   UNL A   1      44.494  34.674  28.291  1.00  0.00     0.148 A 
ATOM     87  C   UNL A   1      46.124  35.194  30.519  1.00  0.00     0.002 A 
ATOM     88  C   UNL A   1      45.120  35.906  28.429  1.00  0.00     0.091 A 
ATOM     89  F   UNL A   1      43.684  34.402  27.257  1.00  0.00    -0.205 F 
ATOM     90  C   UNL A   1      45.927  36.172  29.547  1.00  0.00     0.022 A 
BRANCH  88  91
ATOM     91  S   UNL A   1      45.003  37.191  27.179  1.00  0.00     0.127 S 
ATOM     92  O   UNL A   1      45.993  36.742  26.200  1.00  0.00    -0.237 OA
ATOM     93  O   UNL A   1      43.613  37.068  26.740  1.00  0.00    -0.237 OA
ATOM     94  O   UNL A   1      45.319  38.441  27.855  1.00  0.00    -0.744 OA
ENDBRANCH  88  91
ENDBRANCH  61  84
ENDBRANCH  35  36
ENDBRANCH  27  30
ENDBRANCH  25  26
ENDBRANCH   1  25
TORSDOF 16
ENDMDL
