MODEL 1
REMARK VINA RESULT:     -10.9      0.000      0.000
REMARK SMILES CC(C)(C)OC(=O)CSc1ccnc(C(=O)NCCCNC(=O)c2ccc(-c3c4nc(c(-c5cccc(S(=O)(=O)[O-])c5F)c5ccc([nH]5)c(-c5cccc(S(=O)(=O)[O-])c5F)c5nc(c(-c6cccc(S(=O)(=O)[O-])c6F)c6ccc3[nH]6)C=C5)C=C4)cc2)c1
REMARK SMILES IDX 18 1 17 2 15 3 16 4 14 6 10 7 11 8 87 9 12 10 13 11 9 12
REMARK SMILES IDX 8 13 6 14 7 15 5 16 2 17 1 18 3 19 4 20 19 21 20 22 21 23
REMARK SMILES IDX 22 24 23 26 24 27 25 28 86 29 26 30 85 31 27 32 28 33 29 34
REMARK SMILES IDX 79 35 30 36 84 37 78 38 80 39 31 40 83 41 77 42 76 43 32 45
REMARK SMILES IDX 64 46 44 47 63 48 45 49 48 50 62 51 81 52 46 53 47 54 61 56
REMARK SMILES IDX 82 57 49 58 33 59 34 60 42 61 35 62 37 63 43 64 36 65 38 66
REMARK SMILES IDX 39 67 40 68 41 69 65 70 66 71 74 72 67 73 69 74 75 75 68 76
REMARK SMILES IDX 70 77 71 78 72 79 73 80 50 81 51 82 59 83 52 84 54 85 60 86
REMARK SMILES IDX 53 87 55 88 56 89 57 90 58 91
REMARK H PARENT 17 5 21 25 80 44 48 55
REMARK Flexibility Score: inf
ROOT
ATOM      1  C   UNL A   1      34.061  28.587  22.821  1.00  0.00     0.118 C 
ENDROOT
BRANCH   1   2
ATOM      2  N   UNL A   1      33.658  27.563  21.877  1.00  0.00    -0.351 N 
ATOM      3  C   UNL A   1      33.333  26.231  21.998  1.00  0.00     0.269 C 
ATOM      4  O   UNL A   1      33.007  25.663  20.952  1.00  0.00    -0.268 OA
ATOM      5  H   UNL A   1      33.605  27.891  20.950  1.00  0.00     0.163 HD
BRANCH   3   6
ATOM      6  C   UNL A   1      33.300  25.476  23.302  1.00  0.00     0.129 A 
ATOM      7  C   UNL A   1      32.809  23.601  24.708  1.00  0.00     0.012 A 
ATOM      8  C   UNL A   1      33.578  24.176  25.713  1.00  0.00     0.035 A 
ATOM      9  C   UNL A   1      32.623  24.283  23.505  1.00  0.00     0.049 A 
ATOM     10  C   UNL A   1      34.137  25.413  25.470  1.00  0.00     0.113 A 
ATOM     11  N   UNL A   1      34.038  26.054  24.290  1.00  0.00    -0.251 NA
BRANCH   7  12
ATOM     12  S   UNL A   1      32.173  21.947  24.916  1.00  0.00    -0.114 SA
BRANCH  12  13
ATOM     13  C   UNL A   1      33.334  21.304  26.168  1.00  0.00     0.197 C 
BRANCH  13  14
ATOM     14  C   UNL A   1      34.620  20.821  25.540  1.00  0.00     0.316 C 
ATOM     15  O   UNL A   1      34.668  19.925  24.712  1.00  0.00    -0.251 OA
BRANCH  14  16
ATOM     16  O   UNL A   1      35.686  21.523  26.013  1.00  0.00    -0.459 OA
BRANCH  16  17
ATOM     17  C   UNL A   1      36.708  22.021  25.115  1.00  0.00     0.104 C 
ATOM     18  C   UNL A   1      37.288  23.249  25.835  1.00  0.00     0.056 C 
ATOM     19  C   UNL A   1      36.101  22.469  23.783  1.00  0.00     0.056 C 
ATOM     20  C   UNL A   1      37.834  21.001  24.919  1.00  0.00     0.056 C 
ENDBRANCH  16  17
ENDBRANCH  14  16
ENDBRANCH  13  14
ENDBRANCH  12  13
ENDBRANCH   7  12
ENDBRANCH   3   6
ENDBRANCH   1   2
BRANCH   1  21
ATOM     21  C   UNL A   1      32.866  29.080  23.636  1.00  0.00     0.042 C 
BRANCH  21  22
ATOM     22  C   UNL A   1      33.174  29.211  25.127  1.00  0.00     0.118 C 
BRANCH  22  23
ATOM     23  N   UNL A   1      32.692  30.477  25.666  1.00  0.00    -0.352 N 
ATOM     24  C   UNL A   1      33.062  31.168  26.788  1.00  0.00     0.251 C 
ATOM     25  H   UNL A   1      31.983  30.905  25.133  1.00  0.00     0.163 HD
ATOM     26  O   UNL A   1      32.331  32.069  27.196  1.00  0.00    -0.269 OA
BRANCH  24  27
ATOM     27  C   UNL A   1      34.320  30.856  27.502  1.00  0.00     0.039 A 
ATOM     28  C   UNL A   1      34.473  29.582  28.056  1.00  0.00     0.014 A 
ATOM     29  C   UNL A   1      35.308  31.823  27.696  1.00  0.00     0.014 A 
ATOM     30  C   UNL A   1      35.627  29.274  28.779  1.00  0.00     0.010 A 
ATOM     31  C   UNL A   1      36.495  31.489  28.345  1.00  0.00     0.010 A 
ATOM     32  C   UNL A   1      36.659  30.218  28.912  1.00  0.00    -0.014 A 
BRANCH  32  33
ATOM     33  C   UNL A   1      37.906  29.876  29.641  1.00  0.00     0.031 A 
ATOM     34  C   UNL A   1      38.168  30.423  31.020  1.00  0.00     0.074 A 
ATOM     35  C   UNL A   1      38.830  29.104  29.036  1.00  0.00     0.049 A 
ATOM     36  N   UNL A   1      39.186  30.206  31.812  1.00  0.00    -0.248 NA
ATOM     37  C   UNL A   1      37.171  31.356  31.574  1.00  0.00     0.031 C 
ATOM     38  C   UNL A   1      38.733  28.590  27.667  1.00  0.00     0.029 A 
ATOM     39  N   UNL A   1      40.035  28.627  29.484  1.00  0.00    -0.354 N 
ATOM     40  C   UNL A   1      38.971  30.993  32.938  1.00  0.00     0.074 A 
ATOM     41  C   UNL A   1      37.745  31.725  32.710  1.00  0.00     0.031 C 
ATOM     42  C   UNL A   1      39.820  27.852  27.396  1.00  0.00     0.029 A 
ATOM     43  C   UNL A   1      40.702  27.861  28.557  1.00  0.00     0.049 A 
ATOM     44  H   UNL A   1      40.388  28.815  30.384  1.00  0.00     0.167 HD
ATOM     45  C   UNL A   1      39.708  31.075  34.071  1.00  0.00     0.034 A 
ATOM     46  C   UNL A   1      41.891  27.232  28.636  1.00  0.00     0.034 A 
ATOM     47  C   UNL A   1      40.909  30.319  34.306  1.00  0.00     0.049 A 
ATOM     48  C   UNL A   1      42.658  27.292  29.929  1.00  0.00     0.074 A 
ATOM     49  C   UNL A   1      41.686  30.265  35.449  1.00  0.00     0.029 A 
ATOM     50  N   UNL A   1      41.515  29.487  33.374  1.00  0.00    -0.354 N 
ATOM     51  N   UNL A   1      42.354  27.911  31.042  1.00  0.00    -0.248 NA
ATOM     52  C   UNL A   1      43.912  26.527  29.988  1.00  0.00     0.031 C 
ATOM     53  C   UNL A   1      42.776  29.424  35.200  1.00  0.00     0.029 A 
ATOM     54  C   UNL A   1      42.658  28.922  33.914  1.00  0.00     0.049 A 
ATOM     55  H   UNL A   1      41.179  29.322  32.463  1.00  0.00     0.167 HD
ATOM     56  C   UNL A   1      43.358  27.585  31.947  1.00  0.00     0.074 A 
ATOM     57  C   UNL A   1      44.262  26.687  31.257  1.00  0.00     0.031 C 
ATOM     58  C   UNL A   1      43.525  27.999  33.228  1.00  0.00     0.034 A 
BRANCH  45  59
ATOM     59  C   UNL A   1      39.208  31.983  35.168  1.00  0.00     0.023 A 
ATOM     60  C   UNL A   1      38.223  31.517  36.064  1.00  0.00     0.012 A 
ATOM     61  C   UNL A   1      39.748  33.272  35.348  1.00  0.00     0.148 A 
ATOM     62  C   UNL A   1      37.754  32.332  37.095  1.00  0.00     0.002 A 
ATOM     63  C   UNL A   1      39.311  34.060  36.408  1.00  0.00     0.091 A 
ATOM     64  F   UNL A   1      40.670  33.707  34.479  1.00  0.00    -0.205 F 
ATOM     65  C   UNL A   1      38.306  33.597  37.273  1.00  0.00     0.022 A 
BRANCH  63  66
ATOM     66  S   UNL A   1      40.015  35.671  36.776  1.00  0.00     0.127 S 
ATOM     67  O   UNL A   1      39.604  36.446  35.607  1.00  0.00    -0.237 OA
ATOM     68  O   UNL A   1      39.329  36.030  38.017  1.00  0.00    -0.237 OA
ATOM     69  O   UNL A   1      41.450  35.462  36.913  1.00  0.00    -0.744 OA
ENDBRANCH  63  66
ENDBRANCH  45  59
BRANCH  46  70
ATOM     70  C   UNL A   1      42.385  26.426  27.484  1.00  0.00     0.023 A 
ATOM     71  C   UNL A   1      43.219  27.029  26.522  1.00  0.00     0.012 A 
ATOM     72  C   UNL A   1      42.058  25.063  27.352  1.00  0.00     0.148 A 
ATOM     73  C   UNL A   1      43.686  26.300  25.428  1.00  0.00     0.002 A 
ATOM     74  C   UNL A   1      42.576  24.327  26.293  1.00  0.00     0.091 A 
ATOM     75  F   UNL A   1      41.259  24.510  28.275  1.00  0.00    -0.205 F 
ATOM     76  C   UNL A   1      43.373  24.947  25.319  1.00  0.00     0.022 A 
BRANCH  74  77
ATOM     77  S   UNL A   1      42.342  22.552  26.150  1.00  0.00     0.127 S 
ATOM     78  O   UNL A   1      43.064  22.254  24.916  1.00  0.00    -0.237 OA
ATOM     79  O   UNL A   1      42.980  22.064  27.373  1.00  0.00    -0.237 OA
ATOM     80  O   UNL A   1      40.900  22.348  26.105  1.00  0.00    -0.744 OA
ENDBRANCH  74  77
ENDBRANCH  46  70
BRANCH  58  81
ATOM     81  C   UNL A   1      44.714  27.455  33.978  1.00  0.00     0.023 A 
ATOM     82  C   UNL A   1      45.927  28.172  33.995  1.00  0.00     0.012 A 
ATOM     83  C   UNL A   1      44.618  26.247  34.696  1.00  0.00     0.148 A 
ATOM     84  C   UNL A   1      47.040  27.669  34.669  1.00  0.00     0.002 A 
ATOM     85  C   UNL A   1      45.714  25.779  35.410  1.00  0.00     0.091 A 
ATOM     86  F   UNL A   1      43.462  25.566  34.655  1.00  0.00    -0.205 F 
ATOM     87  C   UNL A   1      46.930  26.480  35.384  1.00  0.00     0.022 A 
BRANCH  85  88
ATOM     88  S   UNL A   1      45.629  24.310  36.439  1.00  0.00     0.127 S 
ATOM     89  O   UNL A   1      45.473  23.255  35.439  1.00  0.00    -0.237 OA
ATOM     90  O   UNL A   1      46.929  24.325  37.112  1.00  0.00    -0.237 OA
ATOM     91  O   UNL A   1      44.491  24.510  37.326  1.00  0.00    -0.744 OA
ENDBRANCH  85  88
ENDBRANCH  58  81
ENDBRANCH  32  33
ENDBRANCH  24  27
ENDBRANCH  22  23
ENDBRANCH  21  22
ENDBRANCH   1  21
TORSDOF 18
ENDMDL
MODEL 2
REMARK VINA RESULT:     -10.8      4.907     10.068
REMARK SMILES CC(C)(C)OC(=O)CSc1ccnc(C(=O)NCCCNC(=O)c2ccc(-c3c4nc(c(-c5cccc(S(=O)(=O)[O-])c5F)c5ccc([nH]5)c(-c5cccc(S(=O)(=O)[O-])c5F)c5nc(c(-c6cccc(S(=O)(=O)[O-])c6F)c6ccc3[nH]6)C=C5)C=C4)cc2)c1
REMARK SMILES IDX 18 1 17 2 15 3 16 4 14 6 10 7 11 8 87 9 12 10 13 11 9 12
REMARK SMILES IDX 8 13 6 14 7 15 5 16 2 17 1 18 3 19 4 20 19 21 20 22 21 23
REMARK SMILES IDX 22 24 23 26 24 27 25 28 86 29 26 30 85 31 27 32 28 33 29 34
REMARK SMILES IDX 79 35 30 36 84 37 78 38 80 39 31 40 83 41 77 42 76 43 32 45
REMARK SMILES IDX 64 46 44 47 63 48 45 49 48 50 62 51 81 52 46 53 47 54 61 56
REMARK SMILES IDX 82 57 49 58 33 59 34 60 42 61 35 62 37 63 43 64 36 65 38 66
REMARK SMILES IDX 39 67 40 68 41 69 65 70 66 71 74 72 67 73 69 74 75 75 68 76
REMARK SMILES IDX 70 77 71 78 72 79 73 80 50 81 51 82 59 83 52 84 54 85 60 86
REMARK SMILES IDX 53 87 55 88 56 89 57 90 58 91
REMARK H PARENT 17 5 21 25 80 44 48 55
REMARK Flexibility Score: inf
ROOT
ATOM      1  C   UNL A   1      34.538  22.403  25.900  1.00  0.00     0.118 C 
ENDROOT
BRANCH   1   2
ATOM      2  N   UNL A   1      33.381  22.490  26.769  1.00  0.00    -0.351 N 
ATOM      3  C   UNL A   1      32.172  23.145  26.682  1.00  0.00     0.269 C 
ATOM      4  O   UNL A   1      31.400  22.967  27.628  1.00  0.00    -0.268 OA
ATOM      5  H   UNL A   1      33.480  21.971  27.599  1.00  0.00     0.163 HD
BRANCH   3   6
ATOM      6  C   UNL A   1      31.740  23.987  25.509  1.00  0.00     0.129 A 
ATOM      7  C   UNL A   1      31.740  25.943  24.129  1.00  0.00     0.012 A 
ATOM      8  C   UNL A   1      31.021  25.244  23.168  1.00  0.00     0.035 A 
ATOM      9  C   UNL A   1      32.059  25.325  25.339  1.00  0.00     0.049 A 
ATOM     10  C   UNL A   1      30.653  23.946  23.454  1.00  0.00     0.113 A 
ATOM     11  N   UNL A   1      31.017  23.302  24.579  1.00  0.00    -0.251 NA
BRANCH   7  12
ATOM     12  S   UNL A   1      32.356  27.578  23.761  1.00  0.00    -0.114 SA
BRANCH  12  13
ATOM     13  C   UNL A   1      30.864  28.573  24.092  1.00  0.00     0.197 C 
BRANCH  13  14
ATOM     14  C   UNL A   1      30.212  29.043  22.813  1.00  0.00     0.316 C 
ATOM     15  O   UNL A   1      30.248  28.410  21.770  1.00  0.00    -0.251 OA
BRANCH  14  16
ATOM     16  O   UNL A   1      29.586  30.239  22.997  1.00  0.00    -0.459 OA
BRANCH  16  17
ATOM     17  C   UNL A   1      28.170  30.386  22.732  1.00  0.00     0.104 C 
ATOM     18  C   UNL A   1      28.089  30.688  21.227  1.00  0.00     0.056 C 
ATOM     19  C   UNL A   1      27.585  31.570  23.506  1.00  0.00     0.056 C 
ATOM     20  C   UNL A   1      27.404  29.088  23.005  1.00  0.00     0.056 C 
ENDBRANCH  16  17
ENDBRANCH  14  16
ENDBRANCH  13  14
ENDBRANCH  12  13
ENDBRANCH   7  12
ENDBRANCH   3   6
ENDBRANCH   1   2
BRANCH   1  21
ATOM     21  C   UNL A   1      35.550  23.501  26.223  1.00  0.00     0.042 C 
BRANCH  21  22
ATOM     22  C   UNL A   1      36.822  23.407  25.381  1.00  0.00     0.118 C 
BRANCH  22  23
ATOM     23  N   UNL A   1      37.761  22.438  25.935  1.00  0.00    -0.352 N 
ATOM     24  C   UNL A   1      39.005  22.613  26.479  1.00  0.00     0.251 C 
ATOM     25  H   UNL A   1      37.447  21.506  25.914  1.00  0.00     0.163 HD
ATOM     26  O   UNL A   1      39.729  21.630  26.626  1.00  0.00    -0.269 OA
BRANCH  24  27
ATOM     27  C   UNL A   1      39.478  23.950  26.898  1.00  0.00     0.039 A 
ATOM     28  C   UNL A   1      39.286  24.339  28.227  1.00  0.00     0.014 A 
ATOM     29  C   UNL A   1      40.034  24.848  25.984  1.00  0.00     0.014 A 
ATOM     30  C   UNL A   1      39.676  25.615  28.640  1.00  0.00     0.010 A 
ATOM     31  C   UNL A   1      40.500  26.088  26.416  1.00  0.00     0.010 A 
ATOM     32  C   UNL A   1      40.306  26.494  27.744  1.00  0.00    -0.014 A 
BRANCH  32  33
ATOM     33  C   UNL A   1      40.763  27.833  28.194  1.00  0.00     0.031 A 
ATOM     34  C   UNL A   1      42.225  28.195  28.177  1.00  0.00     0.074 A 
ATOM     35  C   UNL A   1      39.856  28.711  28.666  1.00  0.00     0.049 A 
ATOM     36  N   UNL A   1      42.797  29.325  28.505  1.00  0.00    -0.248 NA
ATOM     37  C   UNL A   1      43.172  27.147  27.761  1.00  0.00     0.031 C 
ATOM     38  C   UNL A   1      38.424  28.443  28.820  1.00  0.00     0.029 A 
ATOM     39  N   UNL A   1      40.003  29.998  29.115  1.00  0.00    -0.354 N 
ATOM     40  C   UNL A   1      44.164  29.116  28.367  1.00  0.00     0.074 A 
ATOM     41  C   UNL A   1      44.340  27.739  27.964  1.00  0.00     0.031 C 
ATOM     42  C   UNL A   1      37.821  29.539  29.306  1.00  0.00     0.029 A 
ATOM     43  C   UNL A   1      38.823  30.576  29.522  1.00  0.00     0.049 A 
ATOM     44  H   UNL A   1      40.870  30.465  29.142  1.00  0.00     0.167 HD
ATOM     45  C   UNL A   1      45.179  29.998  28.529  1.00  0.00     0.034 A 
ATOM     46  C   UNL A   1      38.576  31.807  30.012  1.00  0.00     0.034 A 
ATOM     47  C   UNL A   1      44.995  31.377  28.897  1.00  0.00     0.049 A 
ATOM     48  C   UNL A   1      39.714  32.784  30.124  1.00  0.00     0.074 A 
ATOM     49  C   UNL A   1      45.947  32.375  29.008  1.00  0.00     0.029 A 
ATOM     50  N   UNL A   1      43.776  31.952  29.224  1.00  0.00    -0.354 N 
ATOM     51  N   UNL A   1      40.980  32.616  29.830  1.00  0.00    -0.248 NA
ATOM     52  C   UNL A   1      39.379  34.136  30.592  1.00  0.00     0.031 C 
ATOM     53  C   UNL A   1      45.307  33.546  29.429  1.00  0.00     0.029 A 
ATOM     54  C   UNL A   1      43.950  33.288  29.543  1.00  0.00     0.049 A 
ATOM     55  H   UNL A   1      42.912  31.479  29.227  1.00  0.00     0.167 HD
ATOM     56  C   UNL A   1      41.588  33.848  30.044  1.00  0.00     0.074 A 
ATOM     57  C   UNL A   1      40.542  34.759  30.462  1.00  0.00     0.031 C 
ATOM     58  C   UNL A   1      42.894  34.192  29.919  1.00  0.00     0.034 A 
BRANCH  45  59
ATOM     59  C   UNL A   1      46.582  29.510  28.260  1.00  0.00     0.023 A 
ATOM     60  C   UNL A   1      47.140  29.665  26.974  1.00  0.00     0.012 A 
ATOM     61  C   UNL A   1      47.366  28.950  29.288  1.00  0.00     0.148 A 
ATOM     62  C   UNL A   1      48.440  29.236  26.704  1.00  0.00     0.002 A 
ATOM     63  C   UNL A   1      48.678  28.568  29.023  1.00  0.00     0.091 A 
ATOM     64  F   UNL A   1      46.817  28.792  30.499  1.00  0.00    -0.205 F 
ATOM     65  C   UNL A   1      49.210  28.697  27.730  1.00  0.00     0.022 A 
BRANCH  63  66
ATOM     66  S   UNL A   1      49.782  27.942  30.293  1.00  0.00     0.127 S 
ATOM     67  O   UNL A   1      50.460  29.164  30.724  1.00  0.00    -0.237 OA
ATOM     68  O   UNL A   1      48.844  27.390  31.271  1.00  0.00    -0.237 OA
ATOM     69  O   UNL A   1      50.630  26.955  29.640  1.00  0.00    -0.744 OA
ENDBRANCH  63  66
ENDBRANCH  45  59
BRANCH  46  70
ATOM     70  C   UNL A   1      37.182  32.206  30.355  1.00  0.00     0.023 A 
ATOM     71  C   UNL A   1      36.730  32.081  31.683  1.00  0.00     0.012 A 
ATOM     72  C   UNL A   1      36.312  32.733  29.381  1.00  0.00     0.148 A 
ATOM     73  C   UNL A   1      35.426  32.437  32.028  1.00  0.00     0.002 A 
ATOM     74  C   UNL A   1      35.035  33.143  29.743  1.00  0.00     0.091 A 
ATOM     75  F   UNL A   1      36.759  32.838  28.122  1.00  0.00    -0.205 F 
ATOM     76  C   UNL A   1      34.582  32.976  31.061  1.00  0.00     0.022 A 
BRANCH  74  77
ATOM     77  S   UNL A   1      33.931  33.976  28.597  1.00  0.00     0.127 S 
ATOM     78  O   UNL A   1      33.503  32.874  27.740  1.00  0.00    -0.237 OA
ATOM     79  O   UNL A   1      32.900  34.495  29.497  1.00  0.00    -0.237 OA
ATOM     80  O   UNL A   1      34.736  35.005  27.953  1.00  0.00    -0.744 OA
ENDBRANCH  74  77
ENDBRANCH  46  70
BRANCH  58  81
ATOM     81  C   UNL A   1      43.259  35.627  30.204  1.00  0.00     0.023 A 
ATOM     82  C   UNL A   1      43.818  35.979  31.449  1.00  0.00     0.012 A 
ATOM     83  C   UNL A   1      43.078  36.621  29.223  1.00  0.00     0.148 A 
ATOM     84  C   UNL A   1      44.140  37.306  31.732  1.00  0.00     0.002 A 
ATOM     85  C   UNL A   1      43.454  37.932  29.491  1.00  0.00     0.091 A 
ATOM     86  F   UNL A   1      42.529  36.273  28.049  1.00  0.00    -0.205 F 
ATOM     87  C   UNL A   1      43.968  38.279  30.751  1.00  0.00     0.022 A 
BRANCH  85  88
ATOM     88  S   UNL A   1      43.360  39.227  28.252  1.00  0.00     0.127 S 
ATOM     89  O   UNL A   1      43.914  40.371  28.974  1.00  0.00    -0.237 OA
ATOM     90  O   UNL A   1      44.218  38.704  27.188  1.00  0.00    -0.237 OA
ATOM     91  O   UNL A   1      41.953  39.333  27.891  1.00  0.00    -0.744 OA
ENDBRANCH  85  88
ENDBRANCH  58  81
ENDBRANCH  32  33
ENDBRANCH  24  27
ENDBRANCH  22  23
ENDBRANCH  21  22
ENDBRANCH   1  21
TORSDOF 18
ENDMDL
MODEL 3
REMARK VINA RESULT:     -10.8      1.614      2.130
REMARK SMILES CC(C)(C)OC(=O)CSc1ccnc(C(=O)NCCCNC(=O)c2ccc(-c3c4nc(c(-c5cccc(S(=O)(=O)[O-])c5F)c5ccc([nH]5)c(-c5cccc(S(=O)(=O)[O-])c5F)c5nc(c(-c6cccc(S(=O)(=O)[O-])c6F)c6ccc3[nH]6)C=C5)C=C4)cc2)c1
REMARK SMILES IDX 18 1 17 2 15 3 16 4 14 6 10 7 11 8 87 9 12 10 13 11 9 12
REMARK SMILES IDX 8 13 6 14 7 15 5 16 2 17 1 18 3 19 4 20 19 21 20 22 21 23
REMARK SMILES IDX 22 24 23 26 24 27 25 28 86 29 26 30 85 31 27 32 28 33 29 34
REMARK SMILES IDX 79 35 30 36 84 37 78 38 80 39 31 40 83 41 77 42 76 43 32 45
REMARK SMILES IDX 64 46 44 47 63 48 45 49 48 50 62 51 81 52 46 53 47 54 61 56
REMARK SMILES IDX 82 57 49 58 33 59 34 60 42 61 35 62 37 63 43 64 36 65 38 66
REMARK SMILES IDX 39 67 40 68 41 69 65 70 66 71 74 72 67 73 69 74 75 75 68 76
REMARK SMILES IDX 70 77 71 78 72 79 73 80 50 81 51 82 59 83 52 84 54 85 60 86
REMARK SMILES IDX 53 87 55 88 56 89 57 90 58 91
REMARK H PARENT 17 5 21 25 80 44 48 55
REMARK Flexibility Score: inf
ROOT
ATOM      1  C   UNL A   1      33.827  27.989  22.968  1.00  0.00     0.118 C 
ENDROOT
BRANCH   1   2
ATOM      2  N   UNL A   1      33.106  27.261  21.942  1.00  0.00    -0.351 N 
ATOM      3  C   UNL A   1      32.047  26.382  21.966  1.00  0.00     0.269 C 
ATOM      4  O   UNL A   1      31.674  25.965  20.866  1.00  0.00    -0.268 OA
ATOM      5  H   UNL A   1      33.447  27.431  21.035  1.00  0.00     0.163 HD
BRANCH   3   6
ATOM      6  C   UNL A   1      31.310  25.966  23.214  1.00  0.00     0.129 A 
ATOM      7  C   UNL A   1      31.053  24.808  25.293  1.00  0.00     0.012 A 
ATOM      8  C   UNL A   1      29.904  25.548  25.544  1.00  0.00     0.035 A 
ATOM      9  C   UNL A   1      31.737  24.980  24.089  1.00  0.00     0.049 A 
ATOM     10  C   UNL A   1      29.488  26.440  24.577  1.00  0.00     0.113 A 
ATOM     11  N   UNL A   1      30.174  26.680  23.444  1.00  0.00    -0.251 NA
BRANCH   7  12
ATOM     12  S   UNL A   1      31.712  23.738  26.561  1.00  0.00    -0.114 SA
BRANCH  12  13
ATOM     13  C   UNL A   1      33.476  24.201  26.495  1.00  0.00     0.197 C 
BRANCH  13  14
ATOM     14  C   UNL A   1      34.359  22.997  26.265  1.00  0.00     0.316 C 
ATOM     15  O   UNL A   1      35.577  23.058  26.211  1.00  0.00    -0.251 OA
BRANCH  14  16
ATOM     16  O   UNL A   1      33.614  21.864  26.142  1.00  0.00    -0.459 OA
BRANCH  16  17
ATOM     17  C   UNL A   1      33.778  20.984  25.003  1.00  0.00     0.104 C 
ATOM     18  C   UNL A   1      33.692  21.915  23.783  1.00  0.00     0.056 C 
ATOM     19  C   UNL A   1      32.640  19.963  24.927  1.00  0.00     0.056 C 
ATOM     20  C   UNL A   1      35.154  20.311  25.000  1.00  0.00     0.056 C 
ENDBRANCH  16  17
ENDBRANCH  14  16
ENDBRANCH  13  14
ENDBRANCH  12  13
ENDBRANCH   7  12
ENDBRANCH   3   6
ENDBRANCH   1   2
BRANCH   1  21
ATOM     21  C   UNL A   1      32.945  29.068  23.595  1.00  0.00     0.042 C 
BRANCH  21  22
ATOM     22  C   UNL A   1      33.116  29.172  25.110  1.00  0.00     0.118 C 
BRANCH  22  23
ATOM     23  N   UNL A   1      32.656  30.460  25.615  1.00  0.00    -0.352 N 
ATOM     24  C   UNL A   1      33.029  31.169  26.725  1.00  0.00     0.251 C 
ATOM     25  H   UNL A   1      31.962  30.891  25.065  1.00  0.00     0.163 HD
ATOM     26  O   UNL A   1      32.314  32.094  27.105  1.00  0.00    -0.269 OA
BRANCH  24  27
ATOM     27  C   UNL A   1      34.273  30.846  27.459  1.00  0.00     0.039 A 
ATOM     28  C   UNL A   1      34.405  29.572  28.018  1.00  0.00     0.014 A 
ATOM     29  C   UNL A   1      35.267  31.804  27.667  1.00  0.00     0.014 A 
ATOM     30  C   UNL A   1      35.545  29.254  28.759  1.00  0.00     0.010 A 
ATOM     31  C   UNL A   1      36.441  31.460  28.335  1.00  0.00     0.010 A 
ATOM     32  C   UNL A   1      36.583  30.188  28.907  1.00  0.00    -0.014 A 
BRANCH  32  33
ATOM     33  C   UNL A   1      37.816  29.836  29.656  1.00  0.00     0.031 A 
ATOM     34  C   UNL A   1      38.060  30.380  31.039  1.00  0.00     0.074 A 
ATOM     35  C   UNL A   1      38.743  29.057  29.065  1.00  0.00     0.049 A 
ATOM     36  N   UNL A   1      39.063  30.154  31.848  1.00  0.00    -0.248 NA
ATOM     37  C   UNL A   1      37.061  31.320  31.578  1.00  0.00     0.031 C 
ATOM     38  C   UNL A   1      38.664  28.545  27.694  1.00  0.00     0.029 A 
ATOM     39  N   UNL A   1      39.937  28.570  29.533  1.00  0.00    -0.354 N 
ATOM     40  C   UNL A   1      38.836  30.942  32.971  1.00  0.00     0.074 A 
ATOM     41  C   UNL A   1      37.619  31.684  32.723  1.00  0.00     0.031 C 
ATOM     42  C   UNL A   1      39.750  27.798  27.441  1.00  0.00     0.029 A 
ATOM     43  C   UNL A   1      40.613  27.799  28.617  1.00  0.00     0.049 A 
ATOM     44  H   UNL A   1      40.277  28.755  30.438  1.00  0.00     0.167 HD
ATOM     45  C   UNL A   1      39.554  31.017  34.116  1.00  0.00     0.034 A 
ATOM     46  C   UNL A   1      41.795  27.161  28.715  1.00  0.00     0.034 A 
ATOM     47  C   UNL A   1      40.745  30.251  34.370  1.00  0.00     0.049 A 
ATOM     48  C   UNL A   1      42.542  27.214  30.020  1.00  0.00     0.074 A 
ATOM     49  C   UNL A   1      41.502  30.191  35.526  1.00  0.00     0.029 A 
ATOM     50  N   UNL A   1      41.359  29.415  33.448  1.00  0.00    -0.354 N 
ATOM     51  N   UNL A   1      42.224  27.835  31.129  1.00  0.00    -0.248 NA
ATOM     52  C   UNL A   1      43.788  26.439  30.099  1.00  0.00     0.031 C 
ATOM     53  C   UNL A   1      42.590  29.341  35.294  1.00  0.00     0.029 A 
ATOM     54  C   UNL A   1      42.489  28.841  34.006  1.00  0.00     0.049 A 
ATOM     55  H   UNL A   1      41.038  29.254  32.531  1.00  0.00     0.167 HD
ATOM     56  C   UNL A   1      43.210  27.499  32.049  1.00  0.00     0.074 A 
ATOM     57  C   UNL A   1      44.118  26.595  31.373  1.00  0.00     0.031 C 
ATOM     58  C   UNL A   1      43.360  27.911  33.333  1.00  0.00     0.034 A 
BRANCH  45  59
ATOM     59  C   UNL A   1      39.044  31.928  35.205  1.00  0.00     0.023 A 
ATOM     60  C   UNL A   1      39.130  33.327  35.042  1.00  0.00     0.012 A 
ATOM     61  C   UNL A   1      38.431  31.407  36.362  1.00  0.00     0.148 A 
ATOM     62  C   UNL A   1      38.652  34.191  36.028  1.00  0.00     0.002 A 
ATOM     63  C   UNL A   1      37.913  32.275  37.319  1.00  0.00     0.091 A 
ATOM     64  F   UNL A   1      38.373  30.077  36.512  1.00  0.00    -0.205 F 
ATOM     65  C   UNL A   1      38.035  33.665  37.159  1.00  0.00     0.022 A 
BRANCH  63  66
ATOM     66  S   UNL A   1      37.026  31.702  38.771  1.00  0.00     0.127 S 
ATOM     67  O   UNL A   1      38.026  31.889  39.821  1.00  0.00    -0.237 OA
ATOM     68  O   UNL A   1      35.900  32.634  38.830  1.00  0.00    -0.237 OA
ATOM     69  O   UNL A   1      36.657  30.320  38.499  1.00  0.00    -0.744 OA
ENDBRANCH  63  66
ENDBRANCH  45  59
BRANCH  46  70
ATOM     70  C   UNL A   1      42.302  26.352  27.570  1.00  0.00     0.023 A 
ATOM     71  C   UNL A   1      43.151  26.950  26.619  1.00  0.00     0.012 A 
ATOM     72  C   UNL A   1      41.971  24.990  27.434  1.00  0.00     0.148 A 
ATOM     73  C   UNL A   1      43.630  26.218  25.532  1.00  0.00     0.002 A 
ATOM     74  C   UNL A   1      42.500  24.251  26.384  1.00  0.00     0.091 A 
ATOM     75  F   UNL A   1      41.157  24.441  28.347  1.00  0.00    -0.205 F 
ATOM     76  C   UNL A   1      43.313  24.867  25.420  1.00  0.00     0.022 A 
BRANCH  74  77
ATOM     77  S   UNL A   1      42.260  22.477  26.239  1.00  0.00     0.127 S 
ATOM     78  O   UNL A   1      40.806  22.378  26.145  1.00  0.00    -0.237 OA
ATOM     79  O   UNL A   1      42.981  22.176  25.001  1.00  0.00    -0.237 OA
ATOM     80  O   UNL A   1      42.858  21.899  27.435  1.00  0.00    -0.744 OA
ENDBRANCH  74  77
ENDBRANCH  46  70
BRANCH  58  81
ATOM     81  C   UNL A   1      44.532  27.357  34.103  1.00  0.00     0.023 A 
ATOM     82  C   UNL A   1      45.781  28.008  34.052  1.00  0.00     0.012 A 
ATOM     83  C   UNL A   1      44.385  26.208  34.903  1.00  0.00     0.148 A 
ATOM     84  C   UNL A   1      46.878  27.494  34.743  1.00  0.00     0.002 A 
ATOM     85  C   UNL A   1      45.468  25.733  35.633  1.00  0.00     0.091 A 
ATOM     86  F   UNL A   1      43.195  25.589  34.927  1.00  0.00    -0.205 F 
ATOM     87  C   UNL A   1      46.719  26.364  35.541  1.00  0.00     0.022 A 
BRANCH  85  88
ATOM     88  S   UNL A   1      45.325  24.344  36.762  1.00  0.00     0.127 S 
ATOM     89  O   UNL A   1      44.319  24.829  37.705  1.00  0.00    -0.237 OA
ATOM     90  O   UNL A   1      44.866  23.270  35.880  1.00  0.00    -0.237 OA
ATOM     91  O   UNL A   1      46.657  24.140  37.314  1.00  0.00    -0.744 OA
ENDBRANCH  85  88
ENDBRANCH  58  81
ENDBRANCH  32  33
ENDBRANCH  24  27
ENDBRANCH  22  23
ENDBRANCH  21  22
ENDBRANCH   1  21
TORSDOF 18
ENDMDL
