MODEL 1
REMARK VINA RESULT:     -11.7      0.000      0.000
REMARK SMILES O=C(C[C@@H]1C=CCC1)NCc1ccc(C(=O)NCCCNC(=O)c2ccc(-c3c4nc(c(-c5cccc(S(=O)(=O)[O-])c5F)c5ccc([nH]5)c(-c5cccc(S(=O)(=O)[O-])c5F)c5nc(c(-c6cccc(S(=O)(=O)[O-])c6F)c6ccc3[nH]6)C=C5)C=C4)cc2)o1
REMARK SMILES IDX 18 1 17 2 15 3 16 4 14 6 11 7 12 8 87 9 13 10 10 11 9 12
REMARK SMILES IDX 1 13 2 14 3 16 4 17 5 18 8 19 6 20 7 21 19 22 20 23 21 24
REMARK SMILES IDX 22 25 23 27 24 28 25 29 86 30 26 31 85 32 27 33 28 34 29 35
REMARK SMILES IDX 79 36 30 37 84 38 78 39 80 40 31 41 83 42 77 43 76 44 32 46
REMARK SMILES IDX 64 47 44 48 63 49 45 50 48 51 62 52 81 53 46 54 47 55 61 57
REMARK SMILES IDX 82 58 49 59 33 60 34 61 42 62 35 63 37 64 43 65 36 66 38 67
REMARK SMILES IDX 39 68 40 69 41 70 65 71 66 72 74 73 67 74 69 75 75 76 68 77
REMARK SMILES IDX 70 78 71 79 72 80 73 81 50 82 51 83 59 84 52 85 54 86 60 87
REMARK SMILES IDX 53 88 55 89 56 90 57 91 58 92
REMARK H PARENT 17 5 9 15 21 26 80 45 48 56
REMARK Flexibility Score: inf
ROOT
ATOM      1  C   UNL A   1      31.616  30.850  26.302  1.00  0.00     0.118 C 
ENDROOT
BRANCH   1   2
ATOM      2  N   UNL A   1      32.929  30.319  26.606  1.00  0.00    -0.349 N 
ATOM      3  C   UNL A   1      33.436  29.045  26.479  1.00  0.00     0.286 C 
ATOM      4  O   UNL A   1      34.648  28.929  26.683  1.00  0.00    -0.266 OA
ATOM      5  H   UNL A   1      33.566  30.979  26.962  1.00  0.00     0.163 HD
BRANCH   3   6
ATOM      6  C   UNL A   1      32.590  27.925  26.107  1.00  0.00     0.191 A 
ATOM      7  C   UNL A   1      31.391  26.781  24.637  1.00  0.00     0.124 A 
ATOM      8  C   UNL A   1      31.332  26.072  25.813  1.00  0.00     0.048 A 
ATOM      9  O   UNL A   1      32.145  27.902  24.805  1.00  0.00    -0.454 OA
ATOM     10  C   UNL A   1      32.121  26.789  26.746  1.00  0.00     0.056 A 
BRANCH   7  11
ATOM     11  C   UNL A   1      30.864  26.537  23.275  1.00  0.00     0.191 C 
BRANCH  11  12
ATOM     12  N   UNL A   1      30.026  27.658  22.933  1.00  0.00    -0.349 N 
ATOM     13  O   UNL A   1      28.083  26.840  23.848  1.00  0.00    -0.275 OA
ATOM     14  C   UNL A   1      28.691  27.724  23.255  1.00  0.00     0.220 C 
ATOM     15  H   UNL A   1      30.428  28.414  22.447  1.00  0.00     0.163 HD
BRANCH  14  16
ATOM     16  C   UNL A   1      28.036  29.021  22.825  1.00  0.00     0.107 C 
BRANCH  16  17
ATOM     17  C   UNL A   1      28.992  30.220  22.700  1.00  0.00     0.021 C 
ATOM     18  C   UNL A   1      28.778  31.353  23.663  1.00  0.00    -0.027 C 
ATOM     19  C   UNL A   1      28.879  30.942  21.344  1.00  0.00     0.012 C 
ATOM     20  C   UNL A   1      28.274  32.436  23.062  1.00  0.00    -0.031 C 
ATOM     21  C   UNL A   1      28.089  32.224  21.598  1.00  0.00     0.027 C 
ENDBRANCH  16  17
ENDBRANCH  14  16
ENDBRANCH  11  12
ENDBRANCH   7  11
ENDBRANCH   3   6
ENDBRANCH   1   2
BRANCH   1  22
ATOM     22  C   UNL A   1      31.435  32.269  26.838  1.00  0.00     0.042 C 
BRANCH  22  23
ATOM     23  C   UNL A   1      32.754  32.965  27.172  1.00  0.00     0.118 C 
BRANCH  23  24
ATOM     24  N   UNL A   1      32.547  34.317  27.681  1.00  0.00    -0.352 N 
ATOM     25  C   UNL A   1      33.097  34.954  28.765  1.00  0.00     0.251 C 
ATOM     26  H   UNL A   1      31.908  34.858  27.164  1.00  0.00     0.163 HD
ATOM     27  O   UNL A   1      32.606  36.014  29.146  1.00  0.00    -0.269 OA
BRANCH  25  28
ATOM     28  C   UNL A   1      34.264  34.385  29.474  1.00  0.00     0.039 A 
ATOM     29  C   UNL A   1      34.063  33.755  30.707  1.00  0.00     0.014 A 
ATOM     30  C   UNL A   1      35.559  34.519  28.964  1.00  0.00     0.014 A 
ATOM     31  C   UNL A   1      35.150  33.216  31.400  1.00  0.00     0.010 A 
ATOM     32  C   UNL A   1      36.631  33.919  29.621  1.00  0.00     0.010 A 
ATOM     33  C   UNL A   1      36.440  33.268  30.849  1.00  0.00    -0.014 A 
BRANCH  33  34
ATOM     34  C   UNL A   1      37.599  32.638  31.534  1.00  0.00     0.031 A 
ATOM     35  C   UNL A   1      38.330  31.488  30.894  1.00  0.00     0.074 A 
ATOM     36  C   UNL A   1      37.934  33.044  32.774  1.00  0.00     0.049 A 
ATOM     37  N   UNL A   1      39.316  30.772  31.371  1.00  0.00    -0.248 NA
ATOM     38  C   UNL A   1      37.876  31.067  29.558  1.00  0.00     0.031 C 
ATOM     39  C   UNL A   1      37.251  34.095  33.532  1.00  0.00     0.029 A 
ATOM     40  N   UNL A   1      38.911  32.601  33.629  1.00  0.00    -0.354 N 
ATOM     41  C   UNL A   1      39.574  29.795  30.415  1.00  0.00     0.074 A 
ATOM     42  C   UNL A   1      38.622  29.993  29.344  1.00  0.00     0.031 C 
ATOM     43  C   UNL A   1      37.830  34.214  34.738  1.00  0.00     0.029 A 
ATOM     44  C   UNL A   1      38.903  33.233  34.851  1.00  0.00     0.049 A 
ATOM     45  H   UNL A   1      39.558  31.898  33.391  1.00  0.00     0.167 HD
ATOM     46  C   UNL A   1      40.533  28.840  30.416  1.00  0.00     0.034 A 
ATOM     47  C   UNL A   1      39.668  33.039  35.944  1.00  0.00     0.034 A 
ATOM     48  C   UNL A   1      41.510  28.679  31.460  1.00  0.00     0.049 A 
ATOM     49  C   UNL A   1      40.760  32.005  35.897  1.00  0.00     0.074 A 
ATOM     50  C   UNL A   1      42.581  27.805  31.509  1.00  0.00     0.029 A 
ATOM     51  N   UNL A   1      41.531  29.404  32.641  1.00  0.00    -0.354 N 
ATOM     52  N   UNL A   1      41.094  31.201  34.916  1.00  0.00    -0.248 NA
ATOM     53  C   UNL A   1      41.606  31.876  37.092  1.00  0.00     0.031 C 
ATOM     54  C   UNL A   1      43.239  27.987  32.730  1.00  0.00     0.029 A 
ATOM     55  C   UNL A   1      42.591  28.993  33.431  1.00  0.00     0.049 A 
ATOM     56  H   UNL A   1      40.887  30.108  32.884  1.00  0.00     0.167 HD
ATOM     57  C   UNL A   1      42.206  30.498  35.361  1.00  0.00     0.074 A 
ATOM     58  C   UNL A   1      42.505  30.987  36.691  1.00  0.00     0.031 C 
ATOM     59  C   UNL A   1      42.910  29.526  34.730  1.00  0.00     0.034 A 
BRANCH  46  60
ATOM     60  C   UNL A   1      40.615  27.925  29.221  1.00  0.00     0.023 A 
ATOM     61  C   UNL A   1      39.742  26.820  29.131  1.00  0.00     0.012 A 
ATOM     62  C   UNL A   1      41.505  28.188  28.161  1.00  0.00     0.148 A 
ATOM     63  C   UNL A   1      39.778  25.973  28.025  1.00  0.00     0.002 A 
ATOM     64  C   UNL A   1      41.503  27.364  27.041  1.00  0.00     0.091 A 
ATOM     65  F   UNL A   1      42.341  29.230  28.271  1.00  0.00    -0.205 F 
ATOM     66  C   UNL A   1      40.649  26.250  26.977  1.00  0.00     0.022 A 
BRANCH  64  67
ATOM     67  S   UNL A   1      42.533  27.682  25.602  1.00  0.00     0.127 S 
ATOM     68  O   UNL A   1      41.950  28.922  25.093  1.00  0.00    -0.237 OA
ATOM     69  O   UNL A   1      43.859  27.832  26.201  1.00  0.00    -0.237 OA
ATOM     70  O   UNL A   1      42.385  26.519  24.739  1.00  0.00    -0.744 OA
ENDBRANCH  64  67
ENDBRANCH  46  60
BRANCH  47  71
ATOM     71  C   UNL A   1      39.471  33.893  37.149  1.00  0.00     0.023 A 
ATOM     72  C   UNL A   1      39.894  35.236  37.119  1.00  0.00     0.012 A 
ATOM     73  C   UNL A   1      38.838  33.397  38.305  1.00  0.00     0.148 A 
ATOM     74  C   UNL A   1      39.720  36.062  38.230  1.00  0.00     0.002 A 
ATOM     75  C   UNL A   1      38.617  34.241  39.388  1.00  0.00     0.091 A 
ATOM     76  F   UNL A   1      38.453  32.114  38.318  1.00  0.00    -0.205 F 
ATOM     77  C   UNL A   1      39.073  35.568  39.360  1.00  0.00     0.022 A 
BRANCH  75  78
ATOM     78  S   UNL A   1      37.672  33.729  40.827  1.00  0.00     0.127 S 
ATOM     79  O   UNL A   1      37.486  34.996  41.529  1.00  0.00    -0.237 OA
ATOM     80  O   UNL A   1      36.462  33.180  40.215  1.00  0.00    -0.237 OA
ATOM     81  O   UNL A   1      38.499  32.741  41.508  1.00  0.00    -0.744 OA
ENDBRANCH  75  78
ENDBRANCH  47  71
BRANCH  59  82
ATOM     82  C   UNL A   1      44.098  28.943  35.450  1.00  0.00     0.023 A 
ATOM     83  C   UNL A   1      45.367  29.534  35.299  1.00  0.00     0.012 A 
ATOM     84  C   UNL A   1      43.940  27.857  36.335  1.00  0.00     0.148 A 
ATOM     85  C   UNL A   1      46.469  29.036  35.994  1.00  0.00     0.002 A 
ATOM     86  C   UNL A   1      45.032  27.397  37.060  1.00  0.00     0.091 A 
ATOM     87  F   UNL A   1      42.728  27.296  36.449  1.00  0.00    -0.205 F 
ATOM     88  C   UNL A   1      46.299  27.976  36.882  1.00  0.00     0.022 A 
BRANCH  86  89
ATOM     89  S   UNL A   1      44.886  26.102  38.298  1.00  0.00     0.127 S 
ATOM     90  O   UNL A   1      46.288  25.786  38.565  1.00  0.00    -0.237 OA
ATOM     91  O   UNL A   1      44.197  26.792  39.389  1.00  0.00    -0.237 OA
ATOM     92  O   UNL A   1      44.113  25.037  37.674  1.00  0.00    -0.744 OA
ENDBRANCH  86  89
ENDBRANCH  59  82
ENDBRANCH  33  34
ENDBRANCH  25  28
ENDBRANCH  23  24
ENDBRANCH  22  23
ENDBRANCH   1  22
TORSDOF 17
ENDMDL
MODEL 2
REMARK VINA RESULT:     -11.5      6.637     11.702
REMARK SMILES O=C(C[C@@H]1C=CCC1)NCc1ccc(C(=O)NCCCNC(=O)c2ccc(-c3c4nc(c(-c5cccc(S(=O)(=O)[O-])c5F)c5ccc([nH]5)c(-c5cccc(S(=O)(=O)[O-])c5F)c5nc(c(-c6cccc(S(=O)(=O)[O-])c6F)c6ccc3[nH]6)C=C5)C=C4)cc2)o1
REMARK SMILES IDX 18 1 17 2 15 3 16 4 14 6 11 7 12 8 87 9 13 10 10 11 9 12
REMARK SMILES IDX 1 13 2 14 3 16 4 17 5 18 8 19 6 20 7 21 19 22 20 23 21 24
REMARK SMILES IDX 22 25 23 27 24 28 25 29 86 30 26 31 85 32 27 33 28 34 29 35
REMARK SMILES IDX 79 36 30 37 84 38 78 39 80 40 31 41 83 42 77 43 76 44 32 46
REMARK SMILES IDX 64 47 44 48 63 49 45 50 48 51 62 52 81 53 46 54 47 55 61 57
REMARK SMILES IDX 82 58 49 59 33 60 34 61 42 62 35 63 37 64 43 65 36 66 38 67
REMARK SMILES IDX 39 68 40 69 41 70 65 71 66 72 74 73 67 74 69 75 75 76 68 77
REMARK SMILES IDX 70 78 71 79 72 80 73 81 50 82 51 83 59 84 52 85 54 86 60 87
REMARK SMILES IDX 53 88 55 89 56 90 57 91 58 92
REMARK H PARENT 17 5 9 15 21 26 80 45 48 56
REMARK Flexibility Score: inf
ROOT
ATOM      1  C   UNL A   1      42.218  21.248  25.801  1.00  0.00     0.118 C 
ENDROOT
BRANCH   1   2
ATOM      2  N   UNL A   1      42.143  19.803  25.719  1.00  0.00    -0.349 N 
ATOM      3  C   UNL A   1      43.129  18.859  25.540  1.00  0.00     0.286 C 
ATOM      4  O   UNL A   1      42.773  17.684  25.661  1.00  0.00    -0.266 OA
ATOM      5  H   UNL A   1      41.235  19.434  25.806  1.00  0.00     0.163 HD
BRANCH   3   6
ATOM      6  C   UNL A   1      44.500  19.240  25.250  1.00  0.00     0.191 A 
ATOM      7  C   UNL A   1      46.036  20.720  24.649  1.00  0.00     0.124 A 
ATOM      8  C   UNL A   1      46.711  19.548  24.898  1.00  0.00     0.048 A 
ATOM      9  O   UNL A   1      44.702  20.543  24.855  1.00  0.00    -0.454 OA
ATOM     10  C   UNL A   1      45.732  18.609  25.307  1.00  0.00     0.056 A 
BRANCH   7  11
ATOM     11  C   UNL A   1      46.472  22.084  24.274  1.00  0.00     0.191 C 
BRANCH  11  12
ATOM     12  N   UNL A   1      46.335  22.914  25.445  1.00  0.00    -0.349 N 
ATOM     13  O   UNL A   1      44.726  24.320  24.599  1.00  0.00    -0.275 OA
ATOM     14  C   UNL A   1      45.461  23.972  25.517  1.00  0.00     0.220 C 
ATOM     15  H   UNL A   1      46.893  22.713  26.230  1.00  0.00     0.163 HD
BRANCH  14  16
ATOM     16  C   UNL A   1      45.471  24.664  26.865  1.00  0.00     0.107 C 
BRANCH  16  17
ATOM     17  C   UNL A   1      46.526  25.772  27.017  1.00  0.00     0.021 C 
ATOM     18  C   UNL A   1      47.398  26.039  25.822  1.00  0.00    -0.027 C 
ATOM     19  C   UNL A   1      47.576  25.460  28.100  1.00  0.00     0.012 C 
ATOM     20  C   UNL A   1      48.654  25.621  26.012  1.00  0.00    -0.031 C 
ATOM     21  C   UNL A   1      48.845  25.029  27.367  1.00  0.00     0.027 C 
ENDBRANCH  16  17
ENDBRANCH  14  16
ENDBRANCH  11  12
ENDBRANCH   7  11
ENDBRANCH   3   6
ENDBRANCH   1   2
BRANCH   1  22
ATOM     22  C   UNL A   1      42.179  21.741  27.246  1.00  0.00     0.042 C 
BRANCH  22  23
ATOM     23  C   UNL A   1      40.804  21.600  27.899  1.00  0.00     0.118 C 
BRANCH  23  24
ATOM     24  N   UNL A   1      39.721  21.731  26.931  1.00  0.00    -0.352 N 
ATOM     25  C   UNL A   1      38.972  22.824  26.574  1.00  0.00     0.251 C 
ATOM     26  H   UNL A   1      39.489  20.899  26.458  1.00  0.00     0.163 HD
ATOM     27  O   UNL A   1      37.956  22.658  25.904  1.00  0.00    -0.269 OA
BRANCH  25  28
ATOM     28  C   UNL A   1      39.372  24.189  26.981  1.00  0.00     0.039 A 
ATOM     29  C   UNL A   1      39.065  24.623  28.275  1.00  0.00     0.014 A 
ATOM     30  C   UNL A   1      39.992  25.062  26.083  1.00  0.00     0.014 A 
ATOM     31  C   UNL A   1      39.425  25.911  28.682  1.00  0.00     0.010 A 
ATOM     32  C   UNL A   1      40.413  26.319  26.512  1.00  0.00     0.010 A 
ATOM     33  C   UNL A   1      40.128  26.760  27.813  1.00  0.00    -0.014 A 
BRANCH  33  34
ATOM     34  C   UNL A   1      40.583  28.106  28.249  1.00  0.00     0.031 A 
ATOM     35  C   UNL A   1      42.050  28.443  28.274  1.00  0.00     0.074 A 
ATOM     36  C   UNL A   1      39.680  28.992  28.709  1.00  0.00     0.049 A 
ATOM     37  N   UNL A   1      42.637  29.537  28.687  1.00  0.00    -0.248 NA
ATOM     38  C   UNL A   1      42.983  27.406  27.802  1.00  0.00     0.031 C 
ATOM     39  C   UNL A   1      38.237  28.754  28.810  1.00  0.00     0.029 A 
ATOM     40  N   UNL A   1      39.841  30.260  29.209  1.00  0.00    -0.354 N 
ATOM     41  C   UNL A   1      44.002  29.308  28.562  1.00  0.00     0.074 A 
ATOM     42  C   UNL A   1      44.159  27.960  28.062  1.00  0.00     0.031 C 
ATOM     43  C   UNL A   1      37.649  29.839  29.339  1.00  0.00     0.029 A 
ATOM     44  C   UNL A   1      38.669  30.836  29.641  1.00  0.00     0.049 A 
ATOM     45  H   UNL A   1      40.713  30.714  29.254  1.00  0.00     0.167 HD
ATOM     46  C   UNL A   1      45.031  30.152  28.813  1.00  0.00     0.034 A 
ATOM     47  C   UNL A   1      38.441  32.031  30.223  1.00  0.00     0.034 A 
ATOM     48  C   UNL A   1      44.869  31.509  29.263  1.00  0.00     0.049 A 
ATOM     49  C   UNL A   1      39.597  32.968  30.443  1.00  0.00     0.074 A 
ATOM     50  C   UNL A   1      45.841  32.474  29.455  1.00  0.00     0.029 A 
ATOM     51  N   UNL A   1      43.657  32.091  29.598  1.00  0.00    -0.354 N 
ATOM     52  N   UNL A   1      40.867  32.793  30.164  1.00  0.00    -0.248 NA
ATOM     53  C   UNL A   1      39.287  34.282  31.023  1.00  0.00     0.031 C 
ATOM     54  C   UNL A   1      45.219  33.635  29.924  1.00  0.00     0.029 A 
ATOM     55  C   UNL A   1      43.855  33.400  30.001  1.00  0.00     0.049 A 
ATOM     56  H   UNL A   1      42.782  31.641  29.553  1.00  0.00     0.167 HD
ATOM     57  C   UNL A   1      41.499  33.984  30.499  1.00  0.00     0.074 A 
ATOM     58  C   UNL A   1      40.470  34.881  30.982  1.00  0.00     0.031 C 
ATOM     59  C   UNL A   1      42.815  34.301  30.428  1.00  0.00     0.034 A 
BRANCH  46  60
ATOM     60  C   UNL A   1      46.429  29.653  28.553  1.00  0.00     0.023 A 
ATOM     61  C   UNL A   1      46.999  29.820  27.273  1.00  0.00     0.012 A 
ATOM     62  C   UNL A   1      47.201  29.077  29.581  1.00  0.00     0.148 A 
ATOM     63  C   UNL A   1      48.299  29.392  27.012  1.00  0.00     0.002 A 
ATOM     64  C   UNL A   1      48.513  28.694  29.324  1.00  0.00     0.091 A 
ATOM     65  F   UNL A   1      46.637  28.907  30.786  1.00  0.00    -0.205 F 
ATOM     66  C   UNL A   1      49.059  28.839  28.038  1.00  0.00     0.022 A 
BRANCH  64  67
ATOM     67  S   UNL A   1      49.600  28.044  30.600  1.00  0.00     0.127 S 
ATOM     68  O   UNL A   1      50.842  27.848  29.854  1.00  0.00    -0.237 OA
ATOM     69  O   UNL A   1      49.635  29.144  31.564  1.00  0.00    -0.237 OA
ATOM     70  O   UNL A   1      48.964  26.829  31.088  1.00  0.00    -0.744 OA
ENDBRANCH  64  67
ENDBRANCH  46  60
BRANCH  47  71
ATOM     71  C   UNL A   1      37.050  32.433  30.572  1.00  0.00     0.023 A 
ATOM     72  C   UNL A   1      36.590  32.249  31.891  1.00  0.00     0.012 A 
ATOM     73  C   UNL A   1      36.195  33.024  29.622  1.00  0.00     0.148 A 
ATOM     74  C   UNL A   1      35.293  32.620  32.250  1.00  0.00     0.002 A 
ATOM     75  C   UNL A   1      34.924  33.442  30.000  1.00  0.00     0.091 A 
ATOM     76  F   UNL A   1      36.648  33.179  28.370  1.00  0.00    -0.205 F 
ATOM     77  C   UNL A   1      34.465  33.224  31.309  1.00  0.00     0.022 A 
BRANCH  75  78
ATOM     78  S   UNL A   1      33.843  34.352  28.892  1.00  0.00     0.127 S 
ATOM     79  O   UNL A   1      33.429  33.310  27.956  1.00  0.00    -0.237 OA
ATOM     80  O   UNL A   1      32.795  34.815  29.803  1.00  0.00    -0.237 OA
ATOM     81  O   UNL A   1      34.663  35.418  28.333  1.00  0.00    -0.744 OA
ENDBRANCH  75  78
ENDBRANCH  47  71
BRANCH  59  82
ATOM     82  C   UNL A   1      43.224  35.689  30.847  1.00  0.00     0.023 A 
ATOM     83  C   UNL A   1      43.571  35.940  32.189  1.00  0.00     0.012 A 
ATOM     84  C   UNL A   1      43.337  36.723  29.897  1.00  0.00     0.148 A 
ATOM     85  C   UNL A   1      43.997  37.208  32.585  1.00  0.00     0.002 A 
ATOM     86  C   UNL A   1      43.807  37.970  30.290  1.00  0.00     0.091 A 
ATOM     87  F   UNL A   1      42.982  36.469  28.629  1.00  0.00    -0.205 F 
ATOM     88  C   UNL A   1      44.126  38.218  31.635  1.00  0.00     0.022 A 
BRANCH  86  89
ATOM     89  S   UNL A   1      44.097  39.301  29.117  1.00  0.00     0.127 S 
ATOM     90  O   UNL A   1      42.764  39.492  28.549  1.00  0.00    -0.237 OA
ATOM     91  O   UNL A   1      44.552  40.387  29.986  1.00  0.00    -0.237 OA
ATOM     92  O   UNL A   1      45.107  38.806  28.191  1.00  0.00    -0.744 OA
ENDBRANCH  86  89
ENDBRANCH  59  82
ENDBRANCH  33  34
ENDBRANCH  25  28
ENDBRANCH  23  24
ENDBRANCH  22  23
ENDBRANCH   1  22
TORSDOF 17
ENDMDL
MODEL 3
REMARK VINA RESULT:     -11.5      3.635      9.072
REMARK SMILES O=C(C[C@@H]1C=CCC1)NCc1ccc(C(=O)NCCCNC(=O)c2ccc(-c3c4nc(c(-c5cccc(S(=O)(=O)[O-])c5F)c5ccc([nH]5)c(-c5cccc(S(=O)(=O)[O-])c5F)c5nc(c(-c6cccc(S(=O)(=O)[O-])c6F)c6ccc3[nH]6)C=C5)C=C4)cc2)o1
REMARK SMILES IDX 18 1 17 2 15 3 16 4 14 6 11 7 12 8 87 9 13 10 10 11 9 12
REMARK SMILES IDX 1 13 2 14 3 16 4 17 5 18 8 19 6 20 7 21 19 22 20 23 21 24
REMARK SMILES IDX 22 25 23 27 24 28 25 29 86 30 26 31 85 32 27 33 28 34 29 35
REMARK SMILES IDX 79 36 30 37 84 38 78 39 80 40 31 41 83 42 77 43 76 44 32 46
REMARK SMILES IDX 64 47 44 48 63 49 45 50 48 51 62 52 81 53 46 54 47 55 61 57
REMARK SMILES IDX 82 58 49 59 33 60 34 61 42 62 35 63 37 64 43 65 36 66 38 67
REMARK SMILES IDX 39 68 40 69 41 70 65 71 66 72 74 73 67 74 69 75 75 76 68 77
REMARK SMILES IDX 70 78 71 79 72 80 73 81 50 82 51 83 59 84 52 85 54 86 60 87
REMARK SMILES IDX 53 88 55 89 56 90 57 91 58 92
REMARK H PARENT 17 5 9 15 21 26 80 45 48 56
REMARK Flexibility Score: inf
ROOT
ATOM      1  C   UNL A   1      31.592  28.077  24.578  1.00  0.00     0.118 C 
ENDROOT
BRANCH   1   2
ATOM      2  N   UNL A   1      30.669  27.229  25.305  1.00  0.00    -0.349 N 
ATOM      3  C   UNL A   1      30.813  25.947  25.787  1.00  0.00     0.286 C 
ATOM      4  O   UNL A   1      29.894  25.538  26.501  1.00  0.00    -0.266 OA
ATOM      5  H   UNL A   1      29.792  27.636  25.484  1.00  0.00     0.163 HD
BRANCH   3   6
ATOM      6  C   UNL A   1      31.989  25.150  25.483  1.00  0.00     0.191 A 
ATOM      7  C   UNL A   1      33.031  23.544  24.368  1.00  0.00     0.124 A 
ATOM      8  C   UNL A   1      33.971  24.102  25.202  1.00  0.00     0.048 A 
ATOM      9  O   UNL A   1      31.832  24.167  24.533  1.00  0.00    -0.454 OA
ATOM     10  C   UNL A   1      33.311  25.146  25.895  1.00  0.00     0.056 A 
BRANCH   7  11
ATOM     11  C   UNL A   1      33.089  22.485  23.334  1.00  0.00     0.191 C 
BRANCH  11  12
ATOM     12  N   UNL A   1      33.434  21.255  24.001  1.00  0.00    -0.349 N 
ATOM     13  O   UNL A   1      31.433  20.963  25.094  1.00  0.00    -0.275 OA
ATOM     14  C   UNL A   1      32.569  20.582  24.831  1.00  0.00     0.220 C 
ATOM     15  H   UNL A   1      34.331  20.877  23.855  1.00  0.00     0.163 HD
BRANCH  14  16
ATOM     16  C   UNL A   1      33.147  19.293  25.379  1.00  0.00     0.107 C 
BRANCH  16  17
ATOM     17  C   UNL A   1      32.529  18.009  24.800  1.00  0.00     0.021 C 
ATOM     18  C   UNL A   1      32.863  16.724  25.505  1.00  0.00    -0.027 C 
ATOM     19  C   UNL A   1      33.005  17.705  23.366  1.00  0.00     0.012 C 
ATOM     20  C   UNL A   1      33.690  15.956  24.789  1.00  0.00    -0.031 C 
ATOM     21  C   UNL A   1      34.030  16.578  23.477  1.00  0.00     0.027 C 
ENDBRANCH  16  17
ENDBRANCH  14  16
ENDBRANCH  11  12
ENDBRANCH   7  11
ENDBRANCH   3   6
ENDBRANCH   1   2
BRANCH   1  22
ATOM     22  C   UNL A   1      31.465  29.543  24.988  1.00  0.00     0.042 C 
BRANCH  22  23
ATOM     23  C   UNL A   1      32.437  29.951  26.094  1.00  0.00     0.118 C 
BRANCH  23  24
ATOM     24  N   UNL A   1      32.391  31.384  26.362  1.00  0.00    -0.352 N 
ATOM     25  C   UNL A   1      33.110  32.148  27.248  1.00  0.00     0.251 C 
ATOM     26  H   UNL A   1      31.739  31.884  25.821  1.00  0.00     0.163 HD
ATOM     27  O   UNL A   1      32.747  33.300  27.472  1.00  0.00    -0.269 OA
BRANCH  25  28
ATOM     28  C   UNL A   1      34.306  31.606  27.928  1.00  0.00     0.039 A 
ATOM     29  C   UNL A   1      35.401  32.450  28.142  1.00  0.00     0.014 A 
ATOM     30  C   UNL A   1      34.381  30.261  28.302  1.00  0.00     0.014 A 
ATOM     31  C   UNL A   1      36.546  31.960  28.776  1.00  0.00     0.010 A 
ATOM     32  C   UNL A   1      35.494  29.792  28.997  1.00  0.00     0.010 A 
ATOM     33  C   UNL A   1      36.591  30.634  29.235  1.00  0.00    -0.014 A 
BRANCH  33  34
ATOM     34  C   UNL A   1      37.770  30.112  29.975  1.00  0.00     0.031 A 
ATOM     35  C   UNL A   1      38.059  30.582  31.376  1.00  0.00     0.074 A 
ATOM     36  C   UNL A   1      38.630  29.286  29.349  1.00  0.00     0.049 A 
ATOM     37  N   UNL A   1      39.074  30.291  32.148  1.00  0.00    -0.248 NA
ATOM     38  C   UNL A   1      37.101  31.524  31.977  1.00  0.00     0.031 C 
ATOM     39  C   UNL A   1      38.502  28.823  27.965  1.00  0.00     0.029 A 
ATOM     40  N   UNL A   1      39.800  28.713  29.783  1.00  0.00    -0.354 N 
ATOM     41  C   UNL A   1      38.898  31.039  33.307  1.00  0.00     0.074 A 
ATOM     42  C   UNL A   1      37.694  31.820  33.124  1.00  0.00     0.031 C 
ATOM     43  C   UNL A   1      39.550  28.039  27.665  1.00  0.00     0.029 A 
ATOM     44  C   UNL A   1      40.438  27.967  28.820  1.00  0.00     0.049 A 
ATOM     45  H   UNL A   1      40.149  28.827  30.696  1.00  0.00     0.167 HD
ATOM     46  C   UNL A   1      39.653  31.054  34.431  1.00  0.00     0.034 A 
ATOM     47  C   UNL A   1      41.611  27.303  28.859  1.00  0.00     0.034 A 
ATOM     48  C   UNL A   1      40.822  30.238  34.627  1.00  0.00     0.049 A 
ATOM     49  C   UNL A   1      42.403  27.296  30.138  1.00  0.00     0.074 A 
ATOM     50  C   UNL A   1      41.600  30.109  35.763  1.00  0.00     0.029 A 
ATOM     51  N   UNL A   1      41.385  29.418  33.663  1.00  0.00    -0.354 N 
ATOM     52  N   UNL A   1      42.133  27.881  31.280  1.00  0.00    -0.248 NA
ATOM     53  C   UNL A   1      43.643  26.507  30.148  1.00  0.00     0.031 C 
ATOM     54  C   UNL A   1      42.646  29.224  35.480  1.00  0.00     0.029 A 
ATOM     55  C   UNL A   1      42.504  28.784  34.174  1.00  0.00     0.049 A 
ATOM     56  H   UNL A   1      41.039  29.301  32.748  1.00  0.00     0.167 HD
ATOM     57  C   UNL A   1      43.146  27.503  32.152  1.00  0.00     0.074 A 
ATOM     58  C   UNL A   1      44.025  26.620  31.413  1.00  0.00     0.031 C 
ATOM     59  C   UNL A   1      43.340  27.865  33.444  1.00  0.00     0.034 A 
BRANCH  46  60
ATOM     60  C   UNL A   1      39.208  31.942  35.565  1.00  0.00     0.023 A 
ATOM     61  C   UNL A   1      38.331  31.430  36.544  1.00  0.00     0.012 A 
ATOM     62  C   UNL A   1      39.701  33.254  35.699  1.00  0.00     0.148 A 
ATOM     63  C   UNL A   1      37.924  32.220  37.617  1.00  0.00     0.002 A 
ATOM     64  C   UNL A   1      39.326  34.021  36.798  1.00  0.00     0.091 A 
ATOM     65  F   UNL A   1      40.518  33.732  34.750  1.00  0.00    -0.205 F 
ATOM     66  C   UNL A   1      38.429  33.510  37.750  1.00  0.00     0.022 A 
BRANCH  64  67
ATOM     67  S   UNL A   1      39.983  35.666  37.101  1.00  0.00     0.127 S 
ATOM     68  O   UNL A   1      39.278  36.042  38.326  1.00  0.00    -0.237 OA
ATOM     69  O   UNL A   1      41.411  35.400  37.277  1.00  0.00    -0.237 OA
ATOM     70  O   UNL A   1      39.653  36.453  35.922  1.00  0.00    -0.744 OA
ENDBRANCH  64  67
ENDBRANCH  46  60
BRANCH  47  71
ATOM     71  C   UNL A   1      42.069  26.534  27.668  1.00  0.00     0.023 A 
ATOM     72  C   UNL A   1      42.821  27.187  26.673  1.00  0.00     0.012 A 
ATOM     73  C   UNL A   1      41.795  25.159  27.531  1.00  0.00     0.148 A 
ATOM     74  C   UNL A   1      43.268  26.493  25.548  1.00  0.00     0.002 A 
ATOM     75  C   UNL A   1      42.291  24.461  26.436  1.00  0.00     0.091 A 
ATOM     76  F   UNL A   1      41.068  24.559  28.483  1.00  0.00    -0.205 F 
ATOM     77  C   UNL A   1      43.012  25.130  25.434  1.00  0.00     0.022 A 
BRANCH  75  78
ATOM     78  S   UNL A   1      42.126  22.680  26.278  1.00  0.00     0.127 S 
ATOM     79  O   UNL A   1      42.785  22.431  24.998  1.00  0.00    -0.237 OA
ATOM     80  O   UNL A   1      42.858  22.203  27.452  1.00  0.00    -0.237 OA
ATOM     81  O   UNL A   1      40.694  22.414  26.317  1.00  0.00    -0.744 OA
ENDBRANCH  75  78
ENDBRANCH  47  71
BRANCH  59  82
ATOM     82  C   UNL A   1      44.529  27.283  34.163  1.00  0.00     0.023 A 
ATOM     83  C   UNL A   1      45.749  27.985  34.179  1.00  0.00     0.012 A 
ATOM     84  C   UNL A   1      44.413  26.079  34.886  1.00  0.00     0.148 A 
ATOM     85  C   UNL A   1      46.847  27.484  34.878  1.00  0.00     0.002 A 
ATOM     86  C   UNL A   1      45.496  25.610  35.619  1.00  0.00     0.091 A 
ATOM     87  F   UNL A   1      43.248  25.415  34.841  1.00  0.00    -0.205 F 
ATOM     88  C   UNL A   1      46.716  26.304  35.607  1.00  0.00     0.022 A 
BRANCH  86  89
ATOM     89  S   UNL A   1      45.389  24.152  36.665  1.00  0.00     0.127 S 
ATOM     90  O   UNL A   1      46.790  23.939  37.023  1.00  0.00    -0.237 OA
ATOM     91  O   UNL A   1      44.542  24.618  37.763  1.00  0.00    -0.237 OA
ATOM     92  O   UNL A   1      44.789  23.111  35.840  1.00  0.00    -0.744 OA
ENDBRANCH  86  89
ENDBRANCH  59  82
ENDBRANCH  33  34
ENDBRANCH  25  28
ENDBRANCH  23  24
ENDBRANCH  22  23
ENDBRANCH   1  22
TORSDOF 17
ENDMDL
