MODEL 1
REMARK VINA RESULT:     -12.7      0.000      0.000
REMARK SMILES O=C(NCCCNC(=O)c1cc(N2C(=O)C[C@H](Nc3ccccc3O)C2=O)ccc1O)c1ccc(-c2c3nc(c(-c4cccc(S(=O)(=O)[O-])c4F)c4ccc([nH]4)c(-c4cccc(S(=O)(=O)[O-])c4F)c4nc(c(-c5cccc(S(=O)(=O)[O-])c5F)c5ccc2[nH]5)C=C4)C=C3)cc1
REMARK SMILES IDX 5 1 4 2 3 3 1 4 2 5 32 7 33 8 94 9 34 10 93 11 35 12 36 13
REMARK SMILES IDX 37 14 87 15 38 16 92 17 86 18 88 19 39 20 91 21 85 22 84 23
REMARK SMILES IDX 40 25 72 26 52 27 71 28 53 29 56 30 70 31 89 32 54 33 55 34
REMARK SMILES IDX 69 36 90 37 57 38 41 39 42 40 50 41 43 42 45 43 51 44 44 45
REMARK SMILES IDX 46 46 47 47 48 48 49 49 73 50 74 51 82 52 75 53 77 54 83 55
REMARK SMILES IDX 76 56 78 57 79 58 80 59 81 60 58 61 59 62 67 63 60 64 62 65
REMARK SMILES IDX 68 66 61 67 63 68 64 69 65 70 66 71 6 72 7 73 8 74 9 76
REMARK SMILES IDX 10 77 11 78 30 79 12 80 29 81 28 82 31 83 13 85 14 86 26 87
REMARK SMILES IDX 15 88 16 89 17 90 27 91 18 92 19 94 20 95 24 96 21 97 23 98
REMARK SMILES IDX 22 99 25 100
REMARK H PARENT 3 6 88 24 56 35 7 75 31 84 18 93 25 101
REMARK Flexibility Score: inf
ROOT
ATOM      1  C   UNL A   1      31.457  31.865  26.832  1.00  0.00     0.042 C 
ENDROOT
BRANCH   1   2
ATOM      2  C   UNL A   1      32.703  32.740  26.826  1.00  0.00     0.118 C 
BRANCH   2   3
ATOM      3  N   UNL A   1      32.537  33.971  27.589  1.00  0.00    -0.352 N 
ATOM      4  O   UNL A   1      32.773  35.411  29.299  1.00  0.00    -0.269 OA
ATOM      5  C   UNL A   1      33.206  34.430  28.700  1.00  0.00     0.251 C 
ATOM      6  H   UNL A   1      31.831  34.570  27.256  1.00  0.00     0.163 HD
BRANCH   5   7
ATOM      7  C   UNL A   1      34.416  33.734  29.191  1.00  0.00     0.039 A 
ATOM      8  C   UNL A   1      34.314  32.577  29.965  1.00  0.00     0.014 A 
ATOM      9  C   UNL A   1      35.679  34.234  28.857  1.00  0.00     0.014 A 
ATOM     10  C   UNL A   1      35.448  32.039  30.559  1.00  0.00     0.010 A 
ATOM     11  C   UNL A   1      36.830  33.621  29.366  1.00  0.00     0.010 A 
ATOM     12  C   UNL A   1      36.723  32.546  30.260  1.00  0.00    -0.014 A 
BRANCH  12  13
ATOM     13  C   UNL A   1      37.918  31.889  30.852  1.00  0.00     0.031 A 
ATOM     14  C   UNL A   1      38.359  32.182  32.261  1.00  0.00     0.074 A 
ATOM     15  C   UNL A   1      38.595  30.991  30.108  1.00  0.00     0.049 A 
ATOM     16  N   UNL A   1      39.336  31.641  32.944  1.00  0.00    -0.248 NA
ATOM     17  C   UNL A   1      37.621  33.220  32.999  1.00  0.00     0.031 C 
ATOM     18  C   UNL A   1      38.294  30.658  28.714  1.00  0.00     0.029 A 
ATOM     19  N   UNL A   1      39.659  30.183  30.417  1.00  0.00    -0.354 N 
ATOM     20  C   UNL A   1      39.362  32.300  34.169  1.00  0.00     0.074 A 
ATOM     21  C   UNL A   1      38.304  33.288  34.135  1.00  0.00     0.031 C 
ATOM     22  C   UNL A   1      39.115  29.682  28.306  1.00  0.00     0.029 A 
ATOM     23  C   UNL A   1      40.037  29.355  29.386  1.00  0.00     0.049 A 
ATOM     24  H   UNL A   1      40.110  30.195  31.293  1.00  0.00     0.167 HD
ATOM     25  C   UNL A   1      40.176  32.087  35.230  1.00  0.00     0.034 A 
ATOM     26  C   UNL A   1      41.017  28.434  29.314  1.00  0.00     0.034 A 
ATOM     27  C   UNL A   1      41.192  31.067  35.279  1.00  0.00     0.049 A 
ATOM     28  C   UNL A   1      41.874  28.190  30.522  1.00  0.00     0.074 A 
ATOM     29  C   UNL A   1      42.019  30.727  36.334  1.00  0.00     0.029 A 
ATOM     30  N   UNL A   1      41.519  30.223  34.228  1.00  0.00    -0.354 N 
ATOM     31  N   UNL A   1      41.793  28.733  31.712  1.00  0.00    -0.248 NA
ATOM     32  C   UNL A   1      42.942  27.192  30.384  1.00  0.00     0.031 C 
ATOM     33  C   UNL A   1      42.856  29.684  35.918  1.00  0.00     0.029 A 
ATOM     34  C   UNL A   1      42.541  29.368  34.607  1.00  0.00     0.049 A 
ATOM     35  H   UNL A   1      41.089  30.231  33.343  1.00  0.00     0.167 HD
ATOM     36  C   UNL A   1      42.785  28.128  32.473  1.00  0.00     0.074 A 
ATOM     37  C   UNL A   1      43.434  27.156  31.616  1.00  0.00     0.031 C 
ATOM     38  C   UNL A   1      43.142  28.372  33.758  1.00  0.00     0.034 A 
BRANCH  25  39
ATOM     39  C   UNL A   1      39.975  32.944  36.453  1.00  0.00     0.023 A 
ATOM     40  C   UNL A   1      40.642  34.182  36.550  1.00  0.00     0.012 A 
ATOM     41  C   UNL A   1      39.081  32.561  37.471  1.00  0.00     0.148 A 
ATOM     42  C   UNL A   1      40.444  35.012  37.653  1.00  0.00     0.002 A 
ATOM     43  C   UNL A   1      38.860  33.411  38.552  1.00  0.00     0.091 A 
ATOM     44  F   UNL A   1      38.473  31.369  37.377  1.00  0.00    -0.205 F 
ATOM     45  C   UNL A   1      39.546  34.632  38.647  1.00  0.00     0.022 A 
BRANCH  43  46
ATOM     46  S   UNL A   1      37.666  33.036  39.841  1.00  0.00     0.127 S 
ATOM     47  O   UNL A   1      36.428  32.918  39.072  1.00  0.00    -0.237 OA
ATOM     48  O   UNL A   1      38.171  31.770  40.377  1.00  0.00    -0.237 OA
ATOM     49  O   UNL A   1      37.727  34.152  40.774  1.00  0.00    -0.744 OA
ENDBRANCH  43  46
ENDBRANCH  25  39
BRANCH  26  50
ATOM     50  C   UNL A   1      41.183  27.632  28.070  1.00  0.00     0.023 A 
ATOM     51  C   UNL A   1      41.800  28.219  26.949  1.00  0.00     0.012 A 
ATOM     52  C   UNL A   1      40.795  26.280  28.011  1.00  0.00     0.148 A 
ATOM     53  C   UNL A   1      42.010  27.479  25.785  1.00  0.00     0.002 A 
ATOM     54  C   UNL A   1      41.062  25.532  26.871  1.00  0.00     0.091 A 
ATOM     55  F   UNL A   1      40.191  25.744  29.082  1.00  0.00    -0.205 F 
ATOM     56  C   UNL A   1      41.656  26.133  25.750  1.00  0.00     0.022 A 
BRANCH  54  57
ATOM     57  S   UNL A   1      40.772  23.760  26.807  1.00  0.00     0.127 S 
ATOM     58  O   UNL A   1      41.160  23.344  28.151  1.00  0.00    -0.237 OA
ATOM     59  O   UNL A   1      39.336  23.694  26.531  1.00  0.00    -0.237 OA
ATOM     60  O   UNL A   1      41.608  23.273  25.718  1.00  0.00    -0.744 OA
ENDBRANCH  54  57
ENDBRANCH  26  50
BRANCH  38  61
ATOM     61  C   UNL A   1      44.280  27.563  34.321  1.00  0.00     0.023 A 
ATOM     62  C   UNL A   1      45.586  28.090  34.291  1.00  0.00     0.012 A 
ATOM     63  C   UNL A   1      44.050  26.313  34.927  1.00  0.00     0.148 A 
ATOM     64  C   UNL A   1      46.652  27.371  34.829  1.00  0.00     0.002 A 
ATOM     65  C   UNL A   1      45.110  25.621  35.499  1.00  0.00     0.091 A 
ATOM     66  F   UNL A   1      42.803  25.818  34.924  1.00  0.00    -0.205 F 
ATOM     67  C   UNL A   1      46.414  26.143  35.442  1.00  0.00     0.022 A 
BRANCH  65  68
ATOM     68  S   UNL A   1      44.873  24.076  36.383  1.00  0.00     0.127 S 
ATOM     69  O   UNL A   1      46.218  23.506  36.359  1.00  0.00    -0.237 OA
ATOM     70  O   UNL A   1      44.426  24.530  37.701  1.00  0.00    -0.237 OA
ATOM     71  O   UNL A   1      43.863  23.343  35.630  1.00  0.00    -0.744 OA
ENDBRANCH  65  68
ENDBRANCH  38  61
ENDBRANCH  12  13
ENDBRANCH   5   7
ENDBRANCH   2   3
ENDBRANCH   1   2
BRANCH   1  72
ATOM     72  C   UNL A   1      31.739  30.389  26.600  1.00  0.00     0.118 C 
BRANCH  72  73
ATOM     73  N   UNL A   1      32.674  30.182  25.508  1.00  0.00    -0.352 N 
ATOM     74  C   UNL A   1      32.647  29.245  24.511  1.00  0.00     0.255 C 
ATOM     75  H   UNL A   1      33.437  30.804  25.482  1.00  0.00     0.163 HD
ATOM     76  O   UNL A   1      33.606  29.135  23.749  1.00  0.00    -0.269 OA
BRANCH  74  77
ATOM     77  C   UNL A   1      31.496  28.337  24.348  1.00  0.00     0.083 A 
ATOM     78  C   UNL A   1      31.688  26.995  24.712  1.00  0.00     0.044 A 
ATOM     79  C   UNL A   1      30.307  28.727  23.727  1.00  0.00     0.128 A 
ATOM     80  C   UNL A   1      30.714  26.029  24.427  1.00  0.00     0.053 A 
ATOM     81  C   UNL A   1      29.311  27.786  23.484  1.00  0.00     0.049 A 
ATOM     82  C   UNL A   1      29.525  26.442  23.811  1.00  0.00     0.031 A 
BRANCH  79  83
ATOM     83  O   UNL A   1      30.119  30.021  23.329  1.00  0.00    -0.507 OA
ATOM     84  H   UNL A   1      30.235  30.256  22.430  1.00  0.00     0.293 HD
ENDBRANCH  79  83
BRANCH  80  85
ATOM     85  N   UNL A   1      30.961  24.661  24.708  1.00  0.00    -0.249 N 
ATOM     86  C   UNL A   1      30.676  24.053  25.904  1.00  0.00     0.236 C 
ATOM     87  C   UNL A   1      31.534  23.792  23.809  1.00  0.00     0.256 C 
ATOM     88  O   UNL A   1      30.209  24.556  26.918  1.00  0.00    -0.274 OA
ATOM     89  C   UNL A   1      30.922  22.580  25.786  1.00  0.00     0.136 C 
ATOM     90  C   UNL A   1      31.580  22.400  24.430  1.00  0.00     0.179 C 
ATOM     91  O   UNL A   1      32.036  24.087  22.730  1.00  0.00    -0.272 OA
BRANCH  90  92
ATOM     92  N   UNL A   1      32.964  21.932  24.614  1.00  0.00    -0.370 N 
ATOM     93  H   UNL A   1      33.673  22.523  24.956  1.00  0.00     0.161 HD
BRANCH  92  94
ATOM     94  C   UNL A   1      33.220  20.592  24.273  1.00  0.00     0.077 A 
ATOM     95  C   UNL A   1      32.289  19.891  23.503  1.00  0.00     0.029 A 
ATOM     96  C   UNL A   1      34.315  19.885  24.800  1.00  0.00     0.138 A 
ATOM     97  C   UNL A   1      32.463  18.527  23.242  1.00  0.00     0.002 A 
ATOM     98  C   UNL A   1      34.494  18.526  24.549  1.00  0.00     0.048 A 
ATOM     99  C   UNL A   1      33.564  17.847  23.765  1.00  0.00     0.004 A 
BRANCH  96 100
ATOM    100  O   UNL A   1      35.208  20.555  25.590  1.00  0.00    -0.506 OA
ATOM    101  H   UNL A   1      36.041  20.173  25.783  1.00  0.00     0.293 HD
ENDBRANCH  96 100
ENDBRANCH  92  94
ENDBRANCH  90  92
ENDBRANCH  80  85
ENDBRANCH  74  77
ENDBRANCH  72  73
ENDBRANCH   1  72
TORSDOF 18
ENDMDL
MODEL 2
REMARK VINA RESULT:     -11.8      1.822      2.367
REMARK SMILES O=C(NCCCNC(=O)c1cc(N2C(=O)C[C@H](Nc3ccccc3O)C2=O)ccc1O)c1ccc(-c2c3nc(c(-c4cccc(S(=O)(=O)[O-])c4F)c4ccc([nH]4)c(-c4cccc(S(=O)(=O)[O-])c4F)c4nc(c(-c5cccc(S(=O)(=O)[O-])c5F)c5ccc2[nH]5)C=C4)C=C3)cc1
REMARK SMILES IDX 5 1 4 2 3 3 1 4 2 5 32 7 33 8 94 9 34 10 93 11 35 12 36 13
REMARK SMILES IDX 37 14 87 15 38 16 92 17 86 18 88 19 39 20 91 21 85 22 84 23
REMARK SMILES IDX 40 25 72 26 52 27 71 28 53 29 56 30 70 31 89 32 54 33 55 34
REMARK SMILES IDX 69 36 90 37 57 38 41 39 42 40 50 41 43 42 45 43 51 44 44 45
REMARK SMILES IDX 46 46 47 47 48 48 49 49 73 50 74 51 82 52 75 53 77 54 83 55
REMARK SMILES IDX 76 56 78 57 79 58 80 59 81 60 58 61 59 62 67 63 60 64 62 65
REMARK SMILES IDX 68 66 61 67 63 68 64 69 65 70 66 71 6 72 7 73 8 74 9 76
REMARK SMILES IDX 10 77 11 78 30 79 12 80 29 81 28 82 31 83 13 85 14 86 26 87
REMARK SMILES IDX 15 88 16 89 17 90 27 91 18 92 19 94 20 95 24 96 21 97 23 98
REMARK SMILES IDX 22 99 25 100
REMARK H PARENT 3 6 88 24 56 35 7 75 31 84 18 93 25 101
REMARK Flexibility Score: inf
ROOT
ATOM      1  C   UNL A   1      32.653  31.046  27.128  1.00  0.00     0.042 C 
ENDROOT
BRANCH   1   2
ATOM      2  C   UNL A   1      33.991  31.677  27.486  1.00  0.00     0.118 C 
BRANCH   2   3
ATOM      3  N   UNL A   1      33.860  32.814  28.389  1.00  0.00    -0.352 N 
ATOM      4  O   UNL A   1      34.242  34.098  30.194  1.00  0.00    -0.269 OA
ATOM      5  C   UNL A   1      34.646  33.212  29.445  1.00  0.00     0.251 C 
ATOM      6  H   UNL A   1      33.082  33.391  28.214  1.00  0.00     0.163 HD
BRANCH   5   7
ATOM      7  C   UNL A   1      35.949  32.560  29.700  1.00  0.00     0.039 A 
ATOM      8  C   UNL A   1      36.034  31.406  30.480  1.00  0.00     0.014 A 
ATOM      9  C   UNL A   1      37.109  33.100  29.135  1.00  0.00     0.014 A 
ATOM     10  C   UNL A   1      37.278  30.910  30.851  1.00  0.00     0.010 A 
ATOM     11  C   UNL A   1      38.355  32.529  29.418  1.00  0.00     0.010 A 
ATOM     12  C   UNL A   1      38.456  31.457  30.317  1.00  0.00    -0.014 A 
BRANCH  12  13
ATOM     13  C   UNL A   1      39.762  30.845  30.675  1.00  0.00     0.031 A 
ATOM     14  C   UNL A   1      40.513  31.261  31.911  1.00  0.00     0.074 A 
ATOM     15  C   UNL A   1      40.259  29.876  29.879  1.00  0.00     0.049 A 
ATOM     16  N   UNL A   1      41.628  30.774  32.396  1.00  0.00    -0.248 NA
ATOM     17  C   UNL A   1      39.955  32.369  32.702  1.00  0.00     0.031 C 
ATOM     18  C   UNL A   1      39.648  29.421  28.628  1.00  0.00     0.029 A 
ATOM     19  N   UNL A   1      41.375  29.089  30.006  1.00  0.00    -0.354 N 
ATOM     20  C   UNL A   1      41.928  31.541  33.516  1.00  0.00     0.074 A 
ATOM     21  C   UNL A   1      40.881  32.533  33.638  1.00  0.00     0.031 C 
ATOM     22  C   UNL A   1      40.363  28.403  28.132  1.00  0.00     0.029 A 
ATOM     23  C   UNL A   1      41.513  28.167  28.995  1.00  0.00     0.049 A 
ATOM     24  H   UNL A   1      42.015  29.176  30.749  1.00  0.00     0.167 HD
ATOM     25  C   UNL A   1      42.968  31.418  34.376  1.00  0.00     0.034 A 
ATOM     26  C   UNL A   1      42.460  27.233  28.782  1.00  0.00     0.034 A 
ATOM     27  C   UNL A   1      43.979  30.396  34.281  1.00  0.00     0.049 A 
ATOM     28  C   UNL A   1      43.576  27.092  29.776  1.00  0.00     0.074 A 
ATOM     29  C   UNL A   1      45.032  30.145  35.143  1.00  0.00     0.029 A 
ATOM     30  N   UNL A   1      44.064  29.457  33.264  1.00  0.00    -0.354 N 
ATOM     31  N   UNL A   1      43.766  27.741  30.899  1.00  0.00    -0.248 NA
ATOM     32  C   UNL A   1      44.594  26.074  29.487  1.00  0.00     0.031 C 
ATOM     33  C   UNL A   1      45.761  29.060  34.641  1.00  0.00     0.029 A 
ATOM     34  C   UNL A   1      45.155  28.629  33.472  1.00  0.00     0.049 A 
ATOM     35  H   UNL A   1      43.441  29.388  32.505  1.00  0.00     0.167 HD
ATOM     36  C   UNL A   1      44.913  27.197  31.462  1.00  0.00     0.074 A 
ATOM     37  C   UNL A   1      45.358  26.146  30.570  1.00  0.00     0.031 C 
ATOM     38  C   UNL A   1      45.555  27.554  32.602  1.00  0.00     0.034 A 
BRANCH  25  39
ATOM     39  C   UNL A   1      43.046  32.384  35.528  1.00  0.00     0.023 A 
ATOM     40  C   UNL A   1      43.715  33.613  35.360  1.00  0.00     0.012 A 
ATOM     41  C   UNL A   1      42.403  32.111  36.752  1.00  0.00     0.148 A 
ATOM     42  C   UNL A   1      43.768  34.542  36.399  1.00  0.00     0.002 A 
ATOM     43  C   UNL A   1      42.429  33.058  37.772  1.00  0.00     0.091 A 
ATOM     44  F   UNL A   1      41.792  30.927  36.905  1.00  0.00    -0.205 F 
ATOM     45  C   UNL A   1      43.118  34.270  37.599  1.00  0.00     0.022 A 
BRANCH  43  46
ATOM     46  S   UNL A   1      41.556  32.822  39.325  1.00  0.00     0.127 S 
ATOM     47  O   UNL A   1      40.201  32.532  38.860  1.00  0.00    -0.237 OA
ATOM     48  O   UNL A   1      42.258  31.677  39.908  1.00  0.00    -0.237 OA
ATOM     49  O   UNL A   1      41.718  34.067  40.062  1.00  0.00    -0.744 OA
ENDBRANCH  43  46
ENDBRANCH  25  39
BRANCH  26  50
ATOM     50  C   UNL A   1      42.343  26.319  27.612  1.00  0.00     0.023 A 
ATOM     51  C   UNL A   1      42.983  26.660  26.405  1.00  0.00     0.012 A 
ATOM     52  C   UNL A   1      41.662  25.092  27.705  1.00  0.00     0.148 A 
ATOM     53  C   UNL A   1      42.930  25.803  25.306  1.00  0.00     0.002 A 
ATOM     54  C   UNL A   1      41.663  24.215  26.626  1.00  0.00     0.091 A 
ATOM     55  F   UNL A   1      41.041  24.793  28.855  1.00  0.00    -0.205 F 
ATOM     56  C   UNL A   1      42.284  24.575  25.420  1.00  0.00     0.022 A 
BRANCH  54  57
ATOM     57  S   UNL A   1      40.982  22.557  26.747  1.00  0.00     0.127 S 
ATOM     58  O   UNL A   1      39.548  22.814  26.644  1.00  0.00    -0.237 OA
ATOM     59  O   UNL A   1      41.575  21.896  25.584  1.00  0.00    -0.237 OA
ATOM     60  O   UNL A   1      41.451  22.042  28.027  1.00  0.00    -0.744 OA
ENDBRANCH  54  57
ENDBRANCH  26  50
BRANCH  38  61
ATOM     61  C   UNL A   1      46.801  26.788  32.958  1.00  0.00     0.023 A 
ATOM     62  C   UNL A   1      48.056  27.270  32.536  1.00  0.00     0.012 A 
ATOM     63  C   UNL A   1      46.736  25.628  33.754  1.00  0.00     0.148 A 
ATOM     64  C   UNL A   1      49.225  26.593  32.874  1.00  0.00     0.002 A 
ATOM     65  C   UNL A   1      47.909  24.982  34.123  1.00  0.00     0.091 A 
ATOM     66  F   UNL A   1      45.530  25.171  34.125  1.00  0.00    -0.205 F 
ATOM     67  C   UNL A   1      49.154  25.456  33.676  1.00  0.00     0.022 A 
BRANCH  65  68
ATOM     68  S   UNL A   1      47.908  23.563  35.225  1.00  0.00     0.127 S 
ATOM     69  O   UNL A   1      47.293  24.118  36.429  1.00  0.00    -0.237 OA
ATOM     70  O   UNL A   1      47.075  22.601  34.501  1.00  0.00    -0.237 OA
ATOM     71  O   UNL A   1      49.304  23.165  35.355  1.00  0.00    -0.744 OA
ENDBRANCH  65  68
ENDBRANCH  38  61
ENDBRANCH  12  13
ENDBRANCH   5   7
ENDBRANCH   2   3
ENDBRANCH   1   2
BRANCH   1  72
ATOM     72  C   UNL A   1      32.760  29.613  26.632  1.00  0.00     0.118 C 
BRANCH  72  73
ATOM     73  N   UNL A   1      33.434  29.534  25.347  1.00  0.00    -0.352 N 
ATOM     74  C   UNL A   1      33.149  28.745  24.267  1.00  0.00     0.255 C 
ATOM     75  H   UNL A   1      34.207  30.135  25.239  1.00  0.00     0.163 HD
ATOM     76  O   UNL A   1      33.920  28.716  23.309  1.00  0.00    -0.269 OA
BRANCH  74  77
ATOM     77  C   UNL A   1      31.942  27.897  24.238  1.00  0.00     0.083 A 
ATOM     78  C   UNL A   1      32.097  26.557  24.625  1.00  0.00     0.044 A 
ATOM     79  C   UNL A   1      30.723  28.335  23.716  1.00  0.00     0.128 A 
ATOM     80  C   UNL A   1      31.052  25.638  24.461  1.00  0.00     0.053 A 
ATOM     81  C   UNL A   1      29.660  27.444  23.594  1.00  0.00     0.049 A 
ATOM     82  C   UNL A   1      29.834  26.100  23.943  1.00  0.00     0.031 A 
BRANCH  79  83
ATOM     83  O   UNL A   1      30.567  29.627  23.296  1.00  0.00    -0.507 OA
ATOM     84  H   UNL A   1      31.278  30.073  22.881  1.00  0.00     0.293 HD
ENDBRANCH  79  83
BRANCH  80  85
ATOM     85  N   UNL A   1      31.252  24.267  24.761  1.00  0.00    -0.249 N 
ATOM     86  C   UNL A   1      31.003  23.698  25.984  1.00  0.00     0.236 C 
ATOM     87  C   UNL A   1      31.737  23.354  23.854  1.00  0.00     0.256 C 
ATOM     88  O   UNL A   1      30.613  24.244  27.009  1.00  0.00    -0.274 OA
ATOM     89  C   UNL A   1      31.177  22.213  25.889  1.00  0.00     0.136 C 
ATOM     90  C   UNL A   1      31.753  21.975  24.505  1.00  0.00     0.179 C 
ATOM     91  O   UNL A   1      32.193  23.602  22.744  1.00  0.00    -0.272 OA
BRANCH  90  92
ATOM     92  N   UNL A   1      33.123  21.447  24.628  1.00  0.00    -0.370 N 
ATOM     93  H   UNL A   1      33.862  21.996  24.976  1.00  0.00     0.161 HD
BRANCH  92  94
ATOM     94  C   UNL A   1      33.318  20.116  24.220  1.00  0.00     0.077 A 
ATOM     95  C   UNL A   1      32.324  19.474  23.478  1.00  0.00     0.029 A 
ATOM     96  C   UNL A   1      34.419  19.357  24.653  1.00  0.00     0.138 A 
ATOM     97  C   UNL A   1      32.441  18.118  23.153  1.00  0.00     0.002 A 
ATOM     98  C   UNL A   1      34.542  18.006  24.338  1.00  0.00     0.048 A 
ATOM     99  C   UNL A   1      33.549  17.386  23.583  1.00  0.00     0.004 A 
BRANCH  96 100
ATOM    100  O   UNL A   1      35.376  19.969  25.415  1.00  0.00    -0.506 OA
ATOM    101  H   UNL A   1      35.126  20.487  26.154  1.00  0.00     0.293 HD
ENDBRANCH  96 100
ENDBRANCH  92  94
ENDBRANCH  90  92
ENDBRANCH  80  85
ENDBRANCH  74  77
ENDBRANCH  72  73
ENDBRANCH   1  72
TORSDOF 18
ENDMDL
MODEL 3
REMARK VINA RESULT:     -11.8      7.265     11.405
REMARK SMILES O=C(NCCCNC(=O)c1cc(N2C(=O)C[C@H](Nc3ccccc3O)C2=O)ccc1O)c1ccc(-c2c3nc(c(-c4cccc(S(=O)(=O)[O-])c4F)c4ccc([nH]4)c(-c4cccc(S(=O)(=O)[O-])c4F)c4nc(c(-c5cccc(S(=O)(=O)[O-])c5F)c5ccc2[nH]5)C=C4)C=C3)cc1
REMARK SMILES IDX 5 1 4 2 3 3 1 4 2 5 32 7 33 8 94 9 34 10 93 11 35 12 36 13
REMARK SMILES IDX 37 14 87 15 38 16 92 17 86 18 88 19 39 20 91 21 85 22 84 23
REMARK SMILES IDX 40 25 72 26 52 27 71 28 53 29 56 30 70 31 89 32 54 33 55 34
REMARK SMILES IDX 69 36 90 37 57 38 41 39 42 40 50 41 43 42 45 43 51 44 44 45
REMARK SMILES IDX 46 46 47 47 48 48 49 49 73 50 74 51 82 52 75 53 77 54 83 55
REMARK SMILES IDX 76 56 78 57 79 58 80 59 81 60 58 61 59 62 67 63 60 64 62 65
REMARK SMILES IDX 68 66 61 67 63 68 64 69 65 70 66 71 6 72 7 73 8 74 9 76
REMARK SMILES IDX 10 77 11 78 30 79 12 80 29 81 28 82 31 83 13 85 14 86 26 87
REMARK SMILES IDX 15 88 16 89 17 90 27 91 18 92 19 94 20 95 24 96 21 97 23 98
REMARK SMILES IDX 22 99 25 100
REMARK H PARENT 3 6 88 24 56 35 7 75 31 84 18 93 25 101
REMARK Flexibility Score: inf
ROOT
ATOM      1  C   UNL A   1      35.381  33.488  33.029  1.00  0.00     0.042 C 
ENDROOT
BRANCH   1   2
ATOM      2  C   UNL A   1      36.058  32.571  32.020  1.00  0.00     0.118 C 
BRANCH   2   3
ATOM      3  N   UNL A   1      36.161  31.192  32.485  1.00  0.00    -0.352 N 
ATOM      4  O   UNL A   1      36.968  29.101  32.644  1.00  0.00    -0.269 OA
ATOM      5  C   UNL A   1      37.172  30.272  32.336  1.00  0.00     0.251 C 
ATOM      6  H   UNL A   1      35.378  30.868  32.987  1.00  0.00     0.163 HD
BRANCH   5   7
ATOM      7  C   UNL A   1      38.482  30.678  31.780  1.00  0.00     0.039 A 
ATOM      8  C   UNL A   1      39.510  31.117  32.615  1.00  0.00     0.014 A 
ATOM      9  C   UNL A   1      38.695  30.603  30.400  1.00  0.00     0.014 A 
ATOM     10  C   UNL A   1      40.667  31.656  32.065  1.00  0.00     0.010 A 
ATOM     11  C   UNL A   1      39.908  31.042  29.856  1.00  0.00     0.010 A 
ATOM     12  C   UNL A   1      40.887  31.617  30.679  1.00  0.00    -0.014 A 
BRANCH  12  13
ATOM     13  C   UNL A   1      42.173  32.129  30.138  1.00  0.00     0.031 A 
ATOM     14  C   UNL A   1      43.305  31.200  29.789  1.00  0.00     0.074 A 
ATOM     15  C   UNL A   1      42.304  33.456  29.934  1.00  0.00     0.049 A 
ATOM     16  N   UNL A   1      44.461  31.484  29.244  1.00  0.00    -0.248 NA
ATOM     17  C   UNL A   1      43.128  29.772  30.097  1.00  0.00     0.031 C 
ATOM     18  C   UNL A   1      41.296  34.462  30.279  1.00  0.00     0.029 A 
ATOM     19  N   UNL A   1      43.322  34.186  29.377  1.00  0.00    -0.354 N 
ATOM     20  C   UNL A   1      45.165  30.287  29.185  1.00  0.00     0.074 A 
ATOM     21  C   UNL A   1      44.308  29.269  29.757  1.00  0.00     0.031 C 
ATOM     22  C   UNL A   1      41.721  35.667  29.878  1.00  0.00     0.029 A 
ATOM     23  C   UNL A   1      43.052  35.533  29.299  1.00  0.00     0.049 A 
ATOM     24  H   UNL A   1      44.165  33.786  29.062  1.00  0.00     0.167 HD
ATOM     25  C   UNL A   1      46.401  30.052  28.683  1.00  0.00     0.034 A 
ATOM     26  C   UNL A   1      43.791  36.550  28.816  1.00  0.00     0.034 A 
ATOM     27  C   UNL A   1      47.228  31.057  28.067  1.00  0.00     0.049 A 
ATOM     28  C   UNL A   1      45.139  36.251  28.226  1.00  0.00     0.074 A 
ATOM     29  C   UNL A   1      48.464  30.903  27.466  1.00  0.00     0.029 A 
ATOM     30  N   UNL A   1      46.903  32.402  27.974  1.00  0.00    -0.354 N 
ATOM     31  N   UNL A   1      45.727  35.092  28.062  1.00  0.00    -0.248 NA
ATOM     32  C   UNL A   1      45.914  37.397  27.734  1.00  0.00     0.031 C 
ATOM     33  C   UNL A   1      48.894  32.158  27.018  1.00  0.00     0.029 A 
ATOM     34  C   UNL A   1      47.919  33.091  27.331  1.00  0.00     0.049 A 
ATOM     35  H   UNL A   1      46.074  32.808  28.314  1.00  0.00     0.167 HD
ATOM     36  C   UNL A   1      46.932  35.365  27.428  1.00  0.00     0.074 A 
ATOM     37  C   UNL A   1      46.975  36.797  27.213  1.00  0.00     0.031 C 
ATOM     38  C   UNL A   1      47.924  34.509  27.079  1.00  0.00     0.034 A 
BRANCH  25  39
ATOM     39  C   UNL A   1      46.923  28.640  28.734  1.00  0.00     0.023 A 
ATOM     40  C   UNL A   1      47.606  28.193  29.883  1.00  0.00     0.012 A 
ATOM     41  C   UNL A   1      46.683  27.737  27.679  1.00  0.00     0.148 A 
ATOM     42  C   UNL A   1      48.065  26.879  29.971  1.00  0.00     0.002 A 
ATOM     43  C   UNL A   1      47.113  26.417  27.789  1.00  0.00     0.091 A 
ATOM     44  F   UNL A   1      46.054  28.183  26.582  1.00  0.00    -0.205 F 
ATOM     45  C   UNL A   1      47.810  25.990  28.931  1.00  0.00     0.022 A 
BRANCH  43  46
ATOM     46  S   UNL A   1      46.763  25.184  26.529  1.00  0.00     0.127 S 
ATOM     47  O   UNL A   1      45.312  25.300  26.399  1.00  0.00    -0.237 OA
ATOM     48  O   UNL A   1      47.519  25.687  25.381  1.00  0.00    -0.237 OA
ATOM     49  O   UNL A   1      47.251  23.922  27.065  1.00  0.00    -0.744 OA
ENDBRANCH  43  46
ENDBRANCH  25  39
BRANCH  26  50
ATOM     50  C   UNL A   1      43.231  37.930  28.813  1.00  0.00     0.023 A 
ATOM     51  C   UNL A   1      42.353  38.315  27.782  1.00  0.00     0.012 A 
ATOM     52  C   UNL A   1      43.509  38.837  29.853  1.00  0.00     0.148 A 
ATOM     53  C   UNL A   1      41.777  39.586  27.777  1.00  0.00     0.002 A 
ATOM     54  C   UNL A   1      42.885  40.079  29.874  1.00  0.00     0.091 A 
ATOM     55  F   UNL A   1      44.363  38.460  30.816  1.00  0.00    -0.205 F 
ATOM     56  C   UNL A   1      42.030  40.462  28.829  1.00  0.00     0.022 A 
BRANCH  54  57
ATOM     57  S   UNL A   1      43.045  41.199  31.269  1.00  0.00     0.127 S 
ATOM     58  O   UNL A   1      44.473  41.504  31.247  1.00  0.00    -0.237 OA
ATOM     59  O   UNL A   1      42.172  42.306  30.876  1.00  0.00    -0.237 OA
ATOM     60  O   UNL A   1      42.567  40.448  32.423  1.00  0.00    -0.744 OA
ENDBRANCH  54  57
ENDBRANCH  26  50
BRANCH  38  61
ATOM     61  C   UNL A   1      49.138  35.100  26.412  1.00  0.00     0.023 A 
ATOM     62  C   UNL A   1      49.115  35.349  25.025  1.00  0.00     0.012 A 
ATOM     63  C   UNL A   1      50.275  35.458  27.161  1.00  0.00     0.148 A 
ATOM     64  C   UNL A   1      50.216  35.917  24.389  1.00  0.00     0.002 A 
ATOM     65  C   UNL A   1      51.353  36.064  26.528  1.00  0.00     0.091 A 
ATOM     66  F   UNL A   1      50.287  35.190  28.476  1.00  0.00    -0.205 F 
ATOM     67  C   UNL A   1      51.330  36.284  25.141  1.00  0.00     0.022 A 
BRANCH  65  68
ATOM     68  S   UNL A   1      52.788  36.645  27.438  1.00  0.00     0.127 S 
ATOM     69  O   UNL A   1      53.322  35.400  27.985  1.00  0.00    -0.237 OA
ATOM     70  O   UNL A   1      53.606  37.250  26.386  1.00  0.00    -0.237 OA
ATOM     71  O   UNL A   1      52.275  37.595  28.417  1.00  0.00    -0.744 OA
ENDBRANCH  65  68
ENDBRANCH  38  61
ENDBRANCH  12  13
ENDBRANCH   5   7
ENDBRANCH   2   3
ENDBRANCH   1   2
BRANCH   1  72
ATOM     72  C   UNL A   1      35.260  34.931  32.566  1.00  0.00     0.118 C 
BRANCH  72  73
ATOM     73  N   UNL A   1      33.888  35.404  32.619  1.00  0.00    -0.352 N 
ATOM     74  C   UNL A   1      33.048  35.742  31.594  1.00  0.00     0.255 C 
ATOM     75  H   UNL A   1      33.508  35.495  33.523  1.00  0.00     0.163 HD
ATOM     76  O   UNL A   1      31.959  36.258  31.839  1.00  0.00    -0.269 OA
BRANCH  74  77
ATOM     77  C   UNL A   1      33.436  35.528  30.186  1.00  0.00     0.083 A 
ATOM     78  C   UNL A   1      33.698  34.206  29.793  1.00  0.00     0.044 A 
ATOM     79  C   UNL A   1      33.683  36.581  29.302  1.00  0.00     0.128 A 
ATOM     80  C   UNL A   1      34.242  33.929  28.532  1.00  0.00     0.053 A 
ATOM     81  C   UNL A   1      34.176  36.314  28.028  1.00  0.00     0.049 A 
ATOM     82  C   UNL A   1      34.475  34.998  27.656  1.00  0.00     0.031 A 
BRANCH  79  83
ATOM     83  O   UNL A   1      33.472  37.876  29.682  1.00  0.00    -0.507 OA
ATOM     84  H   UNL A   1      33.084  38.483  29.083  1.00  0.00     0.293 HD
ENDBRANCH  79  83
BRANCH  80  85
ATOM     85  N   UNL A   1      34.596  32.601  28.183  1.00  0.00    -0.249 N 
ATOM     86  C   UNL A   1      35.882  32.123  28.161  1.00  0.00     0.236 C 
ATOM     87  C   UNL A   1      33.681  31.643  27.811  1.00  0.00     0.256 C 
ATOM     88  O   UNL A   1      36.920  32.730  28.392  1.00  0.00    -0.274 OA
ATOM     89  C   UNL A   1      35.862  30.648  27.904  1.00  0.00     0.136 C 
ATOM     90  C   UNL A   1      34.414  30.327  27.577  1.00  0.00     0.179 C 
ATOM     91  O   UNL A   1      32.490  31.823  27.586  1.00  0.00    -0.272 OA
BRANCH  90  92
ATOM     92  N   UNL A   1      34.313  29.889  26.175  1.00  0.00    -0.370 N 
ATOM     93  H   UNL A   1      34.850  30.301  25.461  1.00  0.00     0.161 HD
BRANCH  92  94
ATOM     94  C   UNL A   1      33.404  28.848  25.911  1.00  0.00     0.077 A 
ATOM     95  C   UNL A   1      33.792  27.526  26.138  1.00  0.00     0.029 A 
ATOM     96  C   UNL A   1      32.164  29.082  25.291  1.00  0.00     0.138 A 
ATOM     97  C   UNL A   1      32.951  26.466  25.781  1.00  0.00     0.002 A 
ATOM     98  C   UNL A   1      31.322  28.032  24.929  1.00  0.00     0.048 A 
ATOM     99  C   UNL A   1      31.718  26.720  25.177  1.00  0.00     0.004 A 
BRANCH  96 100
ATOM    100  O   UNL A   1      31.796  30.372  25.027  1.00  0.00    -0.506 OA
ATOM    101  H   UNL A   1      30.973  30.550  24.618  1.00  0.00     0.293 HD
ENDBRANCH  96 100
ENDBRANCH  92  94
ENDBRANCH  90  92
ENDBRANCH  80  85
ENDBRANCH  74  77
ENDBRANCH  72  73
ENDBRANCH   1  72
TORSDOF 18
ENDMDL
