MODEL 1
REMARK VINA RESULT:     -13.4      0.000      0.000
REMARK SMILES O=C(NCCCNC(=O)[C@H]1CCCN(C(=O)C2CCN(S(=O)(=O)c3ccccc3)CC2)C1)c1ccc(-c2c3nc(c(-c4cccc(S(=O)(=O)[O-])c4F)c4ccc([nH]4)c(-c4cccc(S(=O)(=O)[O-])c4F)c4nc(c(-c5cccc(S(=O)(=O)[O-])c5F)c5ccc2[nH]5)C=C4)C=C3)cc1
REMARK SMILES IDX 5 1 4 2 3 3 1 4 2 5 33 7 34 8 95 9 35 10 94 11 36 12 37 13
REMARK SMILES IDX 38 14 88 15 39 16 93 17 87 18 89 19 40 20 92 21 86 22 85 23
REMARK SMILES IDX 41 25 73 26 53 27 72 28 54 29 57 30 71 31 90 32 55 33 56 34
REMARK SMILES IDX 70 36 91 37 58 38 42 39 43 40 51 41 44 42 46 43 52 44 45 45
REMARK SMILES IDX 47 46 48 47 49 48 50 49 74 50 75 51 83 52 76 53 78 54 84 55
REMARK SMILES IDX 77 56 79 57 80 58 81 59 82 60 59 61 60 62 68 63 61 64 63 65
REMARK SMILES IDX 69 66 62 67 64 68 65 69 66 70 67 71 6 72 7 73 8 74 9 76
REMARK SMILES IDX 10 77 11 78 32 79 12 80 14 81 13 82 15 83 16 84 17 85 18 86
REMARK SMILES IDX 31 87 19 88 30 89 20 90 21 91 22 92 23 93 24 94 25 95 29 96
REMARK SMILES IDX 26 97 28 98 27 99
REMARK H PARENT 3 6 89 24 57 35 7 75
REMARK Flexibility Score: inf
ROOT
ATOM      1  C   UNL A   1      37.814  19.745  24.888  1.00  0.00     0.042 C 
ENDROOT
BRANCH   1   2
ATOM      2  C   UNL A   1      38.949  20.211  25.781  1.00  0.00     0.118 C 
BRANCH   2   3
ATOM      3  N   UNL A   1      40.022  19.231  25.862  1.00  0.00    -0.352 N 
ATOM      4  O   UNL A   1      42.159  18.529  25.919  1.00  0.00    -0.269 OA
ATOM      5  C   UNL A   1      41.362  19.450  26.061  1.00  0.00     0.251 C 
ATOM      6  H   UNL A   1      39.752  18.290  25.761  1.00  0.00     0.163 HD
BRANCH   5   7
ATOM      7  C   UNL A   1      41.822  20.805  26.423  1.00  0.00     0.039 A 
ATOM      8  C   UNL A   1      42.082  21.748  25.423  1.00  0.00     0.014 A 
ATOM      9  C   UNL A   1      41.991  21.134  27.768  1.00  0.00     0.014 A 
ATOM     10  C   UNL A   1      42.619  22.982  25.761  1.00  0.00     0.010 A 
ATOM     11  C   UNL A   1      42.448  22.406  28.112  1.00  0.00     0.010 A 
ATOM     12  C   UNL A   1      42.773  23.334  27.111  1.00  0.00    -0.014 A 
BRANCH  12  13
ATOM     13  C   UNL A   1      43.128  24.730  27.454  1.00  0.00     0.031 A 
ATOM     14  C   UNL A   1      42.133  25.660  28.079  1.00  0.00     0.074 A 
ATOM     15  C   UNL A   1      44.369  25.152  27.140  1.00  0.00     0.049 A 
ATOM     16  N   UNL A   1      42.288  26.916  28.409  1.00  0.00    -0.248 NA
ATOM     17  C   UNL A   1      40.790  25.127  28.364  1.00  0.00     0.031 C 
ATOM     18  C   UNL A   1      45.389  24.335  26.475  1.00  0.00     0.029 A 
ATOM     19  N   UNL A   1      44.979  26.365  27.315  1.00  0.00    -0.354 N 
ATOM     20  C   UNL A   1      41.058  27.338  28.893  1.00  0.00     0.074 A 
ATOM     21  C   UNL A   1      40.164  26.201  28.827  1.00  0.00     0.031 C 
ATOM     22  C   UNL A   1      46.496  25.066  26.300  1.00  0.00     0.029 A 
ATOM     23  C   UNL A   1      46.248  26.417  26.787  1.00  0.00     0.049 A 
ATOM     24  H   UNL A   1      44.552  27.124  27.772  1.00  0.00     0.167 HD
ATOM     25  C   UNL A   1      40.716  28.563  29.358  1.00  0.00     0.034 A 
ATOM     26  C   UNL A   1      47.107  27.446  26.672  1.00  0.00     0.034 A 
ATOM     27  C   UNL A   1      41.634  29.666  29.465  1.00  0.00     0.049 A 
ATOM     28  C   UNL A   1      46.702  28.782  27.217  1.00  0.00     0.074 A 
ATOM     29  C   UNL A   1      41.423  30.906  30.044  1.00  0.00     0.029 A 
ATOM     30  N   UNL A   1      42.928  29.672  28.965  1.00  0.00    -0.354 N 
ATOM     31  N   UNL A   1      45.595  29.113  27.838  1.00  0.00    -0.248 NA
ATOM     32  C   UNL A   1      47.661  29.881  27.063  1.00  0.00     0.031 C 
ATOM     33  C   UNL A   1      42.582  31.671  29.869  1.00  0.00     0.029 A 
ATOM     34  C   UNL A   1      43.517  30.903  29.191  1.00  0.00     0.049 A 
ATOM     35  H   UNL A   1      43.362  28.912  28.515  1.00  0.00     0.167 HD
ATOM     36  C   UNL A   1      45.727  30.457  28.155  1.00  0.00     0.074 A 
ATOM     37  C   UNL A   1      47.037  30.869  27.690  1.00  0.00     0.031 C 
ATOM     38  C   UNL A   1      44.834  31.284  28.751  1.00  0.00     0.034 A 
BRANCH  25  39
ATOM     39  C   UNL A   1      39.305  28.783  29.830  1.00  0.00     0.023 A 
ATOM     40  C   UNL A   1      38.953  28.441  31.151  1.00  0.00     0.012 A 
ATOM     41  C   UNL A   1      38.364  29.431  29.006  1.00  0.00     0.148 A 
ATOM     42  C   UNL A   1      37.682  28.734  31.643  1.00  0.00     0.002 A 
ATOM     43  C   UNL A   1      37.108  29.748  29.514  1.00  0.00     0.091 A 
ATOM     44  F   UNL A   1      38.714  29.728  27.747  1.00  0.00    -0.205 F 
ATOM     45  C   UNL A   1      36.764  29.396  30.830  1.00  0.00     0.022 A 
BRANCH  43  46
ATOM     46  S   UNL A   1      35.879  30.658  28.571  1.00  0.00     0.127 S 
ATOM     47  O   UNL A   1      35.070  31.249  29.637  1.00  0.00    -0.237 OA
ATOM     48  O   UNL A   1      36.703  31.612  27.831  1.00  0.00    -0.237 OA
ATOM     49  O   UNL A   1      35.196  29.673  27.744  1.00  0.00    -0.744 OA
ENDBRANCH  43  46
ENDBRANCH  25  39
BRANCH  26  50
ATOM     50  C   UNL A   1      48.431  27.230  26.026  1.00  0.00     0.023 A 
ATOM     51  C   UNL A   1      49.500  26.722  26.786  1.00  0.00     0.012 A 
ATOM     52  C   UNL A   1      48.615  27.463  24.648  1.00  0.00     0.148 A 
ATOM     53  C   UNL A   1      50.735  26.466  26.188  1.00  0.00     0.002 A 
ATOM     54  C   UNL A   1      49.829  27.149  24.049  1.00  0.00     0.091 A 
ATOM     55  F   UNL A   1      47.594  27.969  23.943  1.00  0.00    -0.205 F 
ATOM     56  C   UNL A   1      50.895  26.664  24.818  1.00  0.00     0.022 A 
BRANCH  54  57
ATOM     57  S   UNL A   1      50.037  27.231  22.266  1.00  0.00     0.127 S 
ATOM     58  O   UNL A   1      48.967  26.355  21.797  1.00  0.00    -0.237 OA
ATOM     59  O   UNL A   1      49.832  28.654  21.990  1.00  0.00    -0.237 OA
ATOM     60  O   UNL A   1      51.400  26.774  22.028  1.00  0.00    -0.744 OA
ENDBRANCH  54  57
ENDBRANCH  26  50
BRANCH  38  61
ATOM     61  C   UNL A   1      45.238  32.721  28.921  1.00  0.00     0.023 A 
ATOM     62  C   UNL A   1      45.914  33.107  30.095  1.00  0.00     0.012 A 
ATOM     63  C   UNL A   1      45.016  33.665  27.903  1.00  0.00     0.148 A 
ATOM     64  C   UNL A   1      46.343  34.422  30.264  1.00  0.00     0.002 A 
ATOM     65  C   UNL A   1      45.485  34.964  28.059  1.00  0.00     0.091 A 
ATOM     66  F   UNL A   1      44.354  33.278  26.803  1.00  0.00    -0.205 F 
ATOM     67  C   UNL A   1      46.140  35.346  29.241  1.00  0.00     0.022 A 
BRANCH  65  68
ATOM     68  S   UNL A   1      45.344  36.200  26.763  1.00  0.00     0.127 S 
ATOM     69  O   UNL A   1      43.894  36.298  26.601  1.00  0.00    -0.237 OA
ATOM     70  O   UNL A   1      45.970  37.370  27.380  1.00  0.00    -0.237 OA
ATOM     71  O   UNL A   1      46.066  35.663  25.617  1.00  0.00    -0.744 OA
ENDBRANCH  65  68
ENDBRANCH  38  61
ENDBRANCH  12  13
ENDBRANCH   5   7
ENDBRANCH   2   3
ENDBRANCH   1   2
BRANCH   1  72
ATOM     72  C   UNL A   1      36.589  20.642  24.976  1.00  0.00     0.117 C 
BRANCH  72  73
ATOM     73  N   UNL A   1      35.350  19.890  25.097  1.00  0.00    -0.356 N 
ATOM     74  C   UNL A   1      34.054  20.296  24.970  1.00  0.00     0.224 C 
ATOM     75  H   UNL A   1      35.465  18.935  25.304  1.00  0.00     0.163 HD
ATOM     76  O   UNL A   1      33.165  19.452  25.091  1.00  0.00    -0.275 OA
BRANCH  74  77
ATOM     77  C   UNL A   1      33.710  21.752  24.697  1.00  0.00     0.098 C 
ATOM     78  C   UNL A   1      33.199  21.926  23.258  1.00  0.00     0.017 C 
ATOM     79  C   UNL A   1      32.844  22.317  25.842  1.00  0.00     0.133 C 
ATOM     80  C   UNL A   1      32.370  23.181  23.078  1.00  0.00     0.022 C 
ATOM     81  N   UNL A   1      31.987  23.449  25.468  1.00  0.00    -0.342 N 
ATOM     82  C   UNL A   1      31.340  23.294  24.188  1.00  0.00     0.119 C 
BRANCH  81  83
ATOM     83  C   UNL A   1      31.675  24.386  26.438  1.00  0.00     0.225 C 
ATOM     84  O   UNL A   1      30.855  24.093  27.321  1.00  0.00    -0.275 OA
BRANCH  83  85
ATOM     85  C   UNL A   1      32.309  25.798  26.525  1.00  0.00     0.081 C 
ATOM     86  C   UNL A   1      31.387  26.996  26.682  1.00  0.00     0.030 C 
ATOM     87  C   UNL A   1      33.485  26.119  25.621  1.00  0.00     0.030 C 
ATOM     88  C   UNL A   1      31.040  27.756  25.416  1.00  0.00     0.103 C 
ATOM     89  C   UNL A   1      33.141  26.795  24.309  1.00  0.00     0.103 C 
ATOM     90  N   UNL A   1      32.131  27.881  24.381  1.00  0.00    -0.198 NA
BRANCH  90  91
ATOM     91  S   UNL A   1      31.380  28.308  22.853  1.00  0.00     0.243 S 
ATOM     92  O   UNL A   1      32.232  29.306  22.224  1.00  0.00    -0.207 OA
ATOM     93  O   UNL A   1      31.098  27.067  22.177  1.00  0.00    -0.207 OA
BRANCH  91  94
ATOM     94  C   UNL A   1      29.844  29.132  23.200  1.00  0.00     0.082 A 
ATOM     95  C   UNL A   1      28.638  28.478  22.938  1.00  0.00     0.022 A 
ATOM     96  C   UNL A   1      29.843  30.501  23.506  1.00  0.00     0.022 A 
ATOM     97  C   UNL A   1      27.438  29.186  23.023  1.00  0.00     0.001 A 
ATOM     98  C   UNL A   1      28.640  31.193  23.629  1.00  0.00     0.001 A 
ATOM     99  C   UNL A   1      27.438  30.536  23.382  1.00  0.00     0.000 A 
ENDBRANCH  91  94
ENDBRANCH  90  91
ENDBRANCH  83  85
ENDBRANCH  81  83
ENDBRANCH  74  77
ENDBRANCH  72  73
ENDBRANCH   1  72
TORSDOF 17
ENDMDL
MODEL 2
REMARK VINA RESULT:     -13.2      6.142     11.638
REMARK SMILES O=C(NCCCNC(=O)[C@H]1CCCN(C(=O)C2CCN(S(=O)(=O)c3ccccc3)CC2)C1)c1ccc(-c2c3nc(c(-c4cccc(S(=O)(=O)[O-])c4F)c4ccc([nH]4)c(-c4cccc(S(=O)(=O)[O-])c4F)c4nc(c(-c5cccc(S(=O)(=O)[O-])c5F)c5ccc2[nH]5)C=C4)C=C3)cc1
REMARK SMILES IDX 5 1 4 2 3 3 1 4 2 5 33 7 34 8 95 9 35 10 94 11 36 12 37 13
REMARK SMILES IDX 38 14 88 15 39 16 93 17 87 18 89 19 40 20 92 21 86 22 85 23
REMARK SMILES IDX 41 25 73 26 53 27 72 28 54 29 57 30 71 31 90 32 55 33 56 34
REMARK SMILES IDX 70 36 91 37 58 38 42 39 43 40 51 41 44 42 46 43 52 44 45 45
REMARK SMILES IDX 47 46 48 47 49 48 50 49 74 50 75 51 83 52 76 53 78 54 84 55
REMARK SMILES IDX 77 56 79 57 80 58 81 59 82 60 59 61 60 62 68 63 61 64 63 65
REMARK SMILES IDX 69 66 62 67 64 68 65 69 66 70 67 71 6 72 7 73 8 74 9 76
REMARK SMILES IDX 10 77 11 78 32 79 12 80 14 81 13 82 15 83 16 84 17 85 18 86
REMARK SMILES IDX 31 87 19 88 30 89 20 90 21 91 22 92 23 93 24 94 25 95 29 96
REMARK SMILES IDX 26 97 28 98 27 99
REMARK H PARENT 3 6 89 24 57 35 7 75
REMARK Flexibility Score: inf
ROOT
ATOM      1  C   UNL A   1      31.636  31.684  26.814  1.00  0.00     0.042 C 
ENDROOT
BRANCH   1   2
ATOM      2  C   UNL A   1      32.868  32.401  27.335  1.00  0.00     0.118 C 
BRANCH   2   3
ATOM      3  N   UNL A   1      32.588  33.781  27.699  1.00  0.00    -0.352 N 
ATOM      4  O   UNL A   1      32.698  35.628  28.980  1.00  0.00    -0.269 OA
ATOM      5  C   UNL A   1      33.177  34.540  28.679  1.00  0.00     0.251 C 
ATOM      6  H   UNL A   1      31.886  34.229  27.175  1.00  0.00     0.163 HD
BRANCH   5   7
ATOM      7  C   UNL A   1      34.371  34.016  29.372  1.00  0.00     0.039 A 
ATOM      8  C   UNL A   1      34.228  33.130  30.444  1.00  0.00     0.014 A 
ATOM      9  C   UNL A   1      35.638  34.413  28.944  1.00  0.00     0.014 A 
ATOM     10  C   UNL A   1      35.345  32.728  31.161  1.00  0.00     0.010 A 
ATOM     11  C   UNL A   1      36.768  33.939  29.612  1.00  0.00     0.010 A 
ATOM     12  C   UNL A   1      36.627  33.101  30.729  1.00  0.00    -0.014 A 
BRANCH  12  13
ATOM     13  C   UNL A   1      37.810  32.478  31.365  1.00  0.00     0.031 A 
ATOM     14  C   UNL A   1      38.533  31.332  30.725  1.00  0.00     0.074 A 
ATOM     15  C   UNL A   1      38.189  32.950  32.570  1.00  0.00     0.049 A 
ATOM     16  N   UNL A   1      39.564  30.667  31.174  1.00  0.00    -0.248 NA
ATOM     17  C   UNL A   1      38.037  30.861  29.421  1.00  0.00     0.031 C 
ATOM     18  C   UNL A   1      37.510  34.025  33.301  1.00  0.00     0.029 A 
ATOM     19  N   UNL A   1      39.214  32.581  33.401  1.00  0.00    -0.354 N 
ATOM     20  C   UNL A   1      39.813  29.671  30.240  1.00  0.00     0.074 A 
ATOM     21  C   UNL A   1      38.831  29.823  29.188  1.00  0.00     0.031 C 
ATOM     22  C   UNL A   1      38.136  34.230  34.467  1.00  0.00     0.029 A 
ATOM     23  C   UNL A   1      39.222  33.267  34.593  1.00  0.00     0.049 A 
ATOM     24  H   UNL A   1      39.878  31.893  33.168  1.00  0.00     0.167 HD
ATOM     25  C   UNL A   1      40.782  28.725  30.262  1.00  0.00     0.034 A 
ATOM     26  C   UNL A   1      39.993  33.116  35.684  1.00  0.00     0.034 A 
ATOM     27  C   UNL A   1      41.781  28.622  31.292  1.00  0.00     0.049 A 
ATOM     28  C   UNL A   1      41.068  32.072  35.663  1.00  0.00     0.074 A 
ATOM     29  C   UNL A   1      42.882  27.785  31.340  1.00  0.00     0.029 A 
ATOM     30  N   UNL A   1      41.790  29.364  32.464  1.00  0.00    -0.354 N 
ATOM     31  N   UNL A   1      41.403  31.259  34.690  1.00  0.00    -0.248 NA
ATOM     32  C   UNL A   1      41.882  31.931  36.876  1.00  0.00     0.031 C 
ATOM     33  C   UNL A   1      43.543  28.002  32.554  1.00  0.00     0.029 A 
ATOM     34  C   UNL A   1      42.858  28.982  33.257  1.00  0.00     0.049 A 
ATOM     35  H   UNL A   1      41.134  30.060  32.696  1.00  0.00     0.167 HD
ATOM     36  C   UNL A   1      42.470  30.513  35.171  1.00  0.00     0.074 A 
ATOM     37  C   UNL A   1      42.749  30.998  36.508  1.00  0.00     0.031 C 
ATOM     38  C   UNL A   1      43.139  29.499  34.571  1.00  0.00     0.034 A 
BRANCH  25  39
ATOM     39  C   UNL A   1      40.848  27.741  29.126  1.00  0.00     0.023 A 
ATOM     40  C   UNL A   1      39.948  26.658  29.091  1.00  0.00     0.012 A 
ATOM     41  C   UNL A   1      41.722  27.953  28.041  1.00  0.00     0.148 A 
ATOM     42  C   UNL A   1      39.921  25.795  27.996  1.00  0.00     0.002 A 
ATOM     43  C   UNL A   1      41.667  27.107  26.939  1.00  0.00     0.091 A 
ATOM     44  F   UNL A   1      42.584  28.977  28.106  1.00  0.00    -0.205 F 
ATOM     45  C   UNL A   1      40.771  26.025  26.917  1.00  0.00     0.022 A 
BRANCH  43  46
ATOM     46  S   UNL A   1      42.672  27.356  25.470  1.00  0.00     0.127 S 
ATOM     47  O   UNL A   1      42.425  26.118  24.732  1.00  0.00    -0.237 OA
ATOM     48  O   UNL A   1      42.066  28.549  24.881  1.00  0.00    -0.237 OA
ATOM     49  O   UNL A   1      44.038  27.537  25.944  1.00  0.00    -0.744 OA
ENDBRANCH  43  46
ENDBRANCH  25  39
BRANCH  26  50
ATOM     50  C   UNL A   1      39.772  33.991  36.868  1.00  0.00     0.023 A 
ATOM     51  C   UNL A   1      40.124  35.352  36.802  1.00  0.00     0.012 A 
ATOM     52  C   UNL A   1      39.154  33.497  38.034  1.00  0.00     0.148 A 
ATOM     53  C   UNL A   1      39.879  36.200  37.883  1.00  0.00     0.002 A 
ATOM     54  C   UNL A   1      38.858  34.360  39.081  1.00  0.00     0.091 A 
ATOM     55  F   UNL A   1      38.846  32.193  38.090  1.00  0.00    -0.205 F 
ATOM     56  C   UNL A   1      39.233  35.710  39.015  1.00  0.00     0.022 A 
BRANCH  54  57
ATOM     57  S   UNL A   1      37.886  33.818  40.491  1.00  0.00     0.127 S 
ATOM     58  O   UNL A   1      37.447  35.088  41.062  1.00  0.00    -0.237 OA
ATOM     59  O   UNL A   1      36.828  33.028  39.859  1.00  0.00    -0.237 OA
ATOM     60  O   UNL A   1      38.808  33.029  41.299  1.00  0.00    -0.744 OA
ENDBRANCH  54  57
ENDBRANCH  26  50
BRANCH  38  61
ATOM     61  C   UNL A   1      44.231  28.837  35.362  1.00  0.00     0.023 A 
ATOM     62  C   UNL A   1      45.534  29.370  35.312  1.00  0.00     0.012 A 
ATOM     63  C   UNL A   1      43.959  27.742  36.202  1.00  0.00     0.148 A 
ATOM     64  C   UNL A   1      46.558  28.807  36.070  1.00  0.00     0.002 A 
ATOM     65  C   UNL A   1      44.975  27.212  36.988  1.00  0.00     0.091 A 
ATOM     66  F   UNL A   1      42.716  27.240  36.218  1.00  0.00    -0.205 F 
ATOM     67  C   UNL A   1      46.277  27.737  36.917  1.00  0.00     0.022 A 
BRANCH  65  68
ATOM     68  S   UNL A   1      44.688  25.889  38.169  1.00  0.00     0.127 S 
ATOM     69  O   UNL A   1      43.765  26.523  39.108  1.00  0.00    -0.237 OA
ATOM     70  O   UNL A   1      44.089  24.849  37.331  1.00  0.00    -0.237 OA
ATOM     71  O   UNL A   1      45.996  25.547  38.712  1.00  0.00    -0.744 OA
ENDBRANCH  65  68
ENDBRANCH  38  61
ENDBRANCH  12  13
ENDBRANCH   5   7
ENDBRANCH   2   3
ENDBRANCH   1   2
BRANCH   1  72
ATOM     72  C   UNL A   1      31.975  30.460  25.978  1.00  0.00     0.117 C 
BRANCH  72  73
ATOM     73  N   UNL A   1      31.112  30.315  24.816  1.00  0.00    -0.356 N 
ATOM     74  C   UNL A   1      30.752  29.202  24.116  1.00  0.00     0.224 C 
ATOM     75  H   UNL A   1      30.726  31.156  24.482  1.00  0.00     0.163 HD
ATOM     76  O   UNL A   1      29.973  29.335  23.171  1.00  0.00    -0.275 OA
BRANCH  74  77
ATOM     77  C   UNL A   1      31.303  27.832  24.480  1.00  0.00     0.098 C 
ATOM     78  C   UNL A   1      30.171  26.898  24.935  1.00  0.00     0.017 C 
ATOM     79  C   UNL A   1      32.250  27.329  23.372  1.00  0.00     0.133 C 
ATOM     80  C   UNL A   1      30.534  25.432  24.809  1.00  0.00     0.022 C 
ATOM     81  N   UNL A   1      32.387  25.870  23.290  1.00  0.00    -0.342 N 
ATOM     82  C   UNL A   1      31.142  25.157  23.446  1.00  0.00     0.119 C 
BRANCH  81  83
ATOM     83  C   UNL A   1      33.581  25.345  22.827  1.00  0.00     0.225 C 
ATOM     84  O   UNL A   1      33.871  25.469  21.627  1.00  0.00    -0.275 OA
BRANCH  83  85
ATOM     85  C   UNL A   1      34.625  24.624  23.718  1.00  0.00     0.081 C 
ATOM     86  C   UNL A   1      35.168  23.283  23.254  1.00  0.00     0.030 C 
ATOM     87  C   UNL A   1      34.431  24.651  25.224  1.00  0.00     0.030 C 
ATOM     88  C   UNL A   1      34.520  22.045  23.844  1.00  0.00     0.103 C 
ATOM     89  C   UNL A   1      33.699  23.463  25.814  1.00  0.00     0.103 C 
ATOM     90  N   UNL A   1      34.090  22.130  25.288  1.00  0.00    -0.198 NA
BRANCH  90  91
ATOM     91  S   UNL A   1      32.937  20.840  25.584  1.00  0.00     0.243 S 
ATOM     92  O   UNL A   1      33.209  20.325  26.918  1.00  0.00    -0.207 OA
ATOM     93  O   UNL A   1      31.637  21.374  25.267  1.00  0.00    -0.207 OA
BRANCH  91  94
ATOM     94  C   UNL A   1      33.296  19.506  24.467  1.00  0.00     0.082 A 
ATOM     95  C   UNL A   1      32.399  19.210  23.439  1.00  0.00     0.022 A 
ATOM     96  C   UNL A   1      34.341  18.616  24.760  1.00  0.00     0.022 A 
ATOM     97  C   UNL A   1      32.575  18.049  22.683  1.00  0.00     0.001 A 
ATOM     98  C   UNL A   1      34.536  17.480  23.977  1.00  0.00     0.001 A 
ATOM     99  C   UNL A   1      33.649  17.194  22.942  1.00  0.00     0.000 A 
ENDBRANCH  91  94
ENDBRANCH  90  91
ENDBRANCH  83  85
ENDBRANCH  81  83
ENDBRANCH  74  77
ENDBRANCH  72  73
ENDBRANCH   1  72
TORSDOF 17
ENDMDL
MODEL 3
REMARK VINA RESULT:     -13.1      5.721     11.503
REMARK SMILES O=C(NCCCNC(=O)[C@H]1CCCN(C(=O)C2CCN(S(=O)(=O)c3ccccc3)CC2)C1)c1ccc(-c2c3nc(c(-c4cccc(S(=O)(=O)[O-])c4F)c4ccc([nH]4)c(-c4cccc(S(=O)(=O)[O-])c4F)c4nc(c(-c5cccc(S(=O)(=O)[O-])c5F)c5ccc2[nH]5)C=C4)C=C3)cc1
REMARK SMILES IDX 5 1 4 2 3 3 1 4 2 5 33 7 34 8 95 9 35 10 94 11 36 12 37 13
REMARK SMILES IDX 38 14 88 15 39 16 93 17 87 18 89 19 40 20 92 21 86 22 85 23
REMARK SMILES IDX 41 25 73 26 53 27 72 28 54 29 57 30 71 31 90 32 55 33 56 34
REMARK SMILES IDX 70 36 91 37 58 38 42 39 43 40 51 41 44 42 46 43 52 44 45 45
REMARK SMILES IDX 47 46 48 47 49 48 50 49 74 50 75 51 83 52 76 53 78 54 84 55
REMARK SMILES IDX 77 56 79 57 80 58 81 59 82 60 59 61 60 62 68 63 61 64 63 65
REMARK SMILES IDX 69 66 62 67 64 68 65 69 66 70 67 71 6 72 7 73 8 74 9 76
REMARK SMILES IDX 10 77 11 78 32 79 12 80 14 81 13 82 15 83 16 84 17 85 18 86
REMARK SMILES IDX 31 87 19 88 30 89 20 90 21 91 22 92 23 93 24 94 25 95 29 96
REMARK SMILES IDX 26 97 28 98 27 99
REMARK H PARENT 3 6 89 24 57 35 7 75
REMARK Flexibility Score: inf
ROOT
ATOM      1  C   UNL A   1      31.375  31.702  26.597  1.00  0.00     0.042 C 
ENDROOT
BRANCH   1   2
ATOM      2  C   UNL A   1      32.676  32.366  27.008  1.00  0.00     0.118 C 
BRANCH   2   3
ATOM      3  N   UNL A   1      32.479  33.741  27.440  1.00  0.00    -0.352 N 
ATOM      4  O   UNL A   1      32.726  35.522  28.794  1.00  0.00    -0.269 OA
ATOM      5  C   UNL A   1      33.138  34.427  28.430  1.00  0.00     0.251 C 
ATOM      6  H   UNL A   1      31.783  34.246  26.961  1.00  0.00     0.163 HD
BRANCH   5   7
ATOM      7  C   UNL A   1      34.327  33.814  29.055  1.00  0.00     0.039 A 
ATOM      8  C   UNL A   1      34.178  32.774  29.978  1.00  0.00     0.014 A 
ATOM      9  C   UNL A   1      35.597  34.284  28.715  1.00  0.00     0.014 A 
ATOM     10  C   UNL A   1      35.288  32.278  30.645  1.00  0.00     0.010 A 
ATOM     11  C   UNL A   1      36.721  33.724  29.323  1.00  0.00     0.010 A 
ATOM     12  C   UNL A   1      36.573  32.725  30.297  1.00  0.00    -0.014 A 
BRANCH  12  13
ATOM     13  C   UNL A   1      37.752  32.024  30.852  1.00  0.00     0.031 A 
ATOM     14  C   UNL A   1      38.468  30.959  30.078  1.00  0.00     0.074 A 
ATOM     15  C   UNL A   1      38.135  32.344  32.104  1.00  0.00     0.049 A 
ATOM     16  N   UNL A   1      39.496  30.239  30.442  1.00  0.00    -0.248 NA
ATOM     17  C   UNL A   1      37.969  30.651  28.727  1.00  0.00     0.031 C 
ATOM     18  C   UNL A   1      37.462  33.327  32.961  1.00  0.00     0.029 A 
ATOM     19  N   UNL A   1      39.158  31.873  32.883  1.00  0.00    -0.354 N 
ATOM     20  C   UNL A   1      39.739  29.361  29.395  1.00  0.00     0.074 A 
ATOM     21  C   UNL A   1      38.757  29.644  28.370  1.00  0.00     0.031 C 
ATOM     22  C   UNL A   1      38.090  33.388  34.142  1.00  0.00     0.029 A 
ATOM     23  C   UNL A   1      39.171  32.411  34.149  1.00  0.00     0.049 A 
ATOM     24  H   UNL A   1      39.818  31.215  32.568  1.00  0.00     0.167 HD
ATOM     25  C   UNL A   1      40.702  28.414  29.301  1.00  0.00     0.034 A 
ATOM     26  C   UNL A   1      39.942  32.125  35.214  1.00  0.00     0.034 A 
ATOM     27  C   UNL A   1      41.702  28.183  30.310  1.00  0.00     0.049 A 
ATOM     28  C   UNL A   1      41.011  31.085  35.066  1.00  0.00     0.074 A 
ATOM     29  C   UNL A   1      42.798  27.340  30.255  1.00  0.00     0.029 A 
ATOM     30  N   UNL A   1      41.716  28.778  31.563  1.00  0.00    -0.354 N 
ATOM     31  N   UNL A   1      41.341  30.394  34.001  1.00  0.00    -0.248 NA
ATOM     32  C   UNL A   1      41.825  30.795  36.252  1.00  0.00     0.031 C 
ATOM     33  C   UNL A   1      43.461  27.406  31.486  1.00  0.00     0.029 A 
ATOM     34  C   UNL A   1      42.782  28.297  32.302  1.00  0.00     0.049 A 
ATOM     35  H   UNL A   1      41.064  29.444  31.878  1.00  0.00     0.167 HD
ATOM     36  C   UNL A   1      42.404  29.590  34.387  1.00  0.00     0.074 A 
ATOM     37  C   UNL A   1      42.687  29.909  35.772  1.00  0.00     0.031 C 
ATOM     38  C   UNL A   1      43.068  28.652  33.669  1.00  0.00     0.034 A 
BRANCH  25  39
ATOM     39  C   UNL A   1      40.763  27.574  28.055  1.00  0.00     0.023 A 
ATOM     40  C   UNL A   1      41.423  28.070  26.915  1.00  0.00     0.012 A 
ATOM     41  C   UNL A   1      40.268  26.254  28.052  1.00  0.00     0.148 A 
ATOM     42  C   UNL A   1      41.585  27.268  25.785  1.00  0.00     0.002 A 
ATOM     43  C   UNL A   1      40.461  25.450  26.933  1.00  0.00     0.091 A 
ATOM     44  F   UNL A   1      39.625  25.811  29.141  1.00  0.00    -0.205 F 
ATOM     45  C   UNL A   1      41.114  25.958  25.798  1.00  0.00     0.022 A 
BRANCH  43  46
ATOM     46  S   UNL A   1      39.951  23.728  26.874  1.00  0.00     0.127 S 
ATOM     47  O   UNL A   1      38.516  23.855  26.624  1.00  0.00    -0.237 OA
ATOM     48  O   UNL A   1      40.724  23.218  25.743  1.00  0.00    -0.237 OA
ATOM     49  O   UNL A   1      40.311  23.158  28.165  1.00  0.00    -0.744 OA
ENDBRANCH  43  46
ENDBRANCH  25  39
BRANCH  26  50
ATOM     50  C   UNL A   1      39.727  32.853  36.494  1.00  0.00     0.023 A 
ATOM     51  C   UNL A   1      40.410  34.059  36.731  1.00  0.00     0.012 A 
ATOM     52  C   UNL A   1      38.799  32.389  37.448  1.00  0.00     0.148 A 
ATOM     53  C   UNL A   1      40.184  34.783  37.904  1.00  0.00     0.002 A 
ATOM     54  C   UNL A   1      38.535  33.145  38.583  1.00  0.00     0.091 A 
ATOM     55  F   UNL A   1      38.173  31.226  37.218  1.00  0.00    -0.205 F 
ATOM     56  C   UNL A   1      39.237  34.335  38.822  1.00  0.00     0.022 A 
BRANCH  54  57
ATOM     57  S   UNL A   1      37.213  32.698  39.715  1.00  0.00     0.127 S 
ATOM     58  O   UNL A   1      36.051  32.685  38.830  1.00  0.00    -0.237 OA
ATOM     59  O   UNL A   1      37.637  31.381  40.192  1.00  0.00    -0.237 OA
ATOM     60  O   UNL A   1      37.234  33.733  40.741  1.00  0.00    -0.744 OA
ENDBRANCH  54  57
ENDBRANCH  26  50
BRANCH  38  61
ATOM     61  C   UNL A   1      44.156  27.893  34.373  1.00  0.00     0.023 A 
ATOM     62  C   UNL A   1      45.455  28.438  34.414  1.00  0.00     0.012 A 
ATOM     63  C   UNL A   1      43.885  26.689  35.048  1.00  0.00     0.148 A 
ATOM     64  C   UNL A   1      46.475  27.781  35.099  1.00  0.00     0.002 A 
ATOM     65  C   UNL A   1      44.897  26.062  35.764  1.00  0.00     0.091 A 
ATOM     66  F   UNL A   1      42.646  26.180  34.977  1.00  0.00    -0.205 F 
ATOM     67  C   UNL A   1      46.194  26.601  35.784  1.00  0.00     0.022 A 
BRANCH  65  68
ATOM     68  S   UNL A   1      44.608  24.584  36.744  1.00  0.00     0.127 S 
ATOM     69  O   UNL A   1      45.945  24.306  37.265  1.00  0.00    -0.237 OA
ATOM     70  O   UNL A   1      43.648  25.056  37.743  1.00  0.00    -0.237 OA
ATOM     71  O   UNL A   1      44.078  23.589  35.821  1.00  0.00    -0.744 OA
ENDBRANCH  65  68
ENDBRANCH  38  61
ENDBRANCH  12  13
ENDBRANCH   5   7
ENDBRANCH   2   3
ENDBRANCH   1   2
BRANCH   1  72
ATOM     72  C   UNL A   1      31.590  30.392  25.857  1.00  0.00     0.117 C 
BRANCH  72  73
ATOM     73  N   UNL A   1      30.985  30.387  24.534  1.00  0.00    -0.356 N 
ATOM     74  C   UNL A   1      30.604  29.346  23.739  1.00  0.00     0.224 C 
ATOM     75  H   UNL A   1      30.825  31.279  24.150  1.00  0.00     0.163 HD
ATOM     76  O   UNL A   1      30.080  29.603  22.654  1.00  0.00    -0.275 OA
BRANCH  74  77
ATOM     77  C   UNL A   1      30.828  27.905  24.171  1.00  0.00     0.098 C 
ATOM     78  C   UNL A   1      29.602  27.043  23.834  1.00  0.00     0.017 C 
ATOM     79  C   UNL A   1      32.209  27.415  23.688  1.00  0.00     0.133 C 
ATOM     80  C   UNL A   1      29.931  25.566  23.744  1.00  0.00     0.022 C 
ATOM     81  N   UNL A   1      32.324  25.962  23.515  1.00  0.00    -0.342 N 
ATOM     82  C   UNL A   1      31.171  25.356  22.894  1.00  0.00     0.119 C 
BRANCH  81  83
ATOM     83  C   UNL A   1      33.562  25.372  23.701  1.00  0.00     0.225 C 
ATOM     84  O   UNL A   1      34.362  25.884  24.498  1.00  0.00    -0.275 OA
BRANCH  83  85
ATOM     85  C   UNL A   1      34.026  24.072  22.995  1.00  0.00     0.081 C 
ATOM     86  C   UNL A   1      32.969  23.140  22.429  1.00  0.00     0.030 C 
ATOM     87  C   UNL A   1      35.182  23.295  23.600  1.00  0.00     0.030 C 
ATOM     88  C   UNL A   1      32.572  21.958  23.293  1.00  0.00     0.103 C 
ATOM     89  C   UNL A   1      34.799  22.171  24.540  1.00  0.00     0.103 C 
ATOM     90  N   UNL A   1      33.669  21.312  24.102  1.00  0.00    -0.198 NA
BRANCH  90  91
ATOM     91  S   UNL A   1      32.916  20.361  25.370  1.00  0.00     0.243 S 
ATOM     92  O   UNL A   1      33.707  20.558  26.577  1.00  0.00    -0.207 OA
ATOM     93  O   UNL A   1      31.516  20.702  25.360  1.00  0.00    -0.207 OA
BRANCH  91  94
ATOM     94  C   UNL A   1      33.089  18.643  24.953  1.00  0.00     0.082 A 
ATOM     95  C   UNL A   1      32.594  17.670  25.825  1.00  0.00     0.022 A 
ATOM     96  C   UNL A   1      33.918  18.266  23.886  1.00  0.00     0.022 A 
ATOM     97  C   UNL A   1      32.897  16.326  25.601  1.00  0.00     0.001 A 
ATOM     98  C   UNL A   1      34.184  16.920  23.644  1.00  0.00     0.001 A 
ATOM     99  C   UNL A   1      33.677  15.950  24.505  1.00  0.00     0.000 A 
ENDBRANCH  91  94
ENDBRANCH  90  91
ENDBRANCH  83  85
ENDBRANCH  81  83
ENDBRANCH  74  77
ENDBRANCH  72  73
ENDBRANCH   1  72
TORSDOF 17
ENDMDL
