MODEL 1
REMARK VINA RESULT:     -12.8      0.000      0.000
REMARK SMILES COc1cc(Cl)c(C)cc1N1C(=O)C[C@H](Nc2cc(C(=O)NCCCNC(=O)c3ccc(-c4c5nc(c(-c6cccc(S(=O)(=O)[O-])c6F)c6ccc([nH]6)c(-c6cccc(S(=O)(=O)[O-])c6F)c6nc(c(-c7cccc(S(=O)(=O)[O-])c7F)c7ccc4[nH]7)C=C6)C=C5)cc3)ccc2C)C1=O
REMARK SMILES IDX 23 1 22 2 20 3 21 4 19 6 17 7 18 8 94 9 93 10 95 11 92 12
REMARK SMILES IDX 16 13 15 15 11 16 12 17 96 18 13 19 14 20 97 21 10 22 3 23
REMARK SMILES IDX 4 24 5 25 9 26 6 27 7 28 8 29 2 30 1 31 24 32 25 33 26 34
REMARK SMILES IDX 27 35 28 37 29 38 30 39 91 40 31 41 90 42 32 43 33 44 34 45
REMARK SMILES IDX 84 46 35 47 89 48 83 49 85 50 36 51 88 52 82 53 81 54 37 56
REMARK SMILES IDX 69 57 49 58 68 59 50 60 53 61 67 62 86 63 51 64 52 65 66 67
REMARK SMILES IDX 87 68 54 69 38 70 39 71 47 72 40 73 42 74 48 75 41 76 43 77
REMARK SMILES IDX 44 78 45 79 46 80 70 81 71 82 79 83 72 84 74 85 80 86 73 87
REMARK SMILES IDX 75 88 76 89 77 90 78 91 55 92 56 93 64 94 57 95 59 96 65 97
REMARK SMILES IDX 58 98 60 99 61 100 62 101 63 102
REMARK H PARENT 22 5 16 14 26 36 85 55 53 66
REMARK Flexibility Score: inf
ROOT
ATOM      1  C   UNL A   1      34.000  29.637  27.242  1.00  0.00     0.118 C 
ENDROOT
BRANCH   1   2
ATOM      2  N   UNL A   1      32.896  30.450  26.756  1.00  0.00    -0.352 N 
ATOM      3  C   UNL A   1      31.951  30.246  25.778  1.00  0.00     0.251 C 
ATOM      4  O   UNL A   1      31.103  31.127  25.621  1.00  0.00    -0.269 OA
ATOM      5  H   UNL A   1      32.808  31.315  27.218  1.00  0.00     0.163 HD
BRANCH   3   6
ATOM      6  C   UNL A   1      31.876  29.023  24.917  1.00  0.00     0.041 A 
ATOM      7  C   UNL A   1      32.853  27.038  23.839  1.00  0.00     0.038 A 
ATOM      8  C   UNL A   1      32.956  28.204  24.605  1.00  0.00     0.039 A 
ATOM      9  C   UNL A   1      31.621  26.729  23.265  1.00  0.00    -0.028 A 
ATOM     10  C   UNL A   1      30.515  27.554  23.541  1.00  0.00     0.006 A 
ATOM     11  C   UNL A   1      31.425  25.529  22.387  1.00  0.00     0.046 C 
ATOM     12  C   UNL A   1      30.641  28.681  24.363  1.00  0.00     0.014 A 
BRANCH   7  13
ATOM     13  N   UNL A   1      34.016  26.297  23.589  1.00  0.00    -0.373 N 
ATOM     14  H   UNL A   1      34.563  26.444  22.785  1.00  0.00     0.161 HD
BRANCH  13  15
ATOM     15  C   UNL A   1      34.370  25.284  24.599  1.00  0.00     0.179 C 
ATOM     16  N   UNL A   1      33.962  22.994  24.818  1.00  0.00    -0.245 N 
ATOM     17  C   UNL A   1      33.067  23.594  25.660  1.00  0.00     0.236 C 
ATOM     18  C   UNL A   1      34.588  23.902  24.008  1.00  0.00     0.256 C 
ATOM     19  O   UNL A   1      32.258  23.056  26.403  1.00  0.00    -0.274 OA
ATOM     20  C   UNL A   1      33.223  25.082  25.567  1.00  0.00     0.136 C 
ATOM     21  O   UNL A   1      35.149  23.687  22.942  1.00  0.00    -0.272 OA
BRANCH  16  22
ATOM     22  C   UNL A   1      34.123  21.599  24.698  1.00  0.00     0.094 A 
ATOM     23  C   UNL A   1      35.295  20.960  25.132  1.00  0.00     0.144 A 
ATOM     24  C   UNL A   1      35.420  19.571  25.037  1.00  0.00     0.069 A 
ATOM     25  C   UNL A   1      34.383  18.812  24.486  1.00  0.00     0.047 A 
ATOM     26  C   UNL A   1      33.089  20.826  24.153  1.00  0.00     0.035 A 
ATOM     27  Cl  UNL A   1      34.568  17.094  24.431  1.00  0.00    -0.084 Cl
ATOM     28  C   UNL A   1      33.222  19.434  24.002  1.00  0.00    -0.030 A 
ATOM     29  C   UNL A   1      32.134  18.662  23.308  1.00  0.00     0.046 C 
BRANCH  23  30
ATOM     30  O   UNL A   1      36.369  21.645  25.644  1.00  0.00    -0.495 OA
ATOM     31  C   UNL A   1      37.548  21.482  24.857  1.00  0.00     0.278 C 
ENDBRANCH  23  30
ENDBRANCH  16  22
ENDBRANCH  13  15
ENDBRANCH   7  13
ENDBRANCH   3   6
ENDBRANCH   1   2
BRANCH   1  32
ATOM     32  C   UNL A   1      34.864  30.410  28.234  1.00  0.00     0.042 C 
BRANCH  32  33
ATOM     33  C   UNL A   1      35.403  31.684  27.656  1.00  0.00     0.118 C 
BRANCH  33  34
ATOM     34  N   UNL A   1      34.715  32.863  28.137  1.00  0.00    -0.352 N 
ATOM     35  C   UNL A   1      34.955  33.613  29.265  1.00  0.00     0.251 C 
ATOM     36  H   UNL A   1      33.967  33.172  27.574  1.00  0.00     0.163 HD
ATOM     37  O   UNL A   1      34.126  34.475  29.561  1.00  0.00    -0.269 OA
BRANCH  35  38
ATOM     38  C   UNL A   1      36.233  33.484  30.013  1.00  0.00     0.039 A 
ATOM     39  C   UNL A   1      37.409  33.841  29.341  1.00  0.00     0.014 A 
ATOM     40  C   UNL A   1      36.323  32.810  31.227  1.00  0.00     0.014 A 
ATOM     41  C   UNL A   1      38.615  33.258  29.708  1.00  0.00     0.010 A 
ATOM     42  C   UNL A   1      37.479  32.146  31.532  1.00  0.00     0.010 A 
ATOM     43  C   UNL A   1      38.589  32.298  30.705  1.00  0.00    -0.014 A 
BRANCH  43  44
ATOM     44  C   UNL A   1      39.639  31.352  30.995  1.00  0.00     0.031 A 
ATOM     45  C   UNL A   1      39.646  30.061  30.313  1.00  0.00     0.074 A 
ATOM     46  C   UNL A   1      40.750  31.873  31.556  1.00  0.00     0.049 A 
ATOM     47  N   UNL A   1      40.466  29.117  30.597  1.00  0.00    -0.248 NA
ATOM     48  C   UNL A   1      38.739  29.754  29.214  1.00  0.00     0.031 C 
ATOM     49  C   UNL A   1      42.132  31.432  31.440  1.00  0.00     0.029 A 
ATOM     50  N   UNL A   1      40.827  32.946  32.432  1.00  0.00    -0.354 N 
ATOM     51  C   UNL A   1      40.423  28.232  29.546  1.00  0.00     0.074 A 
ATOM     52  C   UNL A   1      39.270  28.616  28.762  1.00  0.00     0.031 C 
ATOM     53  C   UNL A   1      42.873  32.068  32.367  1.00  0.00     0.029 A 
ATOM     54  C   UNL A   1      41.950  32.764  33.247  1.00  0.00     0.049 A 
ATOM     55  H   UNL A   1      40.200  33.703  32.474  1.00  0.00     0.167 HD
ATOM     56  C   UNL A   1      41.482  27.400  29.351  1.00  0.00     0.034 A 
ATOM     57  C   UNL A   1      41.746  32.458  34.569  1.00  0.00     0.034 A 
ATOM     58  C   UNL A   1      42.530  27.641  30.361  1.00  0.00     0.049 A 
ATOM     59  C   UNL A   1      42.166  31.035  34.938  1.00  0.00     0.074 A 
ATOM     60  C   UNL A   1      43.735  28.330  30.362  1.00  0.00     0.029 A 
ATOM     61  N   UNL A   1      42.224  27.433  31.697  1.00  0.00    -0.354 N 
ATOM     62  N   UNL A   1      42.725  30.177  34.125  1.00  0.00    -0.248 NA
ATOM     63  C   UNL A   1      41.905  30.449  36.250  1.00  0.00     0.031 C 
ATOM     64  C   UNL A   1      44.137  28.534  31.718  1.00  0.00     0.029 A 
ATOM     65  C   UNL A   1      43.196  27.947  32.543  1.00  0.00     0.049 A 
ATOM     66  H   UNL A   1      41.410  26.974  32.010  1.00  0.00     0.167 HD
ATOM     67  C   UNL A   1      42.707  28.922  34.687  1.00  0.00     0.074 A 
ATOM     68  C   UNL A   1      42.224  29.161  36.039  1.00  0.00     0.031 C 
ATOM     69  C   UNL A   1      43.012  27.781  33.982  1.00  0.00     0.034 A 
BRANCH  56  70
ATOM     70  C   UNL A   1      41.688  26.620  28.070  1.00  0.00     0.023 A 
ATOM     71  C   UNL A   1      41.627  27.331  26.855  1.00  0.00     0.012 A 
ATOM     72  C   UNL A   1      41.897  25.223  27.970  1.00  0.00     0.148 A 
ATOM     73  C   UNL A   1      41.660  26.693  25.611  1.00  0.00     0.002 A 
ATOM     74  C   UNL A   1      41.848  24.575  26.731  1.00  0.00     0.091 A 
ATOM     75  F   UNL A   1      42.220  24.520  29.062  1.00  0.00    -0.205 F 
ATOM     76  C   UNL A   1      41.730  25.310  25.549  1.00  0.00     0.022 A 
BRANCH  74  77
ATOM     77  S   UNL A   1      41.807  22.779  26.581  1.00  0.00     0.127 S 
ATOM     78  O   UNL A   1      42.588  22.351  27.746  1.00  0.00    -0.237 OA
ATOM     79  O   UNL A   1      40.379  22.484  26.671  1.00  0.00    -0.237 OA
ATOM     80  O   UNL A   1      42.443  22.473  25.306  1.00  0.00    -0.744 OA
ENDBRANCH  74  77
ENDBRANCH  56  70
BRANCH  57  81
ATOM     81  C   UNL A   1      40.519  33.164  35.100  1.00  0.00     0.023 A 
ATOM     82  C   UNL A   1      39.291  32.456  35.021  1.00  0.00     0.012 A 
ATOM     83  C   UNL A   1      40.631  34.198  36.047  1.00  0.00     0.148 A 
ATOM     84  C   UNL A   1      38.309  32.615  36.004  1.00  0.00     0.002 A 
ATOM     85  C   UNL A   1      39.628  34.380  36.999  1.00  0.00     0.091 A 
ATOM     86  F   UNL A   1      41.735  34.956  36.058  1.00  0.00    -0.205 F 
ATOM     87  C   UNL A   1      38.501  33.545  37.022  1.00  0.00     0.022 A 
BRANCH  85  88
ATOM     88  S   UNL A   1      39.811  35.631  38.276  1.00  0.00     0.127 S 
ATOM     89  O   UNL A   1      39.768  36.860  37.490  1.00  0.00    -0.237 OA
ATOM     90  O   UNL A   1      38.642  35.412  39.127  1.00  0.00    -0.237 OA
ATOM     91  O   UNL A   1      41.081  35.317  38.917  1.00  0.00    -0.744 OA
ENDBRANCH  85  88
ENDBRANCH  57  81
BRANCH  69  92
ATOM     92  C   UNL A   1      43.068  26.371  34.571  1.00  0.00     0.023 A 
ATOM     93  C   UNL A   1      41.922  25.732  35.080  1.00  0.00     0.012 A 
ATOM     94  C   UNL A   1      44.292  25.658  34.732  1.00  0.00     0.148 A 
ATOM     95  C   UNL A   1      41.952  24.416  35.558  1.00  0.00     0.002 A 
ATOM     96  C   UNL A   1      44.326  24.354  35.218  1.00  0.00     0.091 A 
ATOM     97  F   UNL A   1      45.459  26.254  34.481  1.00  0.00    -0.205 F 
ATOM     98  C   UNL A   1      43.149  23.716  35.603  1.00  0.00     0.022 A 
BRANCH  96  99
ATOM     99  S   UNL A   1      45.865  23.441  35.413  1.00  0.00     0.127 S 
ATOM    100  O   UNL A   1      45.392  22.207  36.041  1.00  0.00    -0.237 OA
ATOM    101  O   UNL A   1      46.302  23.290  34.025  1.00  0.00    -0.237 OA
ATOM    102  O   UNL A   1      46.733  24.266  36.238  1.00  0.00    -0.744 OA
ENDBRANCH  96  99
ENDBRANCH  69  92
ENDBRANCH  43  44
ENDBRANCH  35  38
ENDBRANCH  33  34
ENDBRANCH  32  33
ENDBRANCH   1  32
TORSDOF 17
ENDMDL
MODEL 2
REMARK VINA RESULT:     -12.6      4.910      9.619
REMARK SMILES COc1cc(Cl)c(C)cc1N1C(=O)C[C@H](Nc2cc(C(=O)NCCCNC(=O)c3ccc(-c4c5nc(c(-c6cccc(S(=O)(=O)[O-])c6F)c6ccc([nH]6)c(-c6cccc(S(=O)(=O)[O-])c6F)c6nc(c(-c7cccc(S(=O)(=O)[O-])c7F)c7ccc4[nH]7)C=C6)C=C5)cc3)ccc2C)C1=O
REMARK SMILES IDX 23 1 22 2 20 3 21 4 19 6 17 7 18 8 94 9 93 10 95 11 92 12
REMARK SMILES IDX 16 13 15 15 11 16 12 17 96 18 13 19 14 20 97 21 10 22 3 23
REMARK SMILES IDX 4 24 5 25 9 26 6 27 7 28 8 29 2 30 1 31 24 32 25 33 26 34
REMARK SMILES IDX 27 35 28 37 29 38 30 39 91 40 31 41 90 42 32 43 33 44 34 45
REMARK SMILES IDX 84 46 35 47 89 48 83 49 85 50 36 51 88 52 82 53 81 54 37 56
REMARK SMILES IDX 69 57 49 58 68 59 50 60 53 61 67 62 86 63 51 64 52 65 66 67
REMARK SMILES IDX 87 68 54 69 38 70 39 71 47 72 40 73 42 74 48 75 41 76 43 77
REMARK SMILES IDX 44 78 45 79 46 80 70 81 71 82 79 83 72 84 74 85 80 86 73 87
REMARK SMILES IDX 75 88 76 89 77 90 78 91 55 92 56 93 64 94 57 95 59 96 65 97
REMARK SMILES IDX 58 98 60 99 61 100 62 101 63 102
REMARK H PARENT 22 5 16 14 26 36 85 55 53 66
REMARK Flexibility Score: inf
ROOT
ATOM      1  C   UNL A   1      34.437  29.250  27.079  1.00  0.00     0.118 C 
ENDROOT
BRANCH   1   2
ATOM      2  N   UNL A   1      33.340  30.108  26.662  1.00  0.00    -0.352 N 
ATOM      3  C   UNL A   1      32.256  29.900  25.840  1.00  0.00     0.251 C 
ATOM      4  O   UNL A   1      31.462  30.833  25.707  1.00  0.00    -0.269 OA
ATOM      5  H   UNL A   1      33.380  31.016  27.041  1.00  0.00     0.163 HD
BRANCH   3   6
ATOM      6  C   UNL A   1      31.974  28.615  25.125  1.00  0.00     0.041 A 
ATOM      7  C   UNL A   1      32.610  26.718  23.691  1.00  0.00     0.038 A 
ATOM      8  C   UNL A   1      32.880  27.944  24.310  1.00  0.00     0.039 A 
ATOM      9  C   UNL A   1      31.328  26.184  23.809  1.00  0.00    -0.028 A 
ATOM     10  C   UNL A   1      30.381  26.854  24.605  1.00  0.00     0.006 A 
ATOM     11  C   UNL A   1      30.929  24.902  23.138  1.00  0.00     0.046 C 
ATOM     12  C   UNL A   1      30.704  28.049  25.261  1.00  0.00     0.014 A 
BRANCH   7  13
ATOM     13  N   UNL A   1      33.603  26.141  22.889  1.00  0.00    -0.373 N 
ATOM     14  H   UNL A   1      33.655  26.313  21.921  1.00  0.00     0.161 HD
BRANCH  13  15
ATOM     15  C   UNL A   1      34.565  25.262  23.576  1.00  0.00     0.179 C 
ATOM     16  N   UNL A   1      34.454  23.098  24.450  1.00  0.00    -0.245 N 
ATOM     17  C   UNL A   1      34.353  23.923  25.536  1.00  0.00     0.236 C 
ATOM     18  C   UNL A   1      34.351  23.790  23.273  1.00  0.00     0.256 C 
ATOM     19  O   UNL A   1      34.268  23.606  26.715  1.00  0.00    -0.274 OA
ATOM     20  C   UNL A   1      34.378  25.350  25.077  1.00  0.00     0.136 C 
ATOM     21  O   UNL A   1      34.048  23.347  22.174  1.00  0.00    -0.272 OA
BRANCH  16  22
ATOM     22  C   UNL A   1      34.515  21.692  24.527  1.00  0.00     0.094 A 
ATOM     23  C   UNL A   1      33.354  20.906  24.451  1.00  0.00     0.144 A 
ATOM     24  C   UNL A   1      33.441  19.512  24.492  1.00  0.00     0.069 A 
ATOM     25  C   UNL A   1      34.685  18.892  24.633  1.00  0.00     0.047 A 
ATOM     26  C   UNL A   1      35.758  21.058  24.662  1.00  0.00     0.035 A 
ATOM     27  Cl  UNL A   1      34.743  17.165  24.635  1.00  0.00    -0.084 Cl
ATOM     28  C   UNL A   1      35.855  19.658  24.759  1.00  0.00    -0.030 A 
ATOM     29  C   UNL A   1      37.196  19.030  25.017  1.00  0.00     0.046 C 
BRANCH  23  30
ATOM     30  O   UNL A   1      32.096  21.447  24.354  1.00  0.00    -0.495 OA
ATOM     31  C   UNL A   1      31.503  21.684  25.629  1.00  0.00     0.278 C 
ENDBRANCH  23  30
ENDBRANCH  16  22
ENDBRANCH  13  15
ENDBRANCH   7  13
ENDBRANCH   3   6
ENDBRANCH   1   2
BRANCH   1  32
ATOM     32  C   UNL A   1      35.602  30.068  27.631  1.00  0.00     0.042 C 
BRANCH  32  33
ATOM     33  C   UNL A   1      35.325  31.542  27.622  1.00  0.00     0.118 C 
BRANCH  33  34
ATOM     34  N   UNL A   1      34.661  32.003  28.821  1.00  0.00    -0.352 N 
ATOM     35  C   UNL A   1      35.197  32.312  30.051  1.00  0.00     0.251 C 
ATOM     36  H   UNL A   1      33.685  32.113  28.746  1.00  0.00     0.163 HD
ATOM     37  O   UNL A   1      34.412  32.520  30.977  1.00  0.00    -0.269 OA
BRANCH  35  38
ATOM     38  C   UNL A   1      36.659  32.527  30.216  1.00  0.00     0.039 A 
ATOM     39  C   UNL A   1      37.387  31.523  30.867  1.00  0.00     0.014 A 
ATOM     40  C   UNL A   1      37.263  33.758  29.977  1.00  0.00     0.014 A 
ATOM     41  C   UNL A   1      38.556  31.850  31.542  1.00  0.00     0.010 A 
ATOM     42  C   UNL A   1      38.351  34.117  30.724  1.00  0.00     0.010 A 
ATOM     43  C   UNL A   1      38.927  33.183  31.580  1.00  0.00    -0.014 A 
BRANCH  43  44
ATOM     44  C   UNL A   1      39.888  33.767  32.484  1.00  0.00     0.031 A 
ATOM     45  C   UNL A   1      39.421  34.399  33.713  1.00  0.00     0.074 A 
ATOM     46  C   UNL A   1      41.158  33.335  32.337  1.00  0.00     0.049 A 
ATOM     47  N   UNL A   1      40.189  35.047  34.510  1.00  0.00    -0.248 NA
ATOM     48  C   UNL A   1      38.036  34.308  34.161  1.00  0.00     0.031 C 
ATOM     49  C   UNL A   1      42.205  33.203  33.338  1.00  0.00     0.029 A 
ATOM     50  N   UNL A   1      41.787  32.954  31.160  1.00  0.00    -0.354 N 
ATOM     51  C   UNL A   1      39.505  35.175  35.696  1.00  0.00     0.074 A 
ATOM     52  C   UNL A   1      38.143  34.791  35.401  1.00  0.00     0.031 C 
ATOM     53  C   UNL A   1      43.381  32.992  32.716  1.00  0.00     0.029 A 
ATOM     54  C   UNL A   1      43.157  33.207  31.297  1.00  0.00     0.049 A 
ATOM     55  H   UNL A   1      41.346  32.573  30.367  1.00  0.00     0.167 HD
ATOM     56  C   UNL A   1      40.212  35.403  36.836  1.00  0.00     0.034 A 
ATOM     57  C   UNL A   1      43.701  34.231  30.563  1.00  0.00     0.034 A 
ATOM     58  C   UNL A   1      41.659  35.453  36.552  1.00  0.00     0.049 A 
ATOM     59  C   UNL A   1      44.150  35.419  31.415  1.00  0.00     0.074 A 
ATOM     60  C   UNL A   1      42.707  34.556  36.695  1.00  0.00     0.029 A 
ATOM     61  N   UNL A   1      42.133  36.441  35.701  1.00  0.00    -0.354 N 
ATOM     62  N   UNL A   1      44.098  35.477  32.719  1.00  0.00    -0.248 NA
ATOM     63  C   UNL A   1      44.620  36.675  30.834  1.00  0.00     0.031 C 
ATOM     64  C   UNL A   1      43.809  35.019  35.912  1.00  0.00     0.029 A 
ATOM     65  C   UNL A   1      43.446  36.212  35.314  1.00  0.00     0.049 A 
ATOM     66  H   UNL A   1      41.599  37.214  35.404  1.00  0.00     0.167 HD
ATOM     67  C   UNL A   1      44.304  36.771  33.138  1.00  0.00     0.074 A 
ATOM     68  C   UNL A   1      44.673  37.470  31.915  1.00  0.00     0.031 C 
ATOM     69  C   UNL A   1      44.082  37.185  34.430  1.00  0.00     0.034 A 
BRANCH  56  70
ATOM     70  C   UNL A   1      39.613  35.248  38.218  1.00  0.00     0.023 A 
ATOM     71  C   UNL A   1      39.326  36.423  38.941  1.00  0.00     0.012 A 
ATOM     72  C   UNL A   1      39.348  34.023  38.878  1.00  0.00     0.148 A 
ATOM     73  C   UNL A   1      38.907  36.397  40.275  1.00  0.00     0.002 A 
ATOM     74  C   UNL A   1      39.009  33.996  40.235  1.00  0.00     0.091 A 
ATOM     75  F   UNL A   1      39.349  32.880  38.182  1.00  0.00    -0.205 F 
ATOM     76  C   UNL A   1      38.788  35.184  40.936  1.00  0.00     0.022 A 
BRANCH  74  77
ATOM     77  S   UNL A   1      38.959  32.467  41.188  1.00  0.00     0.127 S 
ATOM     78  O   UNL A   1      40.341  31.988  41.082  1.00  0.00    -0.237 OA
ATOM     79  O   UNL A   1      38.583  32.933  42.520  1.00  0.00    -0.237 OA
ATOM     80  O   UNL A   1      37.990  31.612  40.513  1.00  0.00    -0.744 OA
ENDBRANCH  74  77
ENDBRANCH  56  70
BRANCH  57  81
ATOM     81  C   UNL A   1      43.031  34.338  29.211  1.00  0.00     0.023 A 
ATOM     82  C   UNL A   1      42.137  35.425  29.026  1.00  0.00     0.012 A 
ATOM     83  C   UNL A   1      43.603  33.744  28.071  1.00  0.00     0.148 A 
ATOM     84  C   UNL A   1      42.009  36.041  27.777  1.00  0.00     0.002 A 
ATOM     85  C   UNL A   1      43.436  34.340  26.821  1.00  0.00     0.091 A 
ATOM     86  F   UNL A   1      44.353  32.645  28.215  1.00  0.00    -0.205 F 
ATOM     87  C   UNL A   1      42.698  35.526  26.683  1.00  0.00     0.022 A 
BRANCH  85  88
ATOM     88  S   UNL A   1      44.247  33.647  25.376  1.00  0.00     0.127 S 
ATOM     89  O   UNL A   1      45.655  33.851  25.703  1.00  0.00    -0.237 OA
ATOM     90  O   UNL A   1      43.817  32.249  25.390  1.00  0.00    -0.237 OA
ATOM     91  O   UNL A   1      43.724  34.418  24.257  1.00  0.00    -0.744 OA
ENDBRANCH  85  88
ENDBRANCH  57  81
BRANCH  69  92
ATOM     92  C   UNL A   1      44.353  38.593  34.963  1.00  0.00     0.023 A 
ATOM     93  C   UNL A   1      45.083  38.811  36.146  1.00  0.00     0.012 A 
ATOM     94  C   UNL A   1      43.805  39.759  34.354  1.00  0.00     0.148 A 
ATOM     95  C   UNL A   1      45.394  40.098  36.604  1.00  0.00     0.002 A 
ATOM     96  C   UNL A   1      44.102  41.038  34.814  1.00  0.00     0.091 A 
ATOM     97  F   UNL A   1      42.924  39.650  33.357  1.00  0.00    -0.205 F 
ATOM     98  C   UNL A   1      44.926  41.213  35.923  1.00  0.00     0.022 A 
BRANCH  96  99
ATOM     99  S   UNL A   1      43.424  42.518  34.045  1.00  0.00     0.127 S 
ATOM    100  O   UNL A   1      41.995  42.353  34.308  1.00  0.00    -0.237 OA
ATOM    101  O   UNL A   1      44.068  43.579  34.818  1.00  0.00    -0.237 OA
ATOM    102  O   UNL A   1      43.808  42.467  32.642  1.00  0.00    -0.744 OA
ENDBRANCH  96  99
ENDBRANCH  69  92
ENDBRANCH  43  44
ENDBRANCH  35  38
ENDBRANCH  33  34
ENDBRANCH  32  33
ENDBRANCH   1  32
TORSDOF 17
ENDMDL
MODEL 3
REMARK VINA RESULT:     -12.5      5.962      9.185
REMARK SMILES COc1cc(Cl)c(C)cc1N1C(=O)C[C@H](Nc2cc(C(=O)NCCCNC(=O)c3ccc(-c4c5nc(c(-c6cccc(S(=O)(=O)[O-])c6F)c6ccc([nH]6)c(-c6cccc(S(=O)(=O)[O-])c6F)c6nc(c(-c7cccc(S(=O)(=O)[O-])c7F)c7ccc4[nH]7)C=C6)C=C5)cc3)ccc2C)C1=O
REMARK SMILES IDX 23 1 22 2 20 3 21 4 19 6 17 7 18 8 94 9 93 10 95 11 92 12
REMARK SMILES IDX 16 13 15 15 11 16 12 17 96 18 13 19 14 20 97 21 10 22 3 23
REMARK SMILES IDX 4 24 5 25 9 26 6 27 7 28 8 29 2 30 1 31 24 32 25 33 26 34
REMARK SMILES IDX 27 35 28 37 29 38 30 39 91 40 31 41 90 42 32 43 33 44 34 45
REMARK SMILES IDX 84 46 35 47 89 48 83 49 85 50 36 51 88 52 82 53 81 54 37 56
REMARK SMILES IDX 69 57 49 58 68 59 50 60 53 61 67 62 86 63 51 64 52 65 66 67
REMARK SMILES IDX 87 68 54 69 38 70 39 71 47 72 40 73 42 74 48 75 41 76 43 77
REMARK SMILES IDX 44 78 45 79 46 80 70 81 71 82 79 83 72 84 74 85 80 86 73 87
REMARK SMILES IDX 75 88 76 89 77 90 78 91 55 92 56 93 64 94 57 95 59 96 65 97
REMARK SMILES IDX 58 98 60 99 61 100 62 101 63 102
REMARK H PARENT 22 5 16 14 26 36 85 55 53 66
REMARK Flexibility Score: inf
ROOT
ATOM      1  C   UNL A   1      37.418  22.856  25.739  1.00  0.00     0.118 C 
ENDROOT
BRANCH   1   2
ATOM      2  N   UNL A   1      38.179  21.639  25.506  1.00  0.00    -0.352 N 
ATOM      3  C   UNL A   1      37.806  20.357  25.172  1.00  0.00     0.251 C 
ATOM      4  O   UNL A   1      38.708  19.533  25.006  1.00  0.00    -0.269 OA
ATOM      5  H   UNL A   1      39.152  21.754  25.608  1.00  0.00     0.163 HD
BRANCH   3   6
ATOM      6  C   UNL A   1      36.390  19.914  24.978  1.00  0.00     0.041 A 
ATOM      7  C   UNL A   1      33.961  20.303  24.906  1.00  0.00     0.038 A 
ATOM      8  C   UNL A   1      35.273  20.727  25.142  1.00  0.00     0.039 A 
ATOM      9  C   UNL A   1      33.743  18.963  24.590  1.00  0.00    -0.028 A 
ATOM     10  C   UNL A   1      34.851  18.110  24.444  1.00  0.00     0.006 A 
ATOM     11  C   UNL A   1      32.368  18.405  24.372  1.00  0.00     0.046 C 
ATOM     12  C   UNL A   1      36.157  18.582  24.627  1.00  0.00     0.014 A 
BRANCH   7  13
ATOM     13  N   UNL A   1      32.916  21.216  25.110  1.00  0.00    -0.373 N 
ATOM     14  H   UNL A   1      32.207  21.055  25.773  1.00  0.00     0.161 HD
BRANCH  13  15
ATOM     15  C   UNL A   1      32.941  22.429  24.274  1.00  0.00     0.179 C 
ATOM     16  N   UNL A   1      32.339  24.659  24.626  1.00  0.00    -0.245 N 
ATOM     17  C   UNL A   1      31.305  24.123  23.909  1.00  0.00     0.236 C 
ATOM     18  C   UNL A   1      33.206  23.696  25.069  1.00  0.00     0.256 C 
ATOM     19  O   UNL A   1      30.303  24.691  23.497  1.00  0.00    -0.274 OA
ATOM     20  C   UNL A   1      31.578  22.671  23.658  1.00  0.00     0.136 C 
ATOM     21  O   UNL A   1      33.998  23.777  25.997  1.00  0.00    -0.272 OA
BRANCH  16  22
ATOM     22  C   UNL A   1      32.430  26.018  24.989  1.00  0.00     0.094 A 
ATOM     23  C   UNL A   1      33.075  26.952  24.161  1.00  0.00     0.144 A 
ATOM     24  C   UNL A   1      33.122  28.301  24.521  1.00  0.00     0.069 A 
ATOM     25  C   UNL A   1      32.547  28.725  25.723  1.00  0.00     0.047 A 
ATOM     26  C   UNL A   1      31.852  26.457  26.188  1.00  0.00     0.035 A 
ATOM     27  Cl  UNL A   1      32.595  30.410  26.102  1.00  0.00    -0.084 Cl
ATOM     28  C   UNL A   1      31.940  27.802  26.588  1.00  0.00    -0.030 A 
ATOM     29  C   UNL A   1      31.405  28.204  27.934  1.00  0.00     0.046 C 
BRANCH  23  30
ATOM     30  O   UNL A   1      33.697  26.600  22.989  1.00  0.00    -0.495 OA
ATOM     31  C   UNL A   1      33.627  27.629  22.003  1.00  0.00     0.278 C 
ENDBRANCH  23  30
ENDBRANCH  16  22
ENDBRANCH  13  15
ENDBRANCH   7  13
ENDBRANCH   3   6
ENDBRANCH   1   2
BRANCH   1  32
ATOM     32  C   UNL A   1      38.332  24.076  25.817  1.00  0.00     0.042 C 
BRANCH  32  33
ATOM     33  C   UNL A   1      39.289  24.003  26.969  1.00  0.00     0.118 C 
BRANCH  33  34
ATOM     34  N   UNL A   1      39.316  25.213  27.763  1.00  0.00    -0.352 N 
ATOM     35  C   UNL A   1      40.379  25.817  28.395  1.00  0.00     0.251 C 
ATOM     36  H   UNL A   1      38.449  25.669  27.864  1.00  0.00     0.163 HD
ATOM     37  O   UNL A   1      40.130  26.750  29.159  1.00  0.00    -0.269 OA
BRANCH  35  38
ATOM     38  C   UNL A   1      41.780  25.453  28.055  1.00  0.00     0.039 A 
ATOM     39  C   UNL A   1      42.282  24.261  28.592  1.00  0.00     0.014 A 
ATOM     40  C   UNL A   1      42.657  26.347  27.449  1.00  0.00     0.014 A 
ATOM     41  C   UNL A   1      43.648  24.124  28.804  1.00  0.00     0.010 A 
ATOM     42  C   UNL A   1      43.989  26.273  27.748  1.00  0.00     0.010 A 
ATOM     43  C   UNL A   1      44.456  25.209  28.515  1.00  0.00    -0.014 A 
BRANCH  43  44
ATOM     44  C   UNL A   1      45.814  25.395  28.967  1.00  0.00     0.031 A 
ATOM     45  C   UNL A   1      46.918  25.028  28.086  1.00  0.00     0.074 A 
ATOM     46  C   UNL A   1      45.969  26.263  29.989  1.00  0.00     0.049 A 
ATOM     47  N   UNL A   1      48.147  25.046  28.449  1.00  0.00    -0.248 NA
ATOM     48  C   UNL A   1      46.712  24.649  26.693  1.00  0.00     0.031 C 
ATOM     49  C   UNL A   1      47.099  27.126  30.298  1.00  0.00     0.029 A 
ATOM     50  N   UNL A   1      45.087  26.501  31.033  1.00  0.00    -0.354 N 
ATOM     51  C   UNL A   1      48.897  25.002  27.298  1.00  0.00     0.074 A 
ATOM     52  C   UNL A   1      47.969  24.657  26.244  1.00  0.00     0.031 C 
ATOM     53  C   UNL A   1      46.945  27.620  31.541  1.00  0.00     0.029 A 
ATOM     54  C   UNL A   1      45.829  26.912  32.146  1.00  0.00     0.049 A 
ATOM     55  H   UNL A   1      44.109  26.397  30.997  1.00  0.00     0.167 HD
ATOM     56  C   UNL A   1      50.179  25.455  27.337  1.00  0.00     0.034 A 
ATOM     57  C   UNL A   1      45.931  26.051  33.209  1.00  0.00     0.034 A 
ATOM     58  C   UNL A   1      50.520  25.946  28.686  1.00  0.00     0.049 A 
ATOM     59  C   UNL A   1      47.339  25.489  33.405  1.00  0.00     0.074 A 
ATOM     60  C   UNL A   1      50.605  27.202  29.268  1.00  0.00     0.029 A 
ATOM     61  N   UNL A   1      50.484  25.050  29.745  1.00  0.00    -0.354 N 
ATOM     62  N   UNL A   1      48.388  25.812  32.696  1.00  0.00    -0.248 NA
ATOM     63  C   UNL A   1      47.644  24.445  34.381  1.00  0.00     0.031 C 
ATOM     64  C   UNL A   1      50.612  27.043  30.689  1.00  0.00     0.029 A 
ATOM     65  C   UNL A   1      50.560  25.690  30.974  1.00  0.00     0.049 A 
ATOM     66  H   UNL A   1      50.411  24.074  29.637  1.00  0.00     0.167 HD
ATOM     67  C   UNL A   1      49.409  24.924  32.942  1.00  0.00     0.074 A 
ATOM     68  C   UNL A   1      48.902  24.117  34.042  1.00  0.00     0.031 C 
ATOM     69  C   UNL A   1      50.553  24.867  32.179  1.00  0.00     0.034 A 
BRANCH  56  70
ATOM     70  C   UNL A   1      50.984  25.749  26.089  1.00  0.00     0.023 A 
ATOM     71  C   UNL A   1      52.135  24.969  25.855  1.00  0.00     0.012 A 
ATOM     72  C   UNL A   1      50.714  26.768  25.143  1.00  0.00     0.148 A 
ATOM     73  C   UNL A   1      53.028  25.246  24.815  1.00  0.00     0.002 A 
ATOM     74  C   UNL A   1      51.646  27.097  24.154  1.00  0.00     0.091 A 
ATOM     75  F   UNL A   1      49.522  27.377  25.147  1.00  0.00    -0.205 F 
ATOM     76  C   UNL A   1      52.805  26.336  23.988  1.00  0.00     0.022 A 
BRANCH  74  77
ATOM     77  S   UNL A   1      51.485  28.570  23.127  1.00  0.00     0.127 S 
ATOM     78  O   UNL A   1      50.209  28.335  22.443  1.00  0.00    -0.237 OA
ATOM     79  O   UNL A   1      51.450  29.645  24.114  1.00  0.00    -0.237 OA
ATOM     80  O   UNL A   1      52.638  28.559  22.235  1.00  0.00    -0.744 OA
ENDBRANCH  74  77
ENDBRANCH  56  70
BRANCH  57  81
ATOM     81  C   UNL A   1      44.651  25.266  33.388  1.00  0.00     0.023 A 
ATOM     82  C   UNL A   1      44.699  23.885  33.060  1.00  0.00     0.012 A 
ATOM     83  C   UNL A   1      43.648  25.706  34.271  1.00  0.00     0.148 A 
ATOM     84  C   UNL A   1      43.931  22.955  33.767  1.00  0.00     0.002 A 
ATOM     85  C   UNL A   1      42.857  24.774  34.942  1.00  0.00     0.091 A 
ATOM     86  F   UNL A   1      43.511  27.018  34.501  1.00  0.00    -0.205 F 
ATOM     87  C   UNL A   1      43.044  23.398  34.744  1.00  0.00     0.022 A 
BRANCH  85  88
ATOM     88  S   UNL A   1      41.644  25.323  36.149  1.00  0.00     0.127 S 
ATOM     89  O   UNL A   1      40.779  26.168  35.332  1.00  0.00    -0.237 OA
ATOM     90  O   UNL A   1      41.028  24.073  36.595  1.00  0.00    -0.237 OA
ATOM     91  O   UNL A   1      42.427  25.999  37.175  1.00  0.00    -0.744 OA
ENDBRANCH  85  88
ENDBRANCH  57  81
BRANCH  69  92
ATOM     92  C   UNL A   1      51.743  23.944  32.446  1.00  0.00     0.023 A 
ATOM     93  C   UNL A   1      51.576  22.571  32.702  1.00  0.00     0.012 A 
ATOM     94  C   UNL A   1      53.079  24.431  32.547  1.00  0.00     0.148 A 
ATOM     95  C   UNL A   1      52.665  21.707  32.879  1.00  0.00     0.002 A 
ATOM     96  C   UNL A   1      54.161  23.577  32.735  1.00  0.00     0.091 A 
ATOM     97  F   UNL A   1      53.323  25.743  32.534  1.00  0.00    -0.205 F 
ATOM     98  C   UNL A   1      53.959  22.205  32.869  1.00  0.00     0.022 A 
BRANCH  96  99
ATOM     99  S   UNL A   1      55.853  24.180  32.853  1.00  0.00     0.127 S 
ATOM    100  O   UNL A   1      56.574  22.956  33.203  1.00  0.00    -0.237 OA
ATOM    101  O   UNL A   1      56.095  24.662  31.493  1.00  0.00    -0.237 OA
ATOM    102  O   UNL A   1      55.852  25.216  33.875  1.00  0.00    -0.744 OA
ENDBRANCH  96  99
ENDBRANCH  69  92
ENDBRANCH  43  44
ENDBRANCH  35  38
ENDBRANCH  33  34
ENDBRANCH  32  33
ENDBRANCH   1  32
TORSDOF 17
ENDMDL
