MODEL 1
REMARK VINA RESULT:     -12.6      0.000      0.000
REMARK SMILES Cc1ccc(Cl)cc1NC(=O)N[C@@](C)(C(=O)NCCCNC(=O)c1ccc(-c2c3nc(c(-c4cccc(S(=O)(=O)[O-])c4F)c4ccc([nH]4)c(-c4cccc(S(=O)(=O)[O-])c4F)c4nc(c(-c5cccc(S(=O)(=O)[O-])c5F)c5ccc2[nH]5)C=C4)C=C3)cc1)C(F)(F)F
REMARK SMILES IDX 19 1 18 2 17 3 15 4 16 5 13 7 14 8 12 9 9 10 10 11 11 13
REMARK SMILES IDX 8 15 1 16 2 17 3 18 4 19 7 20 5 21 6 22 87 23 88 24 89 25
REMARK SMILES IDX 90 26 20 27 21 28 22 29 23 31 24 32 25 33 86 34 26 35 85 36
REMARK SMILES IDX 27 37 28 38 29 39 79 40 30 41 84 42 78 43 80 44 31 45 83 46
REMARK SMILES IDX 77 47 76 48 32 50 64 51 44 52 63 53 45 54 48 55 62 56 81 57
REMARK SMILES IDX 46 58 47 59 61 61 82 62 49 63 33 64 34 65 42 66 35 67 37 68
REMARK SMILES IDX 43 69 36 70 38 71 39 72 40 73 41 74 65 75 66 76 74 77 67 78
REMARK SMILES IDX 69 79 75 80 68 81 70 82 71 83 72 84 73 85 50 86 51 87 59 88
REMARK SMILES IDX 52 89 54 90 60 91 53 92 55 93 56 94 57 95 58 96
REMARK H PARENT 17 6 9 12 12 14 21 30 80 49 48 60
REMARK Flexibility Score: inf
ROOT
ATOM      1  C   UNL A   1      36.201  21.145  24.636  1.00  0.00     0.042 C 
ENDROOT
BRANCH   1   2
ATOM      2  C   UNL A   1      34.860  20.957  25.338  1.00  0.00     0.117 C 
BRANCH   2   3
ATOM      3  N   UNL A   1      33.754  21.073  24.404  1.00  0.00    -0.354 N 
ATOM      4  C   UNL A   1      32.488  21.372  24.842  1.00  0.00     0.255 C 
ATOM      5  O   UNL A   1      31.735  20.426  25.063  1.00  0.00    -0.272 OA
ATOM      6  H   UNL A   1      33.915  20.935  23.443  1.00  0.00     0.163 HD
BRANCH   4   7
ATOM      7  C   UNL A   1      32.130  22.852  25.145  1.00  0.00     0.213 C 
ATOM      8  C   UNL A   1      33.368  23.590  25.690  1.00  0.00     0.056 C 
BRANCH   7   9
ATOM      9  N   UNL A   1      31.041  22.820  26.172  1.00  0.00    -0.316 N 
ATOM     10  N   UNL A   1      29.926  24.924  26.463  1.00  0.00    -0.308 N 
ATOM     11  C   UNL A   1      30.153  23.634  26.746  1.00  0.00     0.320 C 
ATOM     12  H   UNL A   1      29.041  25.217  26.781  1.00  0.00     0.171 HD
ATOM     13  O   UNL A   1      29.378  23.101  27.547  1.00  0.00    -0.248 OA
ATOM     14  H   UNL A   1      30.950  21.911  26.540  1.00  0.00     0.166 HD
BRANCH  10  15
ATOM     15  C   UNL A   1      30.620  25.958  25.836  1.00  0.00     0.047 A 
ATOM     16  C   UNL A   1      28.721  26.223  24.129  1.00  0.00     0.046 C 
ATOM     17  C   UNL A   1      30.091  26.541  24.666  1.00  0.00    -0.027 A 
ATOM     18  C   UNL A   1      30.868  27.476  23.958  1.00  0.00     0.007 A 
ATOM     19  C   UNL A   1      32.119  27.868  24.432  1.00  0.00     0.021 A 
ATOM     20  C   UNL A   1      31.798  26.469  26.377  1.00  0.00     0.047 A 
ATOM     21  C   UNL A   1      32.559  27.396  25.661  1.00  0.00     0.043 A 
ATOM     22  Cl  UNL A   1      34.070  27.931  26.289  1.00  0.00    -0.084 Cl
ENDBRANCH  10  15
ENDBRANCH   7   9
BRANCH   7  23
ATOM     23  C   UNL A   1      31.754  23.311  23.712  1.00  0.00     0.420 C 
ATOM     24  F   UNL A   1      32.307  24.492  23.363  1.00  0.00    -0.168 F 
ATOM     25  F   UNL A   1      32.112  22.425  22.762  1.00  0.00    -0.168 F 
ATOM     26  F   UNL A   1      30.404  23.428  23.579  1.00  0.00    -0.168 F 
ENDBRANCH   7  23
ENDBRANCH   4   7
ENDBRANCH   2   3
ENDBRANCH   1   2
BRANCH   1  27
ATOM     27  C   UNL A   1      37.314  21.665  25.542  1.00  0.00     0.118 C 
BRANCH  27  28
ATOM     28  N   UNL A   1      38.344  20.665  25.813  1.00  0.00    -0.352 N 
ATOM     29  C   UNL A   1      39.606  20.864  26.321  1.00  0.00     0.251 C 
ATOM     30  H   UNL A   1      38.104  19.733  25.607  1.00  0.00     0.163 HD
ATOM     31  O   UNL A   1      40.418  19.945  26.366  1.00  0.00    -0.269 OA
BRANCH  29  32
ATOM     32  C   UNL A   1      39.967  22.217  26.779  1.00  0.00     0.039 A 
ATOM     33  C   UNL A   1      40.949  22.368  27.759  1.00  0.00     0.014 A 
ATOM     34  C   UNL A   1      39.401  23.327  26.148  1.00  0.00     0.014 A 
ATOM     35  C   UNL A   1      41.421  23.648  28.060  1.00  0.00     0.010 A 
ATOM     36  C   UNL A   1      39.932  24.586  26.389  1.00  0.00     0.010 A 
ATOM     37  C   UNL A   1      40.942  24.760  27.350  1.00  0.00    -0.014 A 
BRANCH  37  38
ATOM     38  C   UNL A   1      41.446  26.135  27.594  1.00  0.00     0.031 A 
ATOM     39  C   UNL A   1      42.858  26.469  27.201  1.00  0.00     0.074 A 
ATOM     40  C   UNL A   1      40.699  27.019  28.283  1.00  0.00     0.049 A 
ATOM     41  N   UNL A   1      43.573  27.521  27.499  1.00  0.00    -0.248 NA
ATOM     42  C   UNL A   1      43.580  25.458  26.405  1.00  0.00     0.031 C 
ATOM     43  C   UNL A   1      39.341  26.784  28.780  1.00  0.00     0.029 A 
ATOM     44  N   UNL A   1      40.997  28.285  28.724  1.00  0.00    -0.354 N 
ATOM     45  C   UNL A   1      44.842  27.268  26.990  1.00  0.00     0.074 A 
ATOM     46  C   UNL A   1      44.807  25.956  26.386  1.00  0.00     0.031 C 
ATOM     47  C   UNL A   1      38.929  27.864  29.464  1.00  0.00     0.029 A 
ATOM     48  C   UNL A   1      40.001  28.854  29.485  1.00  0.00     0.049 A 
ATOM     49  H   UNL A   1      41.843  28.743  28.515  1.00  0.00     0.167 HD
ATOM     50  C   UNL A   1      45.931  28.071  27.003  1.00  0.00     0.034 A 
ATOM     51  C   UNL A   1      39.966  30.032  30.140  1.00  0.00     0.034 A 
ATOM     52  C   UNL A   1      45.930  29.407  27.528  1.00  0.00     0.049 A 
ATOM     53  C   UNL A   1      41.163  30.943  30.059  1.00  0.00     0.074 A 
ATOM     54  C   UNL A   1      46.946  30.343  27.499  1.00  0.00     0.029 A 
ATOM     55  N   UNL A   1      44.850  30.002  28.163  1.00  0.00    -0.354 N 
ATOM     56  N   UNL A   1      42.310  30.745  29.454  1.00  0.00    -0.248 NA
ATOM     57  C   UNL A   1      41.052  32.253  30.718  1.00  0.00     0.031 C 
ATOM     58  C   UNL A   1      46.482  31.506  28.120  1.00  0.00     0.029 A 
ATOM     59  C   UNL A   1      45.172  31.297  28.520  1.00  0.00     0.049 A 
ATOM     60  H   UNL A   1      43.985  29.566  28.334  1.00  0.00     0.167 HD
ATOM     61  C   UNL A   1      43.035  31.919  29.617  1.00  0.00     0.074 A 
ATOM     62  C   UNL A   1      42.198  32.828  30.373  1.00  0.00     0.031 C 
ATOM     63  C   UNL A   1      44.288  32.214  29.193  1.00  0.00     0.034 A 
BRANCH  50  64
ATOM     64  C   UNL A   1      47.193  27.552  26.370  1.00  0.00     0.023 A 
ATOM     65  C   UNL A   1      47.480  27.875  25.028  1.00  0.00     0.012 A 
ATOM     66  C   UNL A   1      48.121  26.795  27.113  1.00  0.00     0.148 A 
ATOM     67  C   UNL A   1      48.653  27.424  24.424  1.00  0.00     0.002 A 
ATOM     68  C   UNL A   1      49.309  26.388  26.517  1.00  0.00     0.091 A 
ATOM     69  F   UNL A   1      47.820  26.479  28.381  1.00  0.00    -0.205 F 
ATOM     70  C   UNL A   1      49.571  26.692  25.170  1.00  0.00     0.022 A 
BRANCH  68  71
ATOM     71  S   UNL A   1      50.593  25.512  27.418  1.00  0.00     0.127 S 
ATOM     72  O   UNL A   1      49.905  24.275  27.784  1.00  0.00    -0.237 OA
ATOM     73  O   UNL A   1      51.631  25.353  26.398  1.00  0.00    -0.237 OA
ATOM     74  O   UNL A   1      50.962  26.376  28.530  1.00  0.00    -0.744 OA
ENDBRANCH  68  71
ENDBRANCH  50  64
BRANCH  51  75
ATOM     75  C   UNL A   1      38.731  30.453  30.861  1.00  0.00     0.023 A 
ATOM     76  C   UNL A   1      38.614  30.182  32.239  1.00  0.00     0.012 A 
ATOM     77  C   UNL A   1      37.688  31.138  30.208  1.00  0.00     0.148 A 
ATOM     78  C   UNL A   1      37.469  30.553  32.945  1.00  0.00     0.002 A 
ATOM     79  C   UNL A   1      36.572  31.551  30.929  1.00  0.00     0.091 A 
ATOM     80  F   UNL A   1      37.808  31.378  28.895  1.00  0.00    -0.205 F 
ATOM     81  C   UNL A   1      36.453  31.244  32.293  1.00  0.00     0.022 A 
BRANCH  79  82
ATOM     82  S   UNL A   1      35.276  32.558  30.199  1.00  0.00     0.127 S 
ATOM     83  O   UNL A   1      34.333  32.684  31.306  1.00  0.00    -0.237 OA
ATOM     84  O   UNL A   1      35.998  33.786  29.860  1.00  0.00    -0.237 OA
ATOM     85  O   UNL A   1      34.808  31.805  29.043  1.00  0.00    -0.744 OA
ENDBRANCH  79  82
ENDBRANCH  51  75
BRANCH  63  86
ATOM     86  C   UNL A   1      44.822  33.594  29.461  1.00  0.00     0.023 A 
ATOM     87  C   UNL A   1      45.536  33.850  30.648  1.00  0.00     0.012 A 
ATOM     88  C   UNL A   1      44.727  34.595  28.475  1.00  0.00     0.148 A 
ATOM     89  C   UNL A   1      46.139  35.090  30.853  1.00  0.00     0.002 A 
ATOM     90  C   UNL A   1      45.369  35.811  28.667  1.00  0.00     0.091 A 
ATOM     91  F   UNL A   1      44.028  34.330  27.362  1.00  0.00    -0.205 F 
ATOM     92  C   UNL A   1      46.069  36.063  29.858  1.00  0.00     0.022 A 
BRANCH  90  93
ATOM     93  S   UNL A   1      45.417  37.085  27.401  1.00  0.00     0.127 S 
ATOM     94  O   UNL A   1      46.214  38.123  28.052  1.00  0.00    -0.237 OA
ATOM     95  O   UNL A   1      46.091  36.399  26.297  1.00  0.00    -0.237 OA
ATOM     96  O   UNL A   1      44.030  37.440  27.134  1.00  0.00    -0.744 OA
ENDBRANCH  90  93
ENDBRANCH  63  86
ENDBRANCH  37  38
ENDBRANCH  29  32
ENDBRANCH  27  28
ENDBRANCH   1  27
TORSDOF 16
ENDMDL
MODEL 2
REMARK VINA RESULT:     -12.5      5.387      7.756
REMARK SMILES Cc1ccc(Cl)cc1NC(=O)N[C@@](C)(C(=O)NCCCNC(=O)c1ccc(-c2c3nc(c(-c4cccc(S(=O)(=O)[O-])c4F)c4ccc([nH]4)c(-c4cccc(S(=O)(=O)[O-])c4F)c4nc(c(-c5cccc(S(=O)(=O)[O-])c5F)c5ccc2[nH]5)C=C4)C=C3)cc1)C(F)(F)F
REMARK SMILES IDX 19 1 18 2 17 3 15 4 16 5 13 7 14 8 12 9 9 10 10 11 11 13
REMARK SMILES IDX 8 15 1 16 2 17 3 18 4 19 7 20 5 21 6 22 87 23 88 24 89 25
REMARK SMILES IDX 90 26 20 27 21 28 22 29 23 31 24 32 25 33 86 34 26 35 85 36
REMARK SMILES IDX 27 37 28 38 29 39 79 40 30 41 84 42 78 43 80 44 31 45 83 46
REMARK SMILES IDX 77 47 76 48 32 50 64 51 44 52 63 53 45 54 48 55 62 56 81 57
REMARK SMILES IDX 46 58 47 59 61 61 82 62 49 63 33 64 34 65 42 66 35 67 37 68
REMARK SMILES IDX 43 69 36 70 38 71 39 72 40 73 41 74 65 75 66 76 74 77 67 78
REMARK SMILES IDX 69 79 75 80 68 81 70 82 71 83 72 84 73 85 50 86 51 87 59 88
REMARK SMILES IDX 52 89 54 90 60 91 53 92 55 93 56 94 57 95 58 96
REMARK H PARENT 17 6 9 12 12 14 21 30 80 49 48 60
REMARK Flexibility Score: inf
ROOT
ATOM      1  C   UNL A   1      32.028  28.787  24.702  1.00  0.00     0.042 C 
ENDROOT
BRANCH   1   2
ATOM      2  C   UNL A   1      31.372  27.599  25.399  1.00  0.00     0.117 C 
BRANCH   2   3
ATOM      3  N   UNL A   1      30.648  26.766  24.455  1.00  0.00    -0.354 N 
ATOM      4  C   UNL A   1      31.309  25.873  23.648  1.00  0.00     0.255 C 
ATOM      5  O   UNL A   1      31.618  26.259  22.523  1.00  0.00    -0.272 OA
ATOM      6  H   UNL A   1      29.668  26.843  24.392  1.00  0.00     0.163 HD
BRANCH   4   7
ATOM      7  C   UNL A   1      31.727  24.499  24.238  1.00  0.00     0.213 C 
ATOM      8  C   UNL A   1      31.515  23.391  23.187  1.00  0.00     0.056 C 
BRANCH   7   9
ATOM      9  N   UNL A   1      30.851  24.268  25.430  1.00  0.00    -0.316 N 
ATOM     10  N   UNL A   1      31.514  22.389  26.765  1.00  0.00    -0.308 N 
ATOM     11  C   UNL A   1      30.718  23.419  26.451  1.00  0.00     0.320 C 
ATOM     12  H   UNL A   1      31.403  22.114  27.704  1.00  0.00     0.171 HD
ATOM     13  O   UNL A   1      29.824  23.691  27.260  1.00  0.00    -0.248 OA
ATOM     14  H   UNL A   1      30.154  24.961  25.477  1.00  0.00     0.166 HD
BRANCH  10  15
ATOM     15  C   UNL A   1      32.458  21.603  26.104  1.00  0.00     0.047 A 
ATOM     16  C   UNL A   1      34.309  22.502  27.639  1.00  0.00     0.046 C 
ATOM     17  C   UNL A   1      33.818  21.705  26.460  1.00  0.00    -0.027 A 
ATOM     18  C   UNL A   1      34.778  21.023  25.689  1.00  0.00     0.007 A 
ATOM     19  C   UNL A   1      34.392  20.212  24.623  1.00  0.00     0.021 A 
ATOM     20  C   UNL A   1      32.076  20.674  25.139  1.00  0.00     0.047 A 
ATOM     21  C   UNL A   1      33.041  20.007  24.381  1.00  0.00     0.043 A 
ATOM     22  Cl  UNL A   1      32.553  18.949  23.113  1.00  0.00    -0.084 Cl
ENDBRANCH  10  15
ENDBRANCH   7   9
BRANCH   7  23
ATOM     23  C   UNL A   1      33.228  24.790  24.494  1.00  0.00     0.420 C 
ATOM     24  F   UNL A   1      33.678  25.893  23.858  1.00  0.00    -0.168 F 
ATOM     25  F   UNL A   1      33.520  24.954  25.799  1.00  0.00    -0.168 F 
ATOM     26  F   UNL A   1      34.000  23.740  24.101  1.00  0.00    -0.168 F 
ENDBRANCH   7  23
ENDBRANCH   4   7
ENDBRANCH   2   3
ENDBRANCH   1   2
BRANCH   1  27
ATOM     27  C   UNL A   1      33.009  29.562  25.578  1.00  0.00     0.118 C 
BRANCH  27  28
ATOM     28  N   UNL A   1      32.443  30.798  26.112  1.00  0.00    -0.352 N 
ATOM     29  C   UNL A   1      32.958  31.612  27.093  1.00  0.00     0.251 C 
ATOM     30  H   UNL A   1      31.587  31.084  25.721  1.00  0.00     0.163 HD
ATOM     31  O   UNL A   1      32.305  32.548  27.542  1.00  0.00    -0.269 OA
BRANCH  29  32
ATOM     32  C   UNL A   1      34.303  31.309  27.613  1.00  0.00     0.039 A 
ATOM     33  C   UNL A   1      35.228  32.343  27.761  1.00  0.00     0.014 A 
ATOM     34  C   UNL A   1      34.592  30.015  28.053  1.00  0.00     0.014 A 
ATOM     35  C   UNL A   1      36.433  32.093  28.422  1.00  0.00     0.010 A 
ATOM     36  C   UNL A   1      35.750  29.792  28.782  1.00  0.00     0.010 A 
ATOM     37  C   UNL A   1      36.684  30.825  28.970  1.00  0.00    -0.014 A 
BRANCH  37  38
ATOM     38  C   UNL A   1      37.924  30.518  29.726  1.00  0.00     0.031 A 
ATOM     39  C   UNL A   1      38.921  29.565  29.126  1.00  0.00     0.074 A 
ATOM     40  C   UNL A   1      38.082  30.973  30.985  1.00  0.00     0.049 A 
ATOM     41  N   UNL A   1      39.957  28.995  29.681  1.00  0.00    -0.248 NA
ATOM     42  C   UNL A   1      38.692  29.162  27.726  1.00  0.00     0.031 C 
ATOM     43  C   UNL A   1      37.147  31.846  31.699  1.00  0.00     0.029 A 
ATOM     44  N   UNL A   1      39.071  30.726  31.904  1.00  0.00    -0.354 N 
ATOM     45  C   UNL A   1      40.458  28.118  28.726  1.00  0.00     0.074 A 
ATOM     46  C   UNL A   1      39.601  28.213  27.566  1.00  0.00     0.031 C 
ATOM     47  C   UNL A   1      37.602  32.052  32.946  1.00  0.00     0.029 A 
ATOM     48  C   UNL A   1      38.840  31.301  33.133  1.00  0.00     0.049 A 
ATOM     49  H   UNL A   1      39.870  30.187  31.704  1.00  0.00     0.167 HD
ATOM     50  C   UNL A   1      41.551  27.324  28.801  1.00  0.00     0.034 A 
ATOM     51  C   UNL A   1      39.538  31.217  34.283  1.00  0.00     0.034 A 
ATOM     52  C   UNL A   1      42.445  27.303  29.924  1.00  0.00     0.049 A 
ATOM     53  C   UNL A   1      40.801  30.396  34.307  1.00  0.00     0.074 A 
ATOM     54  C   UNL A   1      43.636  26.615  30.062  1.00  0.00     0.029 A 
ATOM     55  N   UNL A   1      42.252  28.017  31.096  1.00  0.00    -0.354 N 
ATOM     56  N   UNL A   1      41.337  29.681  33.348  1.00  0.00    -0.248 NA
ATOM     57  C   UNL A   1      41.576  30.398  35.556  1.00  0.00     0.031 C 
ATOM     58  C   UNL A   1      44.164  26.911  31.321  1.00  0.00     0.029 A 
ATOM     59  C   UNL A   1      43.308  27.795  31.960  1.00  0.00     0.049 A 
ATOM     60  H   UNL A   1      41.478  28.594  31.286  1.00  0.00     0.167 HD
ATOM     61  C   UNL A   1      42.531  29.188  33.859  1.00  0.00     0.074 A 
ATOM     62  C   UNL A   1      42.647  29.692  35.212  1.00  0.00     0.031 C 
ATOM     63  C   UNL A   1      43.444  28.380  33.268  1.00  0.00     0.034 A 
BRANCH  50  64
ATOM     64  C   UNL A   1      41.879  26.466  27.609  1.00  0.00     0.023 A 
ATOM     65  C   UNL A   1      42.563  27.033  26.514  1.00  0.00     0.012 A 
ATOM     66  C   UNL A   1      41.563  25.093  27.592  1.00  0.00     0.148 A 
ATOM     67  C   UNL A   1      42.897  26.255  25.406  1.00  0.00     0.002 A 
ATOM     68  C   UNL A   1      41.940  24.315  26.505  1.00  0.00     0.091 A 
ATOM     69  F   UNL A   1      40.893  24.578  28.633  1.00  0.00    -0.205 F 
ATOM     70  C   UNL A   1      42.596  24.896  25.406  1.00  0.00     0.022 A 
BRANCH  68  71
ATOM     71  S   UNL A   1      41.673  22.539  26.445  1.00  0.00     0.127 S 
ATOM     72  O   UNL A   1      42.481  22.159  25.287  1.00  0.00    -0.237 OA
ATOM     73  O   UNL A   1      42.212  22.103  27.733  1.00  0.00    -0.237 OA
ATOM     74  O   UNL A   1      40.237  22.355  26.294  1.00  0.00    -0.744 OA
ENDBRANCH  68  71
ENDBRANCH  50  64
BRANCH  51  75
ATOM     75  C   UNL A   1      39.106  31.991  35.482  1.00  0.00     0.023 A 
ATOM     76  C   UNL A   1      39.391  33.369  35.549  1.00  0.00     0.012 A 
ATOM     77  C   UNL A   1      38.398  31.387  36.539  1.00  0.00     0.148 A 
ATOM     78  C   UNL A   1      39.012  34.123  36.660  1.00  0.00     0.002 A 
ATOM     79  C   UNL A   1      37.977  32.156  37.619  1.00  0.00     0.091 A 
ATOM     80  F   UNL A   1      38.144  30.072  36.467  1.00  0.00    -0.205 F 
ATOM     81  C   UNL A   1      38.298  33.520  37.689  1.00  0.00     0.022 A 
BRANCH  79  82
ATOM     82  S   UNL A   1      36.941  31.488  38.927  1.00  0.00     0.127 S 
ATOM     83  O   UNL A   1      37.813  31.609  40.092  1.00  0.00    -0.237 OA
ATOM     84  O   UNL A   1      35.800  32.406  38.912  1.00  0.00    -0.237 OA
ATOM     85  O   UNL A   1      36.619  30.131  38.509  1.00  0.00    -0.744 OA
ENDBRANCH  79  82
ENDBRANCH  51  75
BRANCH  63  86
ATOM     86  C   UNL A   1      44.690  28.037  34.036  1.00  0.00     0.023 A 
ATOM     87  C   UNL A   1      45.803  28.899  33.988  1.00  0.00     0.012 A 
ATOM     88  C   UNL A   1      44.703  26.930  34.908  1.00  0.00     0.148 A 
ATOM     89  C   UNL A   1      46.917  28.656  34.789  1.00  0.00     0.002 A 
ATOM     90  C   UNL A   1      45.799  26.721  35.736  1.00  0.00     0.091 A 
ATOM     91  F   UNL A   1      43.638  26.116  34.922  1.00  0.00    -0.205 F 
ATOM     92  C   UNL A   1      46.909  27.577  35.673  1.00  0.00     0.022 A 
BRANCH  90  93
ATOM     93  S   UNL A   1      45.834  25.419  36.974  1.00  0.00     0.127 S 
ATOM     94  O   UNL A   1      47.166  25.593  37.551  1.00  0.00    -0.237 OA
ATOM     95  O   UNL A   1      44.731  25.800  37.856  1.00  0.00    -0.237 OA
ATOM     96  O   UNL A   1      45.626  24.171  36.252  1.00  0.00    -0.744 OA
ENDBRANCH  90  93
ENDBRANCH  63  86
ENDBRANCH  37  38
ENDBRANCH  29  32
ENDBRANCH  27  28
ENDBRANCH   1  27
TORSDOF 16
ENDMDL
MODEL 3
REMARK VINA RESULT:     -12.5      1.590      7.635
REMARK SMILES Cc1ccc(Cl)cc1NC(=O)N[C@@](C)(C(=O)NCCCNC(=O)c1ccc(-c2c3nc(c(-c4cccc(S(=O)(=O)[O-])c4F)c4ccc([nH]4)c(-c4cccc(S(=O)(=O)[O-])c4F)c4nc(c(-c5cccc(S(=O)(=O)[O-])c5F)c5ccc2[nH]5)C=C4)C=C3)cc1)C(F)(F)F
REMARK SMILES IDX 19 1 18 2 17 3 15 4 16 5 13 7 14 8 12 9 9 10 10 11 11 13
REMARK SMILES IDX 8 15 1 16 2 17 3 18 4 19 7 20 5 21 6 22 87 23 88 24 89 25
REMARK SMILES IDX 90 26 20 27 21 28 22 29 23 31 24 32 25 33 86 34 26 35 85 36
REMARK SMILES IDX 27 37 28 38 29 39 79 40 30 41 84 42 78 43 80 44 31 45 83 46
REMARK SMILES IDX 77 47 76 48 32 50 64 51 44 52 63 53 45 54 48 55 62 56 81 57
REMARK SMILES IDX 46 58 47 59 61 61 82 62 49 63 33 64 34 65 42 66 35 67 37 68
REMARK SMILES IDX 43 69 36 70 38 71 39 72 40 73 41 74 65 75 66 76 74 77 67 78
REMARK SMILES IDX 69 79 75 80 68 81 70 82 71 83 72 84 73 85 50 86 51 87 59 88
REMARK SMILES IDX 52 89 54 90 60 91 53 92 55 93 56 94 57 95 58 96
REMARK H PARENT 17 6 9 12 12 14 21 30 80 49 48 60
REMARK Flexibility Score: inf
ROOT
ATOM      1  C   UNL A   1      35.956  22.228  26.149  1.00  0.00     0.042 C 
ENDROOT
BRANCH   1   2
ATOM      2  C   UNL A   1      34.693  21.413  25.887  1.00  0.00     0.117 C 
BRANCH   2   3
ATOM      3  N   UNL A   1      34.148  21.690  24.570  1.00  0.00    -0.354 N 
ATOM      4  C   UNL A   1      32.809  21.934  24.396  1.00  0.00     0.255 C 
ATOM      5  O   UNL A   1      32.100  20.976  24.094  1.00  0.00    -0.272 OA
ATOM      6  H   UNL A   1      34.749  21.704  23.790  1.00  0.00     0.163 HD
BRANCH   4   7
ATOM      7  C   UNL A   1      32.259  23.353  24.706  1.00  0.00     0.213 C 
ATOM      8  C   UNL A   1      33.412  24.281  25.133  1.00  0.00     0.056 C 
BRANCH   7   9
ATOM      9  N   UNL A   1      31.275  23.188  25.823  1.00  0.00    -0.316 N 
ATOM     10  N   UNL A   1      30.115  25.208  26.395  1.00  0.00    -0.308 N 
ATOM     11  C   UNL A   1      30.416  23.911  26.544  1.00  0.00     0.320 C 
ATOM     12  H   UNL A   1      29.255  25.434  26.817  1.00  0.00     0.171 HD
ATOM     13  O   UNL A   1      29.742  23.280  27.365  1.00  0.00    -0.248 OA
ATOM     14  H   UNL A   1      31.253  22.249  26.119  1.00  0.00     0.166 HD
BRANCH  10  15
ATOM     15  C   UNL A   1      30.707  26.320  25.797  1.00  0.00     0.047 A 
ATOM     16  C   UNL A   1      28.839  26.393  24.038  1.00  0.00     0.046 C 
ATOM     17  C   UNL A   1      30.149  26.854  24.618  1.00  0.00    -0.027 A 
ATOM     18  C   UNL A   1      30.837  27.878  23.941  1.00  0.00     0.007 A 
ATOM     19  C   UNL A   1      32.023  28.402  24.453  1.00  0.00     0.021 A 
ATOM     20  C   UNL A   1      31.805  26.953  26.376  1.00  0.00     0.047 A 
ATOM     21  C   UNL A   1      32.478  27.967  25.691  1.00  0.00     0.043 A 
ATOM     22  Cl  UNL A   1      33.902  28.660  26.367  1.00  0.00    -0.084 Cl
ENDBRANCH  10  15
ENDBRANCH   7   9
BRANCH   7  23
ATOM     23  C   UNL A   1      31.701  23.711  23.304  1.00  0.00     0.420 C 
ATOM     24  F   UNL A   1      30.365  23.545  23.199  1.00  0.00    -0.168 F 
ATOM     25  F   UNL A   1      31.959  24.983  22.941  1.00  0.00    -0.168 F 
ATOM     26  F   UNL A   1      32.291  22.953  22.340  1.00  0.00    -0.168 F 
ENDBRANCH   7  23
ENDBRANCH   4   7
ENDBRANCH   2   3
ENDBRANCH   1   2
BRANCH   1  27
ATOM     27  C   UNL A   1      37.049  22.039  25.100  1.00  0.00     0.118 C 
BRANCH  27  28
ATOM     28  N   UNL A   1      37.877  20.860  25.345  1.00  0.00    -0.352 N 
ATOM     29  C   UNL A   1      39.117  20.804  25.937  1.00  0.00     0.251 C 
ATOM     30  H   UNL A   1      37.500  20.001  25.051  1.00  0.00     0.163 HD
ATOM     31  O   UNL A   1      39.759  19.759  25.952  1.00  0.00    -0.269 OA
BRANCH  29  32
ATOM     32  C   UNL A   1      39.666  22.039  26.523  1.00  0.00     0.039 A 
ATOM     33  C   UNL A   1      40.628  21.950  27.530  1.00  0.00     0.014 A 
ATOM     34  C   UNL A   1      39.298  23.274  25.985  1.00  0.00     0.014 A 
ATOM     35  C   UNL A   1      41.280  23.109  27.956  1.00  0.00     0.010 A 
ATOM     36  C   UNL A   1      40.008  24.409  26.350  1.00  0.00     0.010 A 
ATOM     37  C   UNL A   1      41.001  24.339  27.342  1.00  0.00    -0.014 A 
BRANCH  37  38
ATOM     38  C   UNL A   1      41.701  25.592  27.719  1.00  0.00     0.031 A 
ATOM     39  C   UNL A   1      40.946  26.641  28.488  1.00  0.00     0.074 A 
ATOM     40  C   UNL A   1      42.942  25.842  27.256  1.00  0.00     0.049 A 
ATOM     41  N   UNL A   1      41.277  27.879  28.742  1.00  0.00    -0.248 NA
ATOM     42  C   UNL A   1      39.616  26.258  28.997  1.00  0.00     0.031 C 
ATOM     43  C   UNL A   1      43.748  24.931  26.440  1.00  0.00     0.029 A 
ATOM     44  N   UNL A   1      43.728  26.963  27.372  1.00  0.00    -0.354 N 
ATOM     45  C   UNL A   1      40.174  28.439  29.375  1.00  0.00     0.074 A 
ATOM     46  C   UNL A   1      39.156  27.416  29.446  1.00  0.00     0.031 C 
ATOM     47  C   UNL A   1      44.906  25.531  26.121  1.00  0.00     0.029 A 
ATOM     48  C   UNL A   1      44.914  26.880  26.679  1.00  0.00     0.049 A 
ATOM     49  H   UNL A   1      43.467  27.751  27.901  1.00  0.00     0.167 HD
ATOM     50  C   UNL A   1      40.032  29.688  29.877  1.00  0.00     0.034 A 
ATOM     51  C   UNL A   1      45.888  27.795  26.500  1.00  0.00     0.034 A 
ATOM     52  C   UNL A   1      41.081  30.668  29.880  1.00  0.00     0.049 A 
ATOM     53  C   UNL A   1      45.740  29.147  27.148  1.00  0.00     0.074 A 
ATOM     54  C   UNL A   1      41.080  31.926  30.453  1.00  0.00     0.029 A 
ATOM     55  N   UNL A   1      42.325  30.491  29.295  1.00  0.00    -0.354 N 
ATOM     56  N   UNL A   1      44.746  29.614  27.864  1.00  0.00    -0.248 NA
ATOM     57  C   UNL A   1      46.862  30.087  26.998  1.00  0.00     0.031 C 
ATOM     58  C   UNL A   1      42.326  32.512  30.211  1.00  0.00     0.029 A 
ATOM     59  C   UNL A   1      43.105  31.613  29.502  1.00  0.00     0.049 A 
ATOM     60  H   UNL A   1      42.610  29.687  28.804  1.00  0.00     0.167 HD
ATOM     61  C   UNL A   1      45.139  30.878  28.287  1.00  0.00     0.074 A 
ATOM     62  C   UNL A   1      46.467  31.103  27.755  1.00  0.00     0.031 C 
ATOM     63  C   UNL A   1      44.458  31.777  29.038  1.00  0.00     0.034 A 
BRANCH  50  64
ATOM     64  C   UNL A   1      38.722  30.040  30.527  1.00  0.00     0.023 A 
ATOM     65  C   UNL A   1      38.478  29.644  31.858  1.00  0.00     0.012 A 
ATOM     66  C   UNL A   1      37.756  30.807  29.845  1.00  0.00     0.148 A 
ATOM     67  C   UNL A   1      37.281  29.976  32.489  1.00  0.00     0.002 A 
ATOM     68  C   UNL A   1      36.585  31.172  30.496  1.00  0.00     0.091 A 
ATOM     69  F   UNL A   1      37.996  31.154  28.572  1.00  0.00    -0.205 F 
ATOM     70  C   UNL A   1      36.340  30.748  31.814  1.00  0.00     0.022 A 
BRANCH  68  71
ATOM     71  S   UNL A   1      35.348  32.235  29.742  1.00  0.00     0.127 S 
ATOM     72  O   UNL A   1      36.153  33.390  29.348  1.00  0.00    -0.237 OA
ATOM     73  O   UNL A   1      34.873  31.414  28.628  1.00  0.00    -0.237 OA
ATOM     74  O   UNL A   1      34.354  32.488  30.776  1.00  0.00    -0.744 OA
ENDBRANCH  68  71
ENDBRANCH  50  64
BRANCH  51  75
ATOM     75  C   UNL A   1      47.121  27.441  25.742  1.00  0.00     0.023 A 
ATOM     76  C   UNL A   1      48.163  26.763  26.404  1.00  0.00     0.012 A 
ATOM     77  C   UNL A   1      47.264  27.743  24.373  1.00  0.00     0.148 A 
ATOM     78  C   UNL A   1      49.337  26.424  25.730  1.00  0.00     0.002 A 
ATOM     79  C   UNL A   1      48.415  27.356  23.694  1.00  0.00     0.091 A 
ATOM     80  F   UNL A   1      46.269  28.400  23.760  1.00  0.00    -0.205 F 
ATOM     81  C   UNL A   1      49.459  26.712  24.375  1.00  0.00     0.022 A 
BRANCH  79  82
ATOM     82  S   UNL A   1      48.601  27.573  21.920  1.00  0.00     0.127 S 
ATOM     83  O   UNL A   1      48.887  26.211  21.480  1.00  0.00    -0.237 OA
ATOM     84  O   UNL A   1      47.283  28.082  21.535  1.00  0.00    -0.237 OA
ATOM     85  O   UNL A   1      49.682  28.537  21.762  1.00  0.00    -0.744 OA
ENDBRANCH  79  82
ENDBRANCH  51  75
BRANCH  63  86
ATOM     86  C   UNL A   1      45.146  33.064  29.400  1.00  0.00     0.023 A 
ATOM     87  C   UNL A   1      45.952  33.127  30.553  1.00  0.00     0.012 A 
ATOM     88  C   UNL A   1      45.097  34.165  28.523  1.00  0.00     0.148 A 
ATOM     89  C   UNL A   1      46.690  34.276  30.835  1.00  0.00     0.002 A 
ATOM     90  C   UNL A   1      45.871  35.288  28.786  1.00  0.00     0.091 A 
ATOM     91  F   UNL A   1      44.309  34.085  27.441  1.00  0.00    -0.205 F 
ATOM     92  C   UNL A   1      46.662  35.348  29.945  1.00  0.00     0.022 A 
BRANCH  90  93
ATOM     93  S   UNL A   1      45.975  36.675  27.648  1.00  0.00     0.127 S 
ATOM     94  O   UNL A   1      46.461  36.025  26.432  1.00  0.00    -0.237 OA
ATOM     95  O   UNL A   1      44.585  37.128  27.585  1.00  0.00    -0.237 OA
ATOM     96  O   UNL A   1      46.894  37.627  28.256  1.00  0.00    -0.744 OA
ENDBRANCH  90  93
ENDBRANCH  63  86
ENDBRANCH  37  38
ENDBRANCH  29  32
ENDBRANCH  27  28
ENDBRANCH   1  27
TORSDOF 16
ENDMDL
