MODEL 1
REMARK VINA RESULT:     -13.0      0.000      0.000
REMARK SMILES C[C@@H](C(=O)NCCCNC(=O)c1ccc(-c2c3nc(c(-c4cccc(S(=O)(=O)[O-])c4F)c4ccc([nH]4)c(-c4cccc(S(=O)(=O)[O-])c4F)c4nc(c(-c5cccc(S(=O)(=O)[O-])c5F)c5ccc2[nH]5)C=C4)C=C3)cc1)c1ccc(C[C@H]2CCCC2=O)c(-c2ccccc2)c1
REMARK SMILES IDX 7 1 6 2 5 3 3 4 4 5 2 7 1 8 75 9 76 10 93 11 77 12 86 13
REMARK SMILES IDX 78 14 87 15 88 16 92 17 89 18 91 19 90 20 79 21 80 22 81 23
REMARK SMILES IDX 84 24 82 25 83 26 85 27 8 28 9 29 10 30 11 32 12 33 13 34
REMARK SMILES IDX 74 35 14 36 73 37 15 38 16 39 17 40 67 41 18 42 72 43 66 44
REMARK SMILES IDX 68 45 19 46 71 47 65 48 64 49 20 51 52 52 32 53 51 54 33 55
REMARK SMILES IDX 36 56 50 57 69 58 34 59 35 60 49 62 70 63 37 64 21 65 22 66
REMARK SMILES IDX 30 67 23 68 25 69 31 70 24 71 26 72 27 73 28 74 29 75 53 76
REMARK SMILES IDX 54 77 62 78 55 79 57 80 63 81 56 82 58 83 59 84 60 85 61 86
REMARK SMILES IDX 38 87 39 88 47 89 40 90 42 91 48 92 41 93 43 94 44 95 45 96
REMARK SMILES IDX 46 97
REMARK H PARENT 5 6 9 31 68 50 36 61
REMARK Flexibility Score: inf
ROOT
ATOM      1  C   UNL A   1      31.603  31.986  26.503  1.00  0.00     0.042 C 
ENDROOT
BRANCH   1   2
ATOM      2  C   UNL A   1      31.741  30.481  26.296  1.00  0.00     0.117 C 
BRANCH   2   3
ATOM      3  N   UNL A   1      31.218  30.070  25.009  1.00  0.00    -0.356 N 
ATOM      4  C   UNL A   1      31.793  29.330  24.018  1.00  0.00     0.227 C 
ATOM      5  O   UNL A   1      31.132  29.186  22.987  1.00  0.00    -0.274 OA
ATOM      6  H   UNL A   1      30.302  30.375  24.819  1.00  0.00     0.163 HD
BRANCH   4   7
ATOM      7  C   UNL A   1      33.170  28.676  24.237  1.00  0.00     0.105 C 
ATOM      8  C   UNL A   1      34.022  28.662  22.961  1.00  0.00     0.023 C 
BRANCH   7   9
ATOM      9  C   UNL A   1      33.024  27.266  24.806  1.00  0.00    -0.035 A 
ATOM     10  C   UNL A   1      31.916  26.914  25.579  1.00  0.00     0.005 A 
ATOM     11  C   UNL A   1      34.029  26.305  24.603  1.00  0.00     0.013 A 
ATOM     12  C   UNL A   1      31.812  25.640  26.126  1.00  0.00     0.004 A 
ATOM     13  C   UNL A   1      33.960  25.013  25.171  1.00  0.00    -0.015 A 
ATOM     14  C   UNL A   1      32.836  24.689  25.969  1.00  0.00    -0.039 A 
BRANCH  13  15
ATOM     15  C   UNL A   1      35.069  24.071  24.918  1.00  0.00    -0.018 A 
ATOM     16  C   UNL A   1      35.419  23.687  23.612  1.00  0.00     0.009 A 
ATOM     17  C   UNL A   1      35.809  23.528  25.983  1.00  0.00     0.009 A 
ATOM     18  C   UNL A   1      36.422  22.742  23.381  1.00  0.00     0.001 A 
ATOM     19  C   UNL A   1      36.826  22.598  25.752  1.00  0.00     0.001 A 
ATOM     20  C   UNL A   1      37.121  22.195  24.453  1.00  0.00     0.000 A 
ENDBRANCH  13  15
BRANCH  14  21
ATOM     21  C   UNL A   1      32.676  23.377  26.715  1.00  0.00     0.047 C 
BRANCH  21  22
ATOM     22  C   UNL A   1      31.963  22.236  25.977  1.00  0.00     0.060 C 
ATOM     23  C   UNL A   1      31.210  22.603  24.698  1.00  0.00     0.012 C 
ATOM     24  C   UNL A   1      32.910  21.165  25.489  1.00  0.00     0.136 C 
ATOM     25  C   UNL A   1      32.141  22.267  23.538  1.00  0.00     0.009 C 
ATOM     26  C   UNL A   1      32.943  21.054  23.989  1.00  0.00     0.076 C 
ATOM     27  O   UNL A   1      33.563  20.448  26.239  1.00  0.00    -0.299 OA
ENDBRANCH  21  22
ENDBRANCH  14  21
ENDBRANCH   7   9
ENDBRANCH   4   7
ENDBRANCH   2   3
ENDBRANCH   1   2
BRANCH   1  28
ATOM     28  C   UNL A   1      32.792  32.623  27.218  1.00  0.00     0.118 C 
BRANCH  28  29
ATOM     29  N   UNL A   1      32.525  33.994  27.631  1.00  0.00    -0.352 N 
ATOM     30  C   UNL A   1      33.063  34.716  28.665  1.00  0.00     0.251 C 
ATOM     31  H   UNL A   1      31.860  34.473  27.086  1.00  0.00     0.163 HD
ATOM     32  O   UNL A   1      32.559  35.796  28.977  1.00  0.00    -0.269 OA
BRANCH  30  33
ATOM     33  C   UNL A   1      34.232  34.201  29.408  1.00  0.00     0.039 A 
ATOM     34  C   UNL A   1      34.021  33.414  30.545  1.00  0.00     0.014 A 
ATOM     35  C   UNL A   1      35.531  34.507  28.999  1.00  0.00     0.014 A 
ATOM     36  C   UNL A   1      35.116  32.890  31.236  1.00  0.00     0.010 A 
ATOM     37  C   UNL A   1      36.616  33.915  29.637  1.00  0.00     0.010 A 
ATOM     38  C   UNL A   1      36.423  33.112  30.771  1.00  0.00    -0.014 A 
BRANCH  38  39
ATOM     39  C   UNL A   1      37.604  32.529  31.456  1.00  0.00     0.031 A 
ATOM     40  C   UNL A   1      38.349  31.383  30.826  1.00  0.00     0.074 A 
ATOM     41  C   UNL A   1      37.945  32.959  32.686  1.00  0.00     0.049 A 
ATOM     42  N   UNL A   1      39.337  30.674  31.308  1.00  0.00    -0.248 NA
ATOM     43  C   UNL A   1      37.905  30.956  29.489  1.00  0.00     0.031 C 
ATOM     44  C   UNL A   1      37.259  34.015  33.434  1.00  0.00     0.029 A 
ATOM     45  N   UNL A   1      38.933  32.537  33.540  1.00  0.00    -0.354 N 
ATOM     46  C   UNL A   1      39.601  29.695  30.359  1.00  0.00     0.074 A 
ATOM     47  C   UNL A   1      38.646  29.879  29.287  1.00  0.00     0.031 C 
ATOM     48  C   UNL A   1      37.845  34.156  34.633  1.00  0.00     0.029 A 
ATOM     49  C   UNL A   1      38.920  33.177  34.758  1.00  0.00     0.049 A 
ATOM     50  H   UNL A   1      39.589  31.842  33.304  1.00  0.00     0.167 HD
ATOM     51  C   UNL A   1      40.566  28.745  30.363  1.00  0.00     0.034 A 
ATOM     52  C   UNL A   1      39.676  32.986  35.856  1.00  0.00     0.034 A 
ATOM     53  C   UNL A   1      41.534  28.589  31.414  1.00  0.00     0.049 A 
ATOM     54  C   UNL A   1      40.760  31.943  35.829  1.00  0.00     0.074 A 
ATOM     55  C   UNL A   1      42.605  27.715  31.475  1.00  0.00     0.029 A 
ATOM     56  N   UNL A   1      41.542  29.313  32.596  1.00  0.00    -0.354 N 
ATOM     57  N   UNL A   1      41.089  31.122  34.861  1.00  0.00    -0.248 NA
ATOM     58  C   UNL A   1      41.599  31.824  37.029  1.00  0.00     0.031 C 
ATOM     59  C   UNL A   1      43.239  27.887  32.710  1.00  0.00     0.029 A 
ATOM     60  C   UNL A   1      42.590  28.899  33.400  1.00  0.00     0.049 A 
ATOM     61  H   UNL A   1      40.897  30.020  32.830  1.00  0.00     0.167 HD
ATOM     62  C   UNL A   1      42.197  30.417  35.319  1.00  0.00     0.074 A 
ATOM     63  C   UNL A   1      42.491  30.919  36.645  1.00  0.00     0.031 C 
ATOM     64  C   UNL A   1      42.903  29.440  34.698  1.00  0.00     0.034 A 
BRANCH  51  65
ATOM     65  C   UNL A   1      40.640  27.820  29.174  1.00  0.00     0.023 A 
ATOM     66  C   UNL A   1      39.822  26.672  29.127  1.00  0.00     0.012 A 
ATOM     67  C   UNL A   1      41.488  28.105  28.086  1.00  0.00     0.148 A 
ATOM     68  C   UNL A   1      39.885  25.796  28.044  1.00  0.00     0.002 A 
ATOM     69  C   UNL A   1      41.507  27.257  26.986  1.00  0.00     0.091 A 
ATOM     70  F   UNL A   1      42.273  29.190  28.154  1.00  0.00    -0.205 F 
ATOM     71  C   UNL A   1      40.719  26.094  26.970  1.00  0.00     0.022 A 
BRANCH  69  72
ATOM     72  S   UNL A   1      42.483  27.597  25.517  1.00  0.00     0.127 S 
ATOM     73  O   UNL A   1      41.903  28.861  25.065  1.00  0.00    -0.237 OA
ATOM     74  O   UNL A   1      43.835  27.709  26.065  1.00  0.00    -0.237 OA
ATOM     75  O   UNL A   1      42.281  26.462  24.629  1.00  0.00    -0.744 OA
ENDBRANCH  69  72
ENDBRANCH  51  65
BRANCH  52  76
ATOM     76  C   UNL A   1      39.466  33.843  37.057  1.00  0.00     0.023 A 
ATOM     77  C   UNL A   1      39.868  35.193  37.025  1.00  0.00     0.012 A 
ATOM     78  C   UNL A   1      38.836  33.341  38.213  1.00  0.00     0.148 A 
ATOM     79  C   UNL A   1      39.674  36.019  38.132  1.00  0.00     0.002 A 
ATOM     80  C   UNL A   1      38.594  34.184  39.291  1.00  0.00     0.091 A 
ATOM     81  F   UNL A   1      38.465  32.053  38.223  1.00  0.00    -0.205 F 
ATOM     82  C   UNL A   1      39.029  35.518  39.260  1.00  0.00     0.022 A 
BRANCH  80  83
ATOM     83  S   UNL A   1      37.654  33.667  40.731  1.00  0.00     0.127 S 
ATOM     84  O   UNL A   1      36.474  33.063  40.117  1.00  0.00    -0.237 OA
ATOM     85  O   UNL A   1      38.573  32.721  41.364  1.00  0.00    -0.237 OA
ATOM     86  O   UNL A   1      37.412  34.879  41.502  1.00  0.00    -0.744 OA
ENDBRANCH  80  83
ENDBRANCH  52  76
BRANCH  64  87
ATOM     87  C   UNL A   1      44.101  28.875  35.416  1.00  0.00     0.023 A 
ATOM     88  C   UNL A   1      45.365  29.478  35.269  1.00  0.00     0.012 A 
ATOM     89  C   UNL A   1      43.951  27.791  36.304  1.00  0.00     0.148 A 
ATOM     90  C   UNL A   1      46.468  28.992  35.971  1.00  0.00     0.002 A 
ATOM     91  C   UNL A   1      45.042  27.346  37.041  1.00  0.00     0.091 A 
ATOM     92  F   UNL A   1      42.743  27.219  36.415  1.00  0.00    -0.205 F 
ATOM     93  C   UNL A   1      46.303  27.936  36.866  1.00  0.00     0.022 A 
BRANCH  91  94
ATOM     94  S   UNL A   1      44.903  26.061  38.288  1.00  0.00     0.127 S 
ATOM     95  O   UNL A   1      44.042  26.701  39.281  1.00  0.00    -0.237 OA
ATOM     96  O   UNL A   1      44.269  24.974  37.541  1.00  0.00    -0.237 OA
ATOM     97  O   UNL A   1      46.260  25.779  38.732  1.00  0.00    -0.744 OA
ENDBRANCH  91  94
ENDBRANCH  64  87
ENDBRANCH  38  39
ENDBRANCH  30  33
ENDBRANCH  28  29
ENDBRANCH   1  28
TORSDOF 17
ENDMDL
MODEL 2
REMARK VINA RESULT:     -12.8      6.394     11.524
REMARK SMILES C[C@@H](C(=O)NCCCNC(=O)c1ccc(-c2c3nc(c(-c4cccc(S(=O)(=O)[O-])c4F)c4ccc([nH]4)c(-c4cccc(S(=O)(=O)[O-])c4F)c4nc(c(-c5cccc(S(=O)(=O)[O-])c5F)c5ccc2[nH]5)C=C4)C=C3)cc1)c1ccc(C[C@H]2CCCC2=O)c(-c2ccccc2)c1
REMARK SMILES IDX 7 1 6 2 5 3 3 4 4 5 2 7 1 8 75 9 76 10 93 11 77 12 86 13
REMARK SMILES IDX 78 14 87 15 88 16 92 17 89 18 91 19 90 20 79 21 80 22 81 23
REMARK SMILES IDX 84 24 82 25 83 26 85 27 8 28 9 29 10 30 11 32 12 33 13 34
REMARK SMILES IDX 74 35 14 36 73 37 15 38 16 39 17 40 67 41 18 42 72 43 66 44
REMARK SMILES IDX 68 45 19 46 71 47 65 48 64 49 20 51 52 52 32 53 51 54 33 55
REMARK SMILES IDX 36 56 50 57 69 58 34 59 35 60 49 62 70 63 37 64 21 65 22 66
REMARK SMILES IDX 30 67 23 68 25 69 31 70 24 71 26 72 27 73 28 74 29 75 53 76
REMARK SMILES IDX 54 77 62 78 55 79 57 80 63 81 56 82 58 83 59 84 60 85 61 86
REMARK SMILES IDX 38 87 39 88 47 89 40 90 42 91 48 92 41 93 43 94 44 95 45 96
REMARK SMILES IDX 46 97
REMARK H PARENT 5 6 9 31 68 50 36 61
REMARK Flexibility Score: inf
ROOT
ATOM      1  C   UNL A   1      37.813  19.282  25.202  1.00  0.00     0.042 C 
ENDROOT
BRANCH   1   2
ATOM      2  C   UNL A   1      36.740  20.198  24.622  1.00  0.00     0.117 C 
BRANCH   2   3
ATOM      3  N   UNL A   1      35.825  20.660  25.646  1.00  0.00    -0.356 N 
ATOM      4  C   UNL A   1      35.600  21.915  26.129  1.00  0.00     0.227 C 
ATOM      5  O   UNL A   1      34.797  22.009  27.059  1.00  0.00    -0.274 OA
ATOM      6  H   UNL A   1      35.276  19.954  26.059  1.00  0.00     0.163 HD
BRANCH   4   7
ATOM      7  C   UNL A   1      36.289  23.130  25.480  1.00  0.00     0.105 C 
ATOM      8  C   UNL A   1      37.067  23.975  26.498  1.00  0.00     0.023 C 
BRANCH   7   9
ATOM      9  C   UNL A   1      35.282  23.991  24.720  1.00  0.00    -0.035 A 
ATOM     10  C   UNL A   1      34.919  23.684  23.407  1.00  0.00     0.005 A 
ATOM     11  C   UNL A   1      34.734  25.142  25.313  1.00  0.00     0.013 A 
ATOM     12  C   UNL A   1      34.032  24.497  22.711  1.00  0.00     0.004 A 
ATOM     13  C   UNL A   1      33.852  25.999  24.616  1.00  0.00    -0.015 A 
ATOM     14  C   UNL A   1      33.518  25.676  23.278  1.00  0.00    -0.039 A 
BRANCH  13  15
ATOM     15  C   UNL A   1      33.336  27.196  25.311  1.00  0.00    -0.018 A 
ATOM     16  C   UNL A   1      32.680  27.095  26.550  1.00  0.00     0.009 A 
ATOM     17  C   UNL A   1      33.486  28.475  24.750  1.00  0.00     0.009 A 
ATOM     18  C   UNL A   1      32.131  28.221  27.171  1.00  0.00     0.001 A 
ATOM     19  C   UNL A   1      32.955  29.605  25.378  1.00  0.00     0.001 A 
ATOM     20  C   UNL A   1      32.265  29.474  26.580  1.00  0.00     0.000 A 
ENDBRANCH  13  15
BRANCH  14  21
ATOM     21  C   UNL A   1      32.661  26.554  22.383  1.00  0.00     0.047 C 
BRANCH  21  22
ATOM     22  C   UNL A   1      31.162  26.231  22.318  1.00  0.00     0.060 C 
ATOM     23  C   UNL A   1      30.644  25.151  23.269  1.00  0.00     0.012 C 
ATOM     24  C   UNL A   1      30.287  27.410  22.674  1.00  0.00     0.136 C 
ATOM     25  C   UNL A   1      30.051  25.880  24.468  1.00  0.00     0.009 C 
ATOM     26  C   UNL A   1      29.475  27.179  23.920  1.00  0.00     0.076 C 
ATOM     27  O   UNL A   1      30.230  28.435  22.004  1.00  0.00    -0.299 OA
ENDBRANCH  21  22
ENDBRANCH  14  21
ENDBRANCH   7   9
ENDBRANCH   4   7
ENDBRANCH   2   3
ENDBRANCH   1   2
BRANCH   1  28
ATOM     28  C   UNL A   1      39.022  20.025  25.764  1.00  0.00     0.118 C 
BRANCH  28  29
ATOM     29  N   UNL A   1      40.179  19.157  25.938  1.00  0.00    -0.352 N 
ATOM     30  C   UNL A   1      41.492  19.485  26.163  1.00  0.00     0.251 C 
ATOM     31  H   UNL A   1      39.991  18.193  25.886  1.00  0.00     0.163 HD
ATOM     32  O   UNL A   1      42.357  18.612  26.079  1.00  0.00    -0.269 OA
BRANCH  30  33
ATOM     33  C   UNL A   1      41.869  20.874  26.493  1.00  0.00     0.039 A 
ATOM     34  C   UNL A   1      42.203  21.193  27.813  1.00  0.00     0.014 A 
ATOM     35  C   UNL A   1      41.877  21.866  25.510  1.00  0.00     0.014 A 
ATOM     36  C   UNL A   1      42.598  22.494  28.133  1.00  0.00     0.010 A 
ATOM     37  C   UNL A   1      42.351  23.138  25.812  1.00  0.00     0.010 A 
ATOM     38  C   UNL A   1      42.703  23.471  27.129  1.00  0.00    -0.014 A 
BRANCH  38  39
ATOM     39  C   UNL A   1      43.165  24.850  27.428  1.00  0.00     0.031 A 
ATOM     40  C   UNL A   1      42.210  25.851  28.023  1.00  0.00     0.074 A 
ATOM     41  C   UNL A   1      44.408  25.232  27.076  1.00  0.00     0.049 A 
ATOM     42  N   UNL A   1      42.390  27.124  28.262  1.00  0.00    -0.248 NA
ATOM     43  C   UNL A   1      40.863  25.363  28.363  1.00  0.00     0.031 C 
ATOM     44  C   UNL A   1      45.405  24.376  26.430  1.00  0.00     0.029 A 
ATOM     45  N   UNL A   1      45.032  26.450  27.179  1.00  0.00    -0.354 N 
ATOM     46  C   UNL A   1      41.173  27.596  28.737  1.00  0.00     0.074 A 
ATOM     47  C   UNL A   1      40.251  26.481  28.719  1.00  0.00     0.031 C 
ATOM     48  C   UNL A   1      46.513  25.094  26.192  1.00  0.00     0.029 A 
ATOM     49  C   UNL A   1      46.295  26.469  26.631  1.00  0.00     0.049 A 
ATOM     50  H   UNL A   1      44.617  27.235  27.603  1.00  0.00     0.167 HD
ATOM     51  C   UNL A   1      40.855  28.839  29.174  1.00  0.00     0.034 A 
ATOM     52  C   UNL A   1      47.170  27.483  26.482  1.00  0.00     0.034 A 
ATOM     53  C   UNL A   1      41.784  29.935  29.221  1.00  0.00     0.049 A 
ATOM     54  C   UNL A   1      46.806  28.848  26.999  1.00  0.00     0.074 A 
ATOM     55  C   UNL A   1      41.588  31.208  29.725  1.00  0.00     0.029 A 
ATOM     56  N   UNL A   1      43.082  29.893  28.736  1.00  0.00    -0.354 N 
ATOM     57  N   UNL A   1      45.698  29.241  27.580  1.00  0.00    -0.248 NA
ATOM     58  C   UNL A   1      47.824  29.900  26.873  1.00  0.00     0.031 C 
ATOM     59  C   UNL A   1      42.756  31.947  29.512  1.00  0.00     0.029 A 
ATOM     60  C   UNL A   1      43.695  31.121  28.915  1.00  0.00     0.049 A 
ATOM     61  H   UNL A   1      43.506  29.105  28.323  1.00  0.00     0.167 HD
ATOM     62  C   UNL A   1      45.900  30.573  27.925  1.00  0.00     0.074 A 
ATOM     63  C   UNL A   1      47.242  30.914  27.500  1.00  0.00     0.031 C 
ATOM     64  C   UNL A   1      45.048  31.435  28.533  1.00  0.00     0.034 A 
BRANCH  51  65
ATOM     65  C   UNL A   1      39.448  29.066  29.665  1.00  0.00     0.023 A 
ATOM     66  C   UNL A   1      39.104  28.725  30.990  1.00  0.00     0.012 A 
ATOM     67  C   UNL A   1      38.475  29.651  28.831  1.00  0.00     0.148 A 
ATOM     68  C   UNL A   1      37.805  28.914  31.460  1.00  0.00     0.002 A 
ATOM     69  C   UNL A   1      37.197  29.885  29.322  1.00  0.00     0.091 A 
ATOM     70  F   UNL A   1      38.812  29.952  27.568  1.00  0.00    -0.205 F 
ATOM     71  C   UNL A   1      36.855  29.503  30.631  1.00  0.00     0.022 A 
BRANCH  69  72
ATOM     72  S   UNL A   1      35.927  30.715  28.361  1.00  0.00     0.127 S 
ATOM     73  O   UNL A   1      36.601  31.961  27.997  1.00  0.00    -0.237 OA
ATOM     74  O   UNL A   1      35.725  29.785  27.250  1.00  0.00    -0.237 OA
ATOM     75  O   UNL A   1      34.781  30.859  29.248  1.00  0.00    -0.744 OA
ENDBRANCH  69  72
ENDBRANCH  51  65
BRANCH  52  76
ATOM     76  C   UNL A   1      48.500  27.226  25.862  1.00  0.00     0.023 A 
ATOM     77  C   UNL A   1      49.547  26.713  26.652  1.00  0.00     0.012 A 
ATOM     78  C   UNL A   1      48.722  27.450  24.488  1.00  0.00     0.148 A 
ATOM     79  C   UNL A   1      50.799  26.455  26.093  1.00  0.00     0.002 A 
ATOM     80  C   UNL A   1      49.954  27.137  23.926  1.00  0.00     0.091 A 
ATOM     81  F   UNL A   1      47.713  27.943  23.756  1.00  0.00    -0.205 F 
ATOM     82  C   UNL A   1      51.000  26.657  24.730  1.00  0.00     0.022 A 
BRANCH  80  83
ATOM     83  S   UNL A   1      50.264  27.237  22.161  1.00  0.00     0.127 S 
ATOM     84  O   UNL A   1      50.066  28.661  21.902  1.00  0.00    -0.237 OA
ATOM     85  O   UNL A   1      51.652  26.782  22.075  1.00  0.00    -0.237 OA
ATOM     86  O   UNL A   1      49.298  26.344  21.537  1.00  0.00    -0.744 OA
ENDBRANCH  80  83
ENDBRANCH  52  76
BRANCH  64  87
ATOM     87  C   UNL A   1      45.550  32.824  28.831  1.00  0.00     0.023 A 
ATOM     88  C   UNL A   1      46.291  33.075  30.003  1.00  0.00     0.012 A 
ATOM     89  C   UNL A   1      45.353  33.865  27.901  1.00  0.00     0.148 A 
ATOM     90  C   UNL A   1      46.803  34.347  30.259  1.00  0.00     0.002 A 
ATOM     91  C   UNL A   1      45.912  35.116  28.138  1.00  0.00     0.091 A 
ATOM     92  F   UNL A   1      44.630  33.611  26.802  1.00  0.00    -0.205 F 
ATOM     93  C   UNL A   1      46.624  35.362  29.321  1.00  0.00     0.022 A 
BRANCH  91  94
ATOM     94  S   UNL A   1      45.820  36.453  26.941  1.00  0.00     0.127 S 
ATOM     95  O   UNL A   1      46.402  35.830  25.754  1.00  0.00    -0.237 OA
ATOM     96  O   UNL A   1      44.380  36.695  26.860  1.00  0.00    -0.237 OA
ATOM     97  O   UNL A   1      46.588  37.554  27.506  1.00  0.00    -0.744 OA
ENDBRANCH  91  94
ENDBRANCH  64  87
ENDBRANCH  38  39
ENDBRANCH  30  33
ENDBRANCH  28  29
ENDBRANCH   1  28
TORSDOF 17
ENDMDL
MODEL 3
REMARK VINA RESULT:     -12.7      5.889     11.912
REMARK SMILES C[C@@H](C(=O)NCCCNC(=O)c1ccc(-c2c3nc(c(-c4cccc(S(=O)(=O)[O-])c4F)c4ccc([nH]4)c(-c4cccc(S(=O)(=O)[O-])c4F)c4nc(c(-c5cccc(S(=O)(=O)[O-])c5F)c5ccc2[nH]5)C=C4)C=C3)cc1)c1ccc(C[C@H]2CCCC2=O)c(-c2ccccc2)c1
REMARK SMILES IDX 7 1 6 2 5 3 3 4 4 5 2 7 1 8 75 9 76 10 93 11 77 12 86 13
REMARK SMILES IDX 78 14 87 15 88 16 92 17 89 18 91 19 90 20 79 21 80 22 81 23
REMARK SMILES IDX 84 24 82 25 83 26 85 27 8 28 9 29 10 30 11 32 12 33 13 34
REMARK SMILES IDX 74 35 14 36 73 37 15 38 16 39 17 40 67 41 18 42 72 43 66 44
REMARK SMILES IDX 68 45 19 46 71 47 65 48 64 49 20 51 52 52 32 53 51 54 33 55
REMARK SMILES IDX 36 56 50 57 69 58 34 59 35 60 49 62 70 63 37 64 21 65 22 66
REMARK SMILES IDX 30 67 23 68 25 69 31 70 24 71 26 72 27 73 28 74 29 75 53 76
REMARK SMILES IDX 54 77 62 78 55 79 57 80 63 81 56 82 58 83 59 84 60 85 61 86
REMARK SMILES IDX 38 87 39 88 47 89 40 90 42 91 48 92 41 93 43 94 44 95 45 96
REMARK SMILES IDX 46 97
REMARK H PARENT 5 6 9 31 68 50 36 61
REMARK Flexibility Score: inf
ROOT
ATOM      1  C   UNL A   1      38.231  19.719  25.256  1.00  0.00     0.042 C 
ENDROOT
BRANCH   1   2
ATOM      2  C   UNL A   1      37.239  20.838  24.958  1.00  0.00     0.117 C 
BRANCH   2   3
ATOM      3  N   UNL A   1      35.873  20.353  24.958  1.00  0.00    -0.356 N 
ATOM      4  C   UNL A   1      34.765  20.832  25.593  1.00  0.00     0.227 C 
ATOM      5  O   UNL A   1      33.732  20.173  25.465  1.00  0.00    -0.274 OA
ATOM      6  H   UNL A   1      35.720  19.548  24.412  1.00  0.00     0.163 HD
BRANCH   4   7
ATOM      7  C   UNL A   1      34.831  22.161  26.370  1.00  0.00     0.105 C 
ATOM      8  C   UNL A   1      34.009  22.123  27.665  1.00  0.00     0.023 C 
BRANCH   7   9
ATOM      9  C   UNL A   1      34.401  23.332  25.489  1.00  0.00    -0.035 A 
ATOM     10  C   UNL A   1      34.500  23.262  24.099  1.00  0.00     0.005 A 
ATOM     11  C   UNL A   1      33.940  24.528  26.066  1.00  0.00     0.013 A 
ATOM     12  C   UNL A   1      34.144  24.349  23.309  1.00  0.00     0.004 A 
ATOM     13  C   UNL A   1      33.598  25.656  25.286  1.00  0.00    -0.015 A 
ATOM     14  C   UNL A   1      33.730  25.565  23.879  1.00  0.00    -0.039 A 
BRANCH  13  15
ATOM     15  C   UNL A   1      33.138  26.878  25.977  1.00  0.00    -0.018 A 
ATOM     16  C   UNL A   1      31.907  26.915  26.654  1.00  0.00     0.009 A 
ATOM     17  C   UNL A   1      33.921  28.045  25.975  1.00  0.00     0.009 A 
ATOM     18  C   UNL A   1      31.443  28.093  27.246  1.00  0.00     0.001 A 
ATOM     19  C   UNL A   1      33.466  29.219  26.582  1.00  0.00     0.001 A 
ATOM     20  C   UNL A   1      32.221  29.245  27.205  1.00  0.00     0.000 A 
ENDBRANCH  13  15
BRANCH  14  21
ATOM     21  C   UNL A   1      33.489  26.725  22.928  1.00  0.00     0.047 C 
BRANCH  21  22
ATOM     22  C   UNL A   1      32.101  26.821  22.282  1.00  0.00     0.060 C 
ATOM     23  C   UNL A   1      31.111  25.699  22.597  1.00  0.00     0.012 C 
ATOM     24  C   UNL A   1      31.333  28.050  22.710  1.00  0.00     0.136 C 
ATOM     25  C   UNL A   1      30.212  26.219  23.713  1.00  0.00     0.009 C 
ATOM     26  C   UNL A   1      30.081  27.718  23.476  1.00  0.00     0.076 C 
ATOM     27  O   UNL A   1      31.683  29.193  22.439  1.00  0.00    -0.299 OA
ENDBRANCH  21  22
ENDBRANCH  14  21
ENDBRANCH   7   9
ENDBRANCH   4   7
ENDBRANCH   2   3
ENDBRANCH   1   2
BRANCH   1  28
ATOM     28  C   UNL A   1      39.485  20.185  25.991  1.00  0.00     0.118 C 
BRANCH  28  29
ATOM     29  N   UNL A   1      40.539  19.179  25.989  1.00  0.00    -0.352 N 
ATOM     30  C   UNL A   1      41.900  19.338  26.041  1.00  0.00     0.251 C 
ATOM     31  H   UNL A   1      40.227  18.246  25.944  1.00  0.00     0.163 HD
ATOM     32  O   UNL A   1      42.632  18.371  25.823  1.00  0.00    -0.269 OA
BRANCH  30  33
ATOM     33  C   UNL A   1      42.487  20.660  26.344  1.00  0.00     0.039 A 
ATOM     34  C   UNL A   1      42.932  21.464  25.290  1.00  0.00     0.014 A 
ATOM     35  C   UNL A   1      42.616  21.099  27.663  1.00  0.00     0.014 A 
ATOM     36  C   UNL A   1      43.455  22.731  25.559  1.00  0.00     0.010 A 
ATOM     37  C   UNL A   1      43.057  22.392  27.922  1.00  0.00     0.010 A 
ATOM     38  C   UNL A   1      43.495  23.218  26.876  1.00  0.00    -0.014 A 
BRANCH  38  39
ATOM     39  C   UNL A   1      44.002  24.578  27.189  1.00  0.00     0.031 A 
ATOM     40  C   UNL A   1      43.058  25.631  27.706  1.00  0.00     0.074 A 
ATOM     41  C   UNL A   1      45.282  24.896  26.915  1.00  0.00     0.049 A 
ATOM     42  N   UNL A   1      43.283  26.898  27.941  1.00  0.00    -0.248 NA
ATOM     43  C   UNL A   1      41.670  25.212  27.962  1.00  0.00     0.031 C 
ATOM     44  C   UNL A   1      46.278  23.984  26.348  1.00  0.00     0.029 A 
ATOM     45  N   UNL A   1      45.956  26.085  27.045  1.00  0.00    -0.354 N 
ATOM     46  C   UNL A   1      42.061  27.434  28.327  1.00  0.00     0.074 A 
ATOM     47  C   UNL A   1      41.090  26.363  28.261  1.00  0.00     0.031 C 
ATOM     48  C   UNL A   1      47.432  24.646  26.176  1.00  0.00     0.029 A 
ATOM     49  C   UNL A   1      47.251  26.037  26.582  1.00  0.00     0.049 A 
ATOM     50  H   UNL A   1      45.551  26.894  27.431  1.00  0.00     0.167 HD
ATOM     51  C   UNL A   1      41.774  28.696  28.727  1.00  0.00     0.034 A 
ATOM     52  C   UNL A   1      48.181  27.006  26.480  1.00  0.00     0.034 A 
ATOM     53  C   UNL A   1      42.749  29.748  28.823  1.00  0.00     0.049 A 
ATOM     54  C   UNL A   1      47.849  28.395  26.955  1.00  0.00     0.074 A 
ATOM     55  C   UNL A   1      42.581  31.037  29.298  1.00  0.00     0.029 A 
ATOM     56  N   UNL A   1      44.073  29.639  28.426  1.00  0.00    -0.354 N 
ATOM     57  N   UNL A   1      46.725  28.847  27.455  1.00  0.00    -0.248 NA
ATOM     58  C   UNL A   1      48.923  29.396  26.884  1.00  0.00     0.031 C 
ATOM     59  C   UNL A   1      43.794  31.718  29.153  1.00  0.00     0.029 A 
ATOM     60  C   UNL A   1      44.731  30.839  28.631  1.00  0.00     0.049 A 
ATOM     61  H   UNL A   1      44.485  28.826  28.053  1.00  0.00     0.167 HD
ATOM     62  C   UNL A   1      46.968  30.174  27.797  1.00  0.00     0.074 A 
ATOM     63  C   UNL A   1      48.349  30.446  27.459  1.00  0.00     0.031 C 
ATOM     64  C   UNL A   1      46.119  31.084  28.336  1.00  0.00     0.034 A 
BRANCH  51  65
ATOM     65  C   UNL A   1      40.350  28.997  29.121  1.00  0.00     0.023 A 
ATOM     66  C   UNL A   1      39.402  29.323  28.128  1.00  0.00     0.012 A 
ATOM     67  C   UNL A   1      39.939  28.920  30.466  1.00  0.00     0.148 A 
ATOM     68  C   UNL A   1      38.083  29.619  28.472  1.00  0.00     0.002 A 
ATOM     69  C   UNL A   1      38.611  29.164  30.795  1.00  0.00     0.091 A 
ATOM     70  F   UNL A   1      40.855  28.627  31.399  1.00  0.00    -0.205 F 
ATOM     71  C   UNL A   1      37.686  29.529  29.803  1.00  0.00     0.022 A 
BRANCH  69  72
ATOM     72  S   UNL A   1      37.981  28.991  32.469  1.00  0.00     0.127 S 
ATOM     73  O   UNL A   1      36.572  29.338  32.290  1.00  0.00    -0.237 OA
ATOM     74  O   UNL A   1      38.229  27.575  32.745  1.00  0.00    -0.237 OA
ATOM     75  O   UNL A   1      38.754  29.913  33.287  1.00  0.00    -0.744 OA
ENDBRANCH  69  72
ENDBRANCH  51  65
BRANCH  52  76
ATOM     76  C   UNL A   1      49.536  26.678  25.953  1.00  0.00     0.023 A 
ATOM     77  C   UNL A   1      50.404  25.876  26.720  1.00  0.00     0.012 A 
ATOM     78  C   UNL A   1      49.953  27.121  24.682  1.00  0.00     0.148 A 
ATOM     79  C   UNL A   1      51.673  25.547  26.246  1.00  0.00     0.002 A 
ATOM     80  C   UNL A   1      51.197  26.742  24.191  1.00  0.00     0.091 A 
ATOM     81  F   UNL A   1      49.113  27.886  23.971  1.00  0.00    -0.205 F 
ATOM     82  C   UNL A   1      52.066  25.971  24.979  1.00  0.00     0.022 A 
BRANCH  80  83
ATOM     83  S   UNL A   1      51.735  27.127  22.522  1.00  0.00     0.127 S 
ATOM     84  O   UNL A   1      52.082  28.541  22.637  1.00  0.00    -0.237 OA
ATOM     85  O   UNL A   1      52.875  26.223  22.360  1.00  0.00    -0.237 OA
ATOM     86  O   UNL A   1      50.600  26.824  21.660  1.00  0.00    -0.744 OA
ENDBRANCH  80  83
ENDBRANCH  52  76
BRANCH  64  87
ATOM     87  C   UNL A   1      46.665  32.453  28.651  1.00  0.00     0.023 A 
ATOM     88  C   UNL A   1      47.233  32.718  29.912  1.00  0.00     0.012 A 
ATOM     89  C   UNL A   1      46.690  33.453  27.658  1.00  0.00     0.148 A 
ATOM     90  C   UNL A   1      47.787  33.967  30.192  1.00  0.00     0.002 A 
ATOM     91  C   UNL A   1      47.292  34.676  27.925  1.00  0.00     0.091 A 
ATOM     92  F   UNL A   1      46.129  33.187  26.469  1.00  0.00    -0.205 F 
ATOM     93  C   UNL A   1      47.828  34.940  29.195  1.00  0.00     0.022 A 
BRANCH  91  94
ATOM     94  S   UNL A   1      47.481  35.951  26.674  1.00  0.00     0.127 S 
ATOM     95  O   UNL A   1      48.178  35.225  25.613  1.00  0.00    -0.237 OA
ATOM     96  O   UNL A   1      46.091  36.292  26.369  1.00  0.00    -0.237 OA
ATOM     97  O   UNL A   1      48.243  37.022  27.299  1.00  0.00    -0.744 OA
ENDBRANCH  91  94
ENDBRANCH  64  87
ENDBRANCH  38  39
ENDBRANCH  30  33
ENDBRANCH  28  29
ENDBRANCH   1  28
TORSDOF 17
ENDMDL
