MODEL 1
REMARK VINA RESULT:     -11.4      0.000      0.000
REMARK SMILES CC[C@@H](C)S(=O)(=O)c1cc(C(=O)NCCCNC(=O)c2ccc(-c3c4nc(c(-c5cccc(S(=O)(=O)[O-])c5F)c5ccc([nH]5)c(-c5cccc(S(=O)(=O)[O-])c5F)c5nc(c(-c6cccc(S(=O)(=O)[O-])c6F)c6ccc3[nH]6)C=C5)C=C4)cc2)c(C)cc1C
REMARK SMILES IDX 15 1 14 2 13 3 11 4 12 5 10 7 8 8 9 9 86 10 85 11 87 12
REMARK SMILES IDX 83 13 84 14 5 15 6 16 7 17 3 18 4 19 2 20 1 21 16 22 17 23
REMARK SMILES IDX 18 24 19 26 20 27 21 28 82 29 22 30 81 31 23 32 24 33 25 34
REMARK SMILES IDX 75 35 26 36 80 37 74 38 76 39 27 40 79 41 73 42 72 43 28 45
REMARK SMILES IDX 60 46 40 47 59 48 41 49 44 50 58 51 77 52 42 53 43 54 57 56
REMARK SMILES IDX 78 57 45 58 29 59 30 60 38 61 31 62 33 63 39 64 32 65 34 66
REMARK SMILES IDX 35 67 36 68 37 69 61 70 62 71 70 72 63 73 65 74 71 75 64 76
REMARK SMILES IDX 66 77 67 78 68 79 69 80 46 81 47 82 55 83 48 84 50 85 56 86
REMARK SMILES IDX 49 87 51 88 52 89 53 90 54 91
REMARK H PARENT 13 6 17 25 76 44 44 55
REMARK Flexibility Score: inf
ROOT
ATOM      1  C   UNL A   1      31.645  28.927  26.120  1.00  0.00     0.042 C 
ENDROOT
BRANCH   1   2
ATOM      2  C   UNL A   1      32.103  27.717  26.940  1.00  0.00     0.118 C 
BRANCH   2   3
ATOM      3  N   UNL A   1      31.066  26.701  26.963  1.00  0.00    -0.352 N 
ATOM      4  C   UNL A   1      30.462  25.927  26.003  1.00  0.00     0.251 C 
ATOM      5  O   UNL A   1      29.563  25.179  26.395  1.00  0.00    -0.269 OA
ATOM      6  H   UNL A   1      30.717  26.529  27.868  1.00  0.00     0.163 HD
BRANCH   4   7
ATOM      7  C   UNL A   1      30.882  25.835  24.568  1.00  0.00     0.044 A 
ATOM      8  C   UNL A   1      32.272  24.527  22.994  1.00  0.00     0.071 A 
ATOM      9  C   UNL A   1      31.777  24.777  24.289  1.00  0.00     0.034 A 
ATOM     10  C   UNL A   1      32.004  25.440  21.971  1.00  0.00    -0.032 A 
ATOM     11  C   UNL A   1      31.040  26.428  22.227  1.00  0.00     0.009 A 
ATOM     12  C   UNL A   1      32.617  25.463  20.603  1.00  0.00     0.046 C 
ATOM     13  C   UNL A   1      30.405  26.572  23.478  1.00  0.00    -0.038 A 
ATOM     14  C   UNL A   1      29.193  27.450  23.491  1.00  0.00     0.045 C 
BRANCH   8  15
ATOM     15  S   UNL A   1      33.196  23.008  22.749  1.00  0.00     0.181 S 
ATOM     16  O   UNL A   1      34.568  23.389  22.452  1.00  0.00    -0.223 OA
ATOM     17  O   UNL A   1      32.474  22.217  21.771  1.00  0.00    -0.223 OA
BRANCH  15  18
ATOM     18  C   UNL A   1      33.254  22.125  24.326  1.00  0.00     0.110 C 
ATOM     19  C   UNL A   1      34.630  21.557  24.658  1.00  0.00     0.025 C 
BRANCH  18  20
ATOM     20  C   UNL A   1      32.125  21.090  24.468  1.00  0.00     0.016 C 
ATOM     21  C   UNL A   1      32.549  19.668  24.110  1.00  0.00     0.005 C 
ENDBRANCH  18  20
ENDBRANCH  15  18
ENDBRANCH   8  15
ENDBRANCH   4   7
ENDBRANCH   2   3
ENDBRANCH   1   2
BRANCH   1  22
ATOM     22  C   UNL A   1      32.775  29.830  25.638  1.00  0.00     0.118 C 
BRANCH  22  23
ATOM     23  N   UNL A   1      32.567  31.215  26.030  1.00  0.00    -0.352 N 
ATOM     24  C   UNL A   1      33.152  31.952  27.034  1.00  0.00     0.251 C 
ATOM     25  H   UNL A   1      31.901  31.703  25.493  1.00  0.00     0.163 HD
ATOM     26  O   UNL A   1      32.652  33.035  27.336  1.00  0.00    -0.269 OA
BRANCH  24  27
ATOM     27  C   UNL A   1      34.359  31.474  27.760  1.00  0.00     0.039 A 
ATOM     28  C   UNL A   1      34.360  30.171  28.274  1.00  0.00     0.014 A 
ATOM     29  C   UNL A   1      35.454  32.304  28.011  1.00  0.00     0.014 A 
ATOM     30  C   UNL A   1      35.464  29.694  28.990  1.00  0.00     0.010 A 
ATOM     31  C   UNL A   1      36.587  31.803  28.654  1.00  0.00     0.010 A 
ATOM     32  C   UNL A   1      36.600  30.498  29.170  1.00  0.00    -0.014 A 
BRANCH  32  33
ATOM     33  C   UNL A   1      37.794  30.008  29.911  1.00  0.00     0.031 A 
ATOM     34  C   UNL A   1      38.077  30.496  31.310  1.00  0.00     0.074 A 
ATOM     35  C   UNL A   1      38.674  29.187  29.302  1.00  0.00     0.049 A 
ATOM     36  N   UNL A   1      39.097  30.234  32.086  1.00  0.00    -0.248 NA
ATOM     37  C   UNL A   1      37.099  31.422  31.905  1.00  0.00     0.031 C 
ATOM     38  C   UNL A   1      38.564  28.704  27.924  1.00  0.00     0.029 A 
ATOM     39  N   UNL A   1      39.851  28.640  29.751  1.00  0.00    -0.354 N 
ATOM     40  C   UNL A   1      38.909  30.995  33.235  1.00  0.00     0.074 A 
ATOM     41  C   UNL A   1      37.690  31.751  33.044  1.00  0.00     0.031 C 
ATOM     42  C   UNL A   1      39.627  27.934  27.641  1.00  0.00     0.029 A 
ATOM     43  C   UNL A   1      40.507  27.886  28.805  1.00  0.00     0.049 A 
ATOM     44  H   UNL A   1      40.193  28.774  30.665  1.00  0.00     0.167 HD
ATOM     45  C   UNL A   1      39.662  31.039  34.361  1.00  0.00     0.034 A 
ATOM     46  C   UNL A   1      41.685  27.234  28.865  1.00  0.00     0.034 A 
ATOM     47  C   UNL A   1      40.835  30.238  34.579  1.00  0.00     0.049 A 
ATOM     48  C   UNL A   1      42.466  27.241  30.152  1.00  0.00     0.074 A 
ATOM     49  C   UNL A   1      41.604  30.134  35.724  1.00  0.00     0.029 A 
ATOM     50  N   UNL A   1      41.409  29.401  33.635  1.00  0.00    -0.354 N 
ATOM     51  N   UNL A   1      42.181  27.836  31.284  1.00  0.00    -0.248 NA
ATOM     52  C   UNL A   1      43.710  26.457  30.183  1.00  0.00     0.031 C 
ATOM     53  C   UNL A   1      42.651  29.240  35.468  1.00  0.00     0.029 A 
ATOM     54  C   UNL A   1      42.524  28.780  34.168  1.00  0.00     0.049 A 
ATOM     55  H   UNL A   1      41.071  29.269  32.719  1.00  0.00     0.167 HD
ATOM     56  C   UNL A   1      43.189  27.473  32.171  1.00  0.00     0.074 A 
ATOM     57  C   UNL A   1      44.080  26.589  31.450  1.00  0.00     0.031 C 
ATOM     58  C   UNL A   1      43.370  27.854  33.459  1.00  0.00     0.034 A 
BRANCH  45  59
ATOM     59  C   UNL A   1      39.200  31.939  35.478  1.00  0.00     0.023 A 
ATOM     60  C   UNL A   1      38.274  31.450  36.423  1.00  0.00     0.012 A 
ATOM     61  C   UNL A   1      39.719  33.240  35.630  1.00  0.00     0.148 A 
ATOM     62  C   UNL A   1      37.849  32.249  37.482  1.00  0.00     0.002 A 
ATOM     63  C   UNL A   1      39.321  34.017  36.713  1.00  0.00     0.091 A 
ATOM     64  F   UNL A   1      40.581  33.696  34.711  1.00  0.00    -0.205 F 
ATOM     65  C   UNL A   1      38.378  33.528  37.632  1.00  0.00     0.022 A 
BRANCH  63  66
ATOM     66  S   UNL A   1      40.004  35.647  37.036  1.00  0.00     0.127 S 
ATOM     67  O   UNL A   1      41.434  35.355  37.126  1.00  0.00    -0.237 OA
ATOM     68  O   UNL A   1      39.609  36.392  35.839  1.00  0.00    -0.237 OA
ATOM     69  O   UNL A   1      39.377  36.106  38.267  1.00  0.00    -0.744 OA
ENDBRANCH  63  66
ENDBRANCH  45  59
BRANCH  46  70
ATOM     70  C   UNL A   1      42.155  26.447  27.688  1.00  0.00     0.023 A 
ATOM     71  C   UNL A   1      42.967  27.073  26.722  1.00  0.00     0.012 A 
ATOM     72  C   UNL A   1      41.844  25.081  27.542  1.00  0.00     0.148 A 
ATOM     73  C   UNL A   1      43.438  26.361  25.618  1.00  0.00     0.002 A 
ATOM     74  C   UNL A   1      42.361  24.364  26.469  1.00  0.00     0.091 A 
ATOM     75  F   UNL A   1      41.057  24.507  28.463  1.00  0.00    -0.205 F 
ATOM     76  C   UNL A   1      43.147  25.006  25.498  1.00  0.00     0.022 A 
BRANCH  74  77
ATOM     77  S   UNL A   1      42.151  22.587  26.313  1.00  0.00     0.127 S 
ATOM     78  O   UNL A   1      40.707  22.470  26.125  1.00  0.00    -0.237 OA
ATOM     79  O   UNL A   1      42.954  22.286  25.126  1.00  0.00    -0.237 OA
ATOM     80  O   UNL A   1      42.680  22.022  27.548  1.00  0.00    -0.744 OA
ENDBRANCH  74  77
ENDBRANCH  46  70
BRANCH  58  81
ATOM     81  C   UNL A   1      44.562  27.299  34.194  1.00  0.00     0.023 A 
ATOM     82  C   UNL A   1      45.746  28.058  34.271  1.00  0.00     0.012 A 
ATOM     83  C   UNL A   1      44.482  26.069  34.875  1.00  0.00     0.148 A 
ATOM     84  C   UNL A   1      46.842  27.588  34.993  1.00  0.00     0.002 A 
ATOM     85  C   UNL A   1      45.563  25.627  35.629  1.00  0.00     0.091 A 
ATOM     86  F   UNL A   1      43.353  25.351  34.771  1.00  0.00    -0.205 F 
ATOM     87  C   UNL A   1      46.747  26.380  35.682  1.00  0.00     0.022 A 
BRANCH  85  88
ATOM     88  S   UNL A   1      45.492  24.130  36.620  1.00  0.00     0.127 S 
ATOM     89  O   UNL A   1      46.905  23.894  36.907  1.00  0.00    -0.237 OA
ATOM     90  O   UNL A   1      44.697  24.553  37.773  1.00  0.00    -0.237 OA
ATOM     91  O   UNL A   1      44.846  23.129  35.780  1.00  0.00    -0.744 OA
ENDBRANCH  85  88
ENDBRANCH  58  81
ENDBRANCH  32  33
ENDBRANCH  24  27
ENDBRANCH  22  23
ENDBRANCH   1  22
TORSDOF 16
ENDMDL
MODEL 2
REMARK VINA RESULT:     -11.4      2.143      2.814
REMARK SMILES CC[C@@H](C)S(=O)(=O)c1cc(C(=O)NCCCNC(=O)c2ccc(-c3c4nc(c(-c5cccc(S(=O)(=O)[O-])c5F)c5ccc([nH]5)c(-c5cccc(S(=O)(=O)[O-])c5F)c5nc(c(-c6cccc(S(=O)(=O)[O-])c6F)c6ccc3[nH]6)C=C5)C=C4)cc2)c(C)cc1C
REMARK SMILES IDX 15 1 14 2 13 3 11 4 12 5 10 7 8 8 9 9 86 10 85 11 87 12
REMARK SMILES IDX 83 13 84 14 5 15 6 16 7 17 3 18 4 19 2 20 1 21 16 22 17 23
REMARK SMILES IDX 18 24 19 26 20 27 21 28 82 29 22 30 81 31 23 32 24 33 25 34
REMARK SMILES IDX 75 35 26 36 80 37 74 38 76 39 27 40 79 41 73 42 72 43 28 45
REMARK SMILES IDX 60 46 40 47 59 48 41 49 44 50 58 51 77 52 42 53 43 54 57 56
REMARK SMILES IDX 78 57 45 58 29 59 30 60 38 61 31 62 33 63 39 64 32 65 34 66
REMARK SMILES IDX 35 67 36 68 37 69 61 70 62 71 70 72 63 73 65 74 71 75 64 76
REMARK SMILES IDX 66 77 67 78 68 79 69 80 46 81 47 82 55 83 48 84 50 85 56 86
REMARK SMILES IDX 49 87 51 88 52 89 53 90 54 91
REMARK H PARENT 13 6 17 25 76 44 44 55
REMARK Flexibility Score: inf
ROOT
ATOM      1  C   UNL A   1      31.560  32.181  26.816  1.00  0.00     0.042 C 
ENDROOT
BRANCH   1   2
ATOM      2  C   UNL A   1      31.729  30.686  26.530  1.00  0.00     0.118 C 
BRANCH   2   3
ATOM      3  N   UNL A   1      31.097  30.338  25.270  1.00  0.00    -0.352 N 
ATOM      4  C   UNL A   1      31.239  29.302  24.381  1.00  0.00     0.251 C 
ATOM      5  O   UNL A   1      30.543  29.359  23.364  1.00  0.00    -0.269 OA
ATOM      6  H   UNL A   1      30.415  30.991  24.990  1.00  0.00     0.163 HD
BRANCH   4   7
ATOM      7  C   UNL A   1      32.069  28.074  24.600  1.00  0.00     0.044 A 
ATOM      8  C   UNL A   1      32.028  25.812  25.602  1.00  0.00     0.071 A 
ATOM      9  C   UNL A   1      31.410  27.045  25.312  1.00  0.00     0.034 A 
ATOM     10  C   UNL A   1      33.387  25.646  25.325  1.00  0.00    -0.032 A 
ATOM     11  C   UNL A   1      34.007  26.626  24.533  1.00  0.00     0.009 A 
ATOM     12  C   UNL A   1      34.260  24.507  25.758  1.00  0.00     0.046 C 
ATOM     13  C   UNL A   1      33.338  27.784  24.086  1.00  0.00    -0.038 A 
ATOM     14  C   UNL A   1      34.031  28.555  23.006  1.00  0.00     0.045 C 
BRANCH   8  15
ATOM     15  S   UNL A   1      30.992  24.518  26.288  1.00  0.00     0.181 S 
ATOM     16  O   UNL A   1      29.660  25.081  26.449  1.00  0.00    -0.223 OA
ATOM     17  O   UNL A   1      31.667  24.002  27.463  1.00  0.00    -0.223 OA
BRANCH  15  18
ATOM     18  C   UNL A   1      30.834  23.210  25.050  1.00  0.00     0.110 C 
ATOM     19  C   UNL A   1      31.687  21.981  25.347  1.00  0.00     0.025 C 
BRANCH  18  20
ATOM     20  C   UNL A   1      31.007  23.729  23.612  1.00  0.00     0.016 C 
ATOM     21  C   UNL A   1      32.177  23.093  22.868  1.00  0.00     0.005 C 
ENDBRANCH  18  20
ENDBRANCH  15  18
ENDBRANCH   8  15
ENDBRANCH   4   7
ENDBRANCH   2   3
ENDBRANCH   1   2
BRANCH   1  22
ATOM     22  C   UNL A   1      32.866  32.967  26.872  1.00  0.00     0.118 C 
BRANCH  22  23
ATOM     23  N   UNL A   1      32.732  34.186  27.654  1.00  0.00    -0.352 N 
ATOM     24  C   UNL A   1      33.357  34.569  28.818  1.00  0.00     0.251 C 
ATOM     25  H   UNL A   1      32.092  34.841  27.293  1.00  0.00     0.163 HD
ATOM     26  O   UNL A   1      32.915  35.539  29.430  1.00  0.00    -0.269 OA
BRANCH  24  27
ATOM     27  C   UNL A   1      34.538  33.840  29.353  1.00  0.00     0.039 A 
ATOM     28  C   UNL A   1      34.324  32.719  30.165  1.00  0.00     0.014 A 
ATOM     29  C   UNL A   1      35.846  34.280  29.134  1.00  0.00     0.014 A 
ATOM     30  C   UNL A   1      35.409  32.024  30.713  1.00  0.00     0.010 A 
ATOM     31  C   UNL A   1      36.929  33.541  29.613  1.00  0.00     0.010 A 
ATOM     32  C   UNL A   1      36.725  32.416  30.425  1.00  0.00    -0.014 A 
BRANCH  32  33
ATOM     33  C   UNL A   1      37.896  31.682  30.979  1.00  0.00     0.031 A 
ATOM     34  C   UNL A   1      38.448  32.041  32.336  1.00  0.00     0.074 A 
ATOM     35  C   UNL A   1      38.520  30.748  30.233  1.00  0.00     0.049 A 
ATOM     36  N   UNL A   1      39.497  31.562  32.956  1.00  0.00    -0.248 NA
ATOM     37  C   UNL A   1      37.746  33.098  33.085  1.00  0.00     0.031 C 
ATOM     38  C   UNL A   1      38.140  30.361  28.874  1.00  0.00     0.029 A 
ATOM     39  N   UNL A   1      39.624  29.976  30.500  1.00  0.00    -0.354 N 
ATOM     40  C   UNL A   1      39.607  32.287  34.138  1.00  0.00     0.074 A 
ATOM     41  C   UNL A   1      38.535  33.258  34.137  1.00  0.00     0.031 C 
ATOM     42  C   UNL A   1      38.996  29.428  28.426  1.00  0.00     0.029 A 
ATOM     43  C   UNL A   1      39.999  29.164  29.454  1.00  0.00     0.049 A 
ATOM     44  H   UNL A   1      40.104  30.002  31.360  1.00  0.00     0.167 HD
ATOM     45  C   UNL A   1      40.498  32.139  35.148  1.00  0.00     0.034 A 
ATOM     46  C   UNL A   1      41.033  28.309  29.332  1.00  0.00     0.034 A 
ATOM     47  C   UNL A   1      41.522  31.130  35.180  1.00  0.00     0.049 A 
ATOM     48  C   UNL A   1      41.965  28.112  30.497  1.00  0.00     0.074 A 
ATOM     49  C   UNL A   1      42.404  30.833  36.204  1.00  0.00     0.029 A 
ATOM     50  N   UNL A   1      41.800  30.252  34.145  1.00  0.00    -0.354 N 
ATOM     51  N   UNL A   1      41.949  28.692  31.672  1.00  0.00    -0.248 NA
ATOM     52  C   UNL A   1      43.036  27.116  30.335  1.00  0.00     0.031 C 
ATOM     53  C   UNL A   1      43.223  29.779  35.782  1.00  0.00     0.029 A 
ATOM     54  C   UNL A   1      42.842  29.414  34.501  1.00  0.00     0.049 A 
ATOM     55  H   UNL A   1      41.325  30.228  33.282  1.00  0.00     0.167 HD
ATOM     56  C   UNL A   1      42.981  28.110  32.400  1.00  0.00     0.074 A 
ATOM     57  C   UNL A   1      43.589  27.116  31.540  1.00  0.00     0.031 C 
ATOM     58  C   UNL A   1      43.399  28.388  33.659  1.00  0.00     0.034 A 
BRANCH  45  59
ATOM     59  C   UNL A   1      40.364  33.051  36.340  1.00  0.00     0.023 A 
ATOM     60  C   UNL A   1      41.058  34.278  36.355  1.00  0.00     0.012 A 
ATOM     61  C   UNL A   1      39.511  32.728  37.414  1.00  0.00     0.148 A 
ATOM     62  C   UNL A   1      40.933  35.154  37.431  1.00  0.00     0.002 A 
ATOM     63  C   UNL A   1      39.358  33.626  38.465  1.00  0.00     0.091 A 
ATOM     64  F   UNL A   1      38.875  31.548  37.394  1.00  0.00    -0.205 F 
ATOM     65  C   UNL A   1      40.077  34.833  38.482  1.00  0.00     0.022 A 
BRANCH  63  66
ATOM     66  S   UNL A   1      38.221  33.338  39.826  1.00  0.00     0.127 S 
ATOM     67  O   UNL A   1      38.831  32.182  40.481  1.00  0.00    -0.237 OA
ATOM     68  O   UNL A   1      38.318  34.588  40.582  1.00  0.00    -0.237 OA
ATOM     69  O   UNL A   1      36.920  33.100  39.216  1.00  0.00    -0.744 OA
ENDBRANCH  63  66
ENDBRANCH  45  59
BRANCH  46  70
ATOM     70  C   UNL A   1      41.188  27.510  28.083  1.00  0.00     0.023 A 
ATOM     71  C   UNL A   1      41.759  28.114  26.946  1.00  0.00     0.012 A 
ATOM     72  C   UNL A   1      40.818  26.152  28.024  1.00  0.00     0.148 A 
ATOM     73  C   UNL A   1      41.935  27.390  25.766  1.00  0.00     0.002 A 
ATOM     74  C   UNL A   1      41.046  25.421  26.864  1.00  0.00     0.091 A 
ATOM     75  F   UNL A   1      40.261  25.598  29.111  1.00  0.00    -0.205 F 
ATOM     76  C   UNL A   1      41.591  26.042  25.729  1.00  0.00     0.022 A 
BRANCH  74  77
ATOM     77  S   UNL A   1      40.762  23.649  26.775  1.00  0.00     0.127 S 
ATOM     78  O   UNL A   1      41.140  23.216  28.118  1.00  0.00    -0.237 OA
ATOM     79  O   UNL A   1      39.328  23.583  26.486  1.00  0.00    -0.237 OA
ATOM     80  O   UNL A   1      41.610  23.173  25.689  1.00  0.00    -0.744 OA
ENDBRANCH  74  77
ENDBRANCH  46  70
BRANCH  58  81
ATOM     81  C   UNL A   1      44.555  27.591  34.206  1.00  0.00     0.023 A 
ATOM     82  C   UNL A   1      45.871  28.062  34.025  1.00  0.00     0.012 A 
ATOM     83  C   UNL A   1      44.334  26.427  34.967  1.00  0.00     0.148 A 
ATOM     84  C   UNL A   1      46.951  27.371  34.571  1.00  0.00     0.002 A 
ATOM     85  C   UNL A   1      45.412  25.767  35.545  1.00  0.00     0.091 A 
ATOM     86  F   UNL A   1      43.077  25.983  35.109  1.00  0.00    -0.205 F 
ATOM     87  C   UNL A   1      46.722  26.232  35.341  1.00  0.00     0.022 A 
BRANCH  85  88
ATOM     88  S   UNL A   1      45.200  24.347  36.625  1.00  0.00     0.127 S 
ATOM     89  O   UNL A   1      44.297  24.878  37.643  1.00  0.00    -0.237 OA
ATOM     90  O   UNL A   1      44.597  23.359  35.730  1.00  0.00    -0.237 OA
ATOM     91  O   UNL A   1      46.536  23.999  37.090  1.00  0.00    -0.744 OA
ENDBRANCH  85  88
ENDBRANCH  58  81
ENDBRANCH  32  33
ENDBRANCH  24  27
ENDBRANCH  22  23
ENDBRANCH   1  22
TORSDOF 16
ENDMDL
MODEL 3
REMARK VINA RESULT:     -11.4      2.903      3.882
REMARK SMILES CC[C@@H](C)S(=O)(=O)c1cc(C(=O)NCCCNC(=O)c2ccc(-c3c4nc(c(-c5cccc(S(=O)(=O)[O-])c5F)c5ccc([nH]5)c(-c5cccc(S(=O)(=O)[O-])c5F)c5nc(c(-c6cccc(S(=O)(=O)[O-])c6F)c6ccc3[nH]6)C=C5)C=C4)cc2)c(C)cc1C
REMARK SMILES IDX 15 1 14 2 13 3 11 4 12 5 10 7 8 8 9 9 86 10 85 11 87 12
REMARK SMILES IDX 83 13 84 14 5 15 6 16 7 17 3 18 4 19 2 20 1 21 16 22 17 23
REMARK SMILES IDX 18 24 19 26 20 27 21 28 82 29 22 30 81 31 23 32 24 33 25 34
REMARK SMILES IDX 75 35 26 36 80 37 74 38 76 39 27 40 79 41 73 42 72 43 28 45
REMARK SMILES IDX 60 46 40 47 59 48 41 49 44 50 58 51 77 52 42 53 43 54 57 56
REMARK SMILES IDX 78 57 45 58 29 59 30 60 38 61 31 62 33 63 39 64 32 65 34 66
REMARK SMILES IDX 35 67 36 68 37 69 61 70 62 71 70 72 63 73 65 74 71 75 64 76
REMARK SMILES IDX 66 77 67 78 68 79 69 80 46 81 47 82 55 83 48 84 50 85 56 86
REMARK SMILES IDX 49 87 51 88 52 89 53 90 54 91
REMARK H PARENT 13 6 17 25 76 44 44 55
REMARK Flexibility Score: inf
ROOT
ATOM      1  C   UNL A   1      33.416  27.780  25.797  1.00  0.00     0.042 C 
ENDROOT
BRANCH   1   2
ATOM      2  C   UNL A   1      32.316  27.511  24.765  1.00  0.00     0.118 C 
BRANCH   2   3
ATOM      3  N   UNL A   1      32.896  27.314  23.448  1.00  0.00    -0.352 N 
ATOM      4  C   UNL A   1      33.258  26.211  22.716  1.00  0.00     0.251 C 
ATOM      5  O   UNL A   1      33.775  26.433  21.619  1.00  0.00    -0.269 OA
ATOM      6  H   UNL A   1      33.069  28.161  22.975  1.00  0.00     0.163 HD
BRANCH   4   7
ATOM      7  C   UNL A   1      32.972  24.788  23.086  1.00  0.00     0.044 A 
ATOM      8  C   UNL A   1      34.041  22.686  23.837  1.00  0.00     0.071 A 
ATOM      9  C   UNL A   1      34.115  24.039  23.448  1.00  0.00     0.034 A 
ATOM     10  C   UNL A   1      32.828  22.004  23.711  1.00  0.00    -0.032 A 
ATOM     11  C   UNL A   1      31.682  22.772  23.448  1.00  0.00     0.009 A 
ATOM     12  C   UNL A   1      32.607  20.529  23.860  1.00  0.00     0.046 C 
ATOM     13  C   UNL A   1      31.727  24.165  23.234  1.00  0.00    -0.038 A 
ATOM     14  C   UNL A   1      30.408  24.871  23.284  1.00  0.00     0.045 C 
BRANCH   8  15
ATOM     15  S   UNL A   1      35.531  21.943  24.505  1.00  0.00     0.181 S 
ATOM     16  O   UNL A   1      36.631  22.350  23.645  1.00  0.00    -0.223 OA
ATOM     17  O   UNL A   1      35.271  20.526  24.666  1.00  0.00    -0.223 OA
BRANCH  15  18
ATOM     18  C   UNL A   1      35.856  22.691  26.119  1.00  0.00     0.110 C 
ATOM     19  C   UNL A   1      34.591  23.055  26.890  1.00  0.00     0.025 C 
BRANCH  18  20
ATOM     20  C   UNL A   1      36.869  23.846  26.045  1.00  0.00     0.016 C 
ATOM     21  C   UNL A   1      38.312  23.412  26.286  1.00  0.00     0.005 C 
ENDBRANCH  18  20
ENDBRANCH  15  18
ENDBRANCH   8  15
ENDBRANCH   4   7
ENDBRANCH   2   3
ENDBRANCH   1   2
BRANCH   1  22
ATOM     22  C   UNL A   1      34.269  29.009  25.509  1.00  0.00     0.118 C 
BRANCH  22  23
ATOM     23  N   UNL A   1      33.906  30.132  26.359  1.00  0.00    -0.352 N 
ATOM     24  C   UNL A   1      34.469  30.577  27.533  1.00  0.00     0.251 C 
ATOM     25  H   UNL A   1      33.135  30.658  26.044  1.00  0.00     0.163 HD
ATOM     26  O   UNL A   1      33.851  31.402  28.205  1.00  0.00    -0.269 OA
BRANCH  24  27
ATOM     27  C   UNL A   1      35.788  30.083  28.010  1.00  0.00     0.039 A 
ATOM     28  C   UNL A   1      35.860  29.468  29.267  1.00  0.00     0.014 A 
ATOM     29  C   UNL A   1      36.964  30.278  27.282  1.00  0.00     0.014 A 
ATOM     30  C   UNL A   1      37.088  29.017  29.765  1.00  0.00     0.010 A 
ATOM     31  C   UNL A   1      38.174  29.756  27.741  1.00  0.00     0.010 A 
ATOM     32  C   UNL A   1      38.256  29.137  28.997  1.00  0.00    -0.014 A 
BRANCH  32  33
ATOM     33  C   UNL A   1      39.571  28.648  29.495  1.00  0.00     0.031 A 
ATOM     34  C   UNL A   1      40.285  29.378  30.605  1.00  0.00     0.074 A 
ATOM     35  C   UNL A   1      40.169  27.597  28.898  1.00  0.00     0.049 A 
ATOM     36  N   UNL A   1      41.463  29.143  31.126  1.00  0.00    -0.248 NA
ATOM     37  C   UNL A   1      39.598  30.543  31.189  1.00  0.00     0.031 C 
ATOM     38  C   UNL A   1      39.626  26.851  27.762  1.00  0.00     0.029 A 
ATOM     39  N   UNL A   1      41.378  26.993  29.143  1.00  0.00    -0.354 N 
ATOM     40  C   UNL A   1      41.676  30.152  32.060  1.00  0.00     0.074 A 
ATOM     41  C   UNL A   1      40.518  31.019  32.015  1.00  0.00     0.031 C 
ATOM     42  C   UNL A   1      40.498  25.892  27.408  1.00  0.00     0.029 A 
ATOM     43  C   UNL A   1      41.670  25.967  28.274  1.00  0.00     0.049 A 
ATOM     44  H   UNL A   1      41.980  27.270  29.873  1.00  0.00     0.167 HD
ATOM     45  C   UNL A   1      42.724  30.327  32.901  1.00  0.00     0.034 A 
ATOM     46  C   UNL A   1      42.759  25.178  28.181  1.00  0.00     0.034 A 
ATOM     47  C   UNL A   1      43.843  29.429  32.993  1.00  0.00     0.049 A 
ATOM     48  C   UNL A   1      43.877  25.348  29.175  1.00  0.00     0.074 A 
ATOM     49  C   UNL A   1      44.900  29.462  33.886  1.00  0.00     0.029 A 
ATOM     50  N   UNL A   1      44.050  28.335  32.168  1.00  0.00    -0.354 N 
ATOM     51  N   UNL A   1      43.981  26.207  30.159  1.00  0.00    -0.248 NA
ATOM     52  C   UNL A   1      45.010  24.416  29.071  1.00  0.00     0.031 C 
ATOM     53  C   UNL A   1      45.753  28.391  33.592  1.00  0.00     0.029 A 
ATOM     54  C   UNL A   1      45.219  27.686  32.526  1.00  0.00     0.049 A 
ATOM     55  H   UNL A   1      43.452  28.060  31.435  1.00  0.00     0.167 HD
ATOM     56  C   UNL A   1      45.170  25.899  30.811  1.00  0.00     0.074 A 
ATOM     57  C   UNL A   1      45.741  24.761  30.122  1.00  0.00     0.031 C 
ATOM     58  C   UNL A   1      45.746  26.518  31.871  1.00  0.00     0.034 A 
BRANCH  45  59
ATOM     59  C   UNL A   1      42.678  31.502  33.843  1.00  0.00     0.023 A 
ATOM     60  C   UNL A   1      43.187  32.748  33.420  1.00  0.00     0.012 A 
ATOM     61  C   UNL A   1      42.084  31.396  35.115  1.00  0.00     0.148 A 
ATOM     62  C   UNL A   1      43.134  33.860  34.258  1.00  0.00     0.002 A 
ATOM     63  C   UNL A   1      41.998  32.520  35.930  1.00  0.00     0.091 A 
ATOM     64  F   UNL A   1      41.625  30.200  35.510  1.00  0.00    -0.205 F 
ATOM     65  C   UNL A   1      42.533  33.749  35.509  1.00  0.00     0.022 A 
BRANCH  63  66
ATOM     66  S   UNL A   1      41.173  32.497  37.526  1.00  0.00     0.127 S 
ATOM     67  O   UNL A   1      39.866  31.943  37.175  1.00  0.00    -0.237 OA
ATOM     68  O   UNL A   1      42.026  31.597  38.304  1.00  0.00    -0.237 OA
ATOM     69  O   UNL A   1      41.166  33.876  37.993  1.00  0.00    -0.744 OA
ENDBRANCH  63  66
ENDBRANCH  45  59
BRANCH  46  70
ATOM     70  C   UNL A   1      42.804  24.098  27.154  1.00  0.00     0.023 A 
ATOM     71  C   UNL A   1      43.551  24.299  25.977  1.00  0.00     0.012 A 
ATOM     72  C   UNL A   1      42.154  22.865  27.352  1.00  0.00     0.148 A 
ATOM     73  C   UNL A   1      43.628  23.302  25.003  1.00  0.00     0.002 A 
ATOM     74  C   UNL A   1      42.280  21.855  26.404  1.00  0.00     0.091 A 
ATOM     75  F   UNL A   1      41.435  22.698  28.472  1.00  0.00    -0.205 F 
ATOM     76  C   UNL A   1      43.004  22.077  25.222  1.00  0.00     0.022 A 
BRANCH  74  77
ATOM     77  S   UNL A   1      41.627  20.203  26.670  1.00  0.00     0.127 S 
ATOM     78  O   UNL A   1      42.360  19.777  27.859  1.00  0.00    -0.237 OA
ATOM     79  O   UNL A   1      40.203  20.468  26.885  1.00  0.00    -0.237 OA
ATOM     80  O   UNL A   1      41.916  19.467  25.446  1.00  0.00    -0.744 OA
ENDBRANCH  74  77
ENDBRANCH  46  70
BRANCH  58  81
ATOM     81  C   UNL A   1      47.052  25.965  32.380  1.00  0.00     0.023 A 
ATOM     82  C   UNL A   1      47.049  25.049  33.450  1.00  0.00     0.012 A 
ATOM     83  C   UNL A   1      48.268  26.286  31.747  1.00  0.00     0.148 A 
ATOM     84  C   UNL A   1      48.240  24.482  33.900  1.00  0.00     0.002 A 
ATOM     85  C   UNL A   1      49.447  25.683  32.172  1.00  0.00     0.091 A 
ATOM     86  F   UNL A   1      48.253  27.176  30.743  1.00  0.00    -0.205 F 
ATOM     87  C   UNL A   1      49.436  24.788  33.254  1.00  0.00     0.022 A 
BRANCH  85  88
ATOM     88  S   UNL A   1      51.015  25.951  31.338  1.00  0.00     0.127 S 
ATOM     89  O   UNL A   1      51.949  25.271  32.233  1.00  0.00    -0.237 OA
ATOM     90  O   UNL A   1      50.806  25.283  30.053  1.00  0.00    -0.237 OA
ATOM     91  O   UNL A   1      51.173  27.397  31.245  1.00  0.00    -0.744 OA
ENDBRANCH  85  88
ENDBRANCH  58  81
ENDBRANCH  32  33
ENDBRANCH  24  27
ENDBRANCH  22  23
ENDBRANCH   1  22
TORSDOF 16
ENDMDL
