MODEL 1
REMARK VINA RESULT:     -13.3      0.000      0.000
REMARK SMILES Cn1cc(C(=O)NCCCNC(=O)c2ccc(-c3c4nc(c(-c5cccc(S(=O)(=O)[O-])c5F)c5ccc([nH]5)c(-c5cccc(S(=O)(=O)[O-])c5F)c5nc(c(-c6cccc(S(=O)(=O)[O-])c6F)c6ccc3[nH]6)C=C5)C=C4)cc2)c(C(=O)Nc2ccc(-c3nc4cc(Cl)ccc4o3)cc2)n1
REMARK SMILES IDX 9 1 8 2 7 3 5 4 6 5 4 7 1 8 2 9 3 10 97 11 77 12 78 13 79 14
REMARK SMILES IDX 80 15 81 17 82 18 96 19 83 20 95 21 84 22 85 23 86 24 94 25
REMARK SMILES IDX 87 26 93 27 88 28 92 29 89 30 91 31 90 32 10 33 11 34 12 35
REMARK SMILES IDX 13 37 14 38 15 39 76 40 16 41 75 42 17 43 18 44 19 45 69 46
REMARK SMILES IDX 20 47 74 48 68 49 70 50 21 51 73 52 67 53 66 54 22 56 54 57
REMARK SMILES IDX 34 58 53 59 35 60 38 61 52 62 71 63 36 64 37 65 51 67 72 68
REMARK SMILES IDX 39 69 23 70 24 71 32 72 25 73 27 74 33 75 26 76 28 77 29 78
REMARK SMILES IDX 30 79 31 80 55 81 56 82 64 83 57 84 59 85 65 86 58 87 60 88
REMARK SMILES IDX 61 89 62 90 63 91 40 92 41 93 49 94 42 95 44 96 50 97 43 98
REMARK SMILES IDX 45 99 46 100 47 101 48 102
REMARK H PARENT 7 6 80 16 11 36 70 55 38 66
REMARK Flexibility Score: inf
ROOT
ATOM      1  C   UNL A   1      35.292  23.200  24.602  1.00  0.00     0.042 C 
ENDROOT
BRANCH   1   2
ATOM      2  C   UNL A   1      34.696  24.590  24.814  1.00  0.00     0.118 C 
BRANCH   2   3
ATOM      3  N   UNL A   1      34.232  25.283  23.627  1.00  0.00    -0.352 N 
ATOM      4  C   UNL A   1      33.686  26.531  23.437  1.00  0.00     0.255 C 
ATOM      5  O   UNL A   1      33.740  26.989  22.296  1.00  0.00    -0.269 OA
ATOM      6  H   UNL A   1      34.326  24.760  22.799  1.00  0.00     0.163 HD
BRANCH   4   7
ATOM      7  C   UNL A   1      33.056  27.277  24.517  1.00  0.00     0.090 A 
ATOM      8  C   UNL A   1      32.825  29.624  27.250  1.00  0.00     0.173 C 
ATOM      9  N   UNL A   1      32.662  28.634  26.211  1.00  0.00    -0.274 N 
ATOM     10  C   UNL A   1      33.653  27.977  25.549  1.00  0.00     0.123 A 
ATOM     11  N   UNL A   1      31.443  28.375  25.736  1.00  0.00    -0.167 NA
ATOM     12  C   UNL A   1      31.645  27.562  24.677  1.00  0.00     0.163 A 
BRANCH  12  13
ATOM     13  C   UNL A   1      30.482  27.219  23.825  1.00  0.00     0.276 C 
ATOM     14  O   UNL A   1      29.634  28.070  23.527  1.00  0.00    -0.267 OA
ATOM     15  N   UNL A   1      30.321  25.979  23.245  1.00  0.00    -0.321 N 
ATOM     16  H   UNL A   1      29.641  25.958  22.533  1.00  0.00     0.170 HD
BRANCH  15  17
ATOM     17  C   UNL A   1      30.937  24.748  23.474  1.00  0.00     0.041 A 
ATOM     18  C   UNL A   1      30.848  24.239  24.774  1.00  0.00     0.027 A 
ATOM     19  C   UNL A   1      31.585  24.010  22.485  1.00  0.00     0.027 A 
ATOM     20  C   UNL A   1      31.247  22.931  25.044  1.00  0.00     0.016 A 
ATOM     21  C   UNL A   1      32.041  22.718  22.773  1.00  0.00     0.016 A 
ATOM     22  C   UNL A   1      31.810  22.146  24.033  1.00  0.00     0.037 A 
BRANCH  22  23
ATOM     23  C   UNL A   1      32.035  20.727  24.249  1.00  0.00     0.227 A 
ATOM     24  N   UNL A   1      32.172  20.040  25.366  1.00  0.00    -0.209 NA
ATOM     25  O   UNL A   1      32.304  20.020  23.102  1.00  0.00    -0.436 OA
ATOM     26  C   UNL A   1      32.532  18.785  24.934  1.00  0.00     0.111 A 
ATOM     27  C   UNL A   1      32.648  18.782  23.553  1.00  0.00     0.155 A 
ATOM     28  C   UNL A   1      32.821  17.612  25.642  1.00  0.00     0.053 A 
ATOM     29  C   UNL A   1      33.072  17.702  22.790  1.00  0.00     0.051 A 
ATOM     30  C   UNL A   1      33.262  16.503  24.905  1.00  0.00     0.043 A 
ATOM     31  C   UNL A   1      33.395  16.549  23.511  1.00  0.00     0.024 A 
ATOM     32  Cl  UNL A   1      33.674  15.051  25.735  1.00  0.00    -0.084 Cl
ENDBRANCH  22  23
ENDBRANCH  15  17
ENDBRANCH  12  13
ENDBRANCH   4   7
ENDBRANCH   2   3
ENDBRANCH   1   2
BRANCH   1  33
ATOM     33  C   UNL A   1      35.723  22.441  25.859  1.00  0.00     0.118 C 
BRANCH  33  34
ATOM     34  N   UNL A   1      36.786  21.472  25.637  1.00  0.00    -0.352 N 
ATOM     35  C   UNL A   1      38.149  21.548  25.753  1.00  0.00     0.251 C 
ATOM     36  H   UNL A   1      36.462  20.589  25.346  1.00  0.00     0.163 HD
ATOM     37  O   UNL A   1      38.808  20.565  25.410  1.00  0.00    -0.269 OA
BRANCH  35  38
ATOM     38  C   UNL A   1      38.855  22.746  26.271  1.00  0.00     0.039 A 
ATOM     39  C   UNL A   1      39.974  22.545  27.094  1.00  0.00     0.014 A 
ATOM     40  C   UNL A   1      38.398  24.047  26.050  1.00  0.00     0.014 A 
ATOM     41  C   UNL A   1      40.662  23.633  27.641  1.00  0.00     0.010 A 
ATOM     42  C   UNL A   1      39.095  25.136  26.579  1.00  0.00     0.010 A 
ATOM     43  C   UNL A   1      40.236  24.939  27.369  1.00  0.00    -0.014 A 
BRANCH  43  44
ATOM     44  C   UNL A   1      41.007  26.120  27.828  1.00  0.00     0.031 A 
ATOM     45  C   UNL A   1      40.337  27.239  28.566  1.00  0.00     0.074 A 
ATOM     46  C   UNL A   1      42.295  26.231  27.451  1.00  0.00     0.049 A 
ATOM     47  N   UNL A   1      40.827  28.395  28.931  1.00  0.00    -0.248 NA
ATOM     48  C   UNL A   1      38.927  27.040  28.933  1.00  0.00     0.031 C 
ATOM     49  C   UNL A   1      43.031  25.229  26.676  1.00  0.00     0.029 A 
ATOM     50  N   UNL A   1      43.194  27.253  27.618  1.00  0.00    -0.354 N 
ATOM     51  C   UNL A   1      39.783  29.074  29.546  1.00  0.00     0.074 A 
ATOM     52  C   UNL A   1      38.627  28.202  29.499  1.00  0.00     0.031 C 
ATOM     53  C   UNL A   1      44.253  25.707  26.394  1.00  0.00     0.029 A 
ATOM     54  C   UNL A   1      44.381  27.049  26.955  1.00  0.00     0.049 A 
ATOM     55  H   UNL A   1      43.007  28.054  28.159  1.00  0.00     0.167 HD
ATOM     56  C   UNL A   1      39.796  30.302  30.119  1.00  0.00     0.034 A 
ATOM     57  C   UNL A   1      45.447  27.858  26.799  1.00  0.00     0.034 A 
ATOM     58  C   UNL A   1      40.958  31.147  30.193  1.00  0.00     0.049 A 
ATOM     59  C   UNL A   1      45.451  29.200  27.475  1.00  0.00     0.074 A 
ATOM     60  C   UNL A   1      41.094  32.374  30.821  1.00  0.00     0.029 A 
ATOM     61  N   UNL A   1      42.185  30.858  29.616  1.00  0.00    -0.354 N 
ATOM     62  N   UNL A   1      44.508  29.759  28.194  1.00  0.00    -0.248 NA
ATOM     63  C   UNL A   1      46.674  30.005  27.356  1.00  0.00     0.031 C 
ATOM     64  C   UNL A   1      42.405  32.823  30.627  1.00  0.00     0.029 A 
ATOM     65  C   UNL A   1      43.084  31.878  29.874  1.00  0.00     0.049 A 
ATOM     66  H   UNL A   1      42.387  30.044  29.100  1.00  0.00     0.167 HD
ATOM     67  C   UNL A   1      45.033  30.964  28.643  1.00  0.00     0.074 A 
ATOM     68  C   UNL A   1      46.384  31.050  28.123  1.00  0.00     0.031 C 
ATOM     69  C   UNL A   1      44.445  31.919  29.404  1.00  0.00     0.034 A 
BRANCH  56  70
ATOM     70  C   UNL A   1      38.531  30.779  30.780  1.00  0.00     0.023 A 
ATOM     71  C   UNL A   1      38.366  30.572  32.164  1.00  0.00     0.012 A 
ATOM     72  C   UNL A   1      37.544  31.482  30.063  1.00  0.00     0.148 A 
ATOM     73  C   UNL A   1      37.231  31.042  32.822  1.00  0.00     0.002 A 
ATOM     74  C   UNL A   1      36.427  31.973  30.732  1.00  0.00     0.091 A 
ATOM     75  F   UNL A   1      37.705  31.646  28.742  1.00  0.00    -0.205 F 
ATOM     76  C   UNL A   1      36.267  31.750  32.109  1.00  0.00     0.022 A 
BRANCH  74  77
ATOM     77  S   UNL A   1      35.168  32.949  29.900  1.00  0.00     0.127 S 
ATOM     78  O   UNL A   1      34.640  31.989  28.932  1.00  0.00    -0.237 OA
ATOM     79  O   UNL A   1      34.249  33.280  30.990  1.00  0.00    -0.237 OA
ATOM     80  O   UNL A   1      35.870  34.096  29.339  1.00  0.00    -0.744 OA
ENDBRANCH  74  77
ENDBRANCH  56  70
BRANCH  57  81
ATOM     81  C   UNL A   1      46.624  27.367  26.032  1.00  0.00     0.023 A 
ATOM     82  C   UNL A   1      46.717  27.658  24.658  1.00  0.00     0.012 A 
ATOM     83  C   UNL A   1      47.690  26.701  26.668  1.00  0.00     0.148 A 
ATOM     84  C   UNL A   1      47.845  27.284  23.928  1.00  0.00     0.002 A 
ATOM     85  C   UNL A   1      48.833  26.377  25.946  1.00  0.00     0.091 A 
ATOM     86  F   UNL A   1      47.577  26.414  27.973  1.00  0.00    -0.205 F 
ATOM     87  C   UNL A   1      48.909  26.656  24.574  1.00  0.00     0.022 A 
BRANCH  85  88
ATOM     88  S   UNL A   1      50.292  25.708  26.755  1.00  0.00     0.127 S 
ATOM     89  O   UNL A   1      49.789  24.452  27.301  1.00  0.00    -0.237 OA
ATOM     90  O   UNL A   1      51.233  25.561  25.641  1.00  0.00    -0.237 OA
ATOM     91  O   UNL A   1      50.683  26.725  27.723  1.00  0.00    -0.744 OA
ENDBRANCH  85  88
ENDBRANCH  57  81
BRANCH  69  92
ATOM     92  C   UNL A   1      45.259  33.135  29.747  1.00  0.00     0.023 A 
ATOM     93  C   UNL A   1      46.054  33.127  30.909  1.00  0.00     0.012 A 
ATOM     94  C   UNL A   1      45.305  34.244  28.881  1.00  0.00     0.148 A 
ATOM     95  C   UNL A   1      46.874  34.214  31.212  1.00  0.00     0.002 A 
ATOM     96  C   UNL A   1      46.149  35.310  29.173  1.00  0.00     0.091 A 
ATOM     97  F   UNL A   1      44.520  34.244  27.794  1.00  0.00    -0.205 F 
ATOM     98  C   UNL A   1      46.931  35.299  30.340  1.00  0.00     0.022 A 
BRANCH  96  99
ATOM     99  S   UNL A   1      46.329  36.708  28.057  1.00  0.00     0.127 S 
ATOM    100  O   UNL A   1      47.322  37.522  28.753  1.00  0.00    -0.237 OA
ATOM    101  O   UNL A   1      46.812  36.076  26.829  1.00  0.00    -0.237 OA
ATOM    102  O   UNL A   1      44.997  37.290  27.944  1.00  0.00    -0.744 OA
ENDBRANCH  96  99
ENDBRANCH  69  92
ENDBRANCH  43  44
ENDBRANCH  35  38
ENDBRANCH  33  34
ENDBRANCH   1  33
TORSDOF 16
ENDMDL
MODEL 2
REMARK VINA RESULT:     -12.7      1.907      7.675
REMARK SMILES Cn1cc(C(=O)NCCCNC(=O)c2ccc(-c3c4nc(c(-c5cccc(S(=O)(=O)[O-])c5F)c5ccc([nH]5)c(-c5cccc(S(=O)(=O)[O-])c5F)c5nc(c(-c6cccc(S(=O)(=O)[O-])c6F)c6ccc3[nH]6)C=C5)C=C4)cc2)c(C(=O)Nc2ccc(-c3nc4cc(Cl)ccc4o3)cc2)n1
REMARK SMILES IDX 9 1 8 2 7 3 5 4 6 5 4 7 1 8 2 9 3 10 97 11 77 12 78 13 79 14
REMARK SMILES IDX 80 15 81 17 82 18 96 19 83 20 95 21 84 22 85 23 86 24 94 25
REMARK SMILES IDX 87 26 93 27 88 28 92 29 89 30 91 31 90 32 10 33 11 34 12 35
REMARK SMILES IDX 13 37 14 38 15 39 76 40 16 41 75 42 17 43 18 44 19 45 69 46
REMARK SMILES IDX 20 47 74 48 68 49 70 50 21 51 73 52 67 53 66 54 22 56 54 57
REMARK SMILES IDX 34 58 53 59 35 60 38 61 52 62 71 63 36 64 37 65 51 67 72 68
REMARK SMILES IDX 39 69 23 70 24 71 32 72 25 73 27 74 33 75 26 76 28 77 29 78
REMARK SMILES IDX 30 79 31 80 55 81 56 82 64 83 57 84 59 85 65 86 58 87 60 88
REMARK SMILES IDX 61 89 62 90 63 91 40 92 41 93 49 94 42 95 44 96 50 97 43 98
REMARK SMILES IDX 45 99 46 100 47 101 48 102
REMARK H PARENT 7 6 80 16 11 36 70 55 38 66
REMARK Flexibility Score: inf
ROOT
ATOM      1  C   UNL A   1      35.805  23.740  24.792  1.00  0.00     0.042 C 
ENDROOT
BRANCH   1   2
ATOM      2  C   UNL A   1      34.354  24.213  24.761  1.00  0.00     0.118 C 
BRANCH   2   3
ATOM      3  N   UNL A   1      33.992  25.118  23.686  1.00  0.00    -0.352 N 
ATOM      4  C   UNL A   1      33.839  26.485  23.637  1.00  0.00     0.255 C 
ATOM      5  O   UNL A   1      33.899  27.006  22.524  1.00  0.00    -0.269 OA
ATOM      6  H   UNL A   1      33.823  24.668  22.828  1.00  0.00     0.163 HD
BRANCH   4   7
ATOM      7  C   UNL A   1      33.599  27.284  24.830  1.00  0.00     0.090 A 
ATOM      8  C   UNL A   1      34.422  29.328  27.689  1.00  0.00     0.173 C 
ATOM      9  N   UNL A   1      33.843  28.534  26.631  1.00  0.00    -0.274 N 
ATOM     10  C   UNL A   1      34.498  27.672  25.807  1.00  0.00     0.123 A 
ATOM     11  N   UNL A   1      32.558  28.701  26.313  1.00  0.00    -0.167 NA
ATOM     12  C   UNL A   1      32.376  27.967  25.195  1.00  0.00     0.163 A 
BRANCH  12  13
ATOM     13  C   UNL A   1      31.076  28.072  24.491  1.00  0.00     0.276 C 
ATOM     14  O   UNL A   1      30.566  29.174  24.251  1.00  0.00    -0.267 OA
ATOM     15  N   UNL A   1      30.407  26.977  23.989  1.00  0.00    -0.321 N 
ATOM     16  H   UNL A   1      29.687  27.205  23.358  1.00  0.00     0.170 HD
BRANCH  15  17
ATOM     17  C   UNL A   1      30.556  25.606  24.204  1.00  0.00     0.041 A 
ATOM     18  C   UNL A   1      30.535  24.792  23.066  1.00  0.00     0.027 A 
ATOM     19  C   UNL A   1      30.756  25.035  25.459  1.00  0.00     0.027 A 
ATOM     20  C   UNL A   1      30.883  23.446  23.160  1.00  0.00     0.016 A 
ATOM     21  C   UNL A   1      31.046  23.669  25.559  1.00  0.00     0.016 A 
ATOM     22  C   UNL A   1      31.182  22.884  24.405  1.00  0.00     0.037 A 
BRANCH  22  23
ATOM     23  C   UNL A   1      31.744  21.546  24.487  1.00  0.00     0.227 A 
ATOM     24  N   UNL A   1      32.511  20.991  25.405  1.00  0.00    -0.209 NA
ATOM     25  O   UNL A   1      31.576  20.796  23.348  1.00  0.00    -0.436 OA
ATOM     26  C   UNL A   1      32.857  19.780  24.851  1.00  0.00     0.111 A 
ATOM     27  C   UNL A   1      32.315  19.677  23.580  1.00  0.00     0.155 A 
ATOM     28  C   UNL A   1      33.657  18.738  25.336  1.00  0.00     0.053 A 
ATOM     29  C   UNL A   1      32.530  18.620  22.705  1.00  0.00     0.051 A 
ATOM     30  C   UNL A   1      33.903  17.658  24.477  1.00  0.00     0.043 A 
ATOM     31  C   UNL A   1      33.362  17.603  23.186  1.00  0.00     0.024 A 
ATOM     32  Cl  UNL A   1      34.918  16.372  25.010  1.00  0.00    -0.084 Cl
ENDBRANCH  22  23
ENDBRANCH  15  17
ENDBRANCH  12  13
ENDBRANCH   4   7
ENDBRANCH   2   3
ENDBRANCH   1   2
BRANCH   1  33
ATOM     33  C   UNL A   1      36.390  23.415  26.169  1.00  0.00     0.118 C 
BRANCH  33  34
ATOM     34  N   UNL A   1      37.577  22.573  26.131  1.00  0.00    -0.352 N 
ATOM     35  C   UNL A   1      38.904  22.830  26.359  1.00  0.00     0.251 C 
ATOM     36  H   UNL A   1      37.390  21.636  25.894  1.00  0.00     0.163 HD
ATOM     37  O   UNL A   1      39.705  21.914  26.167  1.00  0.00    -0.269 OA
BRANCH  35  38
ATOM     38  C   UNL A   1      39.409  24.145  26.825  1.00  0.00     0.039 A 
ATOM     39  C   UNL A   1      39.990  24.999  25.876  1.00  0.00     0.014 A 
ATOM     40  C   UNL A   1      39.413  24.520  28.171  1.00  0.00     0.014 A 
ATOM     41  C   UNL A   1      40.515  26.238  26.258  1.00  0.00     0.010 A 
ATOM     42  C   UNL A   1      39.920  25.764  28.552  1.00  0.00     0.010 A 
ATOM     43  C   UNL A   1      40.465  26.636  27.600  1.00  0.00    -0.014 A 
BRANCH  43  44
ATOM     44  C   UNL A   1      40.899  27.989  28.026  1.00  0.00     0.031 A 
ATOM     45  C   UNL A   1      42.354  28.341  28.111  1.00  0.00     0.074 A 
ATOM     46  C   UNL A   1      39.965  28.853  28.466  1.00  0.00     0.049 A 
ATOM     47  N   UNL A   1      42.913  29.426  28.579  1.00  0.00    -0.248 NA
ATOM     48  C   UNL A   1      43.308  27.336  27.617  1.00  0.00     0.031 C 
ATOM     49  C   UNL A   1      38.524  28.591  28.486  1.00  0.00     0.029 A 
ATOM     50  N   UNL A   1      40.088  30.098  29.027  1.00  0.00    -0.354 N 
ATOM     51  C   UNL A   1      44.282  29.230  28.461  1.00  0.00     0.074 A 
ATOM     52  C   UNL A   1      44.472  27.915  27.885  1.00  0.00     0.031 C 
ATOM     53  C   UNL A   1      37.902  29.623  29.077  1.00  0.00     0.029 A 
ATOM     54  C   UNL A   1      38.897  30.609  29.486  1.00  0.00     0.049 A 
ATOM     55  H   UNL A   1      40.945  30.578  29.095  1.00  0.00     0.167 HD
ATOM     56  C   UNL A   1      45.288  30.080  28.784  1.00  0.00     0.034 A 
ATOM     57  C   UNL A   1      38.637  31.737  30.176  1.00  0.00     0.034 A 
ATOM     58  C   UNL A   1      45.089  31.399  29.323  1.00  0.00     0.049 A 
ATOM     59  C   UNL A   1      39.764  32.680  30.488  1.00  0.00     0.074 A 
ATOM     60  C   UNL A   1      46.039  32.365  29.608  1.00  0.00     0.029 A 
ATOM     61  N   UNL A   1      43.859  31.937  29.664  1.00  0.00    -0.354 N 
ATOM     62  N   UNL A   1      41.041  32.548  30.222  1.00  0.00    -0.248 NA
ATOM     63  C   UNL A   1      39.415  33.941  31.157  1.00  0.00     0.031 C 
ATOM     64  C   UNL A   1      45.380  33.490  30.119  1.00  0.00     0.029 A 
ATOM     65  C   UNL A   1      44.021  33.221  30.154  1.00  0.00     0.049 A 
ATOM     66  H   UNL A   1      42.995  31.474  29.570  1.00  0.00     0.167 HD
ATOM     67  C   UNL A   1      41.645  33.721  30.657  1.00  0.00     0.074 A 
ATOM     68  C   UNL A   1      40.591  34.558  31.196  1.00  0.00     0.031 C 
ATOM     69  C   UNL A   1      42.955  34.067  30.625  1.00  0.00     0.034 A 
BRANCH  56  70
ATOM     70  C   UNL A   1      46.697  29.638  28.492  1.00  0.00     0.023 A 
ATOM     71  C   UNL A   1      47.281  29.995  27.260  1.00  0.00     0.012 A 
ATOM     72  C   UNL A   1      47.463  28.939  29.444  1.00  0.00     0.148 A 
ATOM     73  C   UNL A   1      48.600  29.648  26.972  1.00  0.00     0.002 A 
ATOM     74  C   UNL A   1      48.787  28.621  29.161  1.00  0.00     0.091 A 
ATOM     75  F   UNL A   1      46.882  28.584  30.600  1.00  0.00    -0.205 F 
ATOM     76  C   UNL A   1      49.355  28.970  27.925  1.00  0.00     0.022 A 
BRANCH  74  77
ATOM     77  S   UNL A   1      49.850  27.802  30.358  1.00  0.00     0.127 S 
ATOM     78  O   UNL A   1      51.116  27.734  29.632  1.00  0.00    -0.237 OA
ATOM     79  O   UNL A   1      49.843  28.740  31.482  1.00  0.00    -0.237 OA
ATOM     80  O   UNL A   1      49.210  26.524  30.640  1.00  0.00    -0.744 OA
ENDBRANCH  74  77
ENDBRANCH  56  70
BRANCH  57  81
ATOM     81  C   UNL A   1      37.228  32.057  30.536  1.00  0.00     0.023 A 
ATOM     82  C   UNL A   1      36.784  31.814  31.849  1.00  0.00     0.012 A 
ATOM     83  C   UNL A   1      36.360  32.684  29.621  1.00  0.00     0.148 A 
ATOM     84  C   UNL A   1      35.496  32.179  32.242  1.00  0.00     0.002 A 
ATOM     85  C   UNL A   1      35.096  33.091  30.033  1.00  0.00     0.091 A 
ATOM     86  F   UNL A   1      36.792  32.891  28.369  1.00  0.00    -0.205 F 
ATOM     87  C   UNL A   1      34.657  32.829  31.339  1.00  0.00     0.022 A 
BRANCH  85  88
ATOM     88  S   UNL A   1      34.033  34.068  28.963  1.00  0.00     0.127 S 
ATOM     89  O   UNL A   1      34.965  35.055  28.426  1.00  0.00    -0.237 OA
ATOM     90  O   UNL A   1      33.562  33.076  27.994  1.00  0.00    -0.237 OA
ATOM     91  O   UNL A   1      32.985  34.577  29.839  1.00  0.00    -0.744 OA
ENDBRANCH  85  88
ENDBRANCH  57  81
BRANCH  69  92
ATOM     92  C   UNL A   1      43.331  35.418  31.168  1.00  0.00     0.023 A 
ATOM     93  C   UNL A   1      43.617  35.554  32.539  1.00  0.00     0.012 A 
ATOM     94  C   UNL A   1      43.482  36.526  30.313  1.00  0.00     0.148 A 
ATOM     95  C   UNL A   1      44.038  36.780  33.055  1.00  0.00     0.002 A 
ATOM     96  C   UNL A   1      43.932  37.736  30.828  1.00  0.00     0.091 A 
ATOM     97  F   UNL A   1      43.178  36.383  29.014  1.00  0.00    -0.205 F 
ATOM     98  C   UNL A   1      44.207  37.867  32.199  1.00  0.00     0.022 A 
BRANCH  96  99
ATOM     99  S   UNL A   1      44.244  39.157  29.772  1.00  0.00     0.127 S 
ATOM    100  O   UNL A   1      44.787  40.124  30.723  1.00  0.00    -0.237 OA
ATOM    101  O   UNL A   1      45.217  38.635  28.812  1.00  0.00    -0.237 OA
ATOM    102  O   UNL A   1      42.953  39.498  29.187  1.00  0.00    -0.744 OA
ENDBRANCH  96  99
ENDBRANCH  69  92
ENDBRANCH  43  44
ENDBRANCH  35  38
ENDBRANCH  33  34
ENDBRANCH   1  33
TORSDOF 16
ENDMDL
MODEL 3
REMARK VINA RESULT:     -12.2      3.056      9.025
REMARK SMILES Cn1cc(C(=O)NCCCNC(=O)c2ccc(-c3c4nc(c(-c5cccc(S(=O)(=O)[O-])c5F)c5ccc([nH]5)c(-c5cccc(S(=O)(=O)[O-])c5F)c5nc(c(-c6cccc(S(=O)(=O)[O-])c6F)c6ccc3[nH]6)C=C5)C=C4)cc2)c(C(=O)Nc2ccc(-c3nc4cc(Cl)ccc4o3)cc2)n1
REMARK SMILES IDX 9 1 8 2 7 3 5 4 6 5 4 7 1 8 2 9 3 10 97 11 77 12 78 13 79 14
REMARK SMILES IDX 80 15 81 17 82 18 96 19 83 20 95 21 84 22 85 23 86 24 94 25
REMARK SMILES IDX 87 26 93 27 88 28 92 29 89 30 91 31 90 32 10 33 11 34 12 35
REMARK SMILES IDX 13 37 14 38 15 39 76 40 16 41 75 42 17 43 18 44 19 45 69 46
REMARK SMILES IDX 20 47 74 48 68 49 70 50 21 51 73 52 67 53 66 54 22 56 54 57
REMARK SMILES IDX 34 58 53 59 35 60 38 61 52 62 71 63 36 64 37 65 51 67 72 68
REMARK SMILES IDX 39 69 23 70 24 71 32 72 25 73 27 74 33 75 26 76 28 77 29 78
REMARK SMILES IDX 30 79 31 80 55 81 56 82 64 83 57 84 59 85 65 86 58 87 60 88
REMARK SMILES IDX 61 89 62 90 63 91 40 92 41 93 49 94 42 95 44 96 50 97 43 98
REMARK SMILES IDX 45 99 46 100 47 101 48 102
REMARK H PARENT 7 6 80 16 11 36 70 55 38 66
REMARK Flexibility Score: inf
ROOT
ATOM      1  C   UNL A   1      35.176  22.350  25.702  1.00  0.00     0.042 C 
ENDROOT
BRANCH   1   2
ATOM      2  C   UNL A   1      35.199  21.278  24.614  1.00  0.00     0.118 C 
BRANCH   2   3
ATOM      3  N   UNL A   1      33.916  20.721  24.230  1.00  0.00    -0.352 N 
ATOM      4  C   UNL A   1      32.900  21.198  23.431  1.00  0.00     0.255 C 
ATOM      5  O   UNL A   1      32.113  20.364  22.985  1.00  0.00    -0.269 OA
ATOM      6  H   UNL A   1      33.736  19.833  24.613  1.00  0.00     0.163 HD
BRANCH   4   7
ATOM      7  C   UNL A   1      32.743  22.614  23.136  1.00  0.00     0.090 A 
ATOM      8  C   UNL A   1      32.578  25.594  21.106  1.00  0.00     0.173 C 
ATOM      9  N   UNL A   1      32.607  24.568  22.122  1.00  0.00    -0.274 N 
ATOM     10  C   UNL A   1      33.092  23.304  21.990  1.00  0.00     0.123 A 
ATOM     11  N   UNL A   1      32.015  24.791  23.297  1.00  0.00    -0.167 NA
ATOM     12  C   UNL A   1      32.057  23.605  23.940  1.00  0.00     0.163 A 
BRANCH  12  13
ATOM     13  C   UNL A   1      31.329  23.477  25.224  1.00  0.00     0.276 C 
ATOM     14  O   UNL A   1      30.648  22.475  25.476  1.00  0.00    -0.267 OA
ATOM     15  N   UNL A   1      31.431  24.405  26.237  1.00  0.00    -0.321 N 
ATOM     16  H   UNL A   1      31.086  24.090  27.103  1.00  0.00     0.170 HD
BRANCH  15  17
ATOM     17  C   UNL A   1      31.933  25.708  26.270  1.00  0.00     0.041 A 
ATOM     18  C   UNL A   1      30.998  26.730  26.463  1.00  0.00     0.027 A 
ATOM     19  C   UNL A   1      33.287  26.020  26.160  1.00  0.00     0.027 A 
ATOM     20  C   UNL A   1      31.426  28.032  26.719  1.00  0.00     0.016 A 
ATOM     21  C   UNL A   1      33.711  27.340  26.356  1.00  0.00     0.016 A 
ATOM     22  C   UNL A   1      32.790  28.338  26.708  1.00  0.00     0.037 A 
BRANCH  22  23
ATOM     23  C   UNL A   1      33.252  29.634  27.174  1.00  0.00     0.227 A 
ATOM     24  N   UNL A   1      32.626  30.792  27.252  1.00  0.00    -0.209 NA
ATOM     25  O   UNL A   1      34.603  29.693  27.422  1.00  0.00    -0.436 OA
ATOM     26  C   UNL A   1      33.620  31.677  27.600  1.00  0.00     0.111 A 
ATOM     27  C   UNL A   1      34.834  31.011  27.669  1.00  0.00     0.155 A 
ATOM     28  C   UNL A   1      33.588  33.057  27.831  1.00  0.00     0.053 A 
ATOM     29  C   UNL A   1      36.060  31.613  27.917  1.00  0.00     0.051 A 
ATOM     30  C   UNL A   1      34.809  33.701  28.076  1.00  0.00     0.043 A 
ATOM     31  C   UNL A   1      36.021  32.998  28.108  1.00  0.00     0.024 A 
ATOM     32  Cl  UNL A   1      34.828  35.406  28.321  1.00  0.00    -0.084 Cl
ENDBRANCH  22  23
ENDBRANCH  15  17
ENDBRANCH  12  13
ENDBRANCH   4   7
ENDBRANCH   2   3
ENDBRANCH   1   2
BRANCH   1  33
ATOM     33  C   UNL A   1      36.536  22.866  26.181  1.00  0.00     0.118 C 
BRANCH  33  34
ATOM     34  N   UNL A   1      37.612  21.891  26.090  1.00  0.00    -0.352 N 
ATOM     35  C   UNL A   1      38.968  21.986  26.268  1.00  0.00     0.251 C 
ATOM     36  H   UNL A   1      37.307  20.985  25.853  1.00  0.00     0.163 HD
ATOM     37  O   UNL A   1      39.647  20.985  26.037  1.00  0.00    -0.269 OA
BRANCH  35  38
ATOM     38  C   UNL A   1      39.642  23.227  26.725  1.00  0.00     0.039 A 
ATOM     39  C   UNL A   1      40.561  23.124  27.780  1.00  0.00     0.014 A 
ATOM     40  C   UNL A   1      39.331  24.489  26.213  1.00  0.00     0.014 A 
ATOM     41  C   UNL A   1      41.204  24.262  28.278  1.00  0.00     0.010 A 
ATOM     42  C   UNL A   1      39.986  25.624  26.696  1.00  0.00     0.010 A 
ATOM     43  C   UNL A   1      40.934  25.519  27.724  1.00  0.00    -0.014 A 
BRANCH  43  44
ATOM     44  C   UNL A   1      41.682  26.730  28.139  1.00  0.00     0.031 A 
ATOM     45  C   UNL A   1      43.111  26.932  27.730  1.00  0.00     0.074 A 
ATOM     46  C   UNL A   1      41.097  27.582  29.003  1.00  0.00     0.049 A 
ATOM     47  N   UNL A   1      43.950  27.862  28.102  1.00  0.00    -0.248 NA
ATOM     48  C   UNL A   1      43.675  25.951  26.791  1.00  0.00     0.031 C 
ATOM     49  C   UNL A   1      39.731  27.448  29.515  1.00  0.00     0.029 A 
ATOM     50  N   UNL A   1      41.589  28.690  29.642  1.00  0.00    -0.354 N 
ATOM     51  C   UNL A   1      45.149  27.570  27.465  1.00  0.00     0.074 A 
ATOM     52  C   UNL A   1      44.931  26.367  26.688  1.00  0.00     0.031 C 
ATOM     53  C   UNL A   1      39.512  28.409  30.426  1.00  0.00     0.029 A 
ATOM     54  C   UNL A   1      40.721  29.215  30.570  1.00  0.00     0.049 A 
ATOM     55  H   UNL A   1      42.476  29.073  29.455  1.00  0.00     0.167 HD
ATOM     56  C   UNL A   1      46.316  28.257  27.507  1.00  0.00     0.034 A 
ATOM     57  C   UNL A   1      40.885  30.220  31.452  1.00  0.00     0.034 A 
ATOM     58  C   UNL A   1      46.514  29.471  28.254  1.00  0.00     0.049 A 
ATOM     59  C   UNL A   1      42.175  30.988  31.453  1.00  0.00     0.074 A 
ATOM     60  C   UNL A   1      47.634  30.283  28.298  1.00  0.00     0.029 A 
ATOM     61  N   UNL A   1      45.572  30.046  29.091  1.00  0.00    -0.354 N 
ATOM     62  N   UNL A   1      43.246  30.794  30.721  1.00  0.00    -0.248 NA
ATOM     63  C   UNL A   1      42.270  32.136  32.366  1.00  0.00     0.031 C 
ATOM     64  C   UNL A   1      47.367  31.353  29.160  1.00  0.00     0.029 A 
ATOM     65  C   UNL A   1      46.081  31.203  29.656  1.00  0.00     0.049 A 
ATOM     66  H   UNL A   1      44.671  29.685  29.259  1.00  0.00     0.167 HD
ATOM     67  C   UNL A   1      44.128  31.813  31.058  1.00  0.00     0.074 A 
ATOM     68  C   UNL A   1      43.463  32.631  32.053  1.00  0.00     0.031 C 
ATOM     69  C   UNL A   1      45.382  32.042  30.595  1.00  0.00     0.034 A 
BRANCH  56  70
ATOM     70  C   UNL A   1      47.455  27.752  26.662  1.00  0.00     0.023 A 
ATOM     71  C   UNL A   1      48.489  27.020  27.278  1.00  0.00     0.012 A 
ATOM     72  C   UNL A   1      47.474  27.936  25.266  1.00  0.00     0.148 A 
ATOM     73  C   UNL A   1      49.535  26.494  26.522  1.00  0.00     0.002 A 
ATOM     74  C   UNL A   1      48.507  27.384  24.514  1.00  0.00     0.091 A 
ATOM     75  F   UNL A   1      46.496  28.658  24.699  1.00  0.00    -0.205 F 
ATOM     76  C   UNL A   1      49.539  26.667  25.141  1.00  0.00     0.022 A 
BRANCH  74  77
ATOM     77  S   UNL A   1      48.555  27.508  22.721  1.00  0.00     0.127 S 
ATOM     78  O   UNL A   1      47.349  28.286  22.446  1.00  0.00    -0.237 OA
ATOM     79  O   UNL A   1      49.809  28.226  22.486  1.00  0.00    -0.237 OA
ATOM     80  O   UNL A   1      48.550  26.135  22.235  1.00  0.00    -0.744 OA
ENDBRANCH  74  77
ENDBRANCH  56  70
BRANCH  57  81
ATOM     81  C   UNL A   1      39.753  30.593  32.343  1.00  0.00     0.023 A 
ATOM     82  C   UNL A   1      39.705  30.068  33.648  1.00  0.00     0.012 A 
ATOM     83  C   UNL A   1      38.783  31.533  31.945  1.00  0.00     0.148 A 
ATOM     84  C   UNL A   1      38.704  30.462  34.536  1.00  0.00     0.002 A 
ATOM     85  C   UNL A   1      37.818  31.960  32.851  1.00  0.00     0.091 A 
ATOM     86  F   UNL A   1      38.831  32.010  30.692  1.00  0.00    -0.205 F 
ATOM     87  C   UNL A   1      37.769  31.418  34.143  1.00  0.00     0.022 A 
BRANCH  85  88
ATOM     88  S   UNL A   1      36.687  33.299  32.451  1.00  0.00     0.127 S 
ATOM     89  O   UNL A   1      35.814  32.675  31.462  1.00  0.00    -0.237 OA
ATOM     90  O   UNL A   1      36.054  33.574  33.744  1.00  0.00    -0.237 OA
ATOM     91  O   UNL A   1      37.539  34.380  31.972  1.00  0.00    -0.744 OA
ENDBRANCH  85  88
ENDBRANCH  57  81
BRANCH  69  92
ATOM     92  C   UNL A   1      46.116  33.236  31.137  1.00  0.00     0.023 A 
ATOM     93  C   UNL A   1      46.916  33.089  32.286  1.00  0.00     0.012 A 
ATOM     94  C   UNL A   1      46.084  34.473  30.467  1.00  0.00     0.148 A 
ATOM     95  C   UNL A   1      47.665  34.162  32.769  1.00  0.00     0.002 A 
ATOM     96  C   UNL A   1      46.858  35.530  30.935  1.00  0.00     0.091 A 
ATOM     97  F   UNL A   1      45.294  34.601  29.390  1.00  0.00    -0.205 F 
ATOM     98  C   UNL A   1      47.645  35.378  32.088  1.00  0.00     0.022 A 
BRANCH  96  99
ATOM     99  S   UNL A   1      46.939  37.101  30.066  1.00  0.00     0.127 S 
ATOM    100  O   UNL A   1      47.351  36.683  28.729  1.00  0.00    -0.237 OA
ATOM    101  O   UNL A   1      45.560  37.587  30.154  1.00  0.00    -0.237 OA
ATOM    102  O   UNL A   1      47.903  37.906  30.805  1.00  0.00    -0.744 OA
ENDBRANCH  96  99
ENDBRANCH  69  92
ENDBRANCH  43  44
ENDBRANCH  35  38
ENDBRANCH  33  34
ENDBRANCH   1  33
TORSDOF 16
ENDMDL
