MODEL 1
REMARK VINA RESULT:     -12.0      0.000      0.000
REMARK SMILES O=C(NCCCNC(=O)c1cn(C[C@@H]2CCS(=O)(=O)C2)c(=O)[nH]c1=O)c1ccc(-c2c3nc(c(-c4cccc(S(=O)(=O)[O-])c4F)c4ccc([nH]4)c(-c4cccc(S(=O)(=O)[O-])c4F)c4nc(c(-c5cccc(S(=O)(=O)[O-])c5F)c5ccc2[nH]5)C=C4)C=C3)cc1
REMARK SMILES IDX 4 1 3 2 1 3 2 4 26 6 27 7 88 8 28 9 87 10 29 11 30 12 31 13
REMARK SMILES IDX 81 14 32 15 86 16 80 17 82 18 33 19 85 20 79 21 78 22 34 24
REMARK SMILES IDX 66 25 46 26 65 27 47 28 50 29 64 30 83 31 48 32 49 33 63 35
REMARK SMILES IDX 84 36 51 37 35 38 36 39 44 40 37 41 39 42 45 43 38 44 40 45
REMARK SMILES IDX 41 46 42 47 43 48 67 49 68 50 76 51 69 52 71 53 77 54 70 55
REMARK SMILES IDX 72 56 73 57 74 58 75 59 52 60 53 61 61 62 54 63 56 64 62 65
REMARK SMILES IDX 55 66 57 67 58 68 59 69 60 70 5 71 6 72 7 73 8 74 9 76 10 77
REMARK SMILES IDX 11 78 24 79 12 80 23 81 25 82 21 83 22 85 13 86 14 87 15 88
REMARK SMILES IDX 20 89 16 90 17 91 18 92 19 93
REMARK H PARENT 3 5 82 23 50 34 7 75 23 84
REMARK Flexibility Score: inf
ROOT
ATOM      1  C   UNL A   1      32.861  29.351  25.428  1.00  0.00     0.118 C 
ENDROOT
BRANCH   1   2
ATOM      2  N   UNL A   1      32.472  30.689  25.861  1.00  0.00    -0.352 N 
ATOM      3  O   UNL A   1      32.323  32.485  27.195  1.00  0.00    -0.269 OA
ATOM      4  C   UNL A   1      32.952  31.478  26.876  1.00  0.00     0.251 C 
ATOM      5  H   UNL A   1      31.744  31.095  25.336  1.00  0.00     0.163 HD
BRANCH   4   6
ATOM      6  C   UNL A   1      34.202  31.124  27.580  1.00  0.00     0.039 A 
ATOM      7  C   UNL A   1      35.163  32.113  27.799  1.00  0.00     0.014 A 
ATOM      8  C   UNL A   1      34.450  29.813  27.991  1.00  0.00     0.014 A 
ATOM      9  C   UNL A   1      36.350  31.788  28.462  1.00  0.00     0.010 A 
ATOM     10  C   UNL A   1      35.565  29.523  28.766  1.00  0.00     0.010 A 
ATOM     11  C   UNL A   1      36.550  30.494  28.970  1.00  0.00    -0.014 A 
BRANCH  11  12
ATOM     12  C   UNL A   1      37.815  30.120  29.652  1.00  0.00     0.031 A 
ATOM     13  C   UNL A   1      38.105  30.646  31.036  1.00  0.00     0.074 A 
ATOM     14  C   UNL A   1      38.713  29.338  29.021  1.00  0.00     0.049 A 
ATOM     15  N   UNL A   1      39.163  30.452  31.779  1.00  0.00    -0.248 NA
ATOM     16  C   UNL A   1      37.097  31.524  31.658  1.00  0.00     0.031 C 
ATOM     17  C   UNL A   1      38.585  28.835  27.651  1.00  0.00     0.029 A 
ATOM     18  N   UNL A   1      39.917  28.835  29.447  1.00  0.00    -0.354 N 
ATOM     19  C   UNL A   1      38.957  31.201  32.931  1.00  0.00     0.074 A 
ATOM     20  C   UNL A   1      37.704  31.898  32.775  1.00  0.00     0.031 C 
ATOM     21  C   UNL A   1      39.651  28.071  27.361  1.00  0.00     0.029 A 
ATOM     22  C   UNL A   1      40.551  28.054  28.510  1.00  0.00     0.049 A 
ATOM     23  H   UNL A   1      40.291  29.016  30.339  1.00  0.00     0.167 HD
ATOM     24  C   UNL A   1      39.719  31.263  34.046  1.00  0.00     0.034 A 
ATOM     25  C   UNL A   1      41.726  27.396  28.567  1.00  0.00     0.034 A 
ATOM     26  C   UNL A   1      40.922  30.508  34.236  1.00  0.00     0.049 A 
ATOM     27  C   UNL A   1      42.532  27.441  29.835  1.00  0.00     0.074 A 
ATOM     28  C   UNL A   1      41.717  30.444  35.364  1.00  0.00     0.029 A 
ATOM     29  N   UNL A   1      41.491  29.679  33.285  1.00  0.00    -0.354 N 
ATOM     30  N   UNL A   1      42.260  28.068  30.953  1.00  0.00    -0.248 NA
ATOM     31  C   UNL A   1      43.786  26.674  29.865  1.00  0.00     0.031 C 
ATOM     32  C   UNL A   1      42.777  29.578  35.094  1.00  0.00     0.029 A 
ATOM     33  C   UNL A   1      42.630  29.094  33.803  1.00  0.00     0.049 A 
ATOM     34  H   UNL A   1      41.138  29.529  32.379  1.00  0.00     0.167 HD
ATOM     35  C   UNL A   1      43.295  27.755  31.826  1.00  0.00     0.074 A 
ATOM     36  C   UNL A   1      44.196  26.875  31.113  1.00  0.00     0.031 C 
ATOM     37  C   UNL A   1      43.483  28.174  33.099  1.00  0.00     0.034 A 
BRANCH  24  38
ATOM     38  C   UNL A   1      39.232  32.094  35.198  1.00  0.00     0.023 A 
ATOM     39  C   UNL A   1      38.368  31.507  36.143  1.00  0.00     0.012 A 
ATOM     40  C   UNL A   1      39.723  33.394  35.414  1.00  0.00     0.148 A 
ATOM     41  C   UNL A   1      37.998  32.204  37.292  1.00  0.00     0.002 A 
ATOM     42  C   UNL A   1      39.376  34.072  36.576  1.00  0.00     0.091 A 
ATOM     43  F   UNL A   1      40.535  33.931  34.491  1.00  0.00    -0.205 F 
ATOM     44  C   UNL A   1      38.513  33.479  37.514  1.00  0.00     0.022 A 
BRANCH  42  45
ATOM     45  S   UNL A   1      40.021  35.696  36.988  1.00  0.00     0.127 S 
ATOM     46  O   UNL A   1      39.596  36.484  35.831  1.00  0.00    -0.237 OA
ATOM     47  O   UNL A   1      39.309  36.001  38.229  1.00  0.00    -0.237 OA
ATOM     48  O   UNL A   1      41.461  35.537  37.126  1.00  0.00    -0.744 OA
ENDBRANCH  42  45
ENDBRANCH  24  38
BRANCH  25  49
ATOM     49  C   UNL A   1      42.166  26.589  27.396  1.00  0.00     0.023 A 
ATOM     50  C   UNL A   1      42.911  27.203  26.371  1.00  0.00     0.012 A 
ATOM     51  C   UNL A   1      41.919  25.205  27.338  1.00  0.00     0.148 A 
ATOM     52  C   UNL A   1      43.397  26.450  25.302  1.00  0.00     0.002 A 
ATOM     53  C   UNL A   1      42.439  24.455  26.290  1.00  0.00     0.091 A 
ATOM     54  F   UNL A   1      41.207  24.647  28.326  1.00  0.00    -0.205 F 
ATOM     55  C   UNL A   1      43.170  25.076  25.266  1.00  0.00     0.022 A 
BRANCH  53  56
ATOM     56  S   UNL A   1      42.288  22.666  26.212  1.00  0.00     0.127 S 
ATOM     57  O   UNL A   1      40.842  22.484  26.307  1.00  0.00    -0.237 OA
ATOM     58  O   UNL A   1      42.861  22.376  24.897  1.00  0.00    -0.237 OA
ATOM     59  O   UNL A   1      43.060  22.152  27.334  1.00  0.00    -0.744 OA
ENDBRANCH  53  56
ENDBRANCH  25  49
BRANCH  37  60
ATOM     60  C   UNL A   1      44.688  27.691  33.850  1.00  0.00     0.023 A 
ATOM     61  C   UNL A   1      45.829  28.512  33.916  1.00  0.00     0.012 A 
ATOM     62  C   UNL A   1      44.604  26.542  34.660  1.00  0.00     0.148 A 
ATOM     63  C   UNL A   1      46.868  28.202  34.791  1.00  0.00     0.002 A 
ATOM     64  C   UNL A   1      45.628  26.257  35.553  1.00  0.00     0.091 A 
ATOM     65  F   UNL A   1      43.499  25.785  34.578  1.00  0.00    -0.205 F 
ATOM     66  C   UNL A   1      46.760  27.086  35.619  1.00  0.00     0.022 A 
BRANCH  64  67
ATOM     67  S   UNL A   1      45.546  24.893  36.718  1.00  0.00     0.127 S 
ATOM     68  O   UNL A   1      44.325  25.207  37.459  1.00  0.00    -0.237 OA
ATOM     69  O   UNL A   1      45.442  23.737  35.828  1.00  0.00    -0.237 OA
ATOM     70  O   UNL A   1      46.772  24.954  37.503  1.00  0.00    -0.744 OA
ENDBRANCH  64  67
ENDBRANCH  37  60
ENDBRANCH  11  12
ENDBRANCH   4   6
ENDBRANCH   1   2
BRANCH   1  71
ATOM     71  C   UNL A   1      31.796  28.311  25.731  1.00  0.00     0.042 C 
BRANCH  71  72
ATOM     72  C   UNL A   1      32.369  26.991  26.211  1.00  0.00     0.118 C 
BRANCH  72  73
ATOM     73  N   UNL A   1      31.359  26.063  26.714  1.00  0.00    -0.352 N 
ATOM     74  C   UNL A   1      30.768  24.978  26.112  1.00  0.00     0.258 C 
ATOM     75  H   UNL A   1      31.055  26.243  27.633  1.00  0.00     0.163 HD
ATOM     76  O   UNL A   1      29.941  24.313  26.723  1.00  0.00    -0.269 OA
BRANCH  74  77
ATOM     77  C   UNL A   1      31.166  24.671  24.726  1.00  0.00     0.121 A 
ATOM     78  C   UNL A   1      32.134  23.769  24.517  1.00  0.00     0.110 A 
ATOM     79  C   UNL A   1      30.623  25.400  23.567  1.00  0.00     0.266 A 
ATOM     80  N   UNL A   1      32.804  23.676  23.310  1.00  0.00    -0.299 N 
ATOM     81  N   UNL A   1      31.329  25.247  22.404  1.00  0.00    -0.273 N 
ATOM     82  O   UNL A   1      29.646  26.135  23.626  1.00  0.00    -0.268 OA
ATOM     83  C   UNL A   1      32.460  24.494  22.237  1.00  0.00     0.328 A 
ATOM     84  H   UNL A   1      30.991  25.724  21.612  1.00  0.00     0.175 HD
ATOM     85  O   UNL A   1      33.096  24.547  21.188  1.00  0.00    -0.248 OA
BRANCH  80  86
ATOM     86  C   UNL A   1      34.029  22.884  23.242  1.00  0.00     0.131 C 
BRANCH  86  87
ATOM     87  C   UNL A   1      35.355  23.620  23.505  1.00  0.00     0.025 C 
ATOM     88  C   UNL A   1      36.628  22.856  23.114  1.00  0.00     0.022 C 
ATOM     89  C   UNL A   1      35.551  24.078  24.952  1.00  0.00     0.142 C 
ATOM     90  C   UNL A   1      37.074  21.985  24.283  1.00  0.00     0.137 C 
ATOM     91  S   UNL A   1      36.550  22.837  25.756  1.00  0.00     0.150 S 
ATOM     92  O   UNL A   1      35.681  21.966  26.523  1.00  0.00    -0.229 OA
ATOM     93  O   UNL A   1      37.695  23.491  26.349  1.00  0.00    -0.229 OA
ENDBRANCH  86  87
ENDBRANCH  80  86
ENDBRANCH  74  77
ENDBRANCH  72  73
ENDBRANCH  71  72
ENDBRANCH   1  71
TORSDOF 15
ENDMDL
MODEL 2
REMARK VINA RESULT:     -12.0      1.288      2.203
REMARK SMILES O=C(NCCCNC(=O)c1cn(C[C@@H]2CCS(=O)(=O)C2)c(=O)[nH]c1=O)c1ccc(-c2c3nc(c(-c4cccc(S(=O)(=O)[O-])c4F)c4ccc([nH]4)c(-c4cccc(S(=O)(=O)[O-])c4F)c4nc(c(-c5cccc(S(=O)(=O)[O-])c5F)c5ccc2[nH]5)C=C4)C=C3)cc1
REMARK SMILES IDX 4 1 3 2 1 3 2 4 26 6 27 7 88 8 28 9 87 10 29 11 30 12 31 13
REMARK SMILES IDX 81 14 32 15 86 16 80 17 82 18 33 19 85 20 79 21 78 22 34 24
REMARK SMILES IDX 66 25 46 26 65 27 47 28 50 29 64 30 83 31 48 32 49 33 63 35
REMARK SMILES IDX 84 36 51 37 35 38 36 39 44 40 37 41 39 42 45 43 38 44 40 45
REMARK SMILES IDX 41 46 42 47 43 48 67 49 68 50 76 51 69 52 71 53 77 54 70 55
REMARK SMILES IDX 72 56 73 57 74 58 75 59 52 60 53 61 61 62 54 63 56 64 62 65
REMARK SMILES IDX 55 66 57 67 58 68 59 69 60 70 5 71 6 72 7 73 8 74 9 76 10 77
REMARK SMILES IDX 11 78 24 79 12 80 23 81 25 82 21 83 22 85 13 86 14 87 15 88
REMARK SMILES IDX 20 89 16 90 17 91 18 92 19 93
REMARK H PARENT 3 5 82 23 50 34 7 75 23 84
REMARK Flexibility Score: inf
ROOT
ATOM      1  C   UNL A   1      32.845  29.592  25.431  1.00  0.00     0.118 C 
ENDROOT
BRANCH   1   2
ATOM      2  N   UNL A   1      32.497  30.926  25.909  1.00  0.00    -0.352 N 
ATOM      3  O   UNL A   1      32.406  32.682  27.301  1.00  0.00    -0.269 OA
ATOM      4  C   UNL A   1      33.006  31.669  26.944  1.00  0.00     0.251 C 
ATOM      5  H   UNL A   1      31.776  31.367  25.404  1.00  0.00     0.163 HD
BRANCH   4   6
ATOM      6  C   UNL A   1      34.251  31.259  27.627  1.00  0.00     0.039 A 
ATOM      7  C   UNL A   1      34.418  29.921  27.990  1.00  0.00     0.014 A 
ATOM      8  C   UNL A   1      35.237  32.193  27.947  1.00  0.00     0.014 A 
ATOM      9  C   UNL A   1      35.590  29.523  28.638  1.00  0.00     0.010 A 
ATOM     10  C   UNL A   1      36.454  31.773  28.467  1.00  0.00     0.010 A 
ATOM     11  C   UNL A   1      36.628  30.443  28.862  1.00  0.00    -0.014 A 
BRANCH  11  12
ATOM     12  C   UNL A   1      37.869  30.048  29.575  1.00  0.00     0.031 A 
ATOM     13  C   UNL A   1      38.138  30.577  30.962  1.00  0.00     0.074 A 
ATOM     14  C   UNL A   1      38.765  29.245  28.968  1.00  0.00     0.049 A 
ATOM     15  N   UNL A   1      39.174  30.368  31.730  1.00  0.00    -0.248 NA
ATOM     16  C   UNL A   1      37.134  31.479  31.556  1.00  0.00     0.031 C 
ATOM     17  C   UNL A   1      38.659  28.736  27.599  1.00  0.00     0.029 A 
ATOM     18  N   UNL A   1      39.949  28.722  29.425  1.00  0.00    -0.354 N 
ATOM     19  C   UNL A   1      38.958  31.128  32.872  1.00  0.00     0.074 A 
ATOM     20  C   UNL A   1      37.723  31.847  32.684  1.00  0.00     0.031 C 
ATOM     21  C   UNL A   1      39.716  27.949  27.338  1.00  0.00     0.029 A 
ATOM     22  C   UNL A   1      40.589  27.922  28.507  1.00  0.00     0.049 A 
ATOM     23  H   UNL A   1      40.307  28.901  30.324  1.00  0.00     0.167 HD
ATOM     24  C   UNL A   1      39.695  31.182  34.003  1.00  0.00     0.034 A 
ATOM     25  C   UNL A   1      41.750  27.242  28.595  1.00  0.00     0.034 A 
ATOM     26  C   UNL A   1      40.879  30.405  34.226  1.00  0.00     0.049 A 
ATOM     27  C   UNL A   1      42.527  27.280  29.880  1.00  0.00     0.074 A 
ATOM     28  C   UNL A   1      41.647  30.333  35.371  1.00  0.00     0.029 A 
ATOM     29  N   UNL A   1      41.453  29.559  33.293  1.00  0.00    -0.354 N 
ATOM     30  N   UNL A   1      42.243  27.919  30.988  1.00  0.00    -0.248 NA
ATOM     31  C   UNL A   1      43.766  26.490  29.943  1.00  0.00     0.031 C 
ATOM     32  C   UNL A   1      42.695  29.445  35.131  1.00  0.00     0.029 A 
ATOM     33  C   UNL A   1      42.568  28.956  33.839  1.00  0.00     0.049 A 
ATOM     34  H   UNL A   1      41.118  29.410  32.380  1.00  0.00     0.167 HD
ATOM     35  C   UNL A   1      43.251  27.592  31.886  1.00  0.00     0.074 A 
ATOM     36  C   UNL A   1      44.151  26.690  31.198  1.00  0.00     0.031 C 
ATOM     37  C   UNL A   1      43.419  28.016  33.160  1.00  0.00     0.034 A 
BRANCH  24  38
ATOM     38  C   UNL A   1      39.198  32.030  35.139  1.00  0.00     0.023 A 
ATOM     39  C   UNL A   1      38.310  31.462  36.074  1.00  0.00     0.012 A 
ATOM     40  C   UNL A   1      39.703  33.325  35.353  1.00  0.00     0.148 A 
ATOM     41  C   UNL A   1      37.929  32.174  37.210  1.00  0.00     0.002 A 
ATOM     42  C   UNL A   1      39.343  34.017  36.502  1.00  0.00     0.091 A 
ATOM     43  F   UNL A   1      40.539  33.843  34.441  1.00  0.00    -0.205 F 
ATOM     44  C   UNL A   1      38.457  33.444  37.430  1.00  0.00     0.022 A 
BRANCH  42  45
ATOM     45  S   UNL A   1      40.002  35.637  36.912  1.00  0.00     0.127 S 
ATOM     46  O   UNL A   1      39.316  35.924  38.172  1.00  0.00    -0.237 OA
ATOM     47  O   UNL A   1      41.432  35.360  37.045  1.00  0.00    -0.237 OA
ATOM     48  O   UNL A   1      39.644  36.512  35.805  1.00  0.00    -0.744 OA
ENDBRANCH  42  45
ENDBRANCH  24  38
BRANCH  25  49
ATOM     49  C   UNL A   1      42.200  26.420  27.438  1.00  0.00     0.023 A 
ATOM     50  C   UNL A   1      43.059  26.986  26.478  1.00  0.00     0.012 A 
ATOM     51  C   UNL A   1      41.846  25.062  27.336  1.00  0.00     0.148 A 
ATOM     52  C   UNL A   1      43.553  26.211  25.427  1.00  0.00     0.002 A 
ATOM     53  C   UNL A   1      42.373  24.287  26.309  1.00  0.00     0.091 A 
ATOM     54  F   UNL A   1      41.027  24.549  28.264  1.00  0.00    -0.205 F 
ATOM     55  C   UNL A   1      43.219  24.862  25.349  1.00  0.00     0.022 A 
BRANCH  53  56
ATOM     56  S   UNL A   1      42.083  22.518  26.185  1.00  0.00     0.127 S 
ATOM     57  O   UNL A   1      42.793  22.186  24.952  1.00  0.00    -0.237 OA
ATOM     58  O   UNL A   1      42.713  22.026  27.411  1.00  0.00    -0.237 OA
ATOM     59  O   UNL A   1      40.638  22.354  26.140  1.00  0.00    -0.744 OA
ENDBRANCH  53  56
ENDBRANCH  25  49
BRANCH  37  60
ATOM     60  C   UNL A   1      44.598  27.514  33.942  1.00  0.00     0.023 A 
ATOM     61  C   UNL A   1      45.761  28.303  34.009  1.00  0.00     0.012 A 
ATOM     62  C   UNL A   1      44.467  26.385  34.773  1.00  0.00     0.148 A 
ATOM     63  C   UNL A   1      46.776  27.982  34.908  1.00  0.00     0.002 A 
ATOM     64  C   UNL A   1      45.467  26.090  35.690  1.00  0.00     0.091 A 
ATOM     65  F   UNL A   1      43.341  25.659  34.689  1.00  0.00    -0.205 F 
ATOM     66  C   UNL A   1      46.622  26.888  35.757  1.00  0.00     0.022 A 
BRANCH  64  67
ATOM     67  S   UNL A   1      45.327  24.754  36.881  1.00  0.00     0.127 S 
ATOM     68  O   UNL A   1      44.109  25.123  37.601  1.00  0.00    -0.237 OA
ATOM     69  O   UNL A   1      45.195  23.584  36.014  1.00  0.00    -0.237 OA
ATOM     70  O   UNL A   1      46.545  24.791  37.680  1.00  0.00    -0.744 OA
ENDBRANCH  64  67
ENDBRANCH  37  60
ENDBRANCH  11  12
ENDBRANCH   4   6
ENDBRANCH   1   2
BRANCH   1  71
ATOM     71  C   UNL A   1      31.622  28.753  25.107  1.00  0.00     0.042 C 
BRANCH  71  72
ATOM     72  C   UNL A   1      31.379  28.600  23.617  1.00  0.00     0.118 C 
BRANCH  72  73
ATOM     73  N   UNL A   1      32.578  28.787  22.805  1.00  0.00    -0.352 N 
ATOM     74  C   UNL A   1      33.433  27.862  22.255  1.00  0.00     0.258 C 
ATOM     75  H   UNL A   1      32.811  29.726  22.623  1.00  0.00     0.163 HD
ATOM     76  O   UNL A   1      34.389  28.234  21.585  1.00  0.00    -0.269 OA
BRANCH  74  77
ATOM     77  C   UNL A   1      33.151  26.438  22.513  1.00  0.00     0.121 A 
ATOM     78  C   UNL A   1      33.682  25.861  23.599  1.00  0.00     0.110 A 
ATOM     79  C   UNL A   1      32.402  25.595  21.565  1.00  0.00     0.266 A 
ATOM     80  N   UNL A   1      33.766  24.488  23.734  1.00  0.00    -0.299 N 
ATOM     81  N   UNL A   1      32.519  24.247  21.772  1.00  0.00    -0.273 N 
ATOM     82  O   UNL A   1      31.759  26.041  20.623  1.00  0.00    -0.268 OA
ATOM     83  C   UNL A   1      33.250  23.640  22.757  1.00  0.00     0.328 A 
ATOM     84  H   UNL A   1      32.032  23.657  21.152  1.00  0.00     0.175 HD
ATOM     85  O   UNL A   1      33.405  22.422  22.760  1.00  0.00    -0.248 OA
BRANCH  80  86
ATOM     86  C   UNL A   1      34.609  23.933  24.791  1.00  0.00     0.131 C 
BRANCH  86  87
ATOM     87  C   UNL A   1      33.966  23.753  26.177  1.00  0.00     0.025 C 
ATOM     88  C   UNL A   1      33.600  22.311  26.557  1.00  0.00     0.022 C 
ATOM     89  C   UNL A   1      32.709  24.595  26.409  1.00  0.00     0.142 C 
ATOM     90  C   UNL A   1      32.196  21.996  26.051  1.00  0.00     0.137 C 
ATOM     91  S   UNL A   1      31.311  23.540  26.071  1.00  0.00     0.150 S 
ATOM     92  O   UNL A   1      30.825  23.825  24.735  1.00  0.00    -0.229 OA
ATOM     93  O   UNL A   1      30.437  23.563  27.224  1.00  0.00    -0.229 OA
ENDBRANCH  86  87
ENDBRANCH  80  86
ENDBRANCH  74  77
ENDBRANCH  72  73
ENDBRANCH  71  72
ENDBRANCH   1  71
TORSDOF 15
ENDMDL
MODEL 3
REMARK VINA RESULT:     -12.0      1.755      2.379
REMARK SMILES O=C(NCCCNC(=O)c1cn(C[C@@H]2CCS(=O)(=O)C2)c(=O)[nH]c1=O)c1ccc(-c2c3nc(c(-c4cccc(S(=O)(=O)[O-])c4F)c4ccc([nH]4)c(-c4cccc(S(=O)(=O)[O-])c4F)c4nc(c(-c5cccc(S(=O)(=O)[O-])c5F)c5ccc2[nH]5)C=C4)C=C3)cc1
REMARK SMILES IDX 4 1 3 2 1 3 2 4 26 6 27 7 88 8 28 9 87 10 29 11 30 12 31 13
REMARK SMILES IDX 81 14 32 15 86 16 80 17 82 18 33 19 85 20 79 21 78 22 34 24
REMARK SMILES IDX 66 25 46 26 65 27 47 28 50 29 64 30 83 31 48 32 49 33 63 35
REMARK SMILES IDX 84 36 51 37 35 38 36 39 44 40 37 41 39 42 45 43 38 44 40 45
REMARK SMILES IDX 41 46 42 47 43 48 67 49 68 50 76 51 69 52 71 53 77 54 70 55
REMARK SMILES IDX 72 56 73 57 74 58 75 59 52 60 53 61 61 62 54 63 56 64 62 65
REMARK SMILES IDX 55 66 57 67 58 68 59 69 60 70 5 71 6 72 7 73 8 74 9 76 10 77
REMARK SMILES IDX 11 78 24 79 12 80 23 81 25 82 21 83 22 85 13 86 14 87 15 88
REMARK SMILES IDX 20 89 16 90 17 91 18 92 19 93
REMARK H PARENT 3 5 82 23 50 34 7 75 23 84
REMARK Flexibility Score: inf
ROOT
ATOM      1  C   UNL A   1      33.157  29.267  25.839  1.00  0.00     0.118 C 
ENDROOT
BRANCH   1   2
ATOM      2  N   UNL A   1      32.854  30.641  26.226  1.00  0.00    -0.352 N 
ATOM      3  O   UNL A   1      32.860  32.501  27.478  1.00  0.00    -0.269 OA
ATOM      4  C   UNL A   1      33.424  31.451  27.176  1.00  0.00     0.251 C 
ATOM      5  H   UNL A   1      32.119  31.057  25.721  1.00  0.00     0.163 HD
BRANCH   4   6
ATOM      6  C   UNL A   1      34.692  31.069  27.831  1.00  0.00     0.039 A 
ATOM      7  C   UNL A   1      35.729  32.003  27.903  1.00  0.00     0.014 A 
ATOM      8  C   UNL A   1      34.881  29.784  28.340  1.00  0.00     0.014 A 
ATOM      9  C   UNL A   1      36.933  31.652  28.517  1.00  0.00     0.010 A 
ATOM     10  C   UNL A   1      36.024  29.481  29.068  1.00  0.00     0.010 A 
ATOM     11  C   UNL A   1      37.082  30.394  29.125  1.00  0.00    -0.014 A 
BRANCH  11  12
ATOM     12  C   UNL A   1      38.363  29.989  29.758  1.00  0.00     0.031 A 
ATOM     13  C   UNL A   1      38.730  30.529  31.118  1.00  0.00     0.074 A 
ATOM     14  C   UNL A   1      39.206  29.166  29.104  1.00  0.00     0.049 A 
ATOM     15  N   UNL A   1      39.812  30.313  31.819  1.00  0.00    -0.248 NA
ATOM     16  C   UNL A   1      37.780  31.452  31.767  1.00  0.00     0.031 C 
ATOM     17  C   UNL A   1      39.002  28.643  27.751  1.00  0.00     0.029 A 
ATOM     18  N   UNL A   1      40.410  28.630  29.487  1.00  0.00    -0.354 N 
ATOM     19  C   UNL A   1      39.682  31.089  32.964  1.00  0.00     0.074 A 
ATOM     20  C   UNL A   1      38.448  31.824  32.848  1.00  0.00     0.031 C 
ATOM     21  C   UNL A   1      40.028  27.838  27.430  1.00  0.00     0.029 A 
ATOM     22  C   UNL A   1      40.976  27.811  28.539  1.00  0.00     0.049 A 
ATOM     23  H   UNL A   1      40.828  28.814  30.359  1.00  0.00     0.167 HD
ATOM     24  C   UNL A   1      40.494  31.145  34.043  1.00  0.00     0.034 A 
ATOM     25  C   UNL A   1      42.130  27.115  28.558  1.00  0.00     0.034 A 
ATOM     26  C   UNL A   1      41.679  30.353  34.196  1.00  0.00     0.049 A 
ATOM     27  C   UNL A   1      42.992  27.156  29.789  1.00  0.00     0.074 A 
ATOM     28  C   UNL A   1      42.520  30.283  35.289  1.00  0.00     0.029 A 
ATOM     29  N   UNL A   1      42.178  29.488  33.237  1.00  0.00    -0.354 N 
ATOM     30  N   UNL A   1      42.790  27.811  30.905  1.00  0.00    -0.248 NA
ATOM     31  C   UNL A   1      44.221  26.348  29.779  1.00  0.00     0.031 C 
ATOM     32  C   UNL A   1      43.537  29.376  34.990  1.00  0.00     0.029 A 
ATOM     33  C   UNL A   1      43.318  28.875  33.716  1.00  0.00     0.049 A 
ATOM     34  H   UNL A   1      41.781  29.334  32.350  1.00  0.00     0.167 HD
ATOM     35  C   UNL A   1      43.851  27.479  31.738  1.00  0.00     0.074 A 
ATOM     36  C   UNL A   1      44.691  26.557  31.004  1.00  0.00     0.031 C 
ATOM     37  C   UNL A   1      44.109  27.914  32.994  1.00  0.00     0.034 A 
BRANCH  24  38
ATOM     38  C   UNL A   1      40.085  32.012  35.199  1.00  0.00     0.023 A 
ATOM     39  C   UNL A   1      40.503  33.358  35.221  1.00  0.00     0.012 A 
ATOM     40  C   UNL A   1      39.195  31.541  36.180  1.00  0.00     0.148 A 
ATOM     41  C   UNL A   1      40.038  34.226  36.207  1.00  0.00     0.002 A 
ATOM     42  C   UNL A   1      38.712  32.420  37.142  1.00  0.00     0.091 A 
ATOM     43  F   UNL A   1      38.823  30.254  36.140  1.00  0.00    -0.205 F 
ATOM     44  C   UNL A   1      39.133  33.760  37.158  1.00  0.00     0.022 A 
BRANCH  42  45
ATOM     45  S   UNL A   1      37.504  31.941  38.382  1.00  0.00     0.127 S 
ATOM     46  O   UNL A   1      38.258  32.137  39.620  1.00  0.00    -0.237 OA
ATOM     47  O   UNL A   1      36.434  32.913  38.157  1.00  0.00    -0.237 OA
ATOM     48  O   UNL A   1      37.152  30.558  38.092  1.00  0.00    -0.744 OA
ENDBRANCH  42  45
ENDBRANCH  24  38
BRANCH  25  49
ATOM     49  C   UNL A   1      42.492  26.274  27.384  1.00  0.00     0.023 A 
ATOM     50  C   UNL A   1      43.310  26.810  26.372  1.00  0.00     0.012 A 
ATOM     51  C   UNL A   1      42.095  24.926  27.312  1.00  0.00     0.148 A 
ATOM     52  C   UNL A   1      43.722  26.015  25.301  1.00  0.00     0.002 A 
ATOM     53  C   UNL A   1      42.541  24.130  26.264  1.00  0.00     0.091 A 
ATOM     54  F   UNL A   1      41.316  24.441  28.290  1.00  0.00    -0.205 F 
ATOM     55  C   UNL A   1      43.347  24.675  25.252  1.00  0.00     0.022 A 
BRANCH  53  56
ATOM     56  S   UNL A   1      42.196  22.369  26.170  1.00  0.00     0.127 S 
ATOM     57  O   UNL A   1      42.901  21.992  24.947  1.00  0.00    -0.237 OA
ATOM     58  O   UNL A   1      42.804  21.880  27.408  1.00  0.00    -0.237 OA
ATOM     59  O   UNL A   1      40.747  22.250  26.119  1.00  0.00    -0.744 OA
ENDBRANCH  53  56
ENDBRANCH  25  49
BRANCH  37  60
ATOM     60  C   UNL A   1      45.330  27.404  33.702  1.00  0.00     0.023 A 
ATOM     61  C   UNL A   1      46.499  28.186  33.700  1.00  0.00     0.012 A 
ATOM     62  C   UNL A   1      45.242  26.274  34.537  1.00  0.00     0.148 A 
ATOM     63  C   UNL A   1      47.565  27.857  34.535  1.00  0.00     0.002 A 
ATOM     64  C   UNL A   1      46.294  25.972  35.391  1.00  0.00     0.091 A 
ATOM     65  F   UNL A   1      44.110  25.555  34.520  1.00  0.00    -0.205 F 
ATOM     66  C   UNL A   1      47.456  26.762  35.390  1.00  0.00     0.022 A 
BRANCH  64  67
ATOM     67  S   UNL A   1      46.219  24.633  36.586  1.00  0.00     0.127 S 
ATOM     68  O   UNL A   1      46.775  23.518  35.819  1.00  0.00    -0.237 OA
ATOM     69  O   UNL A   1      47.083  25.130  37.656  1.00  0.00    -0.237 OA
ATOM     70  O   UNL A   1      44.816  24.488  36.948  1.00  0.00    -0.744 OA
ENDBRANCH  64  67
ENDBRANCH  37  60
ENDBRANCH  11  12
ENDBRANCH   4   6
ENDBRANCH   1   2
BRANCH   1  71
ATOM     71  C   UNL A   1      31.928  28.516  25.359  1.00  0.00     0.042 C 
BRANCH  71  72
ATOM     72  C   UNL A   1      31.538  28.854  23.932  1.00  0.00     0.118 C 
BRANCH  72  73
ATOM     73  N   UNL A   1      32.679  28.989  23.029  1.00  0.00    -0.352 N 
ATOM     74  C   UNL A   1      33.427  28.028  22.391  1.00  0.00     0.258 C 
ATOM     75  H   UNL A   1      32.955  29.916  22.849  1.00  0.00     0.163 HD
ATOM     76  O   UNL A   1      34.348  28.358  21.655  1.00  0.00    -0.269 OA
BRANCH  74  77
ATOM     77  C   UNL A   1      33.076  26.618  22.641  1.00  0.00     0.121 A 
ATOM     78  C   UNL A   1      33.867  25.888  23.438  1.00  0.00     0.110 A 
ATOM     79  C   UNL A   1      31.956  25.948  21.959  1.00  0.00     0.266 A 
ATOM     80  N   UNL A   1      33.824  24.505  23.450  1.00  0.00    -0.299 N 
ATOM     81  N   UNL A   1      31.971  24.581  22.027  1.00  0.00    -0.273 N 
ATOM     82  O   UNL A   1      31.094  26.545  21.327  1.00  0.00    -0.268 OA
ATOM     83  C   UNL A   1      32.910  23.812  22.660  1.00  0.00     0.328 A 
ATOM     84  H   UNL A   1      31.235  24.104  21.578  1.00  0.00     0.175 HD
ATOM     85  O   UNL A   1      32.908  22.591  22.532  1.00  0.00    -0.248 OA
BRANCH  80  86
ATOM     86  C   UNL A   1      34.898  23.771  24.113  1.00  0.00     0.131 C 
BRANCH  86  87
ATOM     87  C   UNL A   1      34.899  23.770  25.652  1.00  0.00     0.025 C 
ATOM     88  C   UNL A   1      35.342  22.457  26.315  1.00  0.00     0.022 C 
ATOM     89  C   UNL A   1      33.559  24.147  26.288  1.00  0.00     0.142 C 
ATOM     90  C   UNL A   1      34.133  21.543  26.483  1.00  0.00     0.137 C 
ATOM     91  S   UNL A   1      32.730  22.619  26.691  1.00  0.00     0.150 S 
ATOM     92  O   UNL A   1      31.755  22.333  25.658  1.00  0.00    -0.229 OA
ATOM     93  O   UNL A   1      32.372  22.654  28.093  1.00  0.00    -0.229 OA
ENDBRANCH  86  87
ENDBRANCH  80  86
ENDBRANCH  74  77
ENDBRANCH  72  73
ENDBRANCH  71  72
ENDBRANCH   1  71
TORSDOF 15
ENDMDL
