MODEL 1
REMARK VINA RESULT:     -12.4      0.000      0.000
REMARK SMILES O=C(NCCCNC(=O)C1(NC(=O)c2ccncc2Cl)CCCCC1)c1ccc(-c2c3nc(c(-c4cccc(S(=O)(=O)[O-])c4F)c4ccc([nH]4)c(-c4cccc(S(=O)(=O)[O-])c4F)c4nc(c(-c5cccc(S(=O)(=O)[O-])c5F)c5ccc2[nH]5)C=C4)C=C3)cc1
REMARK SMILES IDX 4 1 3 2 1 3 2 4 26 6 27 7 88 8 28 9 87 10 29 11 30 12 31 13
REMARK SMILES IDX 81 14 32 15 86 16 80 17 82 18 33 19 85 20 79 21 78 22 34 24
REMARK SMILES IDX 66 25 46 26 65 27 47 28 50 29 64 30 83 31 48 32 49 33 63 35
REMARK SMILES IDX 84 36 51 37 35 38 36 39 44 40 37 41 39 42 45 43 38 44 40 45
REMARK SMILES IDX 41 46 42 47 43 48 67 49 68 50 76 51 69 52 71 53 77 54 70 55
REMARK SMILES IDX 72 56 73 57 74 58 75 59 52 60 53 61 61 62 54 63 56 64 62 65
REMARK SMILES IDX 55 66 57 67 58 68 59 69 60 70 5 71 6 72 7 73 8 74 9 76 10 77
REMARK SMILES IDX 21 78 25 79 22 80 24 81 23 82 11 83 12 84 13 86 14 87 15 88
REMARK SMILES IDX 19 89 16 90 18 91 20 92 17 93
REMARK H PARENT 3 5 82 23 50 34 7 75 11 85
REMARK Flexibility Score: inf
ROOT
ATOM      1  C   UNL A   1      32.994  29.381  25.556  1.00  0.00     0.118 C 
ENDROOT
BRANCH   1   2
ATOM      2  N   UNL A   1      32.435  30.672  25.943  1.00  0.00    -0.352 N 
ATOM      3  O   UNL A   1      32.223  32.499  27.251  1.00  0.00    -0.269 OA
ATOM      4  C   UNL A   1      32.885  31.525  26.925  1.00  0.00     0.251 C 
ATOM      5  H   UNL A   1      31.643  30.969  25.441  1.00  0.00     0.163 HD
BRANCH   4   6
ATOM      6  C   UNL A   1      34.167  31.209  27.584  1.00  0.00     0.039 A 
ATOM      7  C   UNL A   1      34.366  29.935  28.122  1.00  0.00     0.014 A 
ATOM      8  C   UNL A   1      35.135  32.204  27.728  1.00  0.00     0.014 A 
ATOM      9  C   UNL A   1      35.465  29.700  28.930  1.00  0.00     0.010 A 
ATOM     10  C   UNL A   1      36.294  31.931  28.458  1.00  0.00     0.010 A 
ATOM     11  C   UNL A   1      36.455  30.686  29.085  1.00  0.00    -0.014 A 
BRANCH  11  12
ATOM     12  C   UNL A   1      37.693  30.329  29.818  1.00  0.00     0.031 A 
ATOM     13  C   UNL A   1      37.934  30.773  31.230  1.00  0.00     0.074 A 
ATOM     14  C   UNL A   1      38.588  29.551  29.179  1.00  0.00     0.049 A 
ATOM     15  N   UNL A   1      38.936  30.479  32.017  1.00  0.00    -0.248 NA
ATOM     16  C   UNL A   1      36.937  31.668  31.842  1.00  0.00     0.031 C 
ATOM     17  C   UNL A   1      38.471  29.112  27.785  1.00  0.00     0.029 A 
ATOM     18  N   UNL A   1      39.753  28.976  29.609  1.00  0.00    -0.354 N 
ATOM     19  C   UNL A   1      38.715  31.174  33.199  1.00  0.00     0.074 A 
ATOM     20  C   UNL A   1      37.481  31.911  33.028  1.00  0.00     0.031 C 
ATOM     21  C   UNL A   1      39.491  28.296  27.491  1.00  0.00     0.029 A 
ATOM     22  C   UNL A   1      40.365  28.200  28.652  1.00  0.00     0.049 A 
ATOM     23  H   UNL A   1      40.118  29.106  30.514  1.00  0.00     0.167 HD
ATOM     24  C   UNL A   1      39.467  31.180  34.326  1.00  0.00     0.034 A 
ATOM     25  C   UNL A   1      41.506  27.490  28.700  1.00  0.00     0.034 A 
ATOM     26  C   UNL A   1      40.674  30.412  34.494  1.00  0.00     0.049 A 
ATOM     27  C   UNL A   1      42.280  27.470  29.985  1.00  0.00     0.074 A 
ATOM     28  C   UNL A   1      41.490  30.323  35.608  1.00  0.00     0.029 A 
ATOM     29  N   UNL A   1      41.236  29.596  33.523  1.00  0.00    -0.354 N 
ATOM     30  N   UNL A   1      41.995  28.048  31.126  1.00  0.00    -0.248 NA
ATOM     31  C   UNL A   1      43.520  26.683  29.997  1.00  0.00     0.031 C 
ATOM     32  C   UNL A   1      42.547  29.455  35.310  1.00  0.00     0.029 A 
ATOM     33  C   UNL A   1      42.385  28.998  34.012  1.00  0.00     0.049 A 
ATOM     34  H   UNL A   1      40.871  29.462  32.618  1.00  0.00     0.167 HD
ATOM     35  C   UNL A   1      43.018  27.696  31.994  1.00  0.00     0.074 A 
ATOM     36  C   UNL A   1      43.903  26.814  31.260  1.00  0.00     0.031 C 
ATOM     37  C   UNL A   1      43.228  28.094  33.273  1.00  0.00     0.034 A 
BRANCH  24  38
ATOM     38  C   UNL A   1      38.984  32.000  35.494  1.00  0.00     0.023 A 
ATOM     39  C   UNL A   1      39.113  33.402  35.449  1.00  0.00     0.012 A 
ATOM     40  C   UNL A   1      38.325  31.401  36.586  1.00  0.00     0.148 A 
ATOM     41  C   UNL A   1      38.610  34.196  36.479  1.00  0.00     0.002 A 
ATOM     42  C   UNL A   1      37.797  32.201  37.595  1.00  0.00     0.091 A 
ATOM     43  F   UNL A   1      38.231  30.065  36.620  1.00  0.00    -0.205 F 
ATOM     44  C   UNL A   1      37.944  33.598  37.545  1.00  0.00     0.022 A 
BRANCH  42  45
ATOM     45  S   UNL A   1      36.865  31.534  38.978  1.00  0.00     0.127 S 
ATOM     46  O   UNL A   1      35.729  32.453  39.038  1.00  0.00    -0.237 OA
ATOM     47  O   UNL A   1      36.537  30.188  38.509  1.00  0.00    -0.237 OA
ATOM     48  O   UNL A   1      37.764  31.576  40.124  1.00  0.00    -0.744 OA
ENDBRANCH  42  45
ENDBRANCH  24  38
BRANCH  25  49
ATOM     49  C   UNL A   1      41.939  26.710  27.509  1.00  0.00     0.023 A 
ATOM     50  C   UNL A   1      42.692  27.340  26.501  1.00  0.00     0.012 A 
ATOM     51  C   UNL A   1      41.671  25.331  27.404  1.00  0.00     0.148 A 
ATOM     52  C   UNL A   1      43.154  26.614  25.402  1.00  0.00     0.002 A 
ATOM     53  C   UNL A   1      42.190  24.602  26.342  1.00  0.00     0.091 A 
ATOM     54  F   UNL A   1      40.933  24.747  28.360  1.00  0.00    -0.205 F 
ATOM     55  C   UNL A   1      42.919  25.243  25.330  1.00  0.00     0.022 A 
BRANCH  53  56
ATOM     56  S   UNL A   1      42.060  22.811  26.297  1.00  0.00     0.127 S 
ATOM     57  O   UNL A   1      42.654  22.496  25.003  1.00  0.00    -0.237 OA
ATOM     58  O   UNL A   1      42.856  22.405  27.456  1.00  0.00    -0.237 OA
ATOM     59  O   UNL A   1      40.633  22.542  26.439  1.00  0.00    -0.744 OA
ENDBRANCH  53  56
ENDBRANCH  25  49
BRANCH  37  60
ATOM     60  C   UNL A   1      44.471  27.583  33.945  1.00  0.00     0.023 A 
ATOM     61  C   UNL A   1      45.662  28.330  33.846  1.00  0.00     0.012 A 
ATOM     62  C   UNL A   1      44.458  26.394  34.698  1.00  0.00     0.148 A 
ATOM     63  C   UNL A   1      46.832  27.884  34.458  1.00  0.00     0.002 A 
ATOM     64  C   UNL A   1      45.618  25.976  35.338  1.00  0.00     0.091 A 
ATOM     65  F   UNL A   1      43.322  25.684  34.757  1.00  0.00    -0.205 F 
ATOM     66  C   UNL A   1      46.807  26.712  35.212  1.00  0.00     0.022 A 
BRANCH  64  67
ATOM     67  S   UNL A   1      45.644  24.521  36.391  1.00  0.00     0.127 S 
ATOM     68  O   UNL A   1      47.025  24.523  36.870  1.00  0.00    -0.237 OA
ATOM     69  O   UNL A   1      44.645  24.848  37.410  1.00  0.00    -0.237 OA
ATOM     70  O   UNL A   1      45.273  23.408  35.527  1.00  0.00    -0.744 OA
ENDBRANCH  64  67
ENDBRANCH  37  60
ENDBRANCH  11  12
ENDBRANCH   4   6
ENDBRANCH   1   2
BRANCH   1  71
ATOM     71  C   UNL A   1      32.039  28.231  25.827  1.00  0.00     0.042 C 
BRANCH  71  72
ATOM     72  C   UNL A   1      32.755  27.033  26.424  1.00  0.00     0.117 C 
BRANCH  72  73
ATOM     73  N   UNL A   1      31.813  26.045  26.919  1.00  0.00    -0.354 N 
ATOM     74  C   UNL A   1      31.778  24.691  26.764  1.00  0.00     0.245 C 
ATOM     75  H   UNL A   1      31.078  26.415  27.457  1.00  0.00     0.163 HD
ATOM     76  O   UNL A   1      30.803  24.106  27.246  1.00  0.00    -0.272 OA
BRANCH  74  77
ATOM     77  C   UNL A   1      32.892  23.930  25.982  1.00  0.00     0.119 C 
ATOM     78  C   UNL A   1      34.000  24.920  25.535  1.00  0.00     0.038 C 
ATOM     79  C   UNL A   1      33.532  22.926  26.991  1.00  0.00     0.038 C 
ATOM     80  C   UNL A   1      35.282  24.243  25.048  1.00  0.00     0.003 C 
ATOM     81  C   UNL A   1      34.838  22.283  26.531  1.00  0.00     0.003 C 
ATOM     82  C   UNL A   1      35.861  23.323  26.112  1.00  0.00     0.000 C 
BRANCH  77  83
ATOM     83  N   UNL A   1      32.359  23.204  24.792  1.00  0.00    -0.338 N 
ATOM     84  C   UNL A   1      32.019  23.645  23.527  1.00  0.00     0.253 C 
ATOM     85  H   UNL A   1      32.226  22.238  24.933  1.00  0.00     0.164 HD
ATOM     86  O   UNL A   1      32.058  22.861  22.583  1.00  0.00    -0.269 OA
BRANCH  84  87
ATOM     87  C   UNL A   1      31.346  24.941  23.320  1.00  0.00     0.061 A 
ATOM     88  C   UNL A   1      30.069  25.067  23.887  1.00  0.00     0.035 A 
ATOM     89  C   UNL A   1      31.866  25.990  22.574  1.00  0.00     0.072 A 
ATOM     90  C   UNL A   1      29.424  26.287  23.806  1.00  0.00     0.112 A 
ATOM     91  C   UNL A   1      31.149  27.180  22.569  1.00  0.00     0.132 A 
ATOM     92  Cl  UNL A   1      33.277  25.872  21.607  1.00  0.00    -0.082 Cl
ATOM     93  N   UNL A   1      29.952  27.358  23.184  1.00  0.00    -0.263 NA
ENDBRANCH  84  87
ENDBRANCH  77  83
ENDBRANCH  74  77
ENDBRANCH  72  73
ENDBRANCH  71  72
ENDBRANCH   1  71
TORSDOF 15
ENDMDL
MODEL 2
REMARK VINA RESULT:     -12.3      5.236     10.134
REMARK SMILES O=C(NCCCNC(=O)C1(NC(=O)c2ccncc2Cl)CCCCC1)c1ccc(-c2c3nc(c(-c4cccc(S(=O)(=O)[O-])c4F)c4ccc([nH]4)c(-c4cccc(S(=O)(=O)[O-])c4F)c4nc(c(-c5cccc(S(=O)(=O)[O-])c5F)c5ccc2[nH]5)C=C4)C=C3)cc1
REMARK SMILES IDX 4 1 3 2 1 3 2 4 26 6 27 7 88 8 28 9 87 10 29 11 30 12 31 13
REMARK SMILES IDX 81 14 32 15 86 16 80 17 82 18 33 19 85 20 79 21 78 22 34 24
REMARK SMILES IDX 66 25 46 26 65 27 47 28 50 29 64 30 83 31 48 32 49 33 63 35
REMARK SMILES IDX 84 36 51 37 35 38 36 39 44 40 37 41 39 42 45 43 38 44 40 45
REMARK SMILES IDX 41 46 42 47 43 48 67 49 68 50 76 51 69 52 71 53 77 54 70 55
REMARK SMILES IDX 72 56 73 57 74 58 75 59 52 60 53 61 61 62 54 63 56 64 62 65
REMARK SMILES IDX 55 66 57 67 58 68 59 69 60 70 5 71 6 72 7 73 8 74 9 76 10 77
REMARK SMILES IDX 21 78 25 79 22 80 24 81 23 82 11 83 12 84 13 86 14 87 15 88
REMARK SMILES IDX 19 89 16 90 18 91 20 92 17 93
REMARK H PARENT 3 5 82 23 50 34 7 75 11 85
REMARK Flexibility Score: inf
ROOT
ATOM      1  C   UNL A   1      36.205  22.631  25.999  1.00  0.00     0.118 C 
ENDROOT
BRANCH   1   2
ATOM      2  N   UNL A   1      37.080  21.477  25.825  1.00  0.00    -0.352 N 
ATOM      3  O   UNL A   1      39.068  20.433  25.603  1.00  0.00    -0.269 OA
ATOM      4  C   UNL A   1      38.450  21.433  25.937  1.00  0.00     0.251 C 
ATOM      5  H   UNL A   1      36.636  20.628  25.600  1.00  0.00     0.163 HD
BRANCH   4   6
ATOM      6  C   UNL A   1      39.144  22.635  26.440  1.00  0.00     0.039 A 
ATOM      7  C   UNL A   1      38.823  23.886  25.907  1.00  0.00     0.014 A 
ATOM      8  C   UNL A   1      40.159  22.501  27.388  1.00  0.00     0.014 A 
ATOM      9  C   UNL A   1      39.617  24.979  26.210  1.00  0.00     0.010 A 
ATOM     10  C   UNL A   1      40.892  23.627  27.770  1.00  0.00     0.010 A 
ATOM     11  C   UNL A   1      40.642  24.868  27.165  1.00  0.00    -0.014 A 
BRANCH  11  12
ATOM     12  C   UNL A   1      41.350  26.103  27.581  1.00  0.00     0.031 A 
ATOM     13  C   UNL A   1      42.758  26.392  27.152  1.00  0.00     0.074 A 
ATOM     14  C   UNL A   1      40.665  26.985  28.335  1.00  0.00     0.049 A 
ATOM     15  N   UNL A   1      43.476  27.460  27.381  1.00  0.00    -0.248 NA
ATOM     16  C   UNL A   1      43.459  25.355  26.376  1.00  0.00     0.031 C 
ATOM     17  C   UNL A   1      39.309  26.771  28.850  1.00  0.00     0.029 A 
ATOM     18  N   UNL A   1      40.995  28.235  28.783  1.00  0.00    -0.354 N 
ATOM     19  C   UNL A   1      44.721  27.216  26.815  1.00  0.00     0.074 A 
ATOM     20  C   UNL A   1      44.664  25.894  26.230  1.00  0.00     0.031 C 
ATOM     21  C   UNL A   1      38.903  27.870  29.497  1.00  0.00     0.029 A 
ATOM     22  C   UNL A   1      39.987  28.844  29.494  1.00  0.00     0.049 A 
ATOM     23  H   UNL A   1      41.867  28.658  28.613  1.00  0.00     0.167 HD
ATOM     24  C   UNL A   1      45.802  28.031  26.775  1.00  0.00     0.034 A 
ATOM     25  C   UNL A   1      39.938  30.051  30.085  1.00  0.00     0.034 A 
ATOM     26  C   UNL A   1      45.832  29.360  27.329  1.00  0.00     0.049 A 
ATOM     27  C   UNL A   1      41.132  30.951  29.967  1.00  0.00     0.074 A 
ATOM     28  C   UNL A   1      46.867  30.278  27.312  1.00  0.00     0.029 A 
ATOM     29  N   UNL A   1      44.776  29.963  27.997  1.00  0.00    -0.354 N 
ATOM     30  N   UNL A   1      42.261  30.742  29.333  1.00  0.00    -0.248 NA
ATOM     31  C   UNL A   1      41.040  32.261  30.625  1.00  0.00     0.031 C 
ATOM     32  C   UNL A   1      46.438  31.436  27.971  1.00  0.00     0.029 A 
ATOM     33  C   UNL A   1      45.133  31.242  28.394  1.00  0.00     0.049 A 
ATOM     34  H   UNL A   1      43.901  29.545  28.165  1.00  0.00     0.167 HD
ATOM     35  C   UNL A   1      43.014  31.892  29.513  1.00  0.00     0.074 A 
ATOM     36  C   UNL A   1      42.194  32.814  30.274  1.00  0.00     0.031 C 
ATOM     37  C   UNL A   1      44.284  32.153  29.117  1.00  0.00     0.034 A 
BRANCH  24  38
ATOM     38  C   UNL A   1      47.034  27.537  26.062  1.00  0.00     0.023 A 
ATOM     39  C   UNL A   1      47.946  26.716  26.753  1.00  0.00     0.012 A 
ATOM     40  C   UNL A   1      47.244  27.805  24.694  1.00  0.00     0.148 A 
ATOM     41  C   UNL A   1      49.056  26.180  26.102  1.00  0.00     0.002 A 
ATOM     42  C   UNL A   1      48.337  27.241  24.043  1.00  0.00     0.091 A 
ATOM     43  F   UNL A   1      46.377  28.605  24.059  1.00  0.00    -0.205 F 
ATOM     44  C   UNL A   1      49.247  26.434  24.747  1.00  0.00     0.022 A 
BRANCH  42  45
ATOM     45  S   UNL A   1      48.637  27.453  22.284  1.00  0.00     0.127 S 
ATOM     46  O   UNL A   1      49.939  28.117  22.285  1.00  0.00    -0.237 OA
ATOM     47  O   UNL A   1      48.657  26.071  21.805  1.00  0.00    -0.237 OA
ATOM     48  O   UNL A   1      47.528  28.253  21.782  1.00  0.00    -0.744 OA
ENDBRANCH  42  45
ENDBRANCH  24  38
BRANCH  25  49
ATOM     49  C   UNL A   1      38.698  30.478  30.787  1.00  0.00     0.023 A 
ATOM     50  C   UNL A   1      38.594  30.310  32.180  1.00  0.00     0.012 A 
ATOM     51  C   UNL A   1      37.651  31.117  30.094  1.00  0.00     0.148 A 
ATOM     52  C   UNL A   1      37.462  30.753  32.866  1.00  0.00     0.002 A 
ATOM     53  C   UNL A   1      36.558  31.614  30.792  1.00  0.00     0.091 A 
ATOM     54  F   UNL A   1      37.753  31.251  28.763  1.00  0.00    -0.205 F 
ATOM     55  C   UNL A   1      36.452  31.420  32.176  1.00  0.00     0.022 A 
BRANCH  53  56
ATOM     56  S   UNL A   1      35.321  32.627  29.974  1.00  0.00     0.127 S 
ATOM     57  O   UNL A   1      34.401  32.923  31.067  1.00  0.00    -0.237 OA
ATOM     58  O   UNL A   1      36.105  33.769  29.503  1.00  0.00    -0.237 OA
ATOM     59  O   UNL A   1      34.805  31.784  28.902  1.00  0.00    -0.744 OA
ENDBRANCH  53  56
ENDBRANCH  25  49
BRANCH  37  60
ATOM     60  C   UNL A   1      44.858  33.483  29.516  1.00  0.00     0.023 A 
ATOM     61  C   UNL A   1      45.585  33.585  30.720  1.00  0.00     0.012 A 
ATOM     62  C   UNL A   1      44.714  34.616  28.694  1.00  0.00     0.148 A 
ATOM     63  C   UNL A   1      46.129  34.804  31.117  1.00  0.00     0.002 A 
ATOM     64  C   UNL A   1      45.295  35.819  29.077  1.00  0.00     0.091 A 
ATOM     65  F   UNL A   1      43.997  34.505  27.566  1.00  0.00    -0.205 F 
ATOM     66  C   UNL A   1      45.993  35.918  30.291  1.00  0.00     0.022 A 
BRANCH  64  67
ATOM     67  S   UNL A   1      45.230  37.276  28.029  1.00  0.00     0.127 S 
ATOM     68  O   UNL A   1      45.968  38.253  28.828  1.00  0.00    -0.237 OA
ATOM     69  O   UNL A   1      45.923  36.828  26.820  1.00  0.00    -0.237 OA
ATOM     70  O   UNL A   1      43.812  37.555  27.836  1.00  0.00    -0.744 OA
ENDBRANCH  64  67
ENDBRANCH  37  60
ENDBRANCH  11  12
ENDBRANCH   4   6
ENDBRANCH   1   2
BRANCH   1  71
ATOM     71  C   UNL A   1      35.478  23.008  24.719  1.00  0.00     0.042 C 
BRANCH  71  72
ATOM     72  C   UNL A   1      34.964  24.435  24.762  1.00  0.00     0.117 C 
BRANCH  72  73
ATOM     73  N   UNL A   1      34.302  24.798  23.522  1.00  0.00    -0.354 N 
ATOM     74  C   UNL A   1      33.385  25.770  23.252  1.00  0.00     0.245 C 
ATOM     75  H   UNL A   1      34.560  24.251  22.746  1.00  0.00     0.163 HD
ATOM     76  O   UNL A   1      32.937  25.800  22.102  1.00  0.00    -0.272 OA
BRANCH  74  77
ATOM     77  C   UNL A   1      32.900  26.762  24.353  1.00  0.00     0.119 C 
ATOM     78  C   UNL A   1      33.837  26.688  25.588  1.00  0.00     0.038 C 
ATOM     79  C   UNL A   1      33.028  28.193  23.745  1.00  0.00     0.038 C 
ATOM     80  C   UNL A   1      33.649  27.833  26.584  1.00  0.00     0.003 C 
ATOM     81  C   UNL A   1      32.889  29.340  24.743  1.00  0.00     0.003 C 
ATOM     82  C   UNL A   1      33.840  29.186  25.915  1.00  0.00     0.000 C 
BRANCH  77  83
ATOM     83  N   UNL A   1      31.493  26.500  24.776  1.00  0.00    -0.338 N 
ATOM     84  C   UNL A   1      30.957  25.578  25.655  1.00  0.00     0.253 C 
ATOM     85  H   UNL A   1      30.827  27.090  24.354  1.00  0.00     0.164 HD
ATOM     86  O   UNL A   1      29.891  25.823  26.214  1.00  0.00    -0.269 OA
BRANCH  84  87
ATOM     87  C   UNL A   1      31.476  24.199  25.733  1.00  0.00     0.061 A 
ATOM     88  C   UNL A   1      32.227  23.890  26.877  1.00  0.00     0.035 A 
ATOM     89  C   UNL A   1      31.314  23.238  24.745  1.00  0.00     0.072 A 
ATOM     90  C   UNL A   1      32.665  22.590  27.053  1.00  0.00     0.112 A 
ATOM     91  C   UNL A   1      31.775  21.957  25.026  1.00  0.00     0.132 A 
ATOM     92  Cl  UNL A   1      30.663  23.558  23.191  1.00  0.00    -0.082 Cl
ATOM     93  N   UNL A   1      32.427  21.608  26.164  1.00  0.00    -0.263 NA
ENDBRANCH  84  87
ENDBRANCH  77  83
ENDBRANCH  74  77
ENDBRANCH  72  73
ENDBRANCH  71  72
ENDBRANCH   1  71
TORSDOF 15
ENDMDL
MODEL 3
REMARK VINA RESULT:     -12.2      1.457      1.823
REMARK SMILES O=C(NCCCNC(=O)C1(NC(=O)c2ccncc2Cl)CCCCC1)c1ccc(-c2c3nc(c(-c4cccc(S(=O)(=O)[O-])c4F)c4ccc([nH]4)c(-c4cccc(S(=O)(=O)[O-])c4F)c4nc(c(-c5cccc(S(=O)(=O)[O-])c5F)c5ccc2[nH]5)C=C4)C=C3)cc1
REMARK SMILES IDX 4 1 3 2 1 3 2 4 26 6 27 7 88 8 28 9 87 10 29 11 30 12 31 13
REMARK SMILES IDX 81 14 32 15 86 16 80 17 82 18 33 19 85 20 79 21 78 22 34 24
REMARK SMILES IDX 66 25 46 26 65 27 47 28 50 29 64 30 83 31 48 32 49 33 63 35
REMARK SMILES IDX 84 36 51 37 35 38 36 39 44 40 37 41 39 42 45 43 38 44 40 45
REMARK SMILES IDX 41 46 42 47 43 48 67 49 68 50 76 51 69 52 71 53 77 54 70 55
REMARK SMILES IDX 72 56 73 57 74 58 75 59 52 60 53 61 61 62 54 63 56 64 62 65
REMARK SMILES IDX 55 66 57 67 58 68 59 69 60 70 5 71 6 72 7 73 8 74 9 76 10 77
REMARK SMILES IDX 21 78 25 79 22 80 24 81 23 82 11 83 12 84 13 86 14 87 15 88
REMARK SMILES IDX 19 89 16 90 18 91 20 92 17 93
REMARK H PARENT 3 5 82 23 50 34 7 75 11 85
REMARK Flexibility Score: inf
ROOT
ATOM      1  C   UNL A   1      32.983  29.372  25.671  1.00  0.00     0.118 C 
ENDROOT
BRANCH   1   2
ATOM      2  N   UNL A   1      32.471  30.694  26.013  1.00  0.00    -0.352 N 
ATOM      3  O   UNL A   1      32.334  32.576  27.250  1.00  0.00    -0.269 OA
ATOM      4  C   UNL A   1      32.961  31.570  26.955  1.00  0.00     0.251 C 
ATOM      5  H   UNL A   1      31.681  30.995  25.510  1.00  0.00     0.163 HD
BRANCH   4   6
ATOM      6  C   UNL A   1      34.241  31.240  27.610  1.00  0.00     0.039 A 
ATOM      7  C   UNL A   1      34.440  29.953  28.118  1.00  0.00     0.014 A 
ATOM      8  C   UNL A   1      35.208  32.232  27.780  1.00  0.00     0.014 A 
ATOM      9  C   UNL A   1      35.538  29.701  28.923  1.00  0.00     0.010 A 
ATOM     10  C   UNL A   1      36.365  31.943  28.507  1.00  0.00     0.010 A 
ATOM     11  C   UNL A   1      36.526  30.684  29.104  1.00  0.00    -0.014 A 
BRANCH  11  12
ATOM     12  C   UNL A   1      37.762  30.311  29.832  1.00  0.00     0.031 A 
ATOM     13  C   UNL A   1      38.020  30.760  31.240  1.00  0.00     0.074 A 
ATOM     14  C   UNL A   1      38.640  29.514  29.192  1.00  0.00     0.049 A 
ATOM     15  N   UNL A   1      39.022  30.454  32.022  1.00  0.00    -0.248 NA
ATOM     16  C   UNL A   1      37.042  31.675  31.852  1.00  0.00     0.031 C 
ATOM     17  C   UNL A   1      38.507  29.067  27.802  1.00  0.00     0.029 A 
ATOM     18  N   UNL A   1      39.798  28.922  29.619  1.00  0.00    -0.354 N 
ATOM     19  C   UNL A   1      38.820  31.161  33.201  1.00  0.00     0.074 A 
ATOM     20  C   UNL A   1      37.598  31.917  33.033  1.00  0.00     0.031 C 
ATOM     21  C   UNL A   1      39.511  28.232  27.507  1.00  0.00     0.029 A 
ATOM     22  C   UNL A   1      40.390  28.129  28.664  1.00  0.00     0.049 A 
ATOM     23  H   UNL A   1      40.171  29.051  30.521  1.00  0.00     0.167 HD
ATOM     24  C   UNL A   1      39.579  31.161  34.323  1.00  0.00     0.034 A 
ATOM     25  C   UNL A   1      41.520  27.399  28.709  1.00  0.00     0.034 A 
ATOM     26  C   UNL A   1      40.774  30.374  34.489  1.00  0.00     0.049 A 
ATOM     27  C   UNL A   1      42.302  27.375  29.989  1.00  0.00     0.074 A 
ATOM     28  C   UNL A   1      41.595  30.279  35.598  1.00  0.00     0.029 A 
ATOM     29  N   UNL A   1      41.315  29.543  33.520  1.00  0.00    -0.354 N 
ATOM     30  N   UNL A   1      42.033  27.966  31.128  1.00  0.00    -0.248 NA
ATOM     31  C   UNL A   1      43.528  26.567  29.999  1.00  0.00     0.031 C 
ATOM     32  C   UNL A   1      42.636  29.391  35.299  1.00  0.00     0.029 A 
ATOM     33  C   UNL A   1      42.458  28.928  34.005  1.00  0.00     0.049 A 
ATOM     34  H   UNL A   1      40.943  29.408  32.618  1.00  0.00     0.167 HD
ATOM     35  C   UNL A   1      43.056  27.602  31.992  1.00  0.00     0.074 A 
ATOM     36  C   UNL A   1      43.921  26.700  31.258  1.00  0.00     0.031 C 
ATOM     37  C   UNL A   1      43.281  28.005  33.267  1.00  0.00     0.034 A 
BRANCH  24  38
ATOM     38  C   UNL A   1      39.117  31.997  35.488  1.00  0.00     0.023 A 
ATOM     39  C   UNL A   1      38.246  31.430  36.438  1.00  0.00     0.012 A 
ATOM     40  C   UNL A   1      39.611  33.301  35.693  1.00  0.00     0.148 A 
ATOM     41  C   UNL A   1      37.860  32.150  37.568  1.00  0.00     0.002 A 
ATOM     42  C   UNL A   1      39.246  34.003  36.838  1.00  0.00     0.091 A 
ATOM     43  F   UNL A   1      40.422  33.831  34.767  1.00  0.00    -0.205 F 
ATOM     44  C   UNL A   1      38.366  33.431  37.773  1.00  0.00     0.022 A 
BRANCH  42  45
ATOM     45  S   UNL A   1      39.894  35.632  37.229  1.00  0.00     0.127 S 
ATOM     46  O   UNL A   1      39.117  35.981  38.417  1.00  0.00    -0.237 OA
ATOM     47  O   UNL A   1      41.306  35.350  37.485  1.00  0.00    -0.237 OA
ATOM     48  O   UNL A   1      39.643  36.456  36.054  1.00  0.00    -0.744 OA
ENDBRANCH  42  45
ENDBRANCH  24  38
BRANCH  25  49
ATOM     49  C   UNL A   1      41.931  26.605  27.521  1.00  0.00     0.023 A 
ATOM     50  C   UNL A   1      42.694  27.214  26.507  1.00  0.00     0.012 A 
ATOM     51  C   UNL A   1      41.635  25.231  27.424  1.00  0.00     0.148 A 
ATOM     52  C   UNL A   1      43.136  26.473  25.410  1.00  0.00     0.002 A 
ATOM     53  C   UNL A   1      42.135  24.486  26.364  1.00  0.00     0.091 A 
ATOM     54  F   UNL A   1      40.889  24.668  28.387  1.00  0.00    -0.205 F 
ATOM     55  C   UNL A   1      42.872  25.106  25.346  1.00  0.00     0.022 A 
BRANCH  53  56
ATOM     56  S   UNL A   1      41.967  22.698  26.330  1.00  0.00     0.127 S 
ATOM     57  O   UNL A   1      40.518  22.530  26.299  1.00  0.00    -0.237 OA
ATOM     58  O   UNL A   1      42.655  22.338  25.090  1.00  0.00    -0.237 OA
ATOM     59  O   UNL A   1      42.647  22.240  27.536  1.00  0.00    -0.744 OA
ENDBRANCH  53  56
ENDBRANCH  25  49
BRANCH  37  60
ATOM     60  C   UNL A   1      44.519  27.477  33.935  1.00  0.00     0.023 A 
ATOM     61  C   UNL A   1      45.720  28.209  33.832  1.00  0.00     0.012 A 
ATOM     62  C   UNL A   1      44.493  26.289  34.687  1.00  0.00     0.148 A 
ATOM     63  C   UNL A   1      46.885  27.747  34.440  1.00  0.00     0.002 A 
ATOM     64  C   UNL A   1      45.650  25.855  35.324  1.00  0.00     0.091 A 
ATOM     65  F   UNL A   1      43.348  25.593  34.750  1.00  0.00    -0.205 F 
ATOM     66  C   UNL A   1      46.848  26.576  35.194  1.00  0.00     0.022 A 
BRANCH  64  67
ATOM     67  S   UNL A   1      45.660  24.399  36.376  1.00  0.00     0.127 S 
ATOM     68  O   UNL A   1      45.372  23.334  35.417  1.00  0.00    -0.237 OA
ATOM     69  O   UNL A   1      47.028  24.395  36.898  1.00  0.00    -0.237 OA
ATOM     70  O   UNL A   1      44.637  24.640  37.385  1.00  0.00    -0.744 OA
ENDBRANCH  64  67
ENDBRANCH  37  60
ENDBRANCH  11  12
ENDBRANCH   4   6
ENDBRANCH   1   2
BRANCH   1  71
ATOM     71  C   UNL A   1      31.995  28.264  25.996  1.00  0.00     0.042 C 
BRANCH  71  72
ATOM     72  C   UNL A   1      32.698  26.958  26.316  1.00  0.00     0.117 C 
BRANCH  72  73
ATOM     73  N   UNL A   1      31.751  25.926  26.697  1.00  0.00    -0.354 N 
ATOM     74  C   UNL A   1      31.781  24.575  26.512  1.00  0.00     0.245 C 
ATOM     75  H   UNL A   1      30.954  26.257  27.169  1.00  0.00     0.163 HD
ATOM     76  O   UNL A   1      30.787  23.945  26.885  1.00  0.00    -0.272 OA
BRANCH  74  77
ATOM     77  C   UNL A   1      32.992  23.872  25.826  1.00  0.00     0.119 C 
ATOM     78  C   UNL A   1      34.192  24.852  25.731  1.00  0.00     0.038 C 
ATOM     79  C   UNL A   1      33.411  22.699  26.766  1.00  0.00     0.038 C 
ATOM     80  C   UNL A   1      35.519  24.180  25.374  1.00  0.00     0.003 C 
ATOM     81  C   UNL A   1      34.758  22.056  26.443  1.00  0.00     0.003 C 
ATOM     82  C   UNL A   1      35.871  23.085  26.370  1.00  0.00     0.000 C 
BRANCH  77  83
ATOM     83  N   UNL A   1      32.657  23.357  24.466  1.00  0.00    -0.338 N 
ATOM     84  C   UNL A   1      32.795  23.923  23.213  1.00  0.00     0.253 C 
ATOM     85  H   UNL A   1      32.269  22.452  24.460  1.00  0.00     0.164 HD
ATOM     86  O   UNL A   1      32.912  23.195  22.231  1.00  0.00    -0.269 OA
BRANCH  84  87
ATOM     87  C   UNL A   1      32.529  25.355  22.983  1.00  0.00     0.061 A 
ATOM     88  C   UNL A   1      33.655  26.157  22.742  1.00  0.00     0.035 A 
ATOM     89  C   UNL A   1      31.274  25.945  23.043  1.00  0.00     0.072 A 
ATOM     90  C   UNL A   1      33.465  27.491  22.430  1.00  0.00     0.112 A 
ATOM     91  C   UNL A   1      31.187  27.287  22.695  1.00  0.00     0.132 A 
ATOM     92  Cl  UNL A   1      29.862  25.142  23.594  1.00  0.00    -0.082 Cl
ATOM     93  N   UNL A   1      32.250  28.067  22.371  1.00  0.00    -0.263 NA
ENDBRANCH  84  87
ENDBRANCH  77  83
ENDBRANCH  74  77
ENDBRANCH  72  73
ENDBRANCH  71  72
ENDBRANCH   1  71
TORSDOF 15
ENDMDL
