MODEL 1
REMARK VINA RESULT:     -12.9      0.000      0.000
REMARK SMILES Cn1cc(C(=O)NCCCNC(=O)c2ccc(-c3c4nc(c(-c5cccc(S(=O)(=O)[O-])c5F)c5ccc([nH]5)c(-c5cccc(S(=O)(=O)[O-])c5F)c5nc(c(-c6cccc(S(=O)(=O)[O-])c6F)c6ccc3[nH]6)C=C5)C=C4)cc2)c(C(=O)Nc2ccc(-n3cncn3)cc2)n1
REMARK SMILES IDX 9 1 8 2 7 3 5 4 6 5 4 7 1 8 2 9 3 10 92 11 77 12 78 13 79 14
REMARK SMILES IDX 80 15 81 17 82 18 91 19 83 20 90 21 84 22 85 23 86 24 89 25
REMARK SMILES IDX 87 26 88 27 10 28 11 29 12 30 13 32 14 33 15 34 76 35 16 36
REMARK SMILES IDX 75 37 17 38 18 39 19 40 69 41 20 42 74 43 68 44 70 45 21 46
REMARK SMILES IDX 73 47 67 48 66 49 22 51 54 52 34 53 53 54 35 55 38 56 52 57
REMARK SMILES IDX 71 58 36 59 37 60 51 62 72 63 39 64 23 65 24 66 32 67 25 68
REMARK SMILES IDX 27 69 33 70 26 71 28 72 29 73 30 74 31 75 55 76 56 77 64 78
REMARK SMILES IDX 57 79 59 80 65 81 58 82 60 83 61 84 62 85 63 86 40 87 41 88
REMARK SMILES IDX 49 89 42 90 44 91 50 92 43 93 45 94 46 95 47 96 48 97
REMARK H PARENT 7 6 80 16 11 31 70 50 38 61
REMARK Flexibility Score: inf
ROOT
ATOM      1  C   UNL A   1      32.131  27.926  26.428  1.00  0.00     0.042 C 
ENDROOT
BRANCH   1   2
ATOM      2  C   UNL A   1      31.176  27.005  25.672  1.00  0.00     0.118 C 
BRANCH   2   3
ATOM      3  N   UNL A   1      30.976  25.683  26.238  1.00  0.00    -0.352 N 
ATOM      4  C   UNL A   1      31.812  24.608  26.423  1.00  0.00     0.255 C 
ATOM      5  O   UNL A   1      31.446  23.760  27.242  1.00  0.00    -0.269 OA
ATOM      6  H   UNL A   1      30.056  25.524  26.554  1.00  0.00     0.163 HD
BRANCH   4   7
ATOM      7  C   UNL A   1      33.060  24.453  25.692  1.00  0.00     0.090 A 
ATOM      8  C   UNL A   1      36.565  23.732  25.235  1.00  0.00     0.173 C 
ATOM      9  N   UNL A   1      35.166  24.081  25.154  1.00  0.00    -0.274 N 
ATOM     10  C   UNL A   1      34.352  24.428  26.188  1.00  0.00     0.123 A 
ATOM     11  N   UNL A   1      34.526  23.953  23.991  1.00  0.00    -0.167 NA
ATOM     12  C   UNL A   1      33.222  24.136  24.288  1.00  0.00     0.163 A 
BRANCH  12  13
ATOM     13  C   UNL A   1      32.219  23.867  23.232  1.00  0.00     0.276 C 
ATOM     14  O   UNL A   1      31.687  24.790  22.604  1.00  0.00    -0.267 OA
ATOM     15  N   UNL A   1      31.891  22.594  22.824  1.00  0.00    -0.321 N 
ATOM     16  H   UNL A   1      31.418  22.563  21.961  1.00  0.00     0.170 HD
BRANCH  15  17
ATOM     17  C   UNL A   1      32.101  21.340  23.397  1.00  0.00     0.041 A 
ATOM     18  C   UNL A   1      32.148  20.254  22.518  1.00  0.00     0.028 A 
ATOM     19  C   UNL A   1      32.278  21.132  24.764  1.00  0.00     0.028 A 
ATOM     20  C   UNL A   1      32.523  18.993  22.976  1.00  0.00     0.030 A 
ATOM     21  C   UNL A   1      32.584  19.851  25.243  1.00  0.00     0.030 A 
ATOM     22  C   UNL A   1      32.765  18.793  24.339  1.00  0.00     0.067 A 
BRANCH  22  23
ATOM     23  N   UNL A   1      33.274  17.542  24.766  1.00  0.00    -0.221 N 
ATOM     24  C   UNL A   1      34.515  16.997  24.553  1.00  0.00     0.225 A 
ATOM     25  N   UNL A   1      32.480  16.621  25.370  1.00  0.00    -0.155 NA
ATOM     26  N   UNL A   1      34.525  15.732  24.905  1.00  0.00    -0.223 NA
ATOM     27  C   UNL A   1      33.268  15.545  25.390  1.00  0.00     0.246 A 
ENDBRANCH  22  23
ENDBRANCH  15  17
ENDBRANCH  12  13
ENDBRANCH   4   7
ENDBRANCH   2   3
ENDBRANCH   1   2
BRANCH   1  28
ATOM     28  C   UNL A   1      32.774  29.040  25.598  1.00  0.00     0.118 C 
BRANCH  28  29
ATOM     29  N   UNL A   1      32.453  30.383  26.055  1.00  0.00    -0.352 N 
ATOM     30  C   UNL A   1      33.042  31.212  26.978  1.00  0.00     0.251 C 
ATOM     31  H   UNL A   1      31.662  30.772  25.620  1.00  0.00     0.163 HD
ATOM     32  O   UNL A   1      32.470  32.264  27.259  1.00  0.00    -0.269 OA
BRANCH  30  33
ATOM     33  C   UNL A   1      34.317  30.879  27.658  1.00  0.00     0.039 A 
ATOM     34  C   UNL A   1      35.207  31.922  27.945  1.00  0.00     0.014 A 
ATOM     35  C   UNL A   1      34.696  29.563  27.930  1.00  0.00     0.014 A 
ATOM     36  C   UNL A   1      36.435  31.655  28.562  1.00  0.00     0.010 A 
ATOM     37  C   UNL A   1      35.906  29.298  28.580  1.00  0.00     0.010 A 
ATOM     38  C   UNL A   1      36.782  30.342  28.911  1.00  0.00    -0.014 A 
BRANCH  38  39
ATOM     39  C   UNL A   1      38.023  30.047  29.673  1.00  0.00     0.031 A 
ATOM     40  C   UNL A   1      39.038  29.070  29.153  1.00  0.00     0.074 A 
ATOM     41  C   UNL A   1      38.186  30.597  30.892  1.00  0.00     0.049 A 
ATOM     42  N   UNL A   1      40.126  28.630  29.734  1.00  0.00    -0.248 NA
ATOM     43  C   UNL A   1      38.797  28.502  27.818  1.00  0.00     0.031 C 
ATOM     44  C   UNL A   1      37.246  31.519  31.531  1.00  0.00     0.029 A 
ATOM     45  N   UNL A   1      39.180  30.436  31.824  1.00  0.00    -0.354 N 
ATOM     46  C   UNL A   1      40.683  27.711  28.853  1.00  0.00     0.074 A 
ATOM     47  C   UNL A   1      39.811  27.654  27.698  1.00  0.00     0.031 C 
ATOM     48  C   UNL A   1      37.700  31.830  32.755  1.00  0.00     0.029 A 
ATOM     49  C   UNL A   1      38.951  31.115  32.997  1.00  0.00     0.049 A 
ATOM     50  H   UNL A   1      39.982  29.886  31.668  1.00  0.00     0.167 HD
ATOM     51  C   UNL A   1      41.827  26.999  28.983  1.00  0.00     0.034 A 
ATOM     52  C   UNL A   1      39.657  31.154  34.144  1.00  0.00     0.034 A 
ATOM     53  C   UNL A   1      42.725  27.092  30.103  1.00  0.00     0.049 A 
ATOM     54  C   UNL A   1      40.942  30.383  34.247  1.00  0.00     0.074 A 
ATOM     55  C   UNL A   1      43.946  26.465  30.282  1.00  0.00     0.029 A 
ATOM     56  N   UNL A   1      42.503  27.863  31.233  1.00  0.00    -0.354 N 
ATOM     57  N   UNL A   1      41.523  29.632  33.343  1.00  0.00    -0.248 NA
ATOM     58  C   UNL A   1      41.683  30.484  35.512  1.00  0.00     0.031 C 
ATOM     59  C   UNL A   1      44.468  26.864  31.519  1.00  0.00     0.029 A 
ATOM     60  C   UNL A   1      43.563  27.729  32.114  1.00  0.00     0.049 A 
ATOM     61  H   UNL A   1      41.709  28.424  31.387  1.00  0.00     0.167 HD
ATOM     62  C   UNL A   1      42.708  29.191  33.920  1.00  0.00     0.074 A 
ATOM     63  C   UNL A   1      42.771  29.772  35.246  1.00  0.00     0.031 C 
ATOM     64  C   UNL A   1      43.647  28.362  33.403  1.00  0.00     0.034 A 
BRANCH  51  65
ATOM     65  C   UNL A   1      42.219  26.101  27.844  1.00  0.00     0.023 A 
ATOM     66  C   UNL A   1      43.115  26.587  26.872  1.00  0.00     0.012 A 
ATOM     67  C   UNL A   1      41.764  24.772  27.763  1.00  0.00     0.148 A 
ATOM     68  C   UNL A   1      43.544  25.768  25.830  1.00  0.00     0.002 A 
ATOM     69  C   UNL A   1      42.213  23.953  26.732  1.00  0.00     0.091 A 
ATOM     70  F   UNL A   1      40.888  24.333  28.679  1.00  0.00    -0.205 F 
ATOM     71  C   UNL A   1      43.101  24.448  25.764  1.00  0.00     0.022 A 
BRANCH  69  72
ATOM     72  S   UNL A   1      41.712  22.231  26.628  1.00  0.00     0.127 S 
ATOM     73  O   UNL A   1      42.321  21.817  25.365  1.00  0.00    -0.237 OA
ATOM     74  O   UNL A   1      42.326  21.641  27.819  1.00  0.00    -0.237 OA
ATOM     75  O   UNL A   1      40.256  22.260  26.660  1.00  0.00    -0.744 OA
ENDBRANCH  69  72
ENDBRANCH  51  65
BRANCH  52  76
ATOM     76  C   UNL A   1      39.190  32.023  35.257  1.00  0.00     0.023 A 
ATOM     77  C   UNL A   1      38.340  31.480  36.239  1.00  0.00     0.012 A 
ATOM     78  C   UNL A   1      39.637  33.350  35.394  1.00  0.00     0.148 A 
ATOM     79  C   UNL A   1      37.938  32.247  37.333  1.00  0.00     0.002 A 
ATOM     80  C   UNL A   1      39.272  34.093  36.513  1.00  0.00     0.091 A 
ATOM     81  F   UNL A   1      40.430  33.864  34.442  1.00  0.00    -0.205 F 
ATOM     82  C   UNL A   1      38.413  33.547  37.478  1.00  0.00     0.022 A 
BRANCH  80  83
ATOM     83  S   UNL A   1      39.985  35.715  36.803  1.00  0.00     0.127 S 
ATOM     84  O   UNL A   1      41.400  35.403  36.979  1.00  0.00    -0.237 OA
ATOM     85  O   UNL A   1      39.665  36.437  35.570  1.00  0.00    -0.237 OA
ATOM     86  O   UNL A   1      39.277  36.214  37.976  1.00  0.00    -0.744 OA
ENDBRANCH  80  83
ENDBRANCH  52  76
BRANCH  64  87
ATOM     87  C   UNL A   1      44.834  28.032  34.264  1.00  0.00     0.023 A 
ATOM     88  C   UNL A   1      45.966  28.868  34.215  1.00  0.00     0.012 A 
ATOM     89  C   UNL A   1      44.803  26.958  35.171  1.00  0.00     0.148 A 
ATOM     90  C   UNL A   1      47.056  28.632  35.053  1.00  0.00     0.002 A 
ATOM     91  C   UNL A   1      45.883  26.744  36.022  1.00  0.00     0.091 A 
ATOM     92  F   UNL A   1      43.729  26.155  35.184  1.00  0.00    -0.205 F 
ATOM     93  C   UNL A   1      47.011  27.578  35.963  1.00  0.00     0.022 A 
BRANCH  91  94
ATOM     94  S   UNL A   1      45.848  25.442  37.260  1.00  0.00     0.127 S 
ATOM     95  O   UNL A   1      47.265  25.289  37.578  1.00  0.00    -0.237 OA
ATOM     96  O   UNL A   1      45.044  26.032  38.332  1.00  0.00    -0.237 OA
ATOM     97  O   UNL A   1      45.214  24.308  36.598  1.00  0.00    -0.744 OA
ENDBRANCH  91  94
ENDBRANCH  64  87
ENDBRANCH  38  39
ENDBRANCH  30  33
ENDBRANCH  28  29
ENDBRANCH   1  28
TORSDOF 16
ENDMDL
MODEL 2
REMARK VINA RESULT:     -12.8      2.848      8.800
REMARK SMILES Cn1cc(C(=O)NCCCNC(=O)c2ccc(-c3c4nc(c(-c5cccc(S(=O)(=O)[O-])c5F)c5ccc([nH]5)c(-c5cccc(S(=O)(=O)[O-])c5F)c5nc(c(-c6cccc(S(=O)(=O)[O-])c6F)c6ccc3[nH]6)C=C5)C=C4)cc2)c(C(=O)Nc2ccc(-n3cncn3)cc2)n1
REMARK SMILES IDX 9 1 8 2 7 3 5 4 6 5 4 7 1 8 2 9 3 10 92 11 77 12 78 13 79 14
REMARK SMILES IDX 80 15 81 17 82 18 91 19 83 20 90 21 84 22 85 23 86 24 89 25
REMARK SMILES IDX 87 26 88 27 10 28 11 29 12 30 13 32 14 33 15 34 76 35 16 36
REMARK SMILES IDX 75 37 17 38 18 39 19 40 69 41 20 42 74 43 68 44 70 45 21 46
REMARK SMILES IDX 73 47 67 48 66 49 22 51 54 52 34 53 53 54 35 55 38 56 52 57
REMARK SMILES IDX 71 58 36 59 37 60 51 62 72 63 39 64 23 65 24 66 32 67 25 68
REMARK SMILES IDX 27 69 33 70 26 71 28 72 29 73 30 74 31 75 55 76 56 77 64 78
REMARK SMILES IDX 57 79 59 80 65 81 58 82 60 83 61 84 62 85 63 86 40 87 41 88
REMARK SMILES IDX 49 89 42 90 44 91 50 92 43 93 45 94 46 95 47 96 48 97
REMARK H PARENT 7 6 80 16 11 31 70 50 38 61
REMARK Flexibility Score: inf
ROOT
ATOM      1  C   UNL A   1      32.293  28.255  27.287  1.00  0.00     0.042 C 
ENDROOT
BRANCH   1   2
ATOM      2  C   UNL A   1      31.496  27.505  26.222  1.00  0.00     0.118 C 
BRANCH   2   3
ATOM      3  N   UNL A   1      31.024  26.181  26.587  1.00  0.00    -0.352 N 
ATOM      4  C   UNL A   1      31.597  24.933  26.523  1.00  0.00     0.255 C 
ATOM      5  O   UNL A   1      31.086  24.056  27.225  1.00  0.00    -0.269 OA
ATOM      6  H   UNL A   1      30.109  26.175  26.953  1.00  0.00     0.163 HD
BRANCH   4   7
ATOM      7  C   UNL A   1      32.737  24.638  25.669  1.00  0.00     0.090 A 
ATOM      8  C   UNL A   1      36.188  23.963  24.864  1.00  0.00     0.173 C 
ATOM      9  N   UNL A   1      34.768  24.221  24.918  1.00  0.00    -0.274 N 
ATOM     10  C   UNL A   1      34.084  24.799  25.944  1.00  0.00     0.123 A 
ATOM     11  N   UNL A   1      33.982  23.761  23.945  1.00  0.00    -0.167 NA
ATOM     12  C   UNL A   1      32.723  23.964  24.387  1.00  0.00     0.163 A 
BRANCH  12  13
ATOM     13  C   UNL A   1      31.604  23.382  23.610  1.00  0.00     0.276 C 
ATOM     14  O   UNL A   1      31.598  22.186  23.295  1.00  0.00    -0.267 OA
ATOM     15  N   UNL A   1      30.476  24.098  23.277  1.00  0.00    -0.321 N 
ATOM     16  H   UNL A   1      29.719  23.536  22.994  1.00  0.00     0.170 HD
BRANCH  15  17
ATOM     17  C   UNL A   1      30.202  25.465  23.262  1.00  0.00     0.041 A 
ATOM     18  C   UNL A   1      31.140  26.280  22.621  1.00  0.00     0.028 A 
ATOM     19  C   UNL A   1      29.060  26.033  23.825  1.00  0.00     0.028 A 
ATOM     20  C   UNL A   1      30.868  27.629  22.406  1.00  0.00     0.030 A 
ATOM     21  C   UNL A   1      28.815  27.404  23.676  1.00  0.00     0.030 A 
ATOM     22  C   UNL A   1      29.692  28.191  22.914  1.00  0.00     0.067 A 
BRANCH  22  23
ATOM     23  N   UNL A   1      29.369  29.527  22.570  1.00  0.00    -0.221 N 
ATOM     24  C   UNL A   1      28.986  30.561  23.386  1.00  0.00     0.225 A 
ATOM     25  N   UNL A   1      29.273  29.923  21.274  1.00  0.00    -0.155 NA
ATOM     26  N   UNL A   1      28.553  31.572  22.670  1.00  0.00    -0.223 NA
ATOM     27  C   UNL A   1      28.740  31.139  21.394  1.00  0.00     0.246 A 
ENDBRANCH  22  23
ENDBRANCH  15  17
ENDBRANCH  12  13
ENDBRANCH   4   7
ENDBRANCH   2   3
ENDBRANCH   1   2
BRANCH   1  28
ATOM     28  C   UNL A   1      33.527  29.008  26.785  1.00  0.00     0.118 C 
BRANCH  28  29
ATOM     29  N   UNL A   1      33.599  30.392  27.228  1.00  0.00    -0.352 N 
ATOM     30  C   UNL A   1      34.515  31.074  27.989  1.00  0.00     0.251 C 
ATOM     31  H   UNL A   1      32.846  30.946  26.922  1.00  0.00     0.163 HD
ATOM     32  O   UNL A   1      34.250  32.230  28.317  1.00  0.00    -0.269 OA
BRANCH  30  33
ATOM     33  C   UNL A   1      35.789  30.467  28.446  1.00  0.00     0.039 A 
ATOM     34  C   UNL A   1      36.912  30.580  27.615  1.00  0.00     0.014 A 
ATOM     35  C   UNL A   1      35.879  29.713  29.617  1.00  0.00     0.014 A 
ATOM     36  C   UNL A   1      38.130  30.001  27.990  1.00  0.00     0.010 A 
ATOM     37  C   UNL A   1      37.105  29.167  30.012  1.00  0.00     0.010 A 
ATOM     38  C   UNL A   1      38.244  29.314  29.206  1.00  0.00    -0.014 A 
BRANCH  38  39
ATOM     39  C   UNL A   1      39.553  28.795  29.682  1.00  0.00     0.031 A 
ATOM     40  C   UNL A   1      40.328  29.511  30.750  1.00  0.00     0.074 A 
ATOM     41  C   UNL A   1      40.088  27.719  29.073  1.00  0.00     0.049 A 
ATOM     42  N   UNL A   1      41.524  29.246  31.213  1.00  0.00    -0.248 NA
ATOM     43  C   UNL A   1      39.689  30.681  31.370  1.00  0.00     0.031 C 
ATOM     44  C   UNL A   1      39.458  26.968  27.985  1.00  0.00     0.029 A 
ATOM     45  N   UNL A   1      41.295  27.091  29.255  1.00  0.00    -0.354 N 
ATOM     46  C   UNL A   1      41.796  30.232  32.153  1.00  0.00     0.074 A 
ATOM     47  C   UNL A   1      40.640  31.104  32.194  1.00  0.00     0.031 C 
ATOM     48  C   UNL A   1      40.288  25.992  27.588  1.00  0.00     0.029 A 
ATOM     49  C   UNL A   1      41.517  26.059  28.375  1.00  0.00     0.049 A 
ATOM     50  H   UNL A   1      41.940  27.355  29.951  1.00  0.00     0.167 HD
ATOM     51  C   UNL A   1      42.896  30.384  32.928  1.00  0.00     0.034 A 
ATOM     52  C   UNL A   1      42.590  25.260  28.210  1.00  0.00     0.034 A 
ATOM     53  C   UNL A   1      44.023  29.490  32.931  1.00  0.00     0.049 A 
ATOM     54  C   UNL A   1      43.781  25.427  29.109  1.00  0.00     0.074 A 
ATOM     55  C   UNL A   1      45.146  29.524  33.740  1.00  0.00     0.029 A 
ATOM     56  N   UNL A   1      44.171  28.400  32.088  1.00  0.00    -0.354 N 
ATOM     57  N   UNL A   1      43.956  26.278  30.091  1.00  0.00    -0.248 NA
ATOM     58  C   UNL A   1      44.911  24.510  28.899  1.00  0.00     0.031 C 
ATOM     59  C   UNL A   1      45.971  28.447  33.391  1.00  0.00     0.029 A 
ATOM     60  C   UNL A   1      45.366  27.753  32.356  1.00  0.00     0.049 A 
ATOM     61  H   UNL A   1      43.522  28.125  31.400  1.00  0.00     0.167 HD
ATOM     62  C   UNL A   1      45.202  25.984  30.631  1.00  0.00     0.074 A 
ATOM     63  C   UNL A   1      45.733  24.865  29.878  1.00  0.00     0.031 C 
ATOM     64  C   UNL A   1      45.855  26.601  31.645  1.00  0.00     0.034 A 
BRANCH  51  65
ATOM     65  C   UNL A   1      42.906  31.527  33.902  1.00  0.00     0.023 A 
ATOM     66  C   UNL A   1      43.446  32.763  33.496  1.00  0.00     0.012 A 
ATOM     67  C   UNL A   1      42.333  31.409  35.182  1.00  0.00     0.148 A 
ATOM     68  C   UNL A   1      43.426  33.862  34.352  1.00  0.00     0.002 A 
ATOM     69  C   UNL A   1      42.298  32.516  36.025  1.00  0.00     0.091 A 
ATOM     70  F   UNL A   1      41.851  30.218  35.566  1.00  0.00    -0.205 F 
ATOM     71  C   UNL A   1      42.844  33.742  35.614  1.00  0.00     0.022 A 
BRANCH  69  72
ATOM     72  S   UNL A   1      41.516  32.430  37.640  1.00  0.00     0.127 S 
ATOM     73  O   UNL A   1      40.166  31.988  37.297  1.00  0.00    -0.237 OA
ATOM     74  O   UNL A   1      42.323  31.428  38.339  1.00  0.00    -0.237 OA
ATOM     75  O   UNL A   1      41.633  33.775  38.187  1.00  0.00    -0.744 OA
ENDBRANCH  69  72
ENDBRANCH  51  65
BRANCH  52  76
ATOM     76  C   UNL A   1      42.540  24.177  27.192  1.00  0.00     0.023 A 
ATOM     77  C   UNL A   1      43.193  24.365  25.960  1.00  0.00     0.012 A 
ATOM     78  C   UNL A   1      41.922  22.941  27.459  1.00  0.00     0.148 A 
ATOM     79  C   UNL A   1      43.223  23.344  25.008  1.00  0.00     0.002 A 
ATOM     80  C   UNL A   1      41.999  21.911  26.527  1.00  0.00     0.091 A 
ATOM     81  F   UNL A   1      41.285  22.780  28.629  1.00  0.00    -0.205 F 
ATOM     82  C   UNL A   1      42.640  22.113  25.296  1.00  0.00     0.022 A 
BRANCH  80  83
ATOM     83  S   UNL A   1      41.386  20.271  26.927  1.00  0.00     0.127 S 
ATOM     84  O   UNL A   1      42.585  19.451  26.785  1.00  0.00    -0.237 OA
ATOM     85  O   UNL A   1      40.909  20.427  28.303  1.00  0.00    -0.237 OA
ATOM     86  O   UNL A   1      40.320  20.040  25.959  1.00  0.00    -0.744 OA
ENDBRANCH  80  83
ENDBRANCH  52  76
BRANCH  64  87
ATOM     87  C   UNL A   1      47.216  26.083  32.015  1.00  0.00     0.023 A 
ATOM     88  C   UNL A   1      48.336  26.525  31.285  1.00  0.00     0.012 A 
ATOM     89  C   UNL A   1      47.399  25.233  33.121  1.00  0.00     0.148 A 
ATOM     90  C   UNL A   1      49.621  26.119  31.647  1.00  0.00     0.002 A 
ATOM     91  C   UNL A   1      48.685  24.853  33.492  1.00  0.00     0.091 A 
ATOM     92  F   UNL A   1      46.318  24.799  33.787  1.00  0.00    -0.205 F 
ATOM     93  C   UNL A   1      49.797  25.293  32.755  1.00  0.00     0.022 A 
BRANCH  91  94
ATOM     94  S   UNL A   1      48.973  23.846  34.952  1.00  0.00     0.127 S 
ATOM     95  O   UNL A   1      48.267  22.614  34.613  1.00  0.00    -0.237 OA
ATOM     96  O   UNL A   1      50.432  23.723  34.981  1.00  0.00    -0.237 OA
ATOM     97  O   UNL A   1      48.421  24.618  36.058  1.00  0.00    -0.744 OA
ENDBRANCH  91  94
ENDBRANCH  64  87
ENDBRANCH  38  39
ENDBRANCH  30  33
ENDBRANCH  28  29
ENDBRANCH   1  28
TORSDOF 16
ENDMDL
MODEL 3
REMARK VINA RESULT:     -12.8      5.304     10.338
REMARK SMILES Cn1cc(C(=O)NCCCNC(=O)c2ccc(-c3c4nc(c(-c5cccc(S(=O)(=O)[O-])c5F)c5ccc([nH]5)c(-c5cccc(S(=O)(=O)[O-])c5F)c5nc(c(-c6cccc(S(=O)(=O)[O-])c6F)c6ccc3[nH]6)C=C5)C=C4)cc2)c(C(=O)Nc2ccc(-n3cncn3)cc2)n1
REMARK SMILES IDX 9 1 8 2 7 3 5 4 6 5 4 7 1 8 2 9 3 10 92 11 77 12 78 13 79 14
REMARK SMILES IDX 80 15 81 17 82 18 91 19 83 20 90 21 84 22 85 23 86 24 89 25
REMARK SMILES IDX 87 26 88 27 10 28 11 29 12 30 13 32 14 33 15 34 76 35 16 36
REMARK SMILES IDX 75 37 17 38 18 39 19 40 69 41 20 42 74 43 68 44 70 45 21 46
REMARK SMILES IDX 73 47 67 48 66 49 22 51 54 52 34 53 53 54 35 55 38 56 52 57
REMARK SMILES IDX 71 58 36 59 37 60 51 62 72 63 39 64 23 65 24 66 32 67 25 68
REMARK SMILES IDX 27 69 33 70 26 71 28 72 29 73 30 74 31 75 55 76 56 77 64 78
REMARK SMILES IDX 57 79 59 80 65 81 58 82 60 83 61 84 62 85 63 86 40 87 41 88
REMARK SMILES IDX 49 89 42 90 44 91 50 92 43 93 45 94 46 95 47 96 48 97
REMARK H PARENT 7 6 80 16 11 31 70 50 38 61
REMARK Flexibility Score: inf
ROOT
ATOM      1  C   UNL A   1      35.982  23.021  24.365  1.00  0.00     0.042 C 
ENDROOT
BRANCH   1   2
ATOM      2  C   UNL A   1      34.538  22.980  23.869  1.00  0.00     0.118 C 
BRANCH   2   3
ATOM      3  N   UNL A   1      34.172  23.972  22.873  1.00  0.00    -0.352 N 
ATOM      4  C   UNL A   1      33.741  25.273  22.965  1.00  0.00     0.255 C 
ATOM      5  O   UNL A   1      33.847  25.962  21.946  1.00  0.00    -0.269 OA
ATOM      6  H   UNL A   1      34.249  23.647  21.946  1.00  0.00     0.163 HD
BRANCH   4   7
ATOM      7  C   UNL A   1      33.173  25.826  24.184  1.00  0.00     0.090 A 
ATOM      8  C   UNL A   1      32.826  28.150  26.922  1.00  0.00     0.173 C 
ATOM      9  N   UNL A   1      32.765  27.084  25.950  1.00  0.00    -0.274 N 
ATOM     10  C   UNL A   1      33.739  26.732  25.065  1.00  0.00     0.123 A 
ATOM     11  N   UNL A   1      31.622  26.421  25.776  1.00  0.00    -0.167 NA
ATOM     12  C   UNL A   1      31.820  25.665  24.675  1.00  0.00     0.163 A 
BRANCH  12  13
ATOM     13  C   UNL A   1      30.660  24.945  24.102  1.00  0.00     0.276 C 
ATOM     14  O   UNL A   1      30.634  23.709  24.051  1.00  0.00    -0.267 OA
ATOM     15  N   UNL A   1      29.516  25.588  23.684  1.00  0.00    -0.321 N 
ATOM     16  H   UNL A   1      28.743  24.989  23.569  1.00  0.00     0.170 HD
BRANCH  15  17
ATOM     17  C   UNL A   1      29.244  26.925  23.392  1.00  0.00     0.041 A 
ATOM     18  C   UNL A   1      30.310  27.683  22.899  1.00  0.00     0.028 A 
ATOM     19  C   UNL A   1      27.990  27.513  23.548  1.00  0.00     0.028 A 
ATOM     20  C   UNL A   1      30.093  28.972  22.419  1.00  0.00     0.030 A 
ATOM     21  C   UNL A   1      27.781  28.835  23.134  1.00  0.00     0.030 A 
ATOM     22  C   UNL A   1      28.821  29.545  22.515  1.00  0.00     0.067 A 
BRANCH  22  23
ATOM     23  N   UNL A   1      28.589  30.800  21.901  1.00  0.00    -0.221 N 
ATOM     24  C   UNL A   1      28.491  32.040  22.479  1.00  0.00     0.225 A 
ATOM     25  N   UNL A   1      28.284  30.899  20.580  1.00  0.00    -0.155 NA
ATOM     26  N   UNL A   1      28.042  32.916  21.610  1.00  0.00    -0.223 NA
ATOM     27  C   UNL A   1      27.925  32.179  20.473  1.00  0.00     0.246 A 
ENDBRANCH  22  23
ENDBRANCH  15  17
ENDBRANCH  12  13
ENDBRANCH   4   7
ENDBRANCH   2   3
ENDBRANCH   1   2
BRANCH   1  28
ATOM     28  C   UNL A   1      36.233  22.374  25.729  1.00  0.00     0.118 C 
BRANCH  28  29
ATOM     29  N   UNL A   1      37.323  21.409  25.738  1.00  0.00    -0.352 N 
ATOM     30  C   UNL A   1      38.663  21.530  26.005  1.00  0.00     0.251 C 
ATOM     31  H   UNL A   1      37.044  20.494  25.508  1.00  0.00     0.163 HD
ATOM     32  O   UNL A   1      39.384  20.553  25.808  1.00  0.00    -0.269 OA
BRANCH  30  33
ATOM     33  C   UNL A   1      39.273  22.790  26.495  1.00  0.00     0.039 A 
ATOM     34  C   UNL A   1      40.245  22.709  27.501  1.00  0.00     0.014 A 
ATOM     35  C   UNL A   1      38.845  24.046  26.060  1.00  0.00     0.014 A 
ATOM     36  C   UNL A   1      40.831  23.871  28.015  1.00  0.00     0.010 A 
ATOM     37  C   UNL A   1      39.456  25.206  26.545  1.00  0.00     0.010 A 
ATOM     38  C   UNL A   1      40.461  25.129  27.520  1.00  0.00    -0.014 A 
BRANCH  38  39
ATOM     39  C   UNL A   1      41.153  26.368  27.963  1.00  0.00     0.031 A 
ATOM     40  C   UNL A   1      40.405  27.465  28.665  1.00  0.00     0.074 A 
ATOM     41  C   UNL A   1      42.450  26.541  27.642  1.00  0.00     0.049 A 
ATOM     42  N   UNL A   1      40.835  28.645  29.034  1.00  0.00    -0.248 NA
ATOM     43  C   UNL A   1      38.990  27.213  28.981  1.00  0.00     0.031 C 
ATOM     44  C   UNL A   1      43.273  25.573  26.914  1.00  0.00     0.029 A 
ATOM     45  N   UNL A   1      43.293  27.603  27.853  1.00  0.00    -0.354 N 
ATOM     46  C   UNL A   1      39.740  29.291  29.596  1.00  0.00     0.074 A 
ATOM     47  C   UNL A   1      38.623  28.371  29.517  1.00  0.00     0.031 C 
ATOM     48  C   UNL A   1      44.496  26.091  26.727  1.00  0.00     0.029 A 
ATOM     49  C   UNL A   1      44.541  27.434  27.301  1.00  0.00     0.049 A 
ATOM     50  H   UNL A   1      43.030  28.410  28.353  1.00  0.00     0.167 HD
ATOM     51  C   UNL A   1      39.676  30.525  30.147  1.00  0.00     0.034 A 
ATOM     52  C   UNL A   1      45.600  28.265  27.250  1.00  0.00     0.034 A 
ATOM     53  C   UNL A   1      40.794  31.422  30.278  1.00  0.00     0.049 A 
ATOM     54  C   UNL A   1      45.513  29.614  27.904  1.00  0.00     0.074 A 
ATOM     55  C   UNL A   1      40.836  32.660  30.894  1.00  0.00     0.029 A 
ATOM     56  N   UNL A   1      42.066  31.175  29.788  1.00  0.00    -0.354 N 
ATOM     57  N   UNL A   1      44.509  30.147  28.557  1.00  0.00    -0.248 NA
ATOM     58  C   UNL A   1      46.709  30.467  27.840  1.00  0.00     0.031 C 
ATOM     59  C   UNL A   1      42.139  33.161  30.784  1.00  0.00     0.029 A 
ATOM     60  C   UNL A   1      42.902  32.238  30.087  1.00  0.00     0.049 A 
ATOM     61  H   UNL A   1      42.336  30.365  29.299  1.00  0.00     0.167 HD
ATOM     62  C   UNL A   1      44.958  31.384  29.002  1.00  0.00     0.074 A 
ATOM     63  C   UNL A   1      46.331  31.517  28.558  1.00  0.00     0.031 C 
ATOM     64  C   UNL A   1      44.284  32.332  29.697  1.00  0.00     0.034 A 
BRANCH  51  65
ATOM     65  C   UNL A   1      38.359  30.959  30.727  1.00  0.00     0.023 A 
ATOM     66  C   UNL A   1      38.100  30.707  32.088  1.00  0.00     0.012 A 
ATOM     67  C   UNL A   1      37.414  31.665  29.961  1.00  0.00     0.148 A 
ATOM     68  C   UNL A   1      36.913  31.140  32.677  1.00  0.00     0.002 A 
ATOM     69  C   UNL A   1      36.240  32.113  30.560  1.00  0.00     0.091 A 
ATOM     70  F   UNL A   1      37.662  31.871  28.659  1.00  0.00    -0.205 F 
ATOM     71  C   UNL A   1      35.986  31.851  31.915  1.00  0.00     0.022 A 
BRANCH  69  72
ATOM     72  S   UNL A   1      35.036  33.076  29.638  1.00  0.00     0.127 S 
ATOM     73  O   UNL A   1      35.862  34.157  29.103  1.00  0.00    -0.237 OA
ATOM     74  O   UNL A   1      34.558  32.124  28.633  1.00  0.00    -0.237 OA
ATOM     75  O   UNL A   1      34.031  33.460  30.620  1.00  0.00    -0.744 OA
ENDBRANCH  69  72
ENDBRANCH  51  65
BRANCH  52  76
ATOM     76  C   UNL A   1      46.862  27.797  26.616  1.00  0.00     0.023 A 
ATOM     77  C   UNL A   1      47.804  27.103  27.398  1.00  0.00     0.012 A 
ATOM     78  C   UNL A   1      47.101  27.963  25.239  1.00  0.00     0.148 A 
ATOM     79  C   UNL A   1      48.967  26.591  26.821  1.00  0.00     0.002 A 
ATOM     80  C   UNL A   1      48.238  27.407  24.661  1.00  0.00     0.091 A 
ATOM     81  F   UNL A   1      46.205  28.643  24.508  1.00  0.00    -0.205 F 
ATOM     82  C   UNL A   1      49.179  26.730  25.451  1.00  0.00     0.022 A 
BRANCH  80  83
ATOM     83  S   UNL A   1      48.464  27.441  22.880  1.00  0.00     0.127 S 
ATOM     84  O   UNL A   1      47.299  28.199  22.435  1.00  0.00    -0.237 OA
ATOM     85  O   UNL A   1      49.744  28.136  22.727  1.00  0.00    -0.237 OA
ATOM     86  O   UNL A   1      48.511  26.034  22.498  1.00  0.00    -0.744 OA
ENDBRANCH  80  83
ENDBRANCH  52  76
BRANCH  64  87
ATOM     87  C   UNL A   1      45.017  33.600  30.034  1.00  0.00     0.023 A 
ATOM     88  C   UNL A   1      45.760  33.664  31.228  1.00  0.00     0.012 A 
ATOM     89  C   UNL A   1      45.040  34.689  29.143  1.00  0.00     0.148 A 
ATOM     90  C   UNL A   1      46.509  34.800  31.536  1.00  0.00     0.002 A 
ATOM     91  C   UNL A   1      45.810  35.809  29.445  1.00  0.00     0.091 A 
ATOM     92  F   UNL A   1      44.303  34.623  28.024  1.00  0.00    -0.205 F 
ATOM     93  C   UNL A   1      46.543  35.867  30.641  1.00  0.00     0.022 A 
BRANCH  91  94
ATOM     94  S   UNL A   1      45.943  37.183  28.295  1.00  0.00     0.127 S 
ATOM     95  O   UNL A   1      46.476  36.529  27.103  1.00  0.00    -0.237 OA
ATOM     96  O   UNL A   1      44.556  37.639  28.169  1.00  0.00    -0.237 OA
ATOM     97  O   UNL A   1      46.825  38.140  28.950  1.00  0.00    -0.744 OA
ENDBRANCH  91  94
ENDBRANCH  64  87
ENDBRANCH  38  39
ENDBRANCH  30  33
ENDBRANCH  28  29
ENDBRANCH   1  28
TORSDOF 16
ENDMDL
