MODEL 1
REMARK VINA RESULT:     -12.7      0.000      0.000
REMARK SMILES Cc1nc(CC(=O)N2Cc3nc[nH]c3C[C@H]2C(=O)NCCCNC(=O)c2ccc(-c3c4nc(c(-c5cccc(S(=O)(=O)[O-])c5F)c5ccc([nH]5)c(-c5cccc(S(=O)(=O)[O-])c5F)c5nc(c(-c6cccc(S(=O)(=O)[O-])c6F)c6ccc3[nH]6)C=C5)C=C4)cc2)cs1
REMARK SMILES IDX 21 1 20 2 19 3 17 4 18 5 16 7 8 8 9 9 10 10 15 11 11 12
REMARK SMILES IDX 14 13 12 14 13 15 6 17 7 18 5 19 4 20 1 21 2 22 3 23 90 24
REMARK SMILES IDX 89 25 22 26 23 27 24 28 25 30 26 31 27 32 88 33 28 34 87 35
REMARK SMILES IDX 29 36 30 37 31 38 81 39 32 40 86 41 80 42 82 43 33 44 85 45
REMARK SMILES IDX 79 46 78 47 34 49 66 50 46 51 65 52 47 53 50 54 64 55 83 56
REMARK SMILES IDX 48 57 49 58 63 60 84 61 51 62 35 63 36 64 44 65 37 66 39 67
REMARK SMILES IDX 45 68 38 69 40 70 41 71 42 72 43 73 67 74 68 75 76 76 69 77
REMARK SMILES IDX 71 78 77 79 70 80 72 81 73 82 74 83 75 84 52 85 53 86 61 87
REMARK SMILES IDX 54 88 56 89 62 90 55 91 57 92 58 93 59 94 60 95
REMARK H PARENT 19 6 13 16 23 29 82 48 50 59
REMARK Flexibility Score: inf
ROOT
ATOM      1  C   UNL A   1      37.817  20.265  24.891  1.00  0.00     0.042 C 
ENDROOT
BRANCH   1   2
ATOM      2  C   UNL A   1      36.677  21.234  25.195  1.00  0.00     0.117 C 
BRANCH   2   3
ATOM      3  N   UNL A   1      36.588  22.334  24.256  1.00  0.00    -0.354 N 
ATOM      4  C   UNL A   1      35.550  22.949  23.638  1.00  0.00     0.243 C 
ATOM      5  O   UNL A   1      35.819  24.048  23.136  1.00  0.00    -0.273 OA
ATOM      6  H   UNL A   1      37.463  22.714  24.017  1.00  0.00     0.163 HD
BRANCH   4   7
ATOM      7  C   UNL A   1      34.089  22.434  23.568  1.00  0.00     0.180 C 
ATOM      8  N   UNL A   1      33.244  22.378  24.812  1.00  0.00    -0.324 N 
ATOM      9  C   UNL A   1      32.450  23.566  25.189  1.00  0.00     0.178 C 
ATOM     10  C   UNL A   1      32.046  24.343  23.986  1.00  0.00     0.081 A 
ATOM     11  C   UNL A   1      33.309  22.924  22.317  1.00  0.00     0.091 C 
ATOM     12  N   UNL A   1      31.405  25.556  24.015  1.00  0.00    -0.240 NA
ATOM     13  C   UNL A   1      32.423  24.042  22.699  1.00  0.00     0.042 A 
ATOM     14  C   UNL A   1      31.390  25.971  22.765  1.00  0.00     0.197 A 
ATOM     15  N   UNL A   1      31.956  25.056  21.918  1.00  0.00    -0.348 N 
ATOM     16  H   UNL A   1      32.016  25.119  20.937  1.00  0.00     0.167 HD
BRANCH   8  17
ATOM     17  C   UNL A   1      33.082  21.264  25.635  1.00  0.00     0.229 C 
ATOM     18  O   UNL A   1      33.734  21.155  26.683  1.00  0.00    -0.274 OA
BRANCH  17  19
ATOM     19  C   UNL A   1      32.174  20.111  25.243  1.00  0.00     0.157 C 
BRANCH  19  20
ATOM     20  C   UNL A   1      32.862  18.827  24.943  1.00  0.00     0.061 A 
ATOM     21  C   UNL A   1      32.593  15.270  25.678  1.00  0.00     0.079 C 
ATOM     22  C   UNL A   1      32.973  16.624  25.200  1.00  0.00     0.090 A 
ATOM     23  N   UNL A   1      32.205  17.677  25.337  1.00  0.00    -0.246 NA
ATOM     24  S   UNL A   1      34.494  16.931  24.467  1.00  0.00    -0.127 S 
ATOM     25  C   UNL A   1      34.106  18.606  24.383  1.00  0.00     0.091 A 
ENDBRANCH  19  20
ENDBRANCH  17  19
ENDBRANCH   8  17
ENDBRANCH   4   7
ENDBRANCH   2   3
ENDBRANCH   1   2
BRANCH   1  26
ATOM     26  C   UNL A   1      39.036  20.516  25.755  1.00  0.00     0.118 C 
BRANCH  26  27
ATOM     27  N   UNL A   1      39.921  19.346  25.847  1.00  0.00    -0.352 N 
ATOM     28  C   UNL A   1      41.302  19.338  26.006  1.00  0.00     0.251 C 
ATOM     29  H   UNL A   1      39.484  18.465  25.791  1.00  0.00     0.163 HD
ATOM     30  O   UNL A   1      41.973  18.362  25.751  1.00  0.00    -0.269 OA
BRANCH  28  31
ATOM     31  C   UNL A   1      41.919  20.583  26.504  1.00  0.00     0.039 A 
ATOM     32  C   UNL A   1      42.151  21.673  25.663  1.00  0.00     0.014 A 
ATOM     33  C   UNL A   1      42.070  20.681  27.880  1.00  0.00     0.014 A 
ATOM     34  C   UNL A   1      42.423  22.909  26.243  1.00  0.00     0.010 A 
ATOM     35  C   UNL A   1      42.105  21.929  28.438  1.00  0.00     0.010 A 
ATOM     36  C   UNL A   1      42.351  23.040  27.639  1.00  0.00    -0.014 A 
BRANCH  36  37
ATOM     37  C   UNL A   1      42.377  24.353  28.284  1.00  0.00     0.031 A 
ATOM     38  C   UNL A   1      41.146  25.161  28.057  1.00  0.00     0.074 A 
ATOM     39  C   UNL A   1      43.320  24.691  29.197  1.00  0.00     0.049 A 
ATOM     40  N   UNL A   1      41.020  26.212  27.314  1.00  0.00    -0.248 NA
ATOM     41  C   UNL A   1      39.862  24.642  28.561  1.00  0.00     0.031 C 
ATOM     42  C   UNL A   1      44.372  23.816  29.743  1.00  0.00     0.029 A 
ATOM     43  N   UNL A   1      43.448  25.811  29.964  1.00  0.00    -0.354 N 
ATOM     44  C   UNL A   1      39.712  26.651  27.527  1.00  0.00     0.074 A 
ATOM     45  C   UNL A   1      38.996  25.522  28.051  1.00  0.00     0.031 C 
ATOM     46  C   UNL A   1      44.806  24.307  30.921  1.00  0.00     0.029 A 
ATOM     47  C   UNL A   1      44.236  25.625  31.100  1.00  0.00     0.049 A 
ATOM     48  H   UNL A   1      43.025  26.671  29.737  1.00  0.00     0.167 HD
ATOM     49  C   UNL A   1      39.443  27.985  27.618  1.00  0.00     0.034 A 
ATOM     50  C   UNL A   1      44.402  26.479  32.136  1.00  0.00     0.034 A 
ATOM     51  C   UNL A   1      40.588  28.754  27.202  1.00  0.00     0.049 A 
ATOM     52  C   UNL A   1      44.058  27.827  31.648  1.00  0.00     0.074 A 
ATOM     53  C   UNL A   1      41.228  29.073  26.027  1.00  0.00     0.029 A 
ATOM     54  N   UNL A   1      41.457  29.003  28.231  1.00  0.00    -0.354 N 
ATOM     55  N   UNL A   1      44.739  28.444  30.722  1.00  0.00    -0.248 NA
ATOM     56  C   UNL A   1      42.737  28.374  31.931  1.00  0.00     0.031 C 
ATOM     57  C   UNL A   1      42.574  29.386  26.385  1.00  0.00     0.029 A 
ATOM     58  C   UNL A   1      42.707  29.296  27.770  1.00  0.00     0.049 A 
ATOM     59  H   UNL A   1      41.210  28.974  29.184  1.00  0.00     0.167 HD
ATOM     60  C   UNL A   1      43.770  29.122  30.006  1.00  0.00     0.074 A 
ATOM     61  C   UNL A   1      42.620  29.209  30.896  1.00  0.00     0.031 C 
ATOM     62  C   UNL A   1      43.853  29.232  28.650  1.00  0.00     0.034 A 
BRANCH  49  63
ATOM     63  C   UNL A   1      38.421  28.643  28.541  1.00  0.00     0.023 A 
ATOM     64  C   UNL A   1      37.524  29.561  27.937  1.00  0.00     0.012 A 
ATOM     65  C   UNL A   1      38.486  28.667  29.952  1.00  0.00     0.148 A 
ATOM     66  C   UNL A   1      36.793  30.491  28.687  1.00  0.00     0.002 A 
ATOM     67  C   UNL A   1      37.709  29.549  30.699  1.00  0.00     0.091 A 
ATOM     68  F   UNL A   1      39.393  27.933  30.596  1.00  0.00    -0.205 F 
ATOM     69  C   UNL A   1      36.885  30.484  30.071  1.00  0.00     0.022 A 
BRANCH  67  70
ATOM     70  S   UNL A   1      37.770  29.573  32.497  1.00  0.00     0.127 S 
ATOM     71  O   UNL A   1      36.692  30.505  32.812  1.00  0.00    -0.237 OA
ATOM     72  O   UNL A   1      37.496  28.173  32.820  1.00  0.00    -0.237 OA
ATOM     73  O   UNL A   1      39.116  30.013  32.839  1.00  0.00    -0.744 OA
ENDBRANCH  67  70
ENDBRANCH  49  63
BRANCH  50  74
ATOM     74  C   UNL A   1      44.679  26.204  33.563  1.00  0.00     0.023 A 
ATOM     75  C   UNL A   1      46.004  26.242  34.040  1.00  0.00     0.012 A 
ATOM     76  C   UNL A   1      43.627  26.190  34.505  1.00  0.00     0.148 A 
ATOM     77  C   UNL A   1      46.273  26.314  35.412  1.00  0.00     0.002 A 
ATOM     78  C   UNL A   1      43.900  26.258  35.868  1.00  0.00     0.091 A 
ATOM     79  F   UNL A   1      42.365  26.197  34.059  1.00  0.00    -0.205 F 
ATOM     80  C   UNL A   1      45.222  26.336  36.325  1.00  0.00     0.022 A 
BRANCH  78  81
ATOM     81  S   UNL A   1      42.599  26.317  37.109  1.00  0.00     0.127 S 
ATOM     82  O   UNL A   1      43.372  26.400  38.348  1.00  0.00    -0.237 OA
ATOM     83  O   UNL A   1      41.893  27.542  36.745  1.00  0.00    -0.237 OA
ATOM     84  O   UNL A   1      41.848  25.080  36.950  1.00  0.00    -0.744 OA
ENDBRANCH  78  81
ENDBRANCH  50  74
BRANCH  62  85
ATOM     85  C   UNL A   1      45.205  29.120  28.016  1.00  0.00     0.023 A 
ATOM     86  C   UNL A   1      46.177  30.136  28.070  1.00  0.00     0.012 A 
ATOM     87  C   UNL A   1      45.538  27.879  27.449  1.00  0.00     0.148 A 
ATOM     88  C   UNL A   1      47.459  29.915  27.558  1.00  0.00     0.002 A 
ATOM     89  C   UNL A   1      46.822  27.646  26.988  1.00  0.00     0.091 A 
ATOM     90  F   UNL A   1      44.587  26.933  27.398  1.00  0.00    -0.205 F 
ATOM     91  C   UNL A   1      47.786  28.665  27.031  1.00  0.00     0.022 A 
BRANCH  89  92
ATOM     92  S   UNL A   1      47.325  26.023  26.420  1.00  0.00     0.127 S 
ATOM     93  O   UNL A   1      46.401  25.787  25.312  1.00  0.00    -0.237 OA
ATOM     94  O   UNL A   1      48.715  26.247  26.022  1.00  0.00    -0.237 OA
ATOM     95  O   UNL A   1      47.172  25.132  27.564  1.00  0.00    -0.744 OA
ENDBRANCH  89  92
ENDBRANCH  62  85
ENDBRANCH  36  37
ENDBRANCH  28  31
ENDBRANCH  26  27
ENDBRANCH   1  26
TORSDOF 16
ENDMDL
MODEL 2
REMARK VINA RESULT:     -12.7      4.455      9.882
REMARK SMILES Cc1nc(CC(=O)N2Cc3nc[nH]c3C[C@H]2C(=O)NCCCNC(=O)c2ccc(-c3c4nc(c(-c5cccc(S(=O)(=O)[O-])c5F)c5ccc([nH]5)c(-c5cccc(S(=O)(=O)[O-])c5F)c5nc(c(-c6cccc(S(=O)(=O)[O-])c6F)c6ccc3[nH]6)C=C5)C=C4)cc2)cs1
REMARK SMILES IDX 21 1 20 2 19 3 17 4 18 5 16 7 8 8 9 9 10 10 15 11 11 12
REMARK SMILES IDX 14 13 12 14 13 15 6 17 7 18 5 19 4 20 1 21 2 22 3 23 90 24
REMARK SMILES IDX 89 25 22 26 23 27 24 28 25 30 26 31 27 32 88 33 28 34 87 35
REMARK SMILES IDX 29 36 30 37 31 38 81 39 32 40 86 41 80 42 82 43 33 44 85 45
REMARK SMILES IDX 79 46 78 47 34 49 66 50 46 51 65 52 47 53 50 54 64 55 83 56
REMARK SMILES IDX 48 57 49 58 63 60 84 61 51 62 35 63 36 64 44 65 37 66 39 67
REMARK SMILES IDX 45 68 38 69 40 70 41 71 42 72 43 73 67 74 68 75 76 76 69 77
REMARK SMILES IDX 71 78 77 79 70 80 72 81 73 82 74 83 75 84 52 85 53 86 61 87
REMARK SMILES IDX 54 88 56 89 62 90 55 91 57 92 58 93 59 94 60 95
REMARK H PARENT 19 6 13 16 23 29 82 48 50 59
REMARK Flexibility Score: inf
ROOT
ATOM      1  C   UNL A   1      31.825  31.187  26.867  1.00  0.00     0.042 C 
ENDROOT
BRANCH   1   2
ATOM      2  C   UNL A   1      32.242  30.218  25.764  1.00  0.00     0.117 C 
BRANCH   2   3
ATOM      3  N   UNL A   1      32.847  29.000  26.263  1.00  0.00    -0.354 N 
ATOM      4  C   UNL A   1      32.654  27.686  25.993  1.00  0.00     0.243 C 
ATOM      5  O   UNL A   1      33.558  26.935  26.383  1.00  0.00    -0.273 OA
ATOM      6  H   UNL A   1      33.544  29.159  26.939  1.00  0.00     0.163 HD
BRANCH   4   7
ATOM      7  C   UNL A   1      31.466  27.076  25.205  1.00  0.00     0.180 C 
ATOM      8  N   UNL A   1      31.694  26.443  23.859  1.00  0.00    -0.324 N 
ATOM      9  C   UNL A   1      32.034  25.006  23.795  1.00  0.00     0.178 C 
ATOM     10  C   UNL A   1      31.429  24.262  24.934  1.00  0.00     0.081 A 
ATOM     11  C   UNL A   1      30.461  26.290  26.092  1.00  0.00     0.091 C 
ATOM     12  N   UNL A   1      31.661  22.939  25.217  1.00  0.00    -0.240 NA
ATOM     13  C   UNL A   1      30.713  24.842  25.954  1.00  0.00     0.042 A 
ATOM     14  C   UNL A   1      31.085  22.727  26.382  1.00  0.00     0.197 A 
ATOM     15  N   UNL A   1      30.450  23.848  26.848  1.00  0.00    -0.348 N 
ATOM     16  H   UNL A   1      29.911  23.922  27.669  1.00  0.00     0.167 HD
BRANCH   8  17
ATOM     17  C   UNL A   1      31.551  27.079  22.626  1.00  0.00     0.229 C 
ATOM     18  O   UNL A   1      31.614  26.431  21.572  1.00  0.00    -0.274 OA
BRANCH  17  19
ATOM     19  C   UNL A   1      31.398  28.586  22.523  1.00  0.00     0.157 C 
BRANCH  19  20
ATOM     20  C   UNL A   1      30.003  29.079  22.367  1.00  0.00     0.061 A 
ATOM     21  C   UNL A   1      28.134  31.692  20.651  1.00  0.00     0.079 C 
ATOM     22  C   UNL A   1      28.592  30.540  21.468  1.00  0.00     0.090 A 
ATOM     23  N   UNL A   1      29.801  30.041  21.396  1.00  0.00    -0.246 NA
ATOM     24  S   UNL A   1      27.572  29.792  22.629  1.00  0.00    -0.127 S 
ATOM     25  C   UNL A   1      28.873  28.767  23.099  1.00  0.00     0.091 A 
ENDBRANCH  19  20
ENDBRANCH  17  19
ENDBRANCH   8  17
ENDBRANCH   4   7
ENDBRANCH   2   3
ENDBRANCH   1   2
BRANCH   1  26
ATOM     26  C   UNL A   1      32.964  32.080  27.314  1.00  0.00     0.118 C 
BRANCH  26  27
ATOM     27  N   UNL A   1      32.550  33.477  27.510  1.00  0.00    -0.352 N 
ATOM     28  C   UNL A   1      33.040  34.384  28.443  1.00  0.00     0.251 C 
ATOM     29  H   UNL A   1      31.844  33.810  26.909  1.00  0.00     0.163 HD
ATOM     30  O   UNL A   1      32.432  35.387  28.746  1.00  0.00    -0.269 OA
BRANCH  28  31
ATOM     31  C   UNL A   1      34.345  34.065  29.054  1.00  0.00     0.039 A 
ATOM     32  C   UNL A   1      34.447  33.245  30.180  1.00  0.00     0.014 A 
ATOM     33  C   UNL A   1      35.467  34.460  28.337  1.00  0.00     0.014 A 
ATOM     34  C   UNL A   1      35.696  32.722  30.505  1.00  0.00     0.010 A 
ATOM     35  C   UNL A   1      36.629  33.764  28.524  1.00  0.00     0.010 A 
ATOM     36  C   UNL A   1      36.780  32.949  29.641  1.00  0.00    -0.014 A 
BRANCH  36  37
ATOM     37  C   UNL A   1      38.042  32.226  29.795  1.00  0.00     0.031 A 
ATOM     38  C   UNL A   1      38.012  30.840  29.249  1.00  0.00     0.074 A 
ATOM     39  C   UNL A   1      39.188  32.844  30.168  1.00  0.00     0.049 A 
ATOM     40  N   UNL A   1      38.007  29.732  29.916  1.00  0.00    -0.248 NA
ATOM     41  C   UNL A   1      37.773  30.657  27.806  1.00  0.00     0.031 C 
ATOM     42  C   UNL A   1      39.381  34.289  30.384  1.00  0.00     0.029 A 
ATOM     43  N   UNL A   1      40.461  32.365  30.267  1.00  0.00    -0.354 N 
ATOM     44  C   UNL A   1      38.088  28.727  28.949  1.00  0.00     0.074 A 
ATOM     45  C   UNL A   1      37.660  29.329  27.717  1.00  0.00     0.031 C 
ATOM     46  C   UNL A   1      40.689  34.594  30.279  1.00  0.00     0.029 A 
ATOM     47  C   UNL A   1      41.439  33.358  30.217  1.00  0.00     0.049 A 
ATOM     48  H   UNL A   1      40.670  31.408  30.366  1.00  0.00     0.167 HD
ATOM     49  C   UNL A   1      38.855  27.622  29.172  1.00  0.00     0.034 A 
ATOM     50  C   UNL A   1      42.777  33.191  30.110  1.00  0.00     0.034 A 
ATOM     51  C   UNL A   1      39.270  27.572  30.550  1.00  0.00     0.049 A 
ATOM     52  C   UNL A   1      43.084  31.828  30.581  1.00  0.00     0.074 A 
ATOM     53  C   UNL A   1      38.707  27.293  31.774  1.00  0.00     0.029 A 
ATOM     54  N   UNL A   1      40.436  28.254  30.774  1.00  0.00    -0.354 N 
ATOM     55  N   UNL A   1      42.896  31.441  31.813  1.00  0.00    -0.248 NA
ATOM     56  C   UNL A   1      43.279  30.762  29.607  1.00  0.00     0.031 C 
ATOM     57  C   UNL A   1      39.512  27.968  32.740  1.00  0.00     0.029 A 
ATOM     58  C   UNL A   1      40.570  28.599  32.087  1.00  0.00     0.049 A 
ATOM     59  H   UNL A   1      41.096  28.468  30.075  1.00  0.00     0.167 HD
ATOM     60  C   UNL A   1      42.480  30.130  31.680  1.00  0.00     0.074 A 
ATOM     61  C   UNL A   1      42.924  29.715  30.356  1.00  0.00     0.031 C 
ATOM     62  C   UNL A   1      41.512  29.619  32.491  1.00  0.00     0.034 A 
BRANCH  49  63
ATOM     63  C   UNL A   1      39.687  26.872  28.134  1.00  0.00     0.023 A 
ATOM     64  C   UNL A   1      39.613  25.456  28.170  1.00  0.00     0.012 A 
ATOM     65  C   UNL A   1      40.738  27.426  27.370  1.00  0.00     0.148 A 
ATOM     66  C   UNL A   1      40.568  24.645  27.544  1.00  0.00     0.002 A 
ATOM     67  C   UNL A   1      41.648  26.616  26.695  1.00  0.00     0.091 A 
ATOM     68  F   UNL A   1      40.962  28.740  27.385  1.00  0.00    -0.205 F 
ATOM     69  C   UNL A   1      41.587  25.226  26.804  1.00  0.00     0.022 A 
BRANCH  67  70
ATOM     70  S   UNL A   1      42.978  27.312  25.703  1.00  0.00     0.127 S 
ATOM     71  O   UNL A   1      42.233  28.132  24.752  1.00  0.00    -0.237 OA
ATOM     72  O   UNL A   1      43.737  28.057  26.707  1.00  0.00    -0.237 OA
ATOM     73  O   UNL A   1      43.689  26.170  25.141  1.00  0.00    -0.744 OA
ENDBRANCH  67  70
ENDBRANCH  49  63
BRANCH  50  74
ATOM     74  C   UNL A   1      43.798  34.056  29.480  1.00  0.00     0.023 A 
ATOM     75  C   UNL A   1      44.572  34.923  30.278  1.00  0.00     0.012 A 
ATOM     76  C   UNL A   1      44.209  33.825  28.149  1.00  0.00     0.148 A 
ATOM     77  C   UNL A   1      45.746  35.502  29.782  1.00  0.00     0.002 A 
ATOM     78  C   UNL A   1      45.375  34.406  27.660  1.00  0.00     0.091 A 
ATOM     79  F   UNL A   1      43.503  32.970  27.399  1.00  0.00    -0.205 F 
ATOM     80  C   UNL A   1      46.155  35.232  28.479  1.00  0.00     0.022 A 
BRANCH  78  81
ATOM     81  S   UNL A   1      45.985  34.087  25.998  1.00  0.00     0.127 S 
ATOM     82  O   UNL A   1      44.867  34.547  25.176  1.00  0.00    -0.237 OA
ATOM     83  O   UNL A   1      47.172  34.936  25.947  1.00  0.00    -0.237 OA
ATOM     84  O   UNL A   1      46.227  32.652  25.936  1.00  0.00    -0.744 OA
ENDBRANCH  78  81
ENDBRANCH  50  74
BRANCH  62  85
ATOM     85  C   UNL A   1      41.304  30.260  33.829  1.00  0.00     0.023 A 
ATOM     86  C   UNL A   1      42.167  30.071  34.925  1.00  0.00     0.012 A 
ATOM     87  C   UNL A   1      40.255  31.186  33.931  1.00  0.00     0.148 A 
ATOM     88  C   UNL A   1      41.977  30.795  36.106  1.00  0.00     0.002 A 
ATOM     89  C   UNL A   1      40.099  31.938  35.084  1.00  0.00     0.091 A 
ATOM     90  F   UNL A   1      39.439  31.335  32.876  1.00  0.00    -0.205 F 
ATOM     91  C   UNL A   1      40.952  31.739  36.180  1.00  0.00     0.022 A 
BRANCH  89  92
ATOM     92  S   UNL A   1      38.879  33.247  35.180  1.00  0.00     0.127 S 
ATOM     93  O   UNL A   1      39.293  34.132  34.093  1.00  0.00    -0.237 OA
ATOM     94  O   UNL A   1      37.627  32.527  34.942  1.00  0.00    -0.237 OA
ATOM     95  O   UNL A   1      38.995  33.806  36.522  1.00  0.00    -0.744 OA
ENDBRANCH  89  92
ENDBRANCH  62  85
ENDBRANCH  36  37
ENDBRANCH  28  31
ENDBRANCH  26  27
ENDBRANCH   1  26
TORSDOF 16
ENDMDL
MODEL 3
REMARK VINA RESULT:     -12.4      1.510      3.287
REMARK SMILES Cc1nc(CC(=O)N2Cc3nc[nH]c3C[C@H]2C(=O)NCCCNC(=O)c2ccc(-c3c4nc(c(-c5cccc(S(=O)(=O)[O-])c5F)c5ccc([nH]5)c(-c5cccc(S(=O)(=O)[O-])c5F)c5nc(c(-c6cccc(S(=O)(=O)[O-])c6F)c6ccc3[nH]6)C=C5)C=C4)cc2)cs1
REMARK SMILES IDX 21 1 20 2 19 3 17 4 18 5 16 7 8 8 9 9 10 10 15 11 11 12
REMARK SMILES IDX 14 13 12 14 13 15 6 17 7 18 5 19 4 20 1 21 2 22 3 23 90 24
REMARK SMILES IDX 89 25 22 26 23 27 24 28 25 30 26 31 27 32 88 33 28 34 87 35
REMARK SMILES IDX 29 36 30 37 31 38 81 39 32 40 86 41 80 42 82 43 33 44 85 45
REMARK SMILES IDX 79 46 78 47 34 49 66 50 46 51 65 52 47 53 50 54 64 55 83 56
REMARK SMILES IDX 48 57 49 58 63 60 84 61 51 62 35 63 36 64 44 65 37 66 39 67
REMARK SMILES IDX 45 68 38 69 40 70 41 71 42 72 43 73 67 74 68 75 76 76 69 77
REMARK SMILES IDX 71 78 77 79 70 80 72 81 73 82 74 83 75 84 52 85 53 86 61 87
REMARK SMILES IDX 54 88 56 89 62 90 55 91 57 92 58 93 59 94 60 95
REMARK H PARENT 19 6 13 16 23 29 82 48 50 59
REMARK Flexibility Score: inf
ROOT
ATOM      1  C   UNL A   1      38.133  20.808  25.039  1.00  0.00     0.042 C 
ENDROOT
BRANCH   1   2
ATOM      2  C   UNL A   1      37.359  22.122  25.110  1.00  0.00     0.117 C 
BRANCH   2   3
ATOM      3  N   UNL A   1      36.619  22.423  23.901  1.00  0.00    -0.354 N 
ATOM      4  C   UNL A   1      35.296  22.534  23.623  1.00  0.00     0.243 C 
ATOM      5  O   UNL A   1      35.035  23.100  22.553  1.00  0.00    -0.273 OA
ATOM      6  H   UNL A   1      37.195  22.578  23.119  1.00  0.00     0.163 HD
BRANCH   4   7
ATOM      7  C   UNL A   1      34.126  22.084  24.534  1.00  0.00     0.180 C 
ATOM      8  N   UNL A   1      32.701  22.292  24.096  1.00  0.00    -0.324 N 
ATOM      9  C   UNL A   1      32.040  21.237  23.298  1.00  0.00     0.178 C 
ATOM     10  C   UNL A   1      32.582  19.892  23.634  1.00  0.00     0.081 A 
ATOM     11  C   UNL A   1      34.362  20.716  25.231  1.00  0.00     0.091 C 
ATOM     12  N   UNL A   1      32.257  18.730  22.981  1.00  0.00    -0.240 NA
ATOM     13  C   UNL A   1      33.615  19.664  24.512  1.00  0.00     0.042 A 
ATOM     14  C   UNL A   1      33.074  17.818  23.466  1.00  0.00     0.197 A 
ATOM     15  N   UNL A   1      33.888  18.331  24.441  1.00  0.00    -0.348 N 
ATOM     16  H   UNL A   1      34.544  17.835  24.982  1.00  0.00     0.167 HD
BRANCH   8  17
ATOM     17  C   UNL A   1      31.898  23.382  24.429  1.00  0.00     0.229 C 
ATOM     18  O   UNL A   1      31.909  23.843  25.579  1.00  0.00    -0.274 OA
BRANCH  17  19
ATOM     19  C   UNL A   1      30.926  23.988  23.433  1.00  0.00     0.157 C 
BRANCH  19  20
ATOM     20  C   UNL A   1      31.104  25.441  23.167  1.00  0.00     0.061 A 
ATOM     21  C   UNL A   1      33.711  27.824  22.277  1.00  0.00     0.079 C 
ATOM     22  C   UNL A   1      32.450  27.126  22.637  1.00  0.00     0.090 A 
ATOM     23  N   UNL A   1      32.329  25.821  22.655  1.00  0.00    -0.246 NA
ATOM     24  S   UNL A   1      31.044  27.987  23.116  1.00  0.00    -0.127 S 
ATOM     25  C   UNL A   1      30.244  26.493  23.420  1.00  0.00     0.091 A 
ENDBRANCH  19  20
ENDBRANCH  17  19
ENDBRANCH   8  17
ENDBRANCH   4   7
ENDBRANCH   2   3
ENDBRANCH   1   2
BRANCH   1  26
ATOM     26  C   UNL A   1      39.163  20.683  26.142  1.00  0.00     0.118 C 
BRANCH  26  27
ATOM     27  N   UNL A   1      40.115  19.586  25.912  1.00  0.00    -0.352 N 
ATOM     28  C   UNL A   1      41.503  19.657  25.898  1.00  0.00     0.251 C 
ATOM     29  H   UNL A   1      39.723  18.697  25.750  1.00  0.00     0.163 HD
ATOM     30  O   UNL A   1      42.187  18.795  25.391  1.00  0.00    -0.269 OA
BRANCH  28  31
ATOM     31  C   UNL A   1      42.112  20.841  26.535  1.00  0.00     0.039 A 
ATOM     32  C   UNL A   1      42.633  21.894  25.780  1.00  0.00     0.014 A 
ATOM     33  C   UNL A   1      41.960  20.939  27.912  1.00  0.00     0.014 A 
ATOM     34  C   UNL A   1      42.887  23.104  26.420  1.00  0.00     0.010 A 
ATOM     35  C   UNL A   1      41.991  22.184  28.477  1.00  0.00     0.010 A 
ATOM     36  C   UNL A   1      42.518  23.257  27.767  1.00  0.00    -0.014 A 
BRANCH  36  37
ATOM     37  C   UNL A   1      42.528  24.568  28.416  1.00  0.00     0.031 A 
ATOM     38  C   UNL A   1      41.317  25.390  28.133  1.00  0.00     0.074 A 
ATOM     39  C   UNL A   1      43.429  24.893  29.374  1.00  0.00     0.049 A 
ATOM     40  N   UNL A   1      41.239  26.444  27.388  1.00  0.00    -0.248 NA
ATOM     41  C   UNL A   1      40.005  24.884  28.573  1.00  0.00     0.031 C 
ATOM     42  C   UNL A   1      44.444  24.005  29.967  1.00  0.00     0.029 A 
ATOM     43  N   UNL A   1      43.532  26.010  30.150  1.00  0.00    -0.354 N 
ATOM     44  C   UNL A   1      39.927  26.898  27.539  1.00  0.00     0.074 A 
ATOM     45  C   UNL A   1      39.174  25.775  28.025  1.00  0.00     0.031 C 
ATOM     46  C   UNL A   1      44.826  24.488  31.166  1.00  0.00     0.029 A 
ATOM     47  C   UNL A   1      44.263  25.812  31.321  1.00  0.00     0.049 A 
ATOM     48  H   UNL A   1      43.130  26.874  29.905  1.00  0.00     0.167 HD
ATOM     49  C   UNL A   1      39.669  28.234  27.620  1.00  0.00     0.034 A 
ATOM     50  C   UNL A   1      44.389  26.661  32.367  1.00  0.00     0.034 A 
ATOM     51  C   UNL A   1      40.841  28.991  27.262  1.00  0.00     0.049 A 
ATOM     52  C   UNL A   1      44.083  28.014  31.866  1.00  0.00     0.074 A 
ATOM     53  C   UNL A   1      41.540  29.306  26.121  1.00  0.00     0.029 A 
ATOM     54  N   UNL A   1      41.662  29.227  28.333  1.00  0.00    -0.354 N 
ATOM     55  N   UNL A   1      44.815  28.626  30.976  1.00  0.00    -0.248 NA
ATOM     56  C   UNL A   1      42.757  28.576  32.088  1.00  0.00     0.031 C 
ATOM     57  C   UNL A   1      42.870  29.603  26.544  1.00  0.00     0.029 A 
ATOM     58  C   UNL A   1      42.936  29.508  27.933  1.00  0.00     0.049 A 
ATOM     59  H   UNL A   1      41.369  29.200  29.272  1.00  0.00     0.167 HD
ATOM     60  C   UNL A   1      43.889  29.316  30.217  1.00  0.00     0.074 A 
ATOM     61  C   UNL A   1      42.698  29.414  31.051  1.00  0.00     0.031 C 
ATOM     62  C   UNL A   1      44.038  29.429  28.867  1.00  0.00     0.034 A 
BRANCH  49  63
ATOM     63  C   UNL A   1      38.611  28.902  28.496  1.00  0.00     0.023 A 
ATOM     64  C   UNL A   1      37.800  29.881  27.869  1.00  0.00     0.012 A 
ATOM     65  C   UNL A   1      38.575  28.868  29.907  1.00  0.00     0.148 A 
ATOM     66  C   UNL A   1      37.057  30.813  28.603  1.00  0.00     0.002 A 
ATOM     67  C   UNL A   1      37.783  29.754  30.634  1.00  0.00     0.091 A 
ATOM     68  F   UNL A   1      39.401  28.069  30.583  1.00  0.00    -0.205 F 
ATOM     69  C   UNL A   1      37.047  30.749  29.989  1.00  0.00     0.022 A 
BRANCH  67  70
ATOM     70  S   UNL A   1      37.714  29.706  32.431  1.00  0.00     0.127 S 
ATOM     71  O   UNL A   1      39.045  30.187  32.786  1.00  0.00    -0.237 OA
ATOM     72  O   UNL A   1      36.621  30.637  32.710  1.00  0.00    -0.237 OA
ATOM     73  O   UNL A   1      37.422  28.320  32.776  1.00  0.00    -0.744 OA
ENDBRANCH  67  70
ENDBRANCH  49  63
BRANCH  50  74
ATOM     74  C   UNL A   1      44.594  26.380  33.804  1.00  0.00     0.023 A 
ATOM     75  C   UNL A   1      45.877  26.516  34.370  1.00  0.00     0.012 A 
ATOM     76  C   UNL A   1      43.488  26.259  34.674  1.00  0.00     0.148 A 
ATOM     77  C   UNL A   1      46.049  26.581  35.757  1.00  0.00     0.002 A 
ATOM     78  C   UNL A   1      43.664  26.320  36.053  1.00  0.00     0.091 A 
ATOM     79  F   UNL A   1      42.261  26.172  34.144  1.00  0.00    -0.205 F 
ATOM     80  C   UNL A   1      44.943  26.498  36.598  1.00  0.00     0.022 A 
BRANCH  78  81
ATOM     81  S   UNL A   1      42.285  26.246  37.205  1.00  0.00     0.127 S 
ATOM     82  O   UNL A   1      41.728  24.924  36.919  1.00  0.00    -0.237 OA
ATOM     83  O   UNL A   1      42.963  26.360  38.492  1.00  0.00    -0.237 OA
ATOM     84  O   UNL A   1      41.413  27.356  36.845  1.00  0.00    -0.744 OA
ENDBRANCH  78  81
ENDBRANCH  50  74
BRANCH  62  85
ATOM     85  C   UNL A   1      45.418  29.303  28.298  1.00  0.00     0.023 A 
ATOM     86  C   UNL A   1      46.395  30.312  28.395  1.00  0.00     0.012 A 
ATOM     87  C   UNL A   1      45.766  28.058  27.751  1.00  0.00     0.148 A 
ATOM     88  C   UNL A   1      47.698  30.078  27.945  1.00  0.00     0.002 A 
ATOM     89  C   UNL A   1      47.069  27.813  27.352  1.00  0.00     0.091 A 
ATOM     90  F   UNL A   1      44.810  27.120  27.657  1.00  0.00    -0.205 F 
ATOM     91  C   UNL A   1      48.039  28.824  27.438  1.00  0.00     0.022 A 
BRANCH  89  92
ATOM     92  S   UNL A   1      47.584  26.183  26.813  1.00  0.00     0.127 S 
ATOM     93  O   UNL A   1      47.233  25.354  27.964  1.00  0.00    -0.237 OA
ATOM     94  O   UNL A   1      46.752  25.969  25.627  1.00  0.00    -0.237 OA
ATOM     95  O   UNL A   1      49.009  26.287  26.526  1.00  0.00    -0.744 OA
ENDBRANCH  89  92
ENDBRANCH  62  85
ENDBRANCH  36  37
ENDBRANCH  28  31
ENDBRANCH  26  27
ENDBRANCH   1  26
TORSDOF 16
ENDMDL
