MODEL 1
REMARK VINA RESULT:     -10.7      0.000      0.000
REMARK SMILES O=C(CC[NH+]1CCC([N@H+]2CCC[C@H](C(=O)NCc3cccnc3)C2)CC1)NCCCNC(=O)c1ccc(-c2c3nc(c(-c4cccc(S(=O)(=O)[O-])c4F)c4ccc([nH]4)c(-c4cccc(S(=O)(=O)[O-])c4F)c4nc(c(-c5cccc(S(=O)(=O)[O-])c5F)c5ccc2[nH]5)C=C4)C=C3)cc1
REMARK SMILES IDX 1 1 2 2 27 3 3 5 4 6 5 7 6 8 26 9 7 11 25 12 8 13 9 14 10 15
REMARK SMILES IDX 24 16 11 18 13 19 12 20 14 21 15 22 16 23 17 25 18 26 19 27
REMARK SMILES IDX 23 28 20 29 22 30 21 31 28 32 29 33 30 34 31 35 32 36 33 38
REMARK SMILES IDX 34 39 35 40 96 41 36 42 95 43 37 44 38 45 39 46 89 47 40 48
REMARK SMILES IDX 94 49 88 50 90 51 41 52 93 53 87 54 86 55 42 57 74 58 54 59
REMARK SMILES IDX 73 60 55 61 58 62 72 63 91 64 56 65 57 66 71 68 92 69 59 70
REMARK SMILES IDX 43 71 44 72 52 73 45 74 47 75 53 76 46 77 48 78 49 79 50 80
REMARK SMILES IDX 51 81 75 82 76 83 84 84 77 85 79 86 85 87 78 88 80 89 81 90
REMARK SMILES IDX 82 91 83 92 60 93 61 94 69 95 62 96 64 97 70 98 63 99 65 100
REMARK SMILES IDX 66 101 67 102 68 103
REMARK H PARENT 27 4 5 10 9 17 16 24 31 37 90 56 58 67
REMARK Flexibility Score: inf
ROOT
ATOM      1  O   UNL A   1      40.164  20.015  27.646  1.00  0.00    -0.275 OA
ATOM      2  C   UNL A   1      41.146  20.749  27.550  1.00  0.00     0.225 C 
ATOM      3  N   UNL A   1      42.434  20.278  27.628  1.00  0.00    -0.356 N 
ATOM      4  H   UNL A   1      43.175  20.923  27.567  1.00  0.00     0.163 HD
ENDROOT
BRANCH   2   5
ATOM      5  C   UNL A   1      40.968  22.224  27.213  1.00  0.00     0.161 C 
BRANCH   5   6
ATOM      6  C   UNL A   1      40.448  22.622  25.827  1.00  0.00     0.272 C 
BRANCH   6   7
ATOM      7  N   UNL A   1      38.998  22.762  25.659  1.00  0.00    -0.334 N 
ATOM      8  C   UNL A   1      38.265  21.522  25.390  1.00  0.00     0.268 C 
ATOM      9  C   UNL A   1      38.385  23.406  26.835  1.00  0.00     0.268 C 
ATOM     10  H   UNL A   1      38.915  23.343  24.825  1.00  0.00     0.348 HD
ATOM     11  C   UNL A   1      36.927  21.951  24.801  1.00  0.00     0.126 C 
ATOM     12  C   UNL A   1      36.980  23.891  26.482  1.00  0.00     0.126 C 
ATOM     13  C   UNL A   1      36.119  22.830  25.761  1.00  0.00     0.195 C 
BRANCH  13  14
ATOM     14  N   UNL A   1      34.915  23.433  25.148  1.00  0.00    -0.331 N 
ATOM     15  C   UNL A   1      34.128  24.325  26.011  1.00  0.00     0.262 C 
ATOM     16  C   UNL A   1      35.205  24.075  23.860  1.00  0.00     0.275 C 
ATOM     17  H   UNL A   1      34.310  22.626  24.991  1.00  0.00     0.348 HD
ATOM     18  C   UNL A   1      32.807  24.742  25.370  1.00  0.00     0.062 C 
ATOM     19  C   UNL A   1      33.951  24.489  23.097  1.00  0.00     0.133 C 
ATOM     20  C   UNL A   1      32.938  25.253  23.945  1.00  0.00     0.025 C 
BRANCH  19  21
ATOM     21  C   UNL A   1      33.350  23.430  22.176  1.00  0.00     0.229 C 
ATOM     22  O   UNL A   1      33.396  23.612  20.951  1.00  0.00    -0.275 OA
ATOM     23  N   UNL A   1      32.717  22.296  22.556  1.00  0.00    -0.352 N 
ATOM     24  H   UNL A   1      32.268  21.841  21.807  1.00  0.00     0.163 HD
BRANCH  23  25
ATOM     25  C   UNL A   1      32.552  21.603  23.815  1.00  0.00     0.153 C 
BRANCH  25  26
ATOM     26  C   UNL A   1      32.941  20.152  23.828  1.00  0.00    -0.010 A 
ATOM     27  C   UNL A   1      32.256  19.251  23.000  1.00  0.00     0.009 A 
ATOM     28  C   UNL A   1      33.977  19.634  24.597  1.00  0.00     0.116 A 
ATOM     29  C   UNL A   1      32.630  17.911  22.962  1.00  0.00     0.020 A 
ATOM     30  N   UNL A   1      34.358  18.334  24.585  1.00  0.00    -0.264 NA
ATOM     31  C   UNL A   1      33.682  17.506  23.763  1.00  0.00     0.111 A 
ENDBRANCH  25  26
ENDBRANCH  23  25
ENDBRANCH  19  21
ENDBRANCH  13  14
ENDBRANCH   6   7
ENDBRANCH   5   6
ENDBRANCH   2   5
BRANCH   3  32
ATOM     32  C   UNL A   1      42.752  18.871  27.793  1.00  0.00     0.117 C 
BRANCH  32  33
ATOM     33  C   UNL A   1      42.846  18.080  26.481  1.00  0.00     0.042 C 
BRANCH  33  34
ATOM     34  C   UNL A   1      43.040  18.881  25.191  1.00  0.00     0.118 C 
BRANCH  34  35
ATOM     35  N   UNL A   1      44.353  18.710  24.589  1.00  0.00    -0.352 N 
ATOM     36  C   UNL A   1      45.350  19.611  24.308  1.00  0.00     0.251 C 
ATOM     37  H   UNL A   1      44.565  17.782  24.337  1.00  0.00     0.163 HD
ATOM     38  O   UNL A   1      46.342  19.218  23.701  1.00  0.00    -0.269 OA
BRANCH  36  39
ATOM     39  C   UNL A   1      45.256  21.034  24.706  1.00  0.00     0.039 A 
ATOM     40  C   UNL A   1      45.511  21.353  26.045  1.00  0.00     0.014 A 
ATOM     41  C   UNL A   1      44.893  22.042  23.810  1.00  0.00     0.014 A 
ATOM     42  C   UNL A   1      45.505  22.686  26.461  1.00  0.00     0.010 A 
ATOM     43  C   UNL A   1      44.922  23.377  24.216  1.00  0.00     0.010 A 
ATOM     44  C   UNL A   1      45.266  23.711  25.534  1.00  0.00    -0.014 A 
BRANCH  44  45
ATOM     45  C   UNL A   1      45.520  25.130  25.890  1.00  0.00     0.031 A 
ATOM     46  C   UNL A   1      46.911  25.687  25.954  1.00  0.00     0.074 A 
ATOM     47  C   UNL A   1      44.470  25.885  26.273  1.00  0.00     0.049 A 
ATOM     48  N   UNL A   1      47.301  26.883  26.311  1.00  0.00    -0.248 NA
ATOM     49  C   UNL A   1      48.010  24.779  25.587  1.00  0.00     0.031 C 
ATOM     50  C   UNL A   1      43.080  25.425  26.326  1.00  0.00     0.029 A 
ATOM     51  N   UNL A   1      44.407  27.178  26.725  1.00  0.00    -0.354 N 
ATOM     52  C   UNL A   1      48.687  26.872  26.237  1.00  0.00     0.074 A 
ATOM     53  C   UNL A   1      49.073  25.539  25.819  1.00  0.00     0.031 C 
ATOM     54  C   UNL A   1      42.305  26.414  26.796  1.00  0.00     0.029 A 
ATOM     55  C   UNL A   1      43.144  27.564  27.108  1.00  0.00     0.049 A 
ATOM     56  H   UNL A   1      45.191  27.772  26.771  1.00  0.00     0.167 HD
ATOM     57  C   UNL A   1      49.556  27.885  26.479  1.00  0.00     0.034 A 
ATOM     58  C   UNL A   1      42.709  28.710  27.669  1.00  0.00     0.034 A 
ATOM     59  C   UNL A   1      49.159  29.209  26.888  1.00  0.00     0.049 A 
ATOM     60  C   UNL A   1      43.693  29.817  27.920  1.00  0.00     0.074 A 
ATOM     61  C   UNL A   1      49.955  30.326  27.074  1.00  0.00     0.029 A 
ATOM     62  N   UNL A   1      47.862  29.591  27.199  1.00  0.00    -0.354 N 
ATOM     63  N   UNL A   1      44.981  29.845  27.678  1.00  0.00    -0.248 NA
ATOM     64  C   UNL A   1      43.160  31.062  28.489  1.00  0.00     0.031 C 
ATOM     65  C   UNL A   1      49.146  31.370  27.535  1.00  0.00     0.029 A 
ATOM     66  C   UNL A   1      47.839  30.917  27.599  1.00  0.00     0.049 A 
ATOM     67  H   UNL A   1      47.073  29.005  27.143  1.00  0.00     0.167 HD
ATOM     68  C   UNL A   1      45.408  31.118  28.037  1.00  0.00     0.074 A 
ATOM     69  C   UNL A   1      44.235  31.840  28.486  1.00  0.00     0.031 C 
ATOM     70  C   UNL A   1      46.660  31.638  28.010  1.00  0.00     0.034 A 
BRANCH  57  71
ATOM     71  C   UNL A   1      51.025  27.616  26.276  1.00  0.00     0.023 A 
ATOM     72  C   UNL A   1      51.836  27.307  27.387  1.00  0.00     0.012 A 
ATOM     73  C   UNL A   1      51.589  27.595  24.985  1.00  0.00     0.148 A 
ATOM     74  C   UNL A   1      53.191  27.017  27.221  1.00  0.00     0.002 A 
ATOM     75  C   UNL A   1      52.928  27.261  24.823  1.00  0.00     0.091 A 
ATOM     76  F   UNL A   1      50.807  27.906  23.941  1.00  0.00    -0.205 F 
ATOM     77  C   UNL A   1      53.733  26.983  25.940  1.00  0.00     0.022 A 
BRANCH  75  78
ATOM     78  S   UNL A   1      53.704  27.109  23.209  1.00  0.00     0.127 S 
ATOM     79  O   UNL A   1      53.565  28.466  22.684  1.00  0.00    -0.237 OA
ATOM     80  O   UNL A   1      55.072  26.728  23.559  1.00  0.00    -0.237 OA
ATOM     81  O   UNL A   1      52.952  26.087  22.495  1.00  0.00    -0.744 OA
ENDBRANCH  75  78
ENDBRANCH  57  71
BRANCH  58  82
ATOM     82  C   UNL A   1      41.264  28.879  27.987  1.00  0.00     0.023 A 
ATOM     83  C   UNL A   1      40.357  29.175  26.952  1.00  0.00     0.012 A 
ATOM     84  C   UNL A   1      40.780  28.718  29.301  1.00  0.00     0.148 A 
ATOM     85  C   UNL A   1      38.999  29.343  27.224  1.00  0.00     0.002 A 
ATOM     86  C   UNL A   1      39.418  28.830  29.555  1.00  0.00     0.091 A 
ATOM     87  F   UNL A   1      41.661  28.443  30.273  1.00  0.00    -0.205 F 
ATOM     88  C   UNL A   1      38.529  29.161  28.521  1.00  0.00     0.022 A 
BRANCH  86  89
ATOM     89  S   UNL A   1      38.706  28.483  31.167  1.00  0.00     0.127 S 
ATOM     90  O   UNL A   1      38.952  27.050  31.300  1.00  0.00    -0.237 OA
ATOM     91  O   UNL A   1      39.515  29.332  32.041  1.00  0.00    -0.237 OA
ATOM     92  O   UNL A   1      37.306  28.878  31.072  1.00  0.00    -0.744 OA
ENDBRANCH  86  89
ENDBRANCH  58  82
BRANCH  70  93
ATOM     93  C   UNL A   1      46.828  33.067  28.458  1.00  0.00     0.023 A 
ATOM     94  C   UNL A   1      46.988  33.359  29.827  1.00  0.00     0.012 A 
ATOM     95  C   UNL A   1      46.886  34.115  27.516  1.00  0.00     0.148 A 
ATOM     96  C   UNL A   1      47.167  34.675  30.256  1.00  0.00     0.002 A 
ATOM     97  C   UNL A   1      47.118  35.416  27.946  1.00  0.00     0.091 A 
ATOM     98  F   UNL A   1      46.714  33.819  26.219  1.00  0.00    -0.205 F 
ATOM     99  C   UNL A   1      47.244  35.700  29.315  1.00  0.00     0.022 A 
BRANCH  97 100
ATOM    100  S   UNL A   1      47.327  36.788  26.806  1.00  0.00     0.127 S 
ATOM    101  O   UNL A   1      48.594  36.449  26.160  1.00  0.00    -0.237 OA
ATOM    102  O   UNL A   1      46.149  36.658  25.948  1.00  0.00    -0.237 OA
ATOM    103  O   UNL A   1      47.350  37.992  27.625  1.00  0.00    -0.744 OA
ENDBRANCH  97 100
ENDBRANCH  70  93
ENDBRANCH  44  45
ENDBRANCH  36  39
ENDBRANCH  34  35
ENDBRANCH  33  34
ENDBRANCH  32  33
ENDBRANCH   3  32
TORSDOF 19
ENDMDL
MODEL 2
REMARK VINA RESULT:     -10.4      5.283     10.856
REMARK SMILES O=C(CC[NH+]1CCC([N@H+]2CCC[C@H](C(=O)NCc3cccnc3)C2)CC1)NCCCNC(=O)c1ccc(-c2c3nc(c(-c4cccc(S(=O)(=O)[O-])c4F)c4ccc([nH]4)c(-c4cccc(S(=O)(=O)[O-])c4F)c4nc(c(-c5cccc(S(=O)(=O)[O-])c5F)c5ccc2[nH]5)C=C4)C=C3)cc1
REMARK SMILES IDX 1 1 2 2 27 3 3 5 4 6 5 7 6 8 26 9 7 11 25 12 8 13 9 14 10 15
REMARK SMILES IDX 24 16 11 18 13 19 12 20 14 21 15 22 16 23 17 25 18 26 19 27
REMARK SMILES IDX 23 28 20 29 22 30 21 31 28 32 29 33 30 34 31 35 32 36 33 38
REMARK SMILES IDX 34 39 35 40 96 41 36 42 95 43 37 44 38 45 39 46 89 47 40 48
REMARK SMILES IDX 94 49 88 50 90 51 41 52 93 53 87 54 86 55 42 57 74 58 54 59
REMARK SMILES IDX 73 60 55 61 58 62 72 63 91 64 56 65 57 66 71 68 92 69 59 70
REMARK SMILES IDX 43 71 44 72 52 73 45 74 47 75 53 76 46 77 48 78 49 79 50 80
REMARK SMILES IDX 51 81 75 82 76 83 84 84 77 85 79 86 85 87 78 88 80 89 81 90
REMARK SMILES IDX 82 91 83 92 60 93 61 94 69 95 62 96 64 97 70 98 63 99 65 100
REMARK SMILES IDX 66 101 67 102 68 103
REMARK H PARENT 27 4 5 10 9 17 16 24 31 37 90 56 58 67
REMARK Flexibility Score: inf
ROOT
ATOM      1  O   UNL A   1      33.099  35.012  29.921  1.00  0.00    -0.275 OA
ATOM      2  C   UNL A   1      34.143  34.387  29.744  1.00  0.00     0.225 C 
ATOM      3  N   UNL A   1      34.863  33.838  30.777  1.00  0.00    -0.356 N 
ATOM      4  H   UNL A   1      35.703  33.370  30.568  1.00  0.00     0.163 HD
ENDROOT
BRANCH   2   5
ATOM      5  C   UNL A   1      34.624  34.087  28.330  1.00  0.00     0.161 C 
BRANCH   5   6
ATOM      6  C   UNL A   1      35.611  32.938  28.098  1.00  0.00     0.272 C 
BRANCH   6   7
ATOM      7  N   UNL A   1      35.076  31.677  27.571  1.00  0.00    -0.334 N 
ATOM      8  C   UNL A   1      35.701  30.456  28.085  1.00  0.00     0.268 C 
ATOM      9  C   UNL A   1      33.624  31.576  27.802  1.00  0.00     0.268 C 
ATOM     10  H   UNL A   1      35.298  31.728  26.577  1.00  0.00     0.348 HD
ATOM     11  C   UNL A   1      35.342  29.357  27.094  1.00  0.00     0.126 C 
ATOM     12  C   UNL A   1      33.038  30.476  26.919  1.00  0.00     0.126 C 
ATOM     13  C   UNL A   1      33.829  29.151  26.971  1.00  0.00     0.195 C 
BRANCH  13  14
ATOM     14  N   UNL A   1      33.437  28.241  25.871  1.00  0.00    -0.331 N 
ATOM     15  C   UNL A   1      33.779  26.824  26.051  1.00  0.00     0.262 C 
ATOM     16  C   UNL A   1      32.026  28.395  25.495  1.00  0.00     0.275 C 
ATOM     17  H   UNL A   1      34.025  28.554  25.097  1.00  0.00     0.348 HD
ATOM     18  C   UNL A   1      33.521  25.997  24.793  1.00  0.00     0.062 C 
ATOM     19  C   UNL A   1      31.660  27.652  24.214  1.00  0.00     0.133 C 
ATOM     20  C   UNL A   1      32.147  26.207  24.180  1.00  0.00     0.025 C 
BRANCH  19  21
ATOM     21  C   UNL A   1      31.855  28.428  22.914  1.00  0.00     0.229 C 
ATOM     22  O   UNL A   1      32.996  28.511  22.437  1.00  0.00    -0.275 OA
ATOM     23  N   UNL A   1      30.902  29.089  22.217  1.00  0.00    -0.352 N 
ATOM     24  H   UNL A   1      31.274  29.651  21.500  1.00  0.00     0.163 HD
BRANCH  23  25
ATOM     25  C   UNL A   1      29.459  29.154  22.290  1.00  0.00     0.153 C 
BRANCH  25  26
ATOM     26  C   UNL A   1      28.834  30.457  21.879  1.00  0.00    -0.010 A 
ATOM     27  C   UNL A   1      28.938  31.567  22.731  1.00  0.00     0.009 A 
ATOM     28  C   UNL A   1      28.170  30.653  20.674  1.00  0.00     0.116 A 
ATOM     29  C   UNL A   1      28.406  32.795  22.351  1.00  0.00     0.020 A 
ATOM     30  N   UNL A   1      27.637  31.835  20.281  1.00  0.00    -0.264 NA
ATOM     31  C   UNL A   1      27.775  32.879  21.123  1.00  0.00     0.111 A 
ENDBRANCH  25  26
ENDBRANCH  23  25
ENDBRANCH  19  21
ENDBRANCH  13  14
ENDBRANCH   6   7
ENDBRANCH   5   6
ENDBRANCH   2   5
BRANCH   3  32
ATOM     32  C   UNL A   1      34.439  33.915  32.164  1.00  0.00     0.117 C 
BRANCH  32  33
ATOM     33  C   UNL A   1      35.570  34.193  33.162  1.00  0.00     0.042 C 
BRANCH  33  34
ATOM     34  C   UNL A   1      36.734  33.199  33.200  1.00  0.00     0.118 C 
BRANCH  34  35
ATOM     35  N   UNL A   1      36.338  31.826  32.926  1.00  0.00    -0.352 N 
ATOM     36  C   UNL A   1      36.980  30.808  32.265  1.00  0.00     0.251 C 
ATOM     37  H   UNL A   1      35.450  31.583  33.277  1.00  0.00     0.163 HD
ATOM     38  O   UNL A   1      36.377  29.753  32.087  1.00  0.00    -0.269 OA
BRANCH  36  39
ATOM     39  C   UNL A   1      38.363  30.952  31.757  1.00  0.00     0.039 A 
ATOM     40  C   UNL A   1      38.544  31.003  30.370  1.00  0.00     0.014 A 
ATOM     41  C   UNL A   1      39.473  30.999  32.604  1.00  0.00     0.014 A 
ATOM     42  C   UNL A   1      39.819  31.208  29.837  1.00  0.00     0.010 A 
ATOM     43  C   UNL A   1      40.742  31.240  32.074  1.00  0.00     0.010 A 
ATOM     44  C   UNL A   1      40.918  31.384  30.690  1.00  0.00    -0.014 A 
BRANCH  44  45
ATOM     45  C   UNL A   1      42.218  31.868  30.162  1.00  0.00     0.031 A 
ATOM     46  C   UNL A   1      42.444  33.314  29.834  1.00  0.00     0.074 A 
ATOM     47  C   UNL A   1      43.163  30.951  29.870  1.00  0.00     0.049 A 
ATOM     48  N   UNL A   1      43.497  33.881  29.306  1.00  0.00    -0.248 NA
ATOM     49  C   UNL A   1      41.338  34.242  30.118  1.00  0.00     0.031 C 
ATOM     50  C   UNL A   1      43.024  29.507  30.073  1.00  0.00     0.029 A 
ATOM     51  N   UNL A   1      44.407  31.087  29.306  1.00  0.00    -0.354 N 
ATOM     52  C   UNL A   1      43.181  35.226  29.170  1.00  0.00     0.074 A 
ATOM     53  C   UNL A   1      41.824  35.387  29.655  1.00  0.00     0.031 C 
ATOM     54  C   UNL A   1      44.130  28.890  29.629  1.00  0.00     0.029 A 
ATOM     55  C   UNL A   1      45.041  29.887  29.082  1.00  0.00     0.049 A 
ATOM     56  H   UNL A   1      44.805  31.959  29.084  1.00  0.00     0.167 HD
ATOM     57  C   UNL A   1      43.956  36.234  28.700  1.00  0.00     0.034 A 
ATOM     58  C   UNL A   1      46.217  29.615  28.483  1.00  0.00     0.034 A 
ATOM     59  C   UNL A   1      45.307  36.062  28.227  1.00  0.00     0.049 A 
ATOM     60  C   UNL A   1      47.057  30.754  27.978  1.00  0.00     0.074 A 
ATOM     61  C   UNL A   1      46.202  37.033  27.815  1.00  0.00     0.029 A 
ATOM     62  N   UNL A   1      45.949  34.842  28.080  1.00  0.00    -0.354 N 
ATOM     63  N   UNL A   1      46.811  32.041  28.018  1.00  0.00    -0.248 NA
ATOM     64  C   UNL A   1      48.352  30.407  27.376  1.00  0.00     0.031 C 
ATOM     65  C   UNL A   1      47.370  36.396  27.380  1.00  0.00     0.029 A 
ATOM     66  C   UNL A   1      47.219  35.032  27.559  1.00  0.00     0.049 A 
ATOM     67  H   UNL A   1      45.559  33.968  28.312  1.00  0.00     0.167 HD
ATOM     68  C   UNL A   1      47.930  32.659  27.475  1.00  0.00     0.074 A 
ATOM     69  C   UNL A   1      48.867  31.606  27.140  1.00  0.00     0.031 C 
ATOM     70  C   UNL A   1      48.158  33.979  27.262  1.00  0.00     0.034 A 
BRANCH  57  71
ATOM     71  C   UNL A   1      43.378  37.627  28.705  1.00  0.00     0.023 A 
ATOM     72  C   UNL A   1      42.543  38.037  27.646  1.00  0.00     0.012 A 
ATOM     73  C   UNL A   1      43.598  38.502  29.787  1.00  0.00     0.148 A 
ATOM     74  C   UNL A   1      41.965  39.307  27.646  1.00  0.00     0.002 A 
ATOM     75  C   UNL A   1      42.983  39.748  29.802  1.00  0.00     0.091 A 
ATOM     76  F   UNL A   1      44.407  38.102  30.778  1.00  0.00    -0.205 F 
ATOM     77  C   UNL A   1      42.176  40.157  28.727  1.00  0.00     0.022 A 
BRANCH  75  78
ATOM     78  S   UNL A   1      43.124  40.886  31.186  1.00  0.00     0.127 S 
ATOM     79  O   UNL A   1      44.527  41.287  31.098  1.00  0.00    -0.237 OA
ATOM     80  O   UNL A   1      42.167  41.932  30.824  1.00  0.00    -0.237 OA
ATOM     81  O   UNL A   1      42.769  40.122  32.374  1.00  0.00    -0.744 OA
ENDBRANCH  75  78
ENDBRANCH  57  71
BRANCH  58  82
ATOM     82  C   UNL A   1      46.685  28.206  28.371  1.00  0.00     0.023 A 
ATOM     83  C   UNL A   1      47.454  27.648  29.410  1.00  0.00     0.012 A 
ATOM     84  C   UNL A   1      46.347  27.408  27.260  1.00  0.00     0.148 A 
ATOM     85  C   UNL A   1      47.909  26.331  29.329  1.00  0.00     0.002 A 
ATOM     86  C   UNL A   1      46.756  26.080  27.212  1.00  0.00     0.091 A 
ATOM     87  F   UNL A   1      45.620  27.961  26.279  1.00  0.00    -0.205 F 
ATOM     88  C   UNL A   1      47.552  25.546  28.236  1.00  0.00     0.022 A 
BRANCH  86  89
ATOM     89  S   UNL A   1      46.234  24.958  25.911  1.00  0.00     0.127 S 
ATOM     90  O   UNL A   1      46.889  23.715  26.308  1.00  0.00    -0.237 OA
ATOM     91  O   UNL A   1      44.780  24.968  26.071  1.00  0.00    -0.237 OA
ATOM     92  O   UNL A   1      46.706  25.551  24.666  1.00  0.00    -0.744 OA
ENDBRANCH  86  89
ENDBRANCH  58  82
BRANCH  70  93
ATOM     93  C   UNL A   1      49.481  34.366  26.654  1.00  0.00     0.023 A 
ATOM     94  C   UNL A   1      49.571  34.626  25.272  1.00  0.00     0.012 A 
ATOM     95  C   UNL A   1      50.624  34.531  27.463  1.00  0.00     0.148 A 
ATOM     96  C   UNL A   1      50.784  35.007  24.699  1.00  0.00     0.002 A 
ATOM     97  C   UNL A   1      51.816  34.963  26.894  1.00  0.00     0.091 A 
ATOM     98  F   UNL A   1      50.524  34.263  28.774  1.00  0.00    -0.205 F 
ATOM     99  C   UNL A   1      51.902  35.187  25.510  1.00  0.00     0.022 A 
BRANCH  97 100
ATOM    100  S   UNL A   1      53.283  35.313  27.869  1.00  0.00     0.127 S 
ATOM    101  O   UNL A   1      52.985  36.647  28.387  1.00  0.00    -0.237 OA
ATOM    102  O   UNL A   1      53.250  34.247  28.870  1.00  0.00    -0.237 OA
ATOM    103  O   UNL A   1      54.407  35.241  26.946  1.00  0.00    -0.744 OA
ENDBRANCH  97 100
ENDBRANCH  70  93
ENDBRANCH  44  45
ENDBRANCH  36  39
ENDBRANCH  34  35
ENDBRANCH  33  34
ENDBRANCH  32  33
ENDBRANCH   3  32
TORSDOF 19
ENDMDL
MODEL 3
REMARK VINA RESULT:     -10.3      5.665     10.113
REMARK SMILES O=C(CC[NH+]1CCC([N@H+]2CCC[C@H](C(=O)NCc3cccnc3)C2)CC1)NCCCNC(=O)c1ccc(-c2c3nc(c(-c4cccc(S(=O)(=O)[O-])c4F)c4ccc([nH]4)c(-c4cccc(S(=O)(=O)[O-])c4F)c4nc(c(-c5cccc(S(=O)(=O)[O-])c5F)c5ccc2[nH]5)C=C4)C=C3)cc1
REMARK SMILES IDX 1 1 2 2 27 3 3 5 4 6 5 7 6 8 26 9 7 11 25 12 8 13 9 14 10 15
REMARK SMILES IDX 24 16 11 18 13 19 12 20 14 21 15 22 16 23 17 25 18 26 19 27
REMARK SMILES IDX 23 28 20 29 22 30 21 31 28 32 29 33 30 34 31 35 32 36 33 38
REMARK SMILES IDX 34 39 35 40 96 41 36 42 95 43 37 44 38 45 39 46 89 47 40 48
REMARK SMILES IDX 94 49 88 50 90 51 41 52 93 53 87 54 86 55 42 57 74 58 54 59
REMARK SMILES IDX 73 60 55 61 58 62 72 63 91 64 56 65 57 66 71 68 92 69 59 70
REMARK SMILES IDX 43 71 44 72 52 73 45 74 47 75 53 76 46 77 48 78 49 79 50 80
REMARK SMILES IDX 51 81 75 82 76 83 84 84 77 85 79 86 85 87 78 88 80 89 81 90
REMARK SMILES IDX 82 91 83 92 60 93 61 94 69 95 62 96 64 97 70 98 63 99 65 100
REMARK SMILES IDX 66 101 67 102 68 103
REMARK H PARENT 27 4 5 10 9 17 16 24 31 37 90 56 58 67
REMARK Flexibility Score: inf
ROOT
ATOM      1  O   UNL A   1      42.742  21.971  27.383  1.00  0.00    -0.275 OA
ATOM      2  C   UNL A   1      42.694  23.192  27.523  1.00  0.00     0.225 C 
ATOM      3  N   UNL A   1      43.776  23.936  27.926  1.00  0.00    -0.356 N 
ATOM      4  H   UNL A   1      43.663  24.906  28.042  1.00  0.00     0.163 HD
ENDROOT
BRANCH   2   5
ATOM      5  C   UNL A   1      41.437  23.958  27.129  1.00  0.00     0.161 C 
BRANCH   5   6
ATOM      6  C   UNL A   1      41.546  25.439  26.749  1.00  0.00     0.272 C 
BRANCH   6   7
ATOM      7  N   UNL A   1      40.892  26.416  27.627  1.00  0.00    -0.334 N 
ATOM      8  C   UNL A   1      39.534  26.074  28.060  1.00  0.00     0.268 C 
ATOM      9  C   UNL A   1      41.700  26.676  28.831  1.00  0.00     0.268 C 
ATOM     10  H   UNL A   1      40.815  27.244  27.037  1.00  0.00     0.348 HD
ATOM     11  C   UNL A   1      38.909  27.380  28.533  1.00  0.00     0.126 C 
ATOM     12  C   UNL A   1      41.211  27.953  29.514  1.00  0.00     0.126 C 
ATOM     13  C   UNL A   1      39.679  28.010  29.697  1.00  0.00     0.195 C 
BRANCH  13  14
ATOM     14  N   UNL A   1      39.225  29.375  30.045  1.00  0.00    -0.331 N 
ATOM     15  C   UNL A   1      40.222  30.444  29.902  1.00  0.00     0.262 C 
ATOM     16  C   UNL A   1      37.973  29.736  29.368  1.00  0.00     0.275 C 
ATOM     17  H   UNL A   1      39.055  29.311  31.049  1.00  0.00     0.348 HD
ATOM     18  C   UNL A   1      39.736  31.777  30.466  1.00  0.00     0.062 C 
ATOM     19  C   UNL A   1      37.358  31.031  29.888  1.00  0.00     0.133 C 
ATOM     20  C   UNL A   1      38.351  32.186  29.993  1.00  0.00     0.025 C 
BRANCH  19  21
ATOM     21  C   UNL A   1      36.410  30.890  31.077  1.00  0.00     0.229 C 
ATOM     22  O   UNL A   1      36.234  29.765  31.566  1.00  0.00    -0.275 OA
ATOM     23  N   UNL A   1      35.686  31.877  31.653  1.00  0.00    -0.352 N 
ATOM     24  H   UNL A   1      35.023  31.537  32.297  1.00  0.00     0.163 HD
BRANCH  23  25
ATOM     25  C   UNL A   1      35.669  33.319  31.537  1.00  0.00     0.153 C 
BRANCH  25  26
ATOM     26  C   UNL A   1      34.721  33.889  30.520  1.00  0.00    -0.010 A 
ATOM     27  C   UNL A   1      34.886  33.557  29.167  1.00  0.00     0.009 A 
ATOM     28  C   UNL A   1      33.649  34.716  30.837  1.00  0.00     0.116 A 
ATOM     29  C   UNL A   1      33.992  34.038  28.214  1.00  0.00     0.020 A 
ATOM     30  N   UNL A   1      32.769  35.203  29.930  1.00  0.00    -0.264 NA
ATOM     31  C   UNL A   1      32.956  34.846  28.643  1.00  0.00     0.111 A 
ENDBRANCH  25  26
ENDBRANCH  23  25
ENDBRANCH  19  21
ENDBRANCH  13  14
ENDBRANCH   6   7
ENDBRANCH   5   6
ENDBRANCH   2   5
BRANCH   3  32
ATOM     32  C   UNL A   1      45.081  23.354  28.187  1.00  0.00     0.117 C 
BRANCH  32  33
ATOM     33  C   UNL A   1      46.156  23.707  27.150  1.00  0.00     0.042 C 
BRANCH  33  34
ATOM     34  C   UNL A   1      45.731  23.732  25.680  1.00  0.00     0.118 C 
BRANCH  34  35
ATOM     35  N   UNL A   1      46.599  24.537  24.835  1.00  0.00    -0.352 N 
ATOM     36  C   UNL A   1      46.934  25.868  24.880  1.00  0.00     0.251 C 
ATOM     37  H   UNL A   1      47.022  24.039  24.098  1.00  0.00     0.163 HD
ATOM     38  O   UNL A   1      47.626  26.330  23.976  1.00  0.00    -0.269 OA
BRANCH  36  39
ATOM     39  C   UNL A   1      46.478  26.756  25.974  1.00  0.00     0.039 A 
ATOM     40  C   UNL A   1      45.116  27.075  26.027  1.00  0.00     0.014 A 
ATOM     41  C   UNL A   1      47.356  27.302  26.913  1.00  0.00     0.014 A 
ATOM     42  C   UNL A   1      44.619  27.850  27.077  1.00  0.00     0.010 A 
ATOM     43  C   UNL A   1      46.855  28.046  27.982  1.00  0.00     0.010 A 
ATOM     44  C   UNL A   1      45.478  28.293  28.092  1.00  0.00    -0.014 A 
BRANCH  44  45
ATOM     45  C   UNL A   1      44.936  28.879  29.344  1.00  0.00     0.031 A 
ATOM     46  C   UNL A   1      44.685  28.039  30.560  1.00  0.00     0.074 A 
ATOM     47  C   UNL A   1      44.558  30.174  29.325  1.00  0.00     0.049 A 
ATOM     48  N   UNL A   1      44.155  28.388  31.704  1.00  0.00    -0.248 NA
ATOM     49  C   UNL A   1      45.060  26.619  30.478  1.00  0.00     0.031 C 
ATOM     50  C   UNL A   1      44.682  31.068  28.171  1.00  0.00     0.029 A 
ATOM     51  N   UNL A   1      43.962  30.953  30.284  1.00  0.00    -0.354 N 
ATOM     52  C   UNL A   1      44.109  27.233  32.473  1.00  0.00     0.074 A 
ATOM     53  C   UNL A   1      44.647  26.165  31.656  1.00  0.00     0.031 C 
ATOM     54  C   UNL A   1      44.166  32.266  28.483  1.00  0.00     0.029 A 
ATOM     55  C   UNL A   1      43.647  32.218  29.845  1.00  0.00     0.049 A 
ATOM     56  H   UNL A   1      43.777  30.636  31.197  1.00  0.00     0.167 HD
ATOM     57  C   UNL A   1      43.672  27.083  33.748  1.00  0.00     0.034 A 
ATOM     58  C   UNL A   1      42.994  33.223  30.460  1.00  0.00     0.034 A 
ATOM     59  C   UNL A   1      43.144  28.155  34.554  1.00  0.00     0.049 A 
ATOM     60  C   UNL A   1      42.527  33.029  31.875  1.00  0.00     0.074 A 
ATOM     61  C   UNL A   1      42.758  28.122  35.882  1.00  0.00     0.029 A 
ATOM     62  N   UNL A   1      42.905  29.445  34.103  1.00  0.00    -0.354 N 
ATOM     63  N   UNL A   1      42.651  31.976  32.647  1.00  0.00    -0.248 NA
ATOM     64  C   UNL A   1      41.863  34.171  32.518  1.00  0.00     0.031 C 
ATOM     65  C   UNL A   1      42.248  29.379  36.223  1.00  0.00     0.029 A 
ATOM     66  C   UNL A   1      42.353  30.209  35.119  1.00  0.00     0.049 A 
ATOM     67  H   UNL A   1      43.098  29.770  33.194  1.00  0.00     0.167 HD
ATOM     68  C   UNL A   1      42.107  32.337  33.873  1.00  0.00     0.074 A 
ATOM     69  C   UNL A   1      41.679  33.716  33.750  1.00  0.00     0.031 C 
ATOM     70  C   UNL A   1      41.963  31.591  34.997  1.00  0.00     0.034 A 
BRANCH  57  71
ATOM     71  C   UNL A   1      43.777  25.714  34.371  1.00  0.00     0.023 A 
ATOM     72  C   UNL A   1      42.642  24.879  34.412  1.00  0.00     0.012 A 
ATOM     73  C   UNL A   1      45.009  25.223  34.846  1.00  0.00     0.148 A 
ATOM     74  C   UNL A   1      42.722  23.594  34.949  1.00  0.00     0.002 A 
ATOM     75  C   UNL A   1      45.092  23.926  35.337  1.00  0.00     0.091 A 
ATOM     76  F   UNL A   1      46.076  26.035  34.813  1.00  0.00    -0.205 F 
ATOM     77  C   UNL A   1      43.948  23.114  35.400  1.00  0.00     0.022 A 
BRANCH  75  78
ATOM     78  S   UNL A   1      46.641  23.183  35.867  1.00  0.00     0.127 S 
ATOM     79  O   UNL A   1      47.003  24.033  37.001  1.00  0.00    -0.237 OA
ATOM     80  O   UNL A   1      46.225  21.829  36.229  1.00  0.00    -0.237 OA
ATOM     81  O   UNL A   1      47.537  23.259  34.722  1.00  0.00    -0.744 OA
ENDBRANCH  75  78
ENDBRANCH  57  71
BRANCH  58  82
ATOM     82  C   UNL A   1      42.784  34.516  29.753  1.00  0.00     0.023 A 
ATOM     83  C   UNL A   1      41.654  34.680  28.929  1.00  0.00     0.012 A 
ATOM     84  C   UNL A   1      43.679  35.592  29.916  1.00  0.00     0.148 A 
ATOM     85  C   UNL A   1      41.437  35.881  28.252  1.00  0.00     0.002 A 
ATOM     86  C   UNL A   1      43.426  36.804  29.283  1.00  0.00     0.091 A 
ATOM     87  F   UNL A   1      44.752  35.413  30.698  1.00  0.00    -0.205 F 
ATOM     88  C   UNL A   1      42.316  36.944  28.436  1.00  0.00     0.022 A 
BRANCH  86  89
ATOM     89  S   UNL A   1      44.429  38.267  29.565  1.00  0.00     0.127 S 
ATOM     90  O   UNL A   1      43.779  39.246  28.700  1.00  0.00    -0.237 OA
ATOM     91  O   UNL A   1      44.240  38.488  30.999  1.00  0.00    -0.237 OA
ATOM     92  O   UNL A   1      45.787  37.893  29.188  1.00  0.00    -0.744 OA
ENDBRANCH  86  89
ENDBRANCH  58  82
BRANCH  70  93
ATOM     93  C   UNL A   1      41.335  32.255  36.195  1.00  0.00     0.023 A 
ATOM     94  C   UNL A   1      42.087  33.157  36.974  1.00  0.00     0.012 A 
ATOM     95  C   UNL A   1      39.980  32.030  36.515  1.00  0.00     0.148 A 
ATOM     96  C   UNL A   1      41.513  33.796  38.073  1.00  0.00     0.002 A 
ATOM     97  C   UNL A   1      39.400  32.710  37.578  1.00  0.00     0.091 A 
ATOM     98  F   UNL A   1      39.285  31.155  35.772  1.00  0.00    -0.205 F 
ATOM     99  C   UNL A   1      40.168  33.582  38.367  1.00  0.00     0.022 A 
BRANCH  97 100
ATOM    100  S   UNL A   1      37.655  32.573  37.978  1.00  0.00     0.127 S 
ATOM    101  O   UNL A   1      37.036  33.274  36.854  1.00  0.00    -0.237 OA
ATOM    102  O   UNL A   1      37.451  31.125  37.981  1.00  0.00    -0.237 OA
ATOM    103  O   UNL A   1      37.487  33.211  39.277  1.00  0.00    -0.744 OA
ENDBRANCH  97 100
ENDBRANCH  70  93
ENDBRANCH  44  45
ENDBRANCH  36  39
ENDBRANCH  34  35
ENDBRANCH  33  34
ENDBRANCH  32  33
ENDBRANCH   3  32
TORSDOF 19
ENDMDL
