MODEL 1
REMARK VINA RESULT:     -12.9      0.000      0.000
REMARK SMILES O=C(NCCCNC(=O)[C@@H]1CC=CC[C@@H]1C(=O)N1CCN(C(=O)c2sc3cc([N+](=O)[O-])ccc3c2Cl)CC1)c1ccc(-c2c3nc(c(-c4cccc(S(=O)(=O)[O-])c4F)c4ccc([nH]4)c(-c4cccc(S(=O)(=O)[O-])c4F)c4nc(c(-c5cccc(S(=O)(=O)[O-])c5F)c5ccc2[nH]5)C=C4)C=C3)cc1
REMARK SMILES IDX 5 1 4 2 3 3 1 4 2 5 39 7 40 8 101 9 41 10 100 11 42 12 43 13
REMARK SMILES IDX 44 14 94 15 45 16 99 17 93 18 95 19 46 20 98 21 92 22 91 23
REMARK SMILES IDX 47 25 79 26 59 27 78 28 60 29 63 30 77 31 96 32 61 33 62 34
REMARK SMILES IDX 76 36 97 37 64 38 48 39 49 40 57 41 50 42 52 43 58 44 51 45
REMARK SMILES IDX 53 46 54 47 55 48 56 49 80 50 81 51 89 52 82 53 84 54 90 55
REMARK SMILES IDX 83 56 85 57 86 58 87 59 88 60 65 61 66 62 74 63 67 64 69 65
REMARK SMILES IDX 75 66 68 67 70 68 71 69 72 70 73 71 6 72 7 73 8 74 9 76
REMARK SMILES IDX 10 77 11 78 15 79 12 80 14 81 13 82 16 83 17 84 18 85 19 86
REMARK SMILES IDX 38 87 20 88 37 89 21 90 22 91 23 92 24 93 25 94 35 95 26 96
REMARK SMILES IDX 34 97 36 98 27 99 33 100 28 101 32 102 29 103 30 104 31 105
REMARK H PARENT 3 6 95 24 63 35 7 75
REMARK Flexibility Score: inf
ROOT
ATOM      1  C   UNL A   1      37.379  21.377  25.721  1.00  0.00     0.042 C 
ENDROOT
BRANCH   1   2
ATOM      2  C   UNL A   1      38.914  21.411  25.580  1.00  0.00     0.118 C 
BRANCH   2   3
ATOM      3  N   UNL A   1      39.595  20.113  25.731  1.00  0.00    -0.352 N 
ATOM      4  O   UNL A   1      41.439  18.785  25.594  1.00  0.00    -0.269 OA
ATOM      5  C   UNL A   1      40.963  19.860  25.890  1.00  0.00     0.251 C 
ATOM      6  H   UNL A   1      39.011  19.321  25.719  1.00  0.00     0.163 HD
BRANCH   5   7
ATOM      7  C   UNL A   1      41.799  20.939  26.465  1.00  0.00     0.039 A 
ATOM      8  C   UNL A   1      42.271  22.020  25.727  1.00  0.00     0.014 A 
ATOM      9  C   UNL A   1      41.940  20.913  27.840  1.00  0.00     0.014 A 
ATOM     10  C   UNL A   1      42.698  23.157  26.420  1.00  0.00     0.010 A 
ATOM     11  C   UNL A   1      42.149  22.088  28.512  1.00  0.00     0.010 A 
ATOM     12  C   UNL A   1      42.550  23.220  27.820  1.00  0.00    -0.014 A 
BRANCH  12  13
ATOM     13  C   UNL A   1      42.629  24.502  28.526  1.00  0.00     0.031 A 
ATOM     14  C   UNL A   1      41.476  25.418  28.287  1.00  0.00     0.074 A 
ATOM     15  C   UNL A   1      43.479  24.802  29.533  1.00  0.00     0.049 A 
ATOM     16  N   UNL A   1      41.437  26.468  27.533  1.00  0.00    -0.248 NA
ATOM     17  C   UNL A   1      40.176  25.042  28.862  1.00  0.00     0.031 C 
ATOM     18  C   UNL A   1      44.415  23.926  30.243  1.00  0.00     0.029 A 
ATOM     19  N   UNL A   1      43.597  25.974  30.218  1.00  0.00    -0.354 N 
ATOM     20  C   UNL A   1      40.172  27.014  27.728  1.00  0.00     0.074 A 
ATOM     21  C   UNL A   1      39.383  26.001  28.384  1.00  0.00     0.031 C 
ATOM     22  C   UNL A   1      44.839  24.522  31.375  1.00  0.00     0.029 A 
ATOM     23  C   UNL A   1      44.354  25.883  31.378  1.00  0.00     0.049 A 
ATOM     24  H   UNL A   1      43.180  26.813  29.916  1.00  0.00     0.167 HD
ATOM     25  C   UNL A   1      39.926  28.346  27.582  1.00  0.00     0.034 A 
ATOM     26  C   UNL A   1      44.568  26.856  32.290  1.00  0.00     0.034 A 
ATOM     27  C   UNL A   1      41.032  29.042  26.987  1.00  0.00     0.049 A 
ATOM     28  C   UNL A   1      44.311  28.140  31.596  1.00  0.00     0.074 A 
ATOM     29  C   UNL A   1      41.711  28.980  25.789  1.00  0.00     0.029 A 
ATOM     30  N   UNL A   1      41.851  29.706  27.868  1.00  0.00    -0.354 N 
ATOM     31  N   UNL A   1      45.011  28.576  30.585  1.00  0.00    -0.248 NA
ATOM     32  C   UNL A   1      43.037  28.806  31.806  1.00  0.00     0.031 C 
ATOM     33  C   UNL A   1      43.075  29.236  26.123  1.00  0.00     0.029 A 
ATOM     34  C   UNL A   1      43.150  29.476  27.498  1.00  0.00     0.049 A 
ATOM     35  H   UNL A   1      41.556  30.253  28.631  1.00  0.00     0.167 HD
ATOM     36  C   UNL A   1      44.103  29.269  29.798  1.00  0.00     0.074 A 
ATOM     37  C   UNL A   1      42.960  29.507  30.672  1.00  0.00     0.031 C 
ATOM     38  C   UNL A   1      44.243  29.333  28.441  1.00  0.00     0.034 A 
BRANCH  25  39
ATOM     39  C   UNL A   1      38.848  29.090  28.323  1.00  0.00     0.023 A 
ATOM     40  C   UNL A   1      37.981  29.930  27.596  1.00  0.00     0.012 A 
ATOM     41  C   UNL A   1      38.802  29.180  29.732  1.00  0.00     0.148 A 
ATOM     42  C   UNL A   1      37.095  30.801  28.245  1.00  0.00     0.002 A 
ATOM     43  C   UNL A   1      37.855  29.969  30.369  1.00  0.00     0.091 A 
ATOM     44  F   UNL A   1      39.765  28.606  30.465  1.00  0.00    -0.205 F 
ATOM     45  C   UNL A   1      37.012  30.801  29.633  1.00  0.00     0.022 A 
BRANCH  43  46
ATOM     46  S   UNL A   1      37.670  29.903  32.153  1.00  0.00     0.127 S 
ATOM     47  O   UNL A   1      37.377  28.491  32.369  1.00  0.00    -0.237 OA
ATOM     48  O   UNL A   1      38.986  30.345  32.618  1.00  0.00    -0.237 OA
ATOM     49  O   UNL A   1      36.594  30.845  32.444  1.00  0.00    -0.744 OA
ENDBRANCH  43  46
ENDBRANCH  25  39
BRANCH  26  50
ATOM     50  C   UNL A   1      44.851  26.748  33.740  1.00  0.00     0.023 A 
ATOM     51  C   UNL A   1      46.105  27.156  34.232  1.00  0.00     0.012 A 
ATOM     52  C   UNL A   1      43.830  26.477  34.681  1.00  0.00     0.148 A 
ATOM     53  C   UNL A   1      46.321  27.334  35.604  1.00  0.00     0.002 A 
ATOM     54  C   UNL A   1      44.058  26.631  36.047  1.00  0.00     0.091 A 
ATOM     55  F   UNL A   1      42.603  26.158  34.245  1.00  0.00    -0.205 F 
ATOM     56  C   UNL A   1      45.297  27.078  36.512  1.00  0.00     0.022 A 
BRANCH  54  57
ATOM     57  S   UNL A   1      42.765  26.279  37.247  1.00  0.00     0.127 S 
ATOM     58  O   UNL A   1      42.409  24.893  36.938  1.00  0.00    -0.237 OA
ATOM     59  O   UNL A   1      43.463  26.463  38.516  1.00  0.00    -0.237 OA
ATOM     60  O   UNL A   1      41.708  27.240  36.949  1.00  0.00    -0.744 OA
ENDBRANCH  54  57
ENDBRANCH  26  50
BRANCH  38  61
ATOM     61  C   UNL A   1      45.579  28.960  27.847  1.00  0.00     0.023 A 
ATOM     62  C   UNL A   1      46.680  29.840  27.869  1.00  0.00     0.012 A 
ATOM     63  C   UNL A   1      45.776  27.627  27.442  1.00  0.00     0.148 A 
ATOM     64  C   UNL A   1      47.950  29.400  27.488  1.00  0.00     0.002 A 
ATOM     65  C   UNL A   1      47.049  27.184  27.103  1.00  0.00     0.091 A 
ATOM     66  F   UNL A   1      44.717  26.805  27.444  1.00  0.00    -0.205 F 
ATOM     67  C   UNL A   1      48.138  28.069  27.119  1.00  0.00     0.022 A 
BRANCH  65  68
ATOM     68  S   UNL A   1      47.389  25.459  26.740  1.00  0.00     0.127 S 
ATOM     69  O   UNL A   1      48.782  25.505  26.300  1.00  0.00    -0.237 OA
ATOM     70  O   UNL A   1      47.179  24.821  28.040  1.00  0.00    -0.237 OA
ATOM     71  O   UNL A   1      46.428  25.062  25.718  1.00  0.00    -0.744 OA
ENDBRANCH  65  68
ENDBRANCH  38  61
ENDBRANCH  12  13
ENDBRANCH   5   7
ENDBRANCH   2   3
ENDBRANCH   1   2
BRANCH   1  72
ATOM     72  C   UNL A   1      36.741  22.760  25.699  1.00  0.00     0.117 C 
BRANCH  72  73
ATOM     73  N   UNL A   1      35.538  22.926  26.503  1.00  0.00    -0.356 N 
ATOM     74  C   UNL A   1      34.665  21.940  26.879  1.00  0.00     0.224 C 
ATOM     75  H   UNL A   1      35.331  23.840  26.807  1.00  0.00     0.163 HD
ATOM     76  O   UNL A   1      34.487  21.750  28.082  1.00  0.00    -0.275 OA
BRANCH  74  77
ATOM     77  C   UNL A   1      33.791  21.253  25.840  1.00  0.00     0.095 C 
ATOM     78  C   UNL A   1      34.544  20.259  24.925  1.00  0.00     0.041 C 
ATOM     79  C   UNL A   1      32.805  22.082  25.025  1.00  0.00     0.095 C 
ATOM     80  C   UNL A   1      33.601  19.504  24.023  1.00  0.00    -0.030 C 
ATOM     81  C   UNL A   1      31.725  21.081  24.509  1.00  0.00     0.041 C 
ATOM     82  C   UNL A   1      32.317  19.857  23.860  1.00  0.00    -0.030 C 
BRANCH  79  83
ATOM     83  C   UNL A   1      33.306  22.969  23.847  1.00  0.00     0.226 C 
ATOM     84  O   UNL A   1      33.642  22.425  22.787  1.00  0.00    -0.275 OA
ATOM     85  N   UNL A   1      33.101  24.347  23.850  1.00  0.00    -0.339 N 
ATOM     86  C   UNL A   1      32.811  24.981  22.561  1.00  0.00     0.141 C 
ATOM     87  C   UNL A   1      33.677  25.308  24.796  1.00  0.00     0.141 C 
ATOM     88  C   UNL A   1      31.869  26.179  22.721  1.00  0.00     0.141 C 
ATOM     89  C   UNL A   1      32.773  26.535  25.023  1.00  0.00     0.141 C 
ATOM     90  N   UNL A   1      32.258  27.130  23.775  1.00  0.00    -0.334 N 
ATOM     91  C   UNL A   1      31.710  28.430  23.665  1.00  0.00     0.265 C 
ATOM     92  O   UNL A   1      31.002  28.708  22.696  1.00  0.00    -0.268 OA
BRANCH  91  93
ATOM     93  C   UNL A   1      31.960  29.405  24.714  1.00  0.00     0.112 A 
ATOM     94  S   UNL A   1      33.253  29.125  25.803  1.00  0.00    -0.128 S 
ATOM     95  C   UNL A   1      31.234  30.507  25.110  1.00  0.00     0.072 A 
ATOM     96  C   UNL A   1      33.047  30.643  26.589  1.00  0.00     0.043 A 
ATOM     97  C   UNL A   1      31.920  31.306  26.094  1.00  0.00     0.012 A 
ATOM     98  Cl  UNL A   1      29.681  30.941  24.507  1.00  0.00    -0.082 Cl
ATOM     99  C   UNL A   1      33.857  31.196  27.607  1.00  0.00     0.105 A 
ATOM    100  C   UNL A   1      31.620  32.588  26.621  1.00  0.00     0.018 A 
ATOM    101  C   UNL A   1      33.528  32.469  28.095  1.00  0.00     0.270 A 
ATOM    102  C   UNL A   1      32.430  33.169  27.600  1.00  0.00     0.086 A 
BRANCH 101 103
ATOM    103  N   UNL A   1      34.329  33.069  29.170  1.00  0.00     0.062 N 
ATOM    104  O   UNL A   1      35.189  33.896  28.851  1.00  0.00    -0.258 OA
ATOM    105  O   UNL A   1      34.125  32.667  30.326  1.00  0.00    -0.258 OA
ENDBRANCH 101 103
ENDBRANCH  91  93
ENDBRANCH  79  83
ENDBRANCH  74  77
ENDBRANCH  72  73
ENDBRANCH   1  72
TORSDOF 16
ENDMDL
MODEL 2
REMARK VINA RESULT:     -12.2      7.037     12.258
REMARK SMILES O=C(NCCCNC(=O)[C@@H]1CC=CC[C@@H]1C(=O)N1CCN(C(=O)c2sc3cc([N+](=O)[O-])ccc3c2Cl)CC1)c1ccc(-c2c3nc(c(-c4cccc(S(=O)(=O)[O-])c4F)c4ccc([nH]4)c(-c4cccc(S(=O)(=O)[O-])c4F)c4nc(c(-c5cccc(S(=O)(=O)[O-])c5F)c5ccc2[nH]5)C=C4)C=C3)cc1
REMARK SMILES IDX 5 1 4 2 3 3 1 4 2 5 39 7 40 8 101 9 41 10 100 11 42 12 43 13
REMARK SMILES IDX 44 14 94 15 45 16 99 17 93 18 95 19 46 20 98 21 92 22 91 23
REMARK SMILES IDX 47 25 79 26 59 27 78 28 60 29 63 30 77 31 96 32 61 33 62 34
REMARK SMILES IDX 76 36 97 37 64 38 48 39 49 40 57 41 50 42 52 43 58 44 51 45
REMARK SMILES IDX 53 46 54 47 55 48 56 49 80 50 81 51 89 52 82 53 84 54 90 55
REMARK SMILES IDX 83 56 85 57 86 58 87 59 88 60 65 61 66 62 74 63 67 64 69 65
REMARK SMILES IDX 75 66 68 67 70 68 71 69 72 70 73 71 6 72 7 73 8 74 9 76
REMARK SMILES IDX 10 77 11 78 15 79 12 80 14 81 13 82 16 83 17 84 18 85 19 86
REMARK SMILES IDX 38 87 20 88 37 89 21 90 22 91 23 92 24 93 25 94 35 95 26 96
REMARK SMILES IDX 34 97 36 98 27 99 33 100 28 101 32 102 29 103 30 104 31 105
REMARK H PARENT 3 6 95 24 63 35 7 75
REMARK Flexibility Score: inf
ROOT
ATOM      1  C   UNL A   1      37.796  33.775  30.213  1.00  0.00     0.042 C 
ENDROOT
BRANCH   1   2
ATOM      2  C   UNL A   1      37.175  33.332  28.873  1.00  0.00     0.118 C 
BRANCH   2   3
ATOM      3  N   UNL A   1      35.761  32.921  28.933  1.00  0.00    -0.352 N 
ATOM      4  O   UNL A   1      34.022  31.609  28.273  1.00  0.00    -0.269 OA
ATOM      5  C   UNL A   1      35.195  31.694  28.568  1.00  0.00     0.251 C 
ATOM      6  H   UNL A   1      35.134  33.598  29.276  1.00  0.00     0.163 HD
BRANCH   5   7
ATOM      7  C   UNL A   1      36.069  30.499  28.590  1.00  0.00     0.039 A 
ATOM      8  C   UNL A   1      36.847  30.097  27.509  1.00  0.00     0.014 A 
ATOM      9  C   UNL A   1      36.216  29.892  29.823  1.00  0.00     0.014 A 
ATOM     10  C   UNL A   1      37.911  29.222  27.749  1.00  0.00     0.010 A 
ATOM     11  C   UNL A   1      37.373  29.214  30.100  1.00  0.00     0.010 A 
ATOM     12  C   UNL A   1      38.227  28.851  29.071  1.00  0.00    -0.014 A 
BRANCH  12  13
ATOM     13  C   UNL A   1      39.528  28.257  29.394  1.00  0.00     0.031 A 
ATOM     14  C   UNL A   1      39.919  28.355  30.829  1.00  0.00     0.074 A 
ATOM     15  C   UNL A   1      40.244  27.435  28.596  1.00  0.00     0.049 A 
ATOM     16  N   UNL A   1      40.776  29.161  31.367  1.00  0.00    -0.248 NA
ATOM     17  C   UNL A   1      39.170  27.540  31.797  1.00  0.00     0.031 C 
ATOM     18  C   UNL A   1      39.870  26.839  27.310  1.00  0.00     0.029 A 
ATOM     19  N   UNL A   1      41.455  26.861  28.843  1.00  0.00    -0.354 N 
ATOM     20  C   UNL A   1      40.841  28.787  32.707  1.00  0.00     0.074 A 
ATOM     21  C   UNL A   1      39.702  27.938  32.953  1.00  0.00     0.031 C 
ATOM     22  C   UNL A   1      40.720  25.840  26.998  1.00  0.00     0.029 A 
ATOM     23  C   UNL A   1      41.797  25.846  27.961  1.00  0.00     0.049 A 
ATOM     24  H   UNL A   1      42.037  27.143  29.586  1.00  0.00     0.167 HD
ATOM     25  C   UNL A   1      41.960  28.978  33.460  1.00  0.00     0.034 A 
ATOM     26  C   UNL A   1      42.888  25.052  28.014  1.00  0.00     0.034 A 
ATOM     27  C   UNL A   1      42.931  29.801  32.794  1.00  0.00     0.049 A 
ATOM     28  C   UNL A   1      43.889  25.776  28.833  1.00  0.00     0.074 A 
ATOM     29  C   UNL A   1      42.969  31.091  32.311  1.00  0.00     0.029 A 
ATOM     30  N   UNL A   1      43.955  29.122  32.181  1.00  0.00    -0.354 N 
ATOM     31  N   UNL A   1      44.418  26.920  28.495  1.00  0.00    -0.248 NA
ATOM     32  C   UNL A   1      44.062  25.396  30.224  1.00  0.00     0.031 C 
ATOM     33  C   UNL A   1      43.747  31.016  31.117  1.00  0.00     0.029 A 
ATOM     34  C   UNL A   1      44.172  29.694  30.955  1.00  0.00     0.049 A 
ATOM     35  H   UNL A   1      44.448  28.358  32.558  1.00  0.00     0.167 HD
ATOM     36  C   UNL A   1      44.624  27.583  29.696  1.00  0.00     0.074 A 
ATOM     37  C   UNL A   1      44.536  26.544  30.715  1.00  0.00     0.031 C 
ATOM     38  C   UNL A   1      44.560  28.945  29.774  1.00  0.00     0.034 A 
BRANCH  25  39
ATOM     39  C   UNL A   1      42.345  28.114  34.630  1.00  0.00     0.023 A 
ATOM     40  C   UNL A   1      42.508  28.717  35.894  1.00  0.00     0.012 A 
ATOM     41  C   UNL A   1      42.782  26.778  34.492  1.00  0.00     0.148 A 
ATOM     42  C   UNL A   1      43.061  28.012  36.972  1.00  0.00     0.002 A 
ATOM     43  C   UNL A   1      43.235  26.055  35.586  1.00  0.00     0.091 A 
ATOM     44  F   UNL A   1      42.892  26.240  33.271  1.00  0.00    -0.205 F 
ATOM     45  C   UNL A   1      43.399  26.671  36.827  1.00  0.00     0.022 A 
BRANCH  43  46
ATOM     46  S   UNL A   1      43.579  24.300  35.436  1.00  0.00     0.127 S 
ATOM     47  O   UNL A   1      44.312  24.035  36.669  1.00  0.00    -0.237 OA
ATOM     48  O   UNL A   1      42.234  23.725  35.375  1.00  0.00    -0.237 OA
ATOM     49  O   UNL A   1      44.330  24.180  34.191  1.00  0.00    -0.744 OA
ENDBRANCH  43  46
ENDBRANCH  25  39
BRANCH  26  50
ATOM     50  C   UNL A   1      43.078  23.669  27.519  1.00  0.00     0.023 A 
ATOM     51  C   UNL A   1      42.178  22.663  27.918  1.00  0.00     0.012 A 
ATOM     52  C   UNL A   1      43.983  23.368  26.474  1.00  0.00     0.148 A 
ATOM     53  C   UNL A   1      42.146  21.421  27.270  1.00  0.00     0.002 A 
ATOM     54  C   UNL A   1      43.965  22.122  25.850  1.00  0.00     0.091 A 
ATOM     55  F   UNL A   1      44.804  24.326  26.020  1.00  0.00    -0.205 F 
ATOM     56  C   UNL A   1      43.035  21.151  26.232  1.00  0.00     0.022 A 
BRANCH  54  57
ATOM     57  S   UNL A   1      45.120  21.732  24.528  1.00  0.00     0.127 S 
ATOM     58  O   UNL A   1      46.364  21.476  25.255  1.00  0.00    -0.237 OA
ATOM     59  O   UNL A   1      44.510  20.552  23.923  1.00  0.00    -0.237 OA
ATOM     60  O   UNL A   1      45.157  22.933  23.699  1.00  0.00    -0.744 OA
ENDBRANCH  54  57
ENDBRANCH  26  50
BRANCH  38  61
ATOM     61  C   UNL A   1      44.631  29.735  28.491  1.00  0.00     0.023 A 
ATOM     62  C   UNL A   1      43.501  29.936  27.673  1.00  0.00     0.012 A 
ATOM     63  C   UNL A   1      45.810  30.452  28.217  1.00  0.00     0.148 A 
ATOM     64  C   UNL A   1      43.549  30.828  26.598  1.00  0.00     0.002 A 
ATOM     65  C   UNL A   1      45.841  31.368  27.172  1.00  0.00     0.091 A 
ATOM     66  F   UNL A   1      46.867  30.257  29.018  1.00  0.00    -0.205 F 
ATOM     67  C   UNL A   1      44.713  31.555  26.356  1.00  0.00     0.022 A 
BRANCH  65  68
ATOM     68  S   UNL A   1      47.259  32.428  26.880  1.00  0.00     0.127 S 
ATOM     69  O   UNL A   1      46.780  33.296  25.804  1.00  0.00    -0.237 OA
ATOM     70  O   UNL A   1      47.423  33.092  28.173  1.00  0.00    -0.237 OA
ATOM     71  O   UNL A   1      48.360  31.543  26.519  1.00  0.00    -0.744 OA
ENDBRANCH  65  68
ENDBRANCH  38  61
ENDBRANCH  12  13
ENDBRANCH   5   7
ENDBRANCH   2   3
ENDBRANCH   1   2
BRANCH   1  72
ATOM     72  C   UNL A   1      39.066  34.598  30.046  1.00  0.00     0.117 C 
BRANCH  72  73
ATOM     73  N   UNL A   1      40.323  33.893  30.262  1.00  0.00    -0.356 N 
ATOM     74  C   UNL A   1      41.579  34.436  30.224  1.00  0.00     0.224 C 
ATOM     75  H   UNL A   1      40.263  32.928  30.453  1.00  0.00     0.163 HD
ATOM     76  O   UNL A   1      42.276  34.356  31.236  1.00  0.00    -0.275 OA
BRANCH  74  77
ATOM     77  C   UNL A   1      42.163  34.929  28.908  1.00  0.00     0.095 C 
ATOM     78  C   UNL A   1      43.547  34.334  28.558  1.00  0.00     0.041 C 
ATOM     79  C   UNL A   1      42.129  36.419  28.587  1.00  0.00     0.095 C 
ATOM     80  C   UNL A   1      44.000  34.744  27.179  1.00  0.00    -0.030 C 
ATOM     81  C   UNL A   1      42.255  36.526  27.035  1.00  0.00     0.041 C 
ATOM     82  C   UNL A   1      43.395  35.714  26.478  1.00  0.00    -0.030 C 
BRANCH  79  83
ATOM     83  C   UNL A   1      43.135  37.395  29.265  1.00  0.00     0.226 C 
ATOM     84  O   UNL A   1      43.483  37.182  30.434  1.00  0.00    -0.275 OA
ATOM     85  N   UNL A   1      43.872  38.304  28.509  1.00  0.00    -0.339 N 
ATOM     86  C   UNL A   1      45.247  38.569  28.940  1.00  0.00     0.141 C 
ATOM     87  C   UNL A   1      43.333  39.426  27.734  1.00  0.00     0.141 C 
ATOM     88  C   UNL A   1      46.165  38.864  27.749  1.00  0.00     0.141 C 
ATOM     89  C   UNL A   1      44.196  39.769  26.504  1.00  0.00     0.141 C 
ATOM     90  N   UNL A   1      45.639  39.859  26.799  1.00  0.00    -0.334 N 
ATOM     91  C   UNL A   1      46.597  40.483  25.966  1.00  0.00     0.265 C 
ATOM     92  O   UNL A   1      47.791  40.211  26.109  1.00  0.00    -0.268 OA
BRANCH  91  93
ATOM     93  C   UNL A   1      46.157  41.404  24.932  1.00  0.00     0.112 A 
ATOM     94  S   UNL A   1      46.782  41.218  23.347  1.00  0.00    -0.128 S 
ATOM     95  C   UNL A   1      45.395  42.549  25.011  1.00  0.00     0.072 A 
ATOM     96  C   UNL A   1      45.775  42.456  22.701  1.00  0.00     0.043 A 
ATOM     97  C   UNL A   1      45.052  43.085  23.718  1.00  0.00     0.012 A 
ATOM     98  Cl  UNL A   1      44.863  43.288  26.473  1.00  0.00    -0.082 Cl
ATOM     99  C   UNL A   1      45.659  42.843  21.346  1.00  0.00     0.105 A 
ATOM    100  C   UNL A   1      44.152  44.119  23.350  1.00  0.00     0.018 A 
ATOM    101  C   UNL A   1      44.752  43.865  21.026  1.00  0.00     0.270 A 
ATOM    102  C   UNL A   1      43.993  44.490  22.013  1.00  0.00     0.086 A 
BRANCH 101 103
ATOM    103  N   UNL A   1      44.619  44.314  19.634  1.00  0.00     0.062 N 
ATOM    104  O   UNL A   1      45.647  44.658  19.043  1.00  0.00    -0.258 OA
ATOM    105  O   UNL A   1      43.474  44.368  19.159  1.00  0.00    -0.258 OA
ENDBRANCH 101 103
ENDBRANCH  91  93
ENDBRANCH  79  83
ENDBRANCH  74  77
ENDBRANCH  72  73
ENDBRANCH   1  72
TORSDOF 16
ENDMDL
MODEL 3
REMARK VINA RESULT:     -12.2      6.042     13.871
REMARK SMILES O=C(NCCCNC(=O)[C@@H]1CC=CC[C@@H]1C(=O)N1CCN(C(=O)c2sc3cc([N+](=O)[O-])ccc3c2Cl)CC1)c1ccc(-c2c3nc(c(-c4cccc(S(=O)(=O)[O-])c4F)c4ccc([nH]4)c(-c4cccc(S(=O)(=O)[O-])c4F)c4nc(c(-c5cccc(S(=O)(=O)[O-])c5F)c5ccc2[nH]5)C=C4)C=C3)cc1
REMARK SMILES IDX 5 1 4 2 3 3 1 4 2 5 39 7 40 8 101 9 41 10 100 11 42 12 43 13
REMARK SMILES IDX 44 14 94 15 45 16 99 17 93 18 95 19 46 20 98 21 92 22 91 23
REMARK SMILES IDX 47 25 79 26 59 27 78 28 60 29 63 30 77 31 96 32 61 33 62 34
REMARK SMILES IDX 76 36 97 37 64 38 48 39 49 40 57 41 50 42 52 43 58 44 51 45
REMARK SMILES IDX 53 46 54 47 55 48 56 49 80 50 81 51 89 52 82 53 84 54 90 55
REMARK SMILES IDX 83 56 85 57 86 58 87 59 88 60 65 61 66 62 74 63 67 64 69 65
REMARK SMILES IDX 75 66 68 67 70 68 71 69 72 70 73 71 6 72 7 73 8 74 9 76
REMARK SMILES IDX 10 77 11 78 15 79 12 80 14 81 13 82 16 83 17 84 18 85 19 86
REMARK SMILES IDX 38 87 20 88 37 89 21 90 22 91 23 92 24 93 25 94 35 95 26 96
REMARK SMILES IDX 34 97 36 98 27 99 33 100 28 101 32 102 29 103 30 104 31 105
REMARK H PARENT 3 6 95 24 63 35 7 75
REMARK Flexibility Score: inf
ROOT
ATOM      1  C   UNL A   1      51.461  26.533  34.010  1.00  0.00     0.042 C 
ENDROOT
BRANCH   1   2
ATOM      2  C   UNL A   1      50.136  27.295  34.211  1.00  0.00     0.118 C 
BRANCH   2   3
ATOM      3  N   UNL A   1      49.439  27.035  35.483  1.00  0.00    -0.352 N 
ATOM      4  O   UNL A   1      47.641  27.235  36.864  1.00  0.00    -0.269 OA
ATOM      5  C   UNL A   1      48.064  27.055  35.742  1.00  0.00     0.251 C 
ATOM      6  H   UNL A   1      50.017  26.819  36.249  1.00  0.00     0.163 HD
BRANCH   5   7
ATOM      7  C   UNL A   1      47.146  26.813  34.605  1.00  0.00     0.039 A 
ATOM      8  C   UNL A   1      46.444  27.824  33.957  1.00  0.00     0.014 A 
ATOM      9  C   UNL A   1      47.159  25.530  34.093  1.00  0.00     0.014 A 
ATOM     10  C   UNL A   1      45.934  27.562  32.682  1.00  0.00     0.010 A 
ATOM     11  C   UNL A   1      46.855  25.335  32.772  1.00  0.00     0.010 A 
ATOM     12  C   UNL A   1      46.221  26.335  32.051  1.00  0.00    -0.014 A 
BRANCH  12  13
ATOM     13  C   UNL A   1      46.033  26.170  30.607  1.00  0.00     0.031 A 
ATOM     14  C   UNL A   1      47.124  26.742  29.767  1.00  0.00     0.074 A 
ATOM     15  C   UNL A   1      45.137  25.353  30.013  1.00  0.00     0.049 A 
ATOM     16  N   UNL A   1      47.110  27.840  29.083  1.00  0.00    -0.248 NA
ATOM     17  C   UNL A   1      48.431  26.069  29.797  1.00  0.00     0.031 C 
ATOM     18  C   UNL A   1      44.245  24.361  30.621  1.00  0.00     0.029 A 
ATOM     19  N   UNL A   1      44.918  25.166  28.681  1.00  0.00    -0.354 N 
ATOM     20  C   UNL A   1      48.329  27.869  28.410  1.00  0.00     0.074 A 
ATOM     21  C   UNL A   1      49.168  26.877  29.035  1.00  0.00     0.031 C 
ATOM     22  C   UNL A   1      43.749  23.541  29.673  1.00  0.00     0.029 A 
ATOM     23  C   UNL A   1      44.137  24.058  28.381  1.00  0.00     0.049 A 
ATOM     24  H   UNL A   1      45.283  25.766  27.990  1.00  0.00     0.167 HD
ATOM     25  C   UNL A   1      48.484  28.511  27.219  1.00  0.00     0.034 A 
ATOM     26  C   UNL A   1      43.830  23.585  27.154  1.00  0.00     0.034 A 
ATOM     27  C   UNL A   1      47.349  29.326  26.887  1.00  0.00     0.049 A 
ATOM     28  C   UNL A   1      44.015  24.716  26.214  1.00  0.00     0.074 A 
ATOM     29  C   UNL A   1      46.710  30.408  27.451  1.00  0.00     0.029 A 
ATOM     30  N   UNL A   1      46.461  28.763  26.002  1.00  0.00    -0.354 N 
ATOM     31  N   UNL A   1      43.314  25.817  26.249  1.00  0.00    -0.248 NA
ATOM     32  C   UNL A   1      45.233  24.778  25.425  1.00  0.00     0.031 C 
ATOM     33  C   UNL A   1      45.322  30.196  27.191  1.00  0.00     0.029 A 
ATOM     34  C   UNL A   1      45.192  29.016  26.452  1.00  0.00     0.049 A 
ATOM     35  H   UNL A   1      46.696  28.266  25.185  1.00  0.00     0.167 HD
ATOM     36  C   UNL A   1      44.193  26.809  25.841  1.00  0.00     0.074 A 
ATOM     37  C   UNL A   1      45.292  26.094  25.203  1.00  0.00     0.031 C 
ATOM     38  C   UNL A   1      44.086  28.088  26.308  1.00  0.00     0.034 A 
BRANCH  25  39
ATOM     39  C   UNL A   1      49.486  28.111  26.170  1.00  0.00     0.023 A 
ATOM     40  C   UNL A   1      49.488  26.780  25.706  1.00  0.00     0.012 A 
ATOM     41  C   UNL A   1      50.577  28.926  25.795  1.00  0.00     0.148 A 
ATOM     42  C   UNL A   1      50.519  26.294  24.889  1.00  0.00     0.002 A 
ATOM     43  C   UNL A   1      51.540  28.471  24.906  1.00  0.00     0.091 A 
ATOM     44  F   UNL A   1      50.764  30.104  26.404  1.00  0.00    -0.205 F 
ATOM     45  C   UNL A   1      51.531  27.148  24.465  1.00  0.00     0.022 A 
BRANCH  43  46
ATOM     46  S   UNL A   1      52.794  29.589  24.273  1.00  0.00     0.127 S 
ATOM     47  O   UNL A   1      51.979  30.658  23.707  1.00  0.00    -0.237 OA
ATOM     48  O   UNL A   1      53.532  29.944  25.486  1.00  0.00    -0.237 OA
ATOM     49  O   UNL A   1      53.560  28.782  23.329  1.00  0.00    -0.744 OA
ENDBRANCH  43  46
ENDBRANCH  25  39
BRANCH  26  50
ATOM     50  C   UNL A   1      43.515  22.203  26.723  1.00  0.00     0.023 A 
ATOM     51  C   UNL A   1      42.184  21.750  26.772  1.00  0.00     0.012 A 
ATOM     52  C   UNL A   1      44.461  21.401  26.041  1.00  0.00     0.148 A 
ATOM     53  C   UNL A   1      41.797  20.569  26.125  1.00  0.00     0.002 A 
ATOM     54  C   UNL A   1      44.076  20.214  25.422  1.00  0.00     0.091 A 
ATOM     55  F   UNL A   1      45.722  21.838  25.912  1.00  0.00    -0.205 F 
ATOM     56  C   UNL A   1      42.739  19.803  25.445  1.00  0.00     0.022 A 
BRANCH  54  57
ATOM     57  S   UNL A   1      45.275  19.186  24.561  1.00  0.00     0.127 S 
ATOM     58  O   UNL A   1      45.345  17.996  25.410  1.00  0.00    -0.237 OA
ATOM     59  O   UNL A   1      44.632  18.979  23.267  1.00  0.00    -0.237 OA
ATOM     60  O   UNL A   1      46.502  19.976  24.549  1.00  0.00    -0.744 OA
ENDBRANCH  54  57
ENDBRANCH  26  50
BRANCH  38  61
ATOM     61  C   UNL A   1      42.797  28.494  26.978  1.00  0.00     0.023 A 
ATOM     62  C   UNL A   1      41.604  28.686  26.253  1.00  0.00     0.012 A 
ATOM     63  C   UNL A   1      42.748  28.483  28.384  1.00  0.00     0.148 A 
ATOM     64  C   UNL A   1      40.389  28.871  26.917  1.00  0.00     0.002 A 
ATOM     65  C   UNL A   1      41.531  28.627  29.040  1.00  0.00     0.091 A 
ATOM     66  F   UNL A   1      43.893  28.283  29.053  1.00  0.00    -0.205 F 
ATOM     67  C   UNL A   1      40.349  28.827  28.309  1.00  0.00     0.022 A 
BRANCH  65  68
ATOM     68  S   UNL A   1      41.386  28.456  30.821  1.00  0.00     0.127 S 
ATOM     69  O   UNL A   1      41.685  29.809  31.286  1.00  0.00    -0.237 OA
ATOM     70  O   UNL A   1      39.989  28.050  30.981  1.00  0.00    -0.237 OA
ATOM     71  O   UNL A   1      42.352  27.437  31.212  1.00  0.00    -0.744 OA
ENDBRANCH  65  68
ENDBRANCH  38  61
ENDBRANCH  12  13
ENDBRANCH   5   7
ENDBRANCH   2   3
ENDBRANCH   1   2
BRANCH   1  72
ATOM     72  C   UNL A   1      51.265  25.083  33.588  1.00  0.00     0.117 C 
BRANCH  72  73
ATOM     73  N   UNL A   1      50.783  24.172  34.617  1.00  0.00    -0.356 N 
ATOM     74  C   UNL A   1      51.546  23.342  35.394  1.00  0.00     0.224 C 
ATOM     75  H   UNL A   1      49.810  24.150  34.769  1.00  0.00     0.163 HD
ATOM     76  O   UNL A   1      51.500  23.484  36.616  1.00  0.00    -0.275 OA
BRANCH  74  77
ATOM     77  C   UNL A   1      52.259  22.150  34.771  1.00  0.00     0.095 C 
ATOM     78  C   UNL A   1      51.685  21.700  33.408  1.00  0.00     0.041 C 
ATOM     79  C   UNL A   1      52.585  20.938  35.637  1.00  0.00     0.095 C 
ATOM     80  C   UNL A   1      52.523  20.618  32.777  1.00  0.00    -0.030 C 
ATOM     81  C   UNL A   1      53.749  20.194  34.912  1.00  0.00     0.041 C 
ATOM     82  C   UNL A   1      53.479  19.959  33.449  1.00  0.00    -0.030 C 
BRANCH  79  83
ATOM     83  C   UNL A   1      51.469  19.922  36.022  1.00  0.00     0.226 C 
ATOM     84  O   UNL A   1      51.790  18.769  36.339  1.00  0.00    -0.275 OA
ATOM     85  N   UNL A   1      50.176  20.353  36.307  1.00  0.00    -0.339 N 
ATOM     86  C   UNL A   1      49.455  19.641  37.366  1.00  0.00     0.141 C 
ATOM     87  C   UNL A   1      49.247  20.992  35.370  1.00  0.00     0.141 C 
ATOM     88  C   UNL A   1      48.508  20.573  38.129  1.00  0.00     0.141 C 
ATOM     89  C   UNL A   1      48.272  21.962  36.065  1.00  0.00     0.141 C 
ATOM     90  N   UNL A   1      47.641  21.402  37.275  1.00  0.00    -0.334 N 
ATOM     91  C   UNL A   1      46.479  21.921  37.894  1.00  0.00     0.265 C 
ATOM     92  O   UNL A   1      46.232  21.619  39.063  1.00  0.00    -0.268 OA
BRANCH  91  93
ATOM     93  C   UNL A   1      45.618  22.829  37.156  1.00  0.00     0.112 A 
ATOM     94  S   UNL A   1      45.163  24.308  37.892  1.00  0.00    -0.128 S 
ATOM     95  C   UNL A   1      44.945  22.664  35.966  1.00  0.00     0.072 A 
ATOM     96  C   UNL A   1      44.346  24.869  36.485  1.00  0.00     0.043 A 
ATOM     97  C   UNL A   1      44.324  23.878  35.500  1.00  0.00     0.012 A 
ATOM     98  Cl  UNL A   1      44.847  21.192  35.077  1.00  0.00    -0.082 Cl
ATOM     99  C   UNL A   1      43.747  26.135  36.291  1.00  0.00     0.105 A 
ATOM    100  C   UNL A   1      43.706  24.188  34.260  1.00  0.00     0.018 A 
ATOM    101  C   UNL A   1      43.153  26.402  35.048  1.00  0.00     0.270 A 
ATOM    102  C   UNL A   1      43.143  25.447  34.034  1.00  0.00     0.086 A 
BRANCH 101 103
ATOM    103  N   UNL A   1      42.499  27.695  34.814  1.00  0.00     0.062 N 
ATOM    104  O   UNL A   1      41.298  27.686  34.525  1.00  0.00    -0.258 OA
ATOM    105  O   UNL A   1      43.207  28.713  34.870  1.00  0.00    -0.258 OA
ENDBRANCH 101 103
ENDBRANCH  91  93
ENDBRANCH  79  83
ENDBRANCH  74  77
ENDBRANCH  72  73
ENDBRANCH   1  72
TORSDOF 16
ENDMDL
