MODEL 1
REMARK VINA RESULT:     -10.2      0.000      0.000
REMARK SMILES C#CCN(CC(=O)NCCCNC(=O)c1ccc(-c2c3nc(c(-c4cccc(S(=O)(=O)[O-])c4F)c4ccc([nH]4)c(-c4cccc(S(=O)(=O)[O-])c4F)c4nc(c(-c5cccc(S(=O)(=O)[O-])c5F)c5ccc2[nH]5)C=C4)C=C3)cc1)C(=O)N[C@@H]1CCOC1
REMARK SMILES IDX 10 1 9 2 8 3 6 4 7 5 5 7 4 8 3 9 2 10 1 11 78 12 79 13 80 14
REMARK SMILES IDX 81 16 82 17 85 18 83 19 84 20 11 21 12 22 13 23 14 25 15 26
REMARK SMILES IDX 16 27 77 28 17 29 76 30 18 31 19 32 20 33 70 34 21 35 75 36
REMARK SMILES IDX 69 37 71 38 22 39 74 40 68 41 67 42 23 44 55 45 35 46 54 47
REMARK SMILES IDX 36 48 39 49 53 50 72 51 37 52 38 53 52 55 73 56 40 57 24 58
REMARK SMILES IDX 25 59 33 60 26 61 28 62 34 63 27 64 29 65 30 66 31 67 32 68
REMARK SMILES IDX 56 69 57 70 65 71 58 72 60 73 66 74 59 75 61 76 62 77 63 78
REMARK SMILES IDX 64 79 41 80 42 81 50 82 43 83 45 84 51 85 44 86 46 87 47 88
REMARK SMILES IDX 48 89 49 90
REMARK H PARENT 8 6 80 15 12 24 71 43 39 54
REMARK Flexibility Score: inf
ROOT
ATOM      1  C   UNL A   1      33.758  27.715  26.020  1.00  0.00     0.042 C 
ENDROOT
BRANCH   1   2
ATOM      2  C   UNL A   1      32.623  27.102  25.208  1.00  0.00     0.117 C 
BRANCH   2   3
ATOM      3  N   UNL A   1      31.769  26.211  25.964  1.00  0.00    -0.354 N 
ATOM      4  C   UNL A   1      31.908  24.881  26.214  1.00  0.00     0.239 C 
ATOM      5  O   UNL A   1      31.299  24.431  27.192  1.00  0.00    -0.273 OA
ATOM      6  H   UNL A   1      30.968  26.631  26.355  1.00  0.00     0.163 HD
BRANCH   4   7
ATOM      7  C   UNL A   1      32.875  23.982  25.423  1.00  0.00     0.222 C 
BRANCH   7   8
ATOM      8  N   UNL A   1      33.176  22.684  26.020  1.00  0.00    -0.304 N 
BRANCH   8   9
ATOM      9  C   UNL A   1      32.361  21.561  25.553  1.00  0.00     0.211 C 
BRANCH   9  10
ATOM     10  C   UNL A   1      33.185  20.388  25.047  1.00  0.00    -0.085 C 
ATOM     11  C   UNL A   1      33.892  19.382  24.613  1.00  0.00     0.006 C 
ENDBRANCH   9  10
ENDBRANCH   8   9
BRANCH   8  12
ATOM     12  C   UNL A   1      34.175  22.384  26.905  1.00  0.00     0.318 C 
ATOM     13  O   UNL A   1      33.925  22.024  28.060  1.00  0.00    -0.249 OA
ATOM     14  N   UNL A   1      35.488  22.448  26.623  1.00  0.00    -0.333 N 
ATOM     15  H   UNL A   1      36.024  21.988  27.308  1.00  0.00     0.165 HD
BRANCH  14  16
ATOM     16  C   UNL A   1      36.337  23.015  25.577  1.00  0.00     0.112 C 
ATOM     17  C   UNL A   1      36.760  21.974  24.560  1.00  0.00     0.056 C 
ATOM     18  C   UNL A   1      37.679  23.467  26.144  1.00  0.00     0.185 C 
ATOM     19  C   UNL A   1      38.054  21.413  25.112  1.00  0.00     0.162 C 
ATOM     20  O   UNL A   1      38.568  22.342  26.070  1.00  0.00    -0.379 OA
ENDBRANCH  14  16
ENDBRANCH   8  12
ENDBRANCH   7   8
ENDBRANCH   4   7
ENDBRANCH   2   3
ENDBRANCH   1   2
BRANCH   1  21
ATOM     21  C   UNL A   1      33.337  28.351  27.341  1.00  0.00     0.118 C 
BRANCH  21  22
ATOM     22  N   UNL A   1      33.442  29.803  27.327  1.00  0.00    -0.352 N 
ATOM     23  C   UNL A   1      34.388  30.653  27.840  1.00  0.00     0.251 C 
ATOM     24  H   UNL A   1      32.700  30.256  26.867  1.00  0.00     0.163 HD
ATOM     25  O   UNL A   1      34.126  31.854  27.883  1.00  0.00    -0.269 OA
BRANCH  23  26
ATOM     26  C   UNL A   1      35.699  30.169  28.332  1.00  0.00     0.039 A 
ATOM     27  C   UNL A   1      36.796  30.218  27.463  1.00  0.00     0.014 A 
ATOM     28  C   UNL A   1      35.848  29.588  29.594  1.00  0.00     0.014 A 
ATOM     29  C   UNL A   1      38.038  29.723  27.870  1.00  0.00     0.010 A 
ATOM     30  C   UNL A   1      37.106  29.167  30.027  1.00  0.00     0.010 A 
ATOM     31  C   UNL A   1      38.211  29.211  29.164  1.00  0.00    -0.014 A 
BRANCH  31  32
ATOM     32  C   UNL A   1      39.534  28.712  29.623  1.00  0.00     0.031 A 
ATOM     33  C   UNL A   1      40.286  29.429  30.715  1.00  0.00     0.074 A 
ATOM     34  C   UNL A   1      40.090  27.648  29.011  1.00  0.00     0.049 A 
ATOM     35  N   UNL A   1      41.457  29.150  31.228  1.00  0.00    -0.248 NA
ATOM     36  C   UNL A   1      39.654  30.628  31.288  1.00  0.00     0.031 C 
ATOM     37  C   UNL A   1      39.500  26.916  27.889  1.00  0.00     0.029 A 
ATOM     38  N   UNL A   1      41.284  27.009  29.233  1.00  0.00    -0.354 N 
ATOM     39  C   UNL A   1      41.717  30.154  32.154  1.00  0.00     0.074 A 
ATOM     40  C   UNL A   1      40.597  31.068  32.108  1.00  0.00     0.031 C 
ATOM     41  C   UNL A   1      40.328  25.924  27.526  1.00  0.00     0.029 A 
ATOM     42  C   UNL A   1      41.518  25.962  28.372  1.00  0.00     0.049 A 
ATOM     43  H   UNL A   1      41.915  27.276  29.939  1.00  0.00     0.167 HD
ATOM     44  C   UNL A   1      42.775  30.287  32.991  1.00  0.00     0.034 A 
ATOM     45  C   UNL A   1      42.568  25.124  28.277  1.00  0.00     0.034 A 
ATOM     46  C   UNL A   1      43.863  29.350  33.069  1.00  0.00     0.049 A 
ATOM     47  C   UNL A   1      43.702  25.259  29.256  1.00  0.00     0.074 A 
ATOM     48  C   UNL A   1      44.938  29.349  33.940  1.00  0.00     0.029 A 
ATOM     49  N   UNL A   1      44.017  28.246  32.245  1.00  0.00    -0.354 N 
ATOM     50  N   UNL A   1      43.851  26.121  30.231  1.00  0.00    -0.248 NA
ATOM     51  C   UNL A   1      44.794  24.279  29.147  1.00  0.00     0.031 C 
ATOM     52  C   UNL A   1      45.749  28.252  33.634  1.00  0.00     0.029 A 
ATOM     53  C   UNL A   1      45.168  27.557  32.585  1.00  0.00     0.049 A 
ATOM     54  H   UNL A   1      43.397  27.989  31.524  1.00  0.00     0.167 HD
ATOM     55  C   UNL A   1      45.029  25.764  30.878  1.00  0.00     0.074 A 
ATOM     56  C   UNL A   1      45.544  24.596  30.195  1.00  0.00     0.031 C 
ATOM     57  C   UNL A   1      45.636  26.360  31.935  1.00  0.00     0.034 A 
BRANCH  44  58
ATOM     58  C   UNL A   1      42.774  31.460  33.939  1.00  0.00     0.023 A 
ATOM     59  C   UNL A   1      43.332  32.687  33.521  1.00  0.00     0.012 A 
ATOM     60  C   UNL A   1      42.176  31.373  35.211  1.00  0.00     0.148 A 
ATOM     61  C   UNL A   1      43.330  33.795  34.367  1.00  0.00     0.002 A 
ATOM     62  C   UNL A   1      42.139  32.496  36.032  1.00  0.00     0.091 A 
ATOM     63  F   UNL A   1      41.668  30.195  35.601  1.00  0.00    -0.205 F 
ATOM     64  C   UNL A   1      42.725  33.703  35.617  1.00  0.00     0.022 A 
BRANCH  62  65
ATOM     65  S   UNL A   1      41.311  32.501  37.627  1.00  0.00     0.127 S 
ATOM     66  O   UNL A   1      42.177  31.622  38.412  1.00  0.00    -0.237 OA
ATOM     67  O   UNL A   1      41.375  33.913  38.005  1.00  0.00    -0.237 OA
ATOM     68  O   UNL A   1      39.966  32.001  37.382  1.00  0.00    -0.744 OA
ENDBRANCH  62  65
ENDBRANCH  44  58
BRANCH  45  69
ATOM     69  C   UNL A   1      42.549  24.022  27.273  1.00  0.00     0.023 A 
ATOM     70  C   UNL A   1      43.121  24.237  26.004  1.00  0.00     0.012 A 
ATOM     71  C   UNL A   1      42.003  22.758  27.574  1.00  0.00     0.148 A 
ATOM     72  C   UNL A   1      43.125  23.226  25.043  1.00  0.00     0.002 A 
ATOM     73  C   UNL A   1      42.058  21.739  26.631  1.00  0.00     0.091 A 
ATOM     74  F   UNL A   1      41.453  22.577  28.783  1.00  0.00    -0.205 F 
ATOM     75  C   UNL A   1      42.604  21.975  25.359  1.00  0.00     0.022 A 
BRANCH  73  76
ATOM     76  S   UNL A   1      41.531  20.061  26.995  1.00  0.00     0.127 S 
ATOM     77  O   UNL A   1      42.798  19.413  27.321  1.00  0.00    -0.237 OA
ATOM     78  O   UNL A   1      40.632  20.265  28.131  1.00  0.00    -0.237 OA
ATOM     79  O   UNL A   1      40.869  19.589  25.785  1.00  0.00    -0.744 OA
ENDBRANCH  73  76
ENDBRANCH  45  69
BRANCH  57  80
ATOM     80  C   UNL A   1      46.907  25.738  32.452  1.00  0.00     0.023 A 
ATOM     81  C   UNL A   1      48.149  26.127  31.911  1.00  0.00     0.012 A 
ATOM     82  C   UNL A   1      46.875  24.822  33.523  1.00  0.00     0.148 A 
ATOM     83  C   UNL A   1      49.336  25.590  32.408  1.00  0.00     0.002 A 
ATOM     84  C   UNL A   1      48.065  24.328  34.043  1.00  0.00     0.091 A 
ATOM     85  F   UNL A   1      45.683  24.448  34.010  1.00  0.00    -0.205 F 
ATOM     86  C   UNL A   1      49.296  24.703  33.479  1.00  0.00     0.022 A 
BRANCH  84  87
ATOM     87  S   UNL A   1      48.110  23.255  35.482  1.00  0.00     0.127 S 
ATOM     88  O   UNL A   1      47.415  22.067  34.992  1.00  0.00    -0.237 OA
ATOM     89  O   UNL A   1      49.547  23.076  35.695  1.00  0.00    -0.237 OA
ATOM     90  O   UNL A   1      47.432  23.985  36.546  1.00  0.00    -0.744 OA
ENDBRANCH  84  87
ENDBRANCH  57  80
ENDBRANCH  31  32
ENDBRANCH  23  26
ENDBRANCH  21  22
ENDBRANCH   1  21
TORSDOF 18
ENDMDL
MODEL 2
REMARK VINA RESULT:     -10.1      3.935      9.475
REMARK SMILES C#CCN(CC(=O)NCCCNC(=O)c1ccc(-c2c3nc(c(-c4cccc(S(=O)(=O)[O-])c4F)c4ccc([nH]4)c(-c4cccc(S(=O)(=O)[O-])c4F)c4nc(c(-c5cccc(S(=O)(=O)[O-])c5F)c5ccc2[nH]5)C=C4)C=C3)cc1)C(=O)N[C@@H]1CCOC1
REMARK SMILES IDX 10 1 9 2 8 3 6 4 7 5 5 7 4 8 3 9 2 10 1 11 78 12 79 13 80 14
REMARK SMILES IDX 81 16 82 17 85 18 83 19 84 20 11 21 12 22 13 23 14 25 15 26
REMARK SMILES IDX 16 27 77 28 17 29 76 30 18 31 19 32 20 33 70 34 21 35 75 36
REMARK SMILES IDX 69 37 71 38 22 39 74 40 68 41 67 42 23 44 55 45 35 46 54 47
REMARK SMILES IDX 36 48 39 49 53 50 72 51 37 52 38 53 52 55 73 56 40 57 24 58
REMARK SMILES IDX 25 59 33 60 26 61 28 62 34 63 27 64 29 65 30 66 31 67 32 68
REMARK SMILES IDX 56 69 57 70 65 71 58 72 60 73 66 74 59 75 61 76 62 77 63 78
REMARK SMILES IDX 64 79 41 80 42 81 50 82 43 83 45 84 51 85 44 86 46 87 47 88
REMARK SMILES IDX 48 89 49 90
REMARK H PARENT 8 6 80 15 12 24 71 43 39 54
REMARK Flexibility Score: inf
ROOT
ATOM      1  C   UNL A   1      31.376  32.323  26.874  1.00  0.00     0.042 C 
ENDROOT
BRANCH   1   2
ATOM      2  C   UNL A   1      31.386  31.048  26.038  1.00  0.00     0.117 C 
BRANCH   2   3
ATOM      3  N   UNL A   1      32.285  30.025  26.529  1.00  0.00    -0.354 N 
ATOM      4  C   UNL A   1      33.132  29.212  25.841  1.00  0.00     0.239 C 
ATOM      5  O   UNL A   1      34.071  28.720  26.479  1.00  0.00    -0.273 OA
ATOM      6  H   UNL A   1      32.282  29.899  27.506  1.00  0.00     0.163 HD
BRANCH   4   7
ATOM      7  C   UNL A   1      33.037  29.006  24.319  1.00  0.00     0.222 C 
BRANCH   7   8
ATOM      8  N   UNL A   1      32.189  27.906  23.873  1.00  0.00    -0.304 N 
BRANCH   8   9
ATOM      9  C   UNL A   1      32.880  26.785  23.232  1.00  0.00     0.211 C 
BRANCH   9  10
ATOM     10  C   UNL A   1      33.715  25.961  24.198  1.00  0.00    -0.085 C 
ATOM     11  C   UNL A   1      34.432  25.253  25.026  1.00  0.00     0.006 C 
ENDBRANCH   9  10
ENDBRANCH   8   9
BRANCH   8  12
ATOM     12  C   UNL A   1      30.840  27.766  24.050  1.00  0.00     0.318 C 
ATOM     13  O   UNL A   1      30.348  26.705  24.446  1.00  0.00    -0.249 OA
ATOM     14  N   UNL A   1      29.937  28.735  23.817  1.00  0.00    -0.333 N 
ATOM     15  H   UNL A   1      29.062  28.511  24.209  1.00  0.00     0.165 HD
BRANCH  14  16
ATOM     16  C   UNL A   1      29.899  30.030  23.139  1.00  0.00     0.112 C 
ATOM     17  C   UNL A   1      28.649  30.815  23.481  1.00  0.00     0.056 C 
ATOM     18  C   UNL A   1      29.759  29.856  21.630  1.00  0.00     0.185 C 
ATOM     19  C   UNL A   1      27.640  30.395  22.433  1.00  0.00     0.162 C 
ATOM     20  O   UNL A   1      28.354  29.812  21.339  1.00  0.00    -0.379 OA
ENDBRANCH  14  16
ENDBRANCH   8  12
ENDBRANCH   7   8
ENDBRANCH   4   7
ENDBRANCH   2   3
ENDBRANCH   1   2
BRANCH   1  21
ATOM     21  C   UNL A   1      32.753  32.890  27.203  1.00  0.00     0.118 C 
BRANCH  21  22
ATOM     22  N   UNL A   1      32.696  34.261  27.690  1.00  0.00    -0.352 N 
ATOM     23  C   UNL A   1      33.309  34.876  28.751  1.00  0.00     0.251 C 
ATOM     24  H   UNL A   1      32.112  34.852  27.164  1.00  0.00     0.163 HD
ATOM     25  O   UNL A   1      32.918  35.996  29.077  1.00  0.00    -0.269 OA
BRANCH  23  26
ATOM     26  C   UNL A   1      34.416  34.238  29.501  1.00  0.00     0.039 A 
ATOM     27  C   UNL A   1      35.732  34.526  29.118  1.00  0.00     0.014 A 
ATOM     28  C   UNL A   1      34.185  33.297  30.508  1.00  0.00     0.014 A 
ATOM     29  C   UNL A   1      36.805  33.906  29.764  1.00  0.00     0.010 A 
ATOM     30  C   UNL A   1      35.257  32.739  31.205  1.00  0.00     0.010 A 
ATOM     31  C   UNL A   1      36.578  33.020  30.829  1.00  0.00    -0.014 A 
BRANCH  31  32
ATOM     32  C   UNL A   1      37.709  32.378  31.549  1.00  0.00     0.031 A 
ATOM     33  C   UNL A   1      38.471  31.240  30.919  1.00  0.00     0.074 A 
ATOM     34  C   UNL A   1      38.011  32.777  32.800  1.00  0.00     0.049 A 
ATOM     35  N   UNL A   1      39.470  30.549  31.405  1.00  0.00    -0.248 NA
ATOM     36  C   UNL A   1      38.039  30.805  29.580  1.00  0.00     0.031 C 
ATOM     37  C   UNL A   1      37.299  33.812  33.552  1.00  0.00     0.029 A 
ATOM     38  N   UNL A   1      38.982  32.346  33.669  1.00  0.00    -0.354 N 
ATOM     39  C   UNL A   1      39.761  29.579  30.452  1.00  0.00     0.074 A 
ATOM     40  C   UNL A   1      38.812  29.749  29.375  1.00  0.00     0.031 C 
ATOM     41  C   UNL A   1      37.861  33.943  34.763  1.00  0.00     0.029 A 
ATOM     42  C   UNL A   1      38.957  32.987  34.886  1.00  0.00     0.049 A 
ATOM     43  H   UNL A   1      39.633  31.643  33.444  1.00  0.00     0.167 HD
ATOM     44  C   UNL A   1      40.750  28.652  30.457  1.00  0.00     0.034 A 
ATOM     45  C   UNL A   1      39.733  32.827  35.976  1.00  0.00     0.034 A 
ATOM     46  C   UNL A   1      41.723  28.517  31.507  1.00  0.00     0.049 A 
ATOM     47  C   UNL A   1      40.859  31.830  35.932  1.00  0.00     0.074 A 
ATOM     48  C   UNL A   1      42.813  27.667  31.567  1.00  0.00     0.029 A 
ATOM     49  N   UNL A   1      41.725  29.251  32.683  1.00  0.00    -0.354 N 
ATOM     50  N   UNL A   1      41.218  31.033  34.956  1.00  0.00    -0.248 NA
ATOM     51  C   UNL A   1      41.713  31.740  37.126  1.00  0.00     0.031 C 
ATOM     52  C   UNL A   1      43.466  27.878  32.787  1.00  0.00     0.029 A 
ATOM     53  C   UNL A   1      42.795  28.874  33.477  1.00  0.00     0.049 A 
ATOM     54  H   UNL A   1      41.061  29.940  32.919  1.00  0.00     0.167 HD
ATOM     55  C   UNL A   1      42.361  30.378  35.399  1.00  0.00     0.074 A 
ATOM     56  C   UNL A   1      42.645  30.885  36.725  1.00  0.00     0.031 C 
ATOM     57  C   UNL A   1      43.100  29.431  34.769  1.00  0.00     0.034 A 
BRANCH  44  58
ATOM     58  C   UNL A   1      40.869  27.748  29.255  1.00  0.00     0.023 A 
ATOM     59  C   UNL A   1      40.098  26.569  29.198  1.00  0.00     0.012 A 
ATOM     60  C   UNL A   1      41.690  28.088  28.163  1.00  0.00     0.148 A 
ATOM     61  C   UNL A   1      40.171  25.723  28.092  1.00  0.00     0.002 A 
ATOM     62  C   UNL A   1      41.724  27.262  27.044  1.00  0.00     0.091 A 
ATOM     63  F   UNL A   1      42.432  29.202  28.240  1.00  0.00    -0.205 F 
ATOM     64  C   UNL A   1      40.975  26.074  27.012  1.00  0.00     0.022 A 
BRANCH  62  65
ATOM     65  S   UNL A   1      42.667  27.668  25.568  1.00  0.00     0.127 S 
ATOM     66  O   UNL A   1      41.996  28.886  25.116  1.00  0.00    -0.237 OA
ATOM     67  O   UNL A   1      44.011  27.877  26.107  1.00  0.00    -0.237 OA
ATOM     68  O   UNL A   1      42.542  26.518  24.684  1.00  0.00    -0.744 OA
ENDBRANCH  62  65
ENDBRANCH  44  58
BRANCH  45  69
ATOM     69  C   UNL A   1      39.527  33.700  37.167  1.00  0.00     0.023 A 
ATOM     70  C   UNL A   1      39.986  35.032  37.131  1.00  0.00     0.012 A 
ATOM     71  C   UNL A   1      38.854  33.236  38.314  1.00  0.00     0.148 A 
ATOM     72  C   UNL A   1      39.806  35.877  38.225  1.00  0.00     0.002 A 
ATOM     73  C   UNL A   1      38.630  34.100  39.380  1.00  0.00     0.091 A 
ATOM     74  F   UNL A   1      38.436  31.964  38.333  1.00  0.00    -0.205 F 
ATOM     75  C   UNL A   1      39.120  35.415  39.345  1.00  0.00     0.022 A 
BRANCH  73  76
ATOM     76  S   UNL A   1      37.644  33.633  40.806  1.00  0.00     0.127 S 
ATOM     77  O   UNL A   1      36.460  33.058  40.176  1.00  0.00    -0.237 OA
ATOM     78  O   UNL A   1      38.516  32.668  41.477  1.00  0.00    -0.237 OA
ATOM     79  O   UNL A   1      37.431  34.866  41.554  1.00  0.00    -0.744 OA
ENDBRANCH  73  76
ENDBRANCH  45  69
BRANCH  57  80
ATOM     80  C   UNL A   1      44.319  28.906  35.484  1.00  0.00     0.023 A 
ATOM     81  C   UNL A   1      45.574  29.505  35.260  1.00  0.00     0.012 A 
ATOM     82  C   UNL A   1      44.205  27.868  36.429  1.00  0.00     0.148 A 
ATOM     83  C   UNL A   1      46.704  29.057  35.944  1.00  0.00     0.002 A 
ATOM     84  C   UNL A   1      45.327  27.459  37.141  1.00  0.00     0.091 A 
ATOM     85  F   UNL A   1      43.006  27.296  36.612  1.00  0.00    -0.205 F 
ATOM     86  C   UNL A   1      46.579  28.045  36.892  1.00  0.00     0.022 A 
BRANCH  84  87
ATOM     87  S   UNL A   1      45.237  26.228  38.446  1.00  0.00     0.127 S 
ATOM     88  O   UNL A   1      44.873  25.026  37.699  1.00  0.00    -0.237 OA
ATOM     89  O   UNL A   1      46.603  26.229  38.971  1.00  0.00    -0.237 OA
ATOM     90  O   UNL A   1      44.233  26.714  39.384  1.00  0.00    -0.744 OA
ENDBRANCH  84  87
ENDBRANCH  57  80
ENDBRANCH  31  32
ENDBRANCH  23  26
ENDBRANCH  21  22
ENDBRANCH   1  21
TORSDOF 18
ENDMDL
MODEL 3
REMARK VINA RESULT:     -10.0      5.323      9.964
REMARK SMILES C#CCN(CC(=O)NCCCNC(=O)c1ccc(-c2c3nc(c(-c4cccc(S(=O)(=O)[O-])c4F)c4ccc([nH]4)c(-c4cccc(S(=O)(=O)[O-])c4F)c4nc(c(-c5cccc(S(=O)(=O)[O-])c5F)c5ccc2[nH]5)C=C4)C=C3)cc1)C(=O)N[C@@H]1CCOC1
REMARK SMILES IDX 10 1 9 2 8 3 6 4 7 5 5 7 4 8 3 9 2 10 1 11 78 12 79 13 80 14
REMARK SMILES IDX 81 16 82 17 85 18 83 19 84 20 11 21 12 22 13 23 14 25 15 26
REMARK SMILES IDX 16 27 77 28 17 29 76 30 18 31 19 32 20 33 70 34 21 35 75 36
REMARK SMILES IDX 69 37 71 38 22 39 74 40 68 41 67 42 23 44 55 45 35 46 54 47
REMARK SMILES IDX 36 48 39 49 53 50 72 51 37 52 38 53 52 55 73 56 40 57 24 58
REMARK SMILES IDX 25 59 33 60 26 61 28 62 34 63 27 64 29 65 30 66 31 67 32 68
REMARK SMILES IDX 56 69 57 70 65 71 58 72 60 73 66 74 59 75 61 76 62 77 63 78
REMARK SMILES IDX 64 79 41 80 42 81 50 82 43 83 45 84 51 85 44 86 46 87 47 88
REMARK SMILES IDX 48 89 49 90
REMARK H PARENT 8 6 80 15 12 24 71 43 39 54
REMARK Flexibility Score: inf
ROOT
ATOM      1  C   UNL A   1      34.476  21.694  27.034  1.00  0.00     0.042 C 
ENDROOT
BRANCH   1   2
ATOM      2  C   UNL A   1      33.125  21.755  26.330  1.00  0.00     0.117 C 
BRANCH   2   3
ATOM      3  N   UNL A   1      32.046  22.243  27.163  1.00  0.00    -0.354 N 
ATOM      4  C   UNL A   1      31.071  23.148  26.876  1.00  0.00     0.239 C 
ATOM      5  O   UNL A   1      30.049  23.104  27.572  1.00  0.00    -0.273 OA
ATOM      6  H   UNL A   1      32.014  21.864  28.071  1.00  0.00     0.163 HD
BRANCH   4   7
ATOM      7  C   UNL A   1      31.145  24.098  25.668  1.00  0.00     0.222 C 
BRANCH   7   8
ATOM      8  N   UNL A   1      31.680  25.429  25.931  1.00  0.00    -0.304 N 
BRANCH   8   9
ATOM      9  C   UNL A   1      33.140  25.543  25.933  1.00  0.00     0.211 C 
BRANCH   9  10
ATOM     10  C   UNL A   1      33.634  26.966  25.732  1.00  0.00    -0.085 C 
ATOM     11  C   UNL A   1      34.058  28.187  25.560  1.00  0.00     0.006 C 
ENDBRANCH   9  10
ENDBRANCH   8   9
BRANCH   8  12
ATOM     12  C   UNL A   1      30.981  26.592  26.102  1.00  0.00     0.318 C 
ATOM     13  O   UNL A   1      30.813  27.085  27.223  1.00  0.00    -0.249 OA
ATOM     14  N   UNL A   1      30.418  27.297  25.105  1.00  0.00    -0.333 N 
ATOM     15  H   UNL A   1      30.159  28.198  25.406  1.00  0.00     0.165 HD
BRANCH  14  16
ATOM     16  C   UNL A   1      30.086  27.091  23.696  1.00  0.00     0.112 C 
ATOM     17  C   UNL A   1      31.324  27.012  22.825  1.00  0.00     0.056 C 
ATOM     18  C   UNL A   1      29.370  28.307  23.117  1.00  0.00     0.185 C 
ATOM     19  C   UNL A   1      31.584  28.445  22.409  1.00  0.00     0.162 C 
ATOM     20  O   UNL A   1      30.381  29.191  22.612  1.00  0.00    -0.379 OA
ENDBRANCH  14  16
ENDBRANCH   8  12
ENDBRANCH   7   8
ENDBRANCH   4   7
ENDBRANCH   2   3
ENDBRANCH   1   2
BRANCH   1  21
ATOM     21  C   UNL A   1      35.644  22.272  26.243  1.00  0.00     0.118 C 
BRANCH  21  22
ATOM     22  N   UNL A   1      36.676  21.285  25.957  1.00  0.00    -0.352 N 
ATOM     23  C   UNL A   1      38.037  21.397  25.844  1.00  0.00     0.251 C 
ATOM     24  H   UNL A   1      36.333  20.373  25.820  1.00  0.00     0.163 HD
ATOM     25  O   UNL A   1      38.661  20.446  25.376  1.00  0.00    -0.269 OA
BRANCH  23  26
ATOM     26  C   UNL A   1      38.766  22.616  26.269  1.00  0.00     0.039 A 
ATOM     27  C   UNL A   1      38.357  23.851  25.751  1.00  0.00     0.014 A 
ATOM     28  C   UNL A   1      39.894  22.557  27.091  1.00  0.00     0.014 A 
ATOM     29  C   UNL A   1      39.049  25.018  26.085  1.00  0.00     0.010 A 
ATOM     30  C   UNL A   1      40.536  23.731  27.487  1.00  0.00     0.010 A 
ATOM     31  C   UNL A   1      40.134  24.972  26.973  1.00  0.00    -0.014 A 
BRANCH  31  32
ATOM     32  C   UNL A   1      40.860  26.209  27.364  1.00  0.00     0.031 A 
ATOM     33  C   UNL A   1      42.294  26.419  26.951  1.00  0.00     0.074 A 
ATOM     34  C   UNL A   1      40.247  27.118  28.148  1.00  0.00     0.049 A 
ATOM     35  N   UNL A   1      43.089  27.424  27.216  1.00  0.00    -0.248 NA
ATOM     36  C   UNL A   1      42.926  25.351  26.158  1.00  0.00     0.031 C 
ATOM     37  C   UNL A   1      38.889  26.995  28.681  1.00  0.00     0.029 A 
ATOM     38  N   UNL A   1      40.692  28.315  28.650  1.00  0.00    -0.354 N 
ATOM     39  C   UNL A   1      44.319  27.095  26.658  1.00  0.00     0.074 A 
ATOM     40  C   UNL A   1      44.176  25.782  26.068  1.00  0.00     0.031 C 
ATOM     41  C   UNL A   1      38.609  28.074  29.426  1.00  0.00     0.029 A 
ATOM     42  C   UNL A   1      39.771  28.956  29.446  1.00  0.00     0.049 A 
ATOM     43  H   UNL A   1      41.587  28.679  28.461  1.00  0.00     0.167 HD
ATOM     44  C   UNL A   1      45.456  27.832  26.610  1.00  0.00     0.034 A 
ATOM     45  C   UNL A   1      39.852  30.125  30.111  1.00  0.00     0.034 A 
ATOM     46  C   UNL A   1      45.581  29.156  27.154  1.00  0.00     0.049 A 
ATOM     47  C   UNL A   1      41.106  30.948  29.994  1.00  0.00     0.074 A 
ATOM     48  C   UNL A   1      46.662  30.018  27.084  1.00  0.00     0.029 A 
ATOM     49  N   UNL A   1      44.593  29.814  27.871  1.00  0.00    -0.354 N 
ATOM     50  N   UNL A   1      42.202  30.690  29.325  1.00  0.00    -0.248 NA
ATOM     51  C   UNL A   1      41.118  32.244  30.690  1.00  0.00     0.031 C 
ATOM     52  C   UNL A   1      46.332  31.191  27.771  1.00  0.00     0.029 A 
ATOM     53  C   UNL A   1      45.038  31.069  28.251  1.00  0.00     0.049 A 
ATOM     54  H   UNL A   1      43.706  29.442  28.079  1.00  0.00     0.167 HD
ATOM     55  C   UNL A   1      43.017  31.805  29.483  1.00  0.00     0.074 A 
ATOM     56  C   UNL A   1      42.280  32.749  30.297  1.00  0.00     0.031 C 
ATOM     57  C   UNL A   1      44.269  32.022  29.009  1.00  0.00     0.034 A 
BRANCH  44  58
ATOM     58  C   UNL A   1      46.641  27.243  25.886  1.00  0.00     0.023 A 
ATOM     59  C   UNL A   1      47.389  26.218  26.502  1.00  0.00     0.012 A 
ATOM     60  C   UNL A   1      46.982  27.656  24.583  1.00  0.00     0.148 A 
ATOM     61  C   UNL A   1      48.478  25.641  25.851  1.00  0.00     0.002 A 
ATOM     62  C   UNL A   1      48.043  27.044  23.922  1.00  0.00     0.091 A 
ATOM     63  F   UNL A   1      46.274  28.645  24.018  1.00  0.00    -0.205 F 
ATOM     64  C   UNL A   1      48.798  26.046  24.559  1.00  0.00     0.022 A 
BRANCH  62  65
ATOM     65  S   UNL A   1      48.483  27.439  22.225  1.00  0.00     0.127 S 
ATOM     66  O   UNL A   1      47.331  28.232  21.798  1.00  0.00    -0.237 OA
ATOM     67  O   UNL A   1      49.718  28.205  22.396  1.00  0.00    -0.237 OA
ATOM     68  O   UNL A   1      48.652  26.162  21.548  1.00  0.00    -0.744 OA
ENDBRANCH  62  65
ENDBRANCH  44  58
BRANCH  45  69
ATOM     69  C   UNL A   1      38.673  30.628  30.872  1.00  0.00     0.023 A 
ATOM     70  C   UNL A   1      38.639  30.473  32.272  1.00  0.00     0.012 A 
ATOM     71  C   UNL A   1      37.606  31.286  30.228  1.00  0.00     0.148 A 
ATOM     72  C   UNL A   1      37.554  30.937  33.014  1.00  0.00     0.002 A 
ATOM     73  C   UNL A   1      36.553  31.793  30.980  1.00  0.00     0.091 A 
ATOM     74  F   UNL A   1      37.651  31.413  28.895  1.00  0.00    -0.205 F 
ATOM     75  C   UNL A   1      36.517  31.606  32.371  1.00  0.00     0.022 A 
BRANCH  73  76
ATOM     76  S   UNL A   1      35.240  32.781  30.255  1.00  0.00     0.127 S 
ATOM     77  O   UNL A   1      34.366  33.006  31.402  1.00  0.00    -0.237 OA
ATOM     78  O   UNL A   1      35.969  33.964  29.793  1.00  0.00    -0.237 OA
ATOM     79  O   UNL A   1      34.684  31.966  29.182  1.00  0.00    -0.744 OA
ENDBRANCH  73  76
ENDBRANCH  45  69
BRANCH  57  80
ATOM     80  C   UNL A   1      44.914  33.348  29.318  1.00  0.00     0.023 A 
ATOM     81  C   UNL A   1      45.684  33.497  30.489  1.00  0.00     0.012 A 
ATOM     82  C   UNL A   1      44.816  34.423  28.412  1.00  0.00     0.148 A 
ATOM     83  C   UNL A   1      46.320  34.707  30.768  1.00  0.00     0.002 A 
ATOM     84  C   UNL A   1      45.493  35.609  28.674  1.00  0.00     0.091 A 
ATOM     85  F   UNL A   1      44.062  34.268  27.314  1.00  0.00    -0.205 F 
ATOM     86  C   UNL A   1      46.235  35.756  29.857  1.00  0.00     0.022 A 
BRANCH  84  87
ATOM     87  S   UNL A   1      45.515  36.976  27.510  1.00  0.00     0.127 S 
ATOM     88  O   UNL A   1      46.337  37.957  28.217  1.00  0.00    -0.237 OA
ATOM     89  O   UNL A   1      46.155  36.379  26.337  1.00  0.00    -0.237 OA
ATOM     90  O   UNL A   1      44.122  37.352  27.309  1.00  0.00    -0.744 OA
ENDBRANCH  84  87
ENDBRANCH  57  80
ENDBRANCH  31  32
ENDBRANCH  23  26
ENDBRANCH  21  22
ENDBRANCH   1  21
TORSDOF 18
ENDMDL
