MODEL 1
REMARK VINA RESULT:     -12.5      0.000      0.000
REMARK SMILES Cc1cc(Br)cc2c1O[C@H](C(F)(F)F)C(C(=O)NCCCNC(=O)c1ccc(-c3c4nc(c(-c5cccc(S(=O)(=O)[O-])c5F)c5ccc([nH]5)c(-c5cccc(S(=O)(=O)[O-])c5F)c5nc(c(-c6cccc(S(=O)(=O)[O-])c6F)c6ccc3[nH]6)C=C5)C=C4)cc1)=C2
REMARK SMILES IDX 21 1 20 2 19 3 18 4 16 5 17 6 15 8 1 9 2 10 3 11 8 12 4 13
REMARK SMILES IDX 7 14 9 15 5 16 6 17 88 18 10 19 11 20 12 21 13 22 14 23
REMARK SMILES IDX 22 24 23 25 24 27 25 28 26 29 87 30 27 31 86 32 28 33 29 34
REMARK SMILES IDX 30 35 80 36 31 37 85 38 79 39 81 40 32 41 84 42 78 43 77 44
REMARK SMILES IDX 33 46 65 47 45 48 64 49 46 50 49 51 63 52 82 53 47 54 48 55
REMARK SMILES IDX 62 57 83 58 50 59 34 60 35 61 43 62 36 63 38 64 44 65 37 66
REMARK SMILES IDX 39 67 40 68 41 69 42 70 66 71 67 72 75 73 68 74 70 75 76 76
REMARK SMILES IDX 69 77 71 78 72 79 73 80 74 81 51 82 52 83 60 84 53 85 55 86
REMARK SMILES IDX 61 87 54 88 56 89 57 90 58 91 59 92
REMARK H PARENT 18 7 22 26 81 45 49 56
REMARK Flexibility Score: inf
ROOT
ATOM      1  C   UNL A   1      33.110  29.051  25.302  1.00  0.00     0.118 C 
ENDROOT
BRANCH   1   2
ATOM      2  C   UNL A   1      33.237  28.946  23.789  1.00  0.00     0.042 C 
BRANCH   2   3
ATOM      3  C   UNL A   1      32.102  28.141  23.173  1.00  0.00     0.118 C 
BRANCH   3   4
ATOM      4  N   UNL A   1      32.561  27.280  22.093  1.00  0.00    -0.352 N 
ATOM      5  C   UNL A   1      33.032  26.018  21.965  1.00  0.00     0.251 C 
ATOM      6  O   UNL A   1      33.278  25.660  20.808  1.00  0.00    -0.270 OA
ATOM      7  H   UNL A   1      32.516  27.738  21.223  1.00  0.00     0.163 HD
BRANCH   5   8
ATOM      8  C   UNL A   1      33.254  25.070  23.094  1.00  0.00     0.067 C 
ATOM      9  C   UNL A   1      33.263  22.624  27.590  1.00  0.00     0.048 C 
ATOM     10  C   UNL A   1      34.115  22.563  26.354  1.00  0.00    -0.007 A 
ATOM     11  C   UNL A   1      35.179  21.661  26.259  1.00  0.00     0.023 A 
ATOM     12  C   UNL A   1      33.869  23.428  25.280  1.00  0.00     0.130 A 
ATOM     13  C   UNL A   1      35.973  21.633  25.110  1.00  0.00     0.019 A 
ATOM     14  C   UNL A   1      34.668  23.409  24.131  1.00  0.00     0.019 A 
ATOM     15  O   UNL A   1      32.844  24.320  25.429  1.00  0.00    -0.475 OA
ATOM     16  Br  UNL A   1      37.409  20.406  24.999  1.00  0.00    -0.051 Br
ATOM     17  C   UNL A   1      35.727  22.504  24.048  1.00  0.00     0.027 A 
ATOM     18  C   UNL A   1      34.401  24.365  23.061  1.00  0.00     0.025 C 
ATOM     19  C   UNL A   1      32.274  24.854  24.209  1.00  0.00     0.314 C 
BRANCH  19  20
ATOM     20  C   UNL A   1      31.078  23.983  23.778  1.00  0.00     0.429 C 
ATOM     21  F   UNL A   1      30.651  23.212  24.809  1.00  0.00    -0.167 F 
ATOM     22  F   UNL A   1      30.011  24.719  23.382  1.00  0.00    -0.167 F 
ATOM     23  F   UNL A   1      31.376  23.154  22.751  1.00  0.00    -0.167 F 
ENDBRANCH  19  20
ENDBRANCH   5   8
ENDBRANCH   3   4
ENDBRANCH   2   3
ENDBRANCH   1   2
BRANCH   1  24
ATOM     24  N   UNL A   1      32.656  30.377  25.716  1.00  0.00    -0.352 N 
ATOM     25  C   UNL A   1      33.056  31.160  26.769  1.00  0.00     0.251 C 
ATOM     26  H   UNL A   1      31.952  30.771  25.150  1.00  0.00     0.163 HD
ATOM     27  O   UNL A   1      32.360  32.112  27.119  1.00  0.00    -0.269 OA
BRANCH  25  28
ATOM     28  C   UNL A   1      34.318  30.862  27.470  1.00  0.00     0.039 A 
ATOM     29  C   UNL A   1      35.274  31.867  27.627  1.00  0.00     0.014 A 
ATOM     30  C   UNL A   1      34.564  29.574  27.952  1.00  0.00     0.014 A 
ATOM     31  C   UNL A   1      36.453  31.592  28.324  1.00  0.00     0.010 A 
ATOM     32  C   UNL A   1      35.685  29.331  28.732  1.00  0.00     0.010 A 
ATOM     33  C   UNL A   1      36.651  30.330  28.906  1.00  0.00    -0.014 A 
BRANCH  33  34
ATOM     34  C   UNL A   1      37.874  30.016  29.683  1.00  0.00     0.031 A 
ATOM     35  C   UNL A   1      38.894  29.066  29.115  1.00  0.00     0.074 A 
ATOM     36  C   UNL A   1      38.023  30.520  30.923  1.00  0.00     0.049 A 
ATOM     37  N   UNL A   1      39.991  28.614  29.663  1.00  0.00    -0.248 NA
ATOM     38  C   UNL A   1      38.635  28.527  27.767  1.00  0.00     0.031 C 
ATOM     39  C   UNL A   1      37.063  31.393  31.602  1.00  0.00     0.029 A 
ATOM     40  N   UNL A   1      39.029  30.358  31.842  1.00  0.00    -0.354 N 
ATOM     41  C   UNL A   1      40.532  27.723  28.745  1.00  0.00     0.074 A 
ATOM     42  C   UNL A   1      39.622  27.655  27.627  1.00  0.00     0.031 C 
ATOM     43  C   UNL A   1      37.535  31.703  32.820  1.00  0.00     0.029 A 
ATOM     44  C   UNL A   1      38.811  31.026  33.023  1.00  0.00     0.049 A 
ATOM     45  H   UNL A   1      39.832  29.813  31.670  1.00  0.00     0.167 HD
ATOM     46  C   UNL A   1      41.706  27.052  28.810  1.00  0.00     0.034 A 
ATOM     47  C   UNL A   1      39.558  31.086  34.144  1.00  0.00     0.034 A 
ATOM     48  C   UNL A   1      42.630  27.169  29.903  1.00  0.00     0.049 A 
ATOM     49  C   UNL A   1      40.873  30.353  34.178  1.00  0.00     0.074 A 
ATOM     50  C   UNL A   1      43.881  26.595  30.031  1.00  0.00     0.029 A 
ATOM     51  N   UNL A   1      42.408  27.910  31.052  1.00  0.00    -0.354 N 
ATOM     52  N   UNL A   1      41.436  29.629  33.241  1.00  0.00    -0.248 NA
ATOM     53  C   UNL A   1      41.669  30.469  35.406  1.00  0.00     0.031 C 
ATOM     54  C   UNL A   1      44.406  26.968  31.270  1.00  0.00     0.029 A 
ATOM     55  C   UNL A   1      43.495  27.802  31.901  1.00  0.00     0.049 A 
ATOM     56  H   UNL A   1      41.598  28.437  31.237  1.00  0.00     0.167 HD
ATOM     57  C   UNL A   1      42.664  29.227  33.753  1.00  0.00     0.074 A 
ATOM     58  C   UNL A   1      42.774  29.811  35.075  1.00  0.00     0.031 C 
ATOM     59  C   UNL A   1      43.608  28.433  33.191  1.00  0.00     0.034 A 
BRANCH  46  60
ATOM     60  C   UNL A   1      42.097  26.192  27.637  1.00  0.00     0.023 A 
ATOM     61  C   UNL A   1      42.912  26.737  26.623  1.00  0.00     0.012 A 
ATOM     62  C   UNL A   1      41.742  24.830  27.582  1.00  0.00     0.148 A 
ATOM     63  C   UNL A   1      43.349  25.947  25.562  1.00  0.00     0.002 A 
ATOM     64  C   UNL A   1      42.223  24.037  26.547  1.00  0.00     0.091 A 
ATOM     65  F   UNL A   1      40.949  24.338  28.544  1.00  0.00    -0.205 F 
ATOM     66  C   UNL A   1      43.018  24.595  25.532  1.00  0.00     0.022 A 
BRANCH  64  67
ATOM     67  S   UNL A   1      41.930  22.266  26.460  1.00  0.00     0.127 S 
ATOM     68  O   UNL A   1      40.472  22.215  26.341  1.00  0.00    -0.237 OA
ATOM     69  O   UNL A   1      42.653  21.897  25.244  1.00  0.00    -0.237 OA
ATOM     70  O   UNL A   1      42.470  21.706  27.690  1.00  0.00    -0.744 OA
ENDBRANCH  64  67
ENDBRANCH  46  60
BRANCH  47  71
ATOM     71  C   UNL A   1      39.117  31.938  35.286  1.00  0.00     0.023 A 
ATOM     72  C   UNL A   1      38.231  31.402  36.240  1.00  0.00     0.012 A 
ATOM     73  C   UNL A   1      39.606  33.246  35.463  1.00  0.00     0.148 A 
ATOM     74  C   UNL A   1      37.817  32.162  37.335  1.00  0.00     0.002 A 
ATOM     75  C   UNL A   1      39.237  33.977  36.588  1.00  0.00     0.091 A 
ATOM     76  F   UNL A   1      40.440  33.743  34.539  1.00  0.00    -0.205 F 
ATOM     77  C   UNL A   1      38.329  33.444  37.516  1.00  0.00     0.022 A 
BRANCH  75  78
ATOM     78  S   UNL A   1      39.957  35.577  36.979  1.00  0.00     0.127 S 
ATOM     79  O   UNL A   1      39.277  35.914  38.226  1.00  0.00    -0.237 OA
ATOM     80  O   UNL A   1      41.375  35.243  37.119  1.00  0.00    -0.237 OA
ATOM     81  O   UNL A   1      39.653  36.434  35.841  1.00  0.00    -0.744 OA
ENDBRANCH  75  78
ENDBRANCH  47  71
BRANCH  59  82
ATOM     82  C   UNL A   1      44.857  28.147  33.983  1.00  0.00     0.023 A 
ATOM     83  C   UNL A   1      45.940  29.045  33.919  1.00  0.00     0.012 A 
ATOM     84  C   UNL A   1      44.907  27.063  34.882  1.00  0.00     0.148 A 
ATOM     85  C   UNL A   1      47.064  28.856  34.723  1.00  0.00     0.002 A 
ATOM     86  C   UNL A   1      46.007  26.913  35.718  1.00  0.00     0.091 A 
ATOM     87  F   UNL A   1      43.870  26.213  34.917  1.00  0.00    -0.205 F 
ATOM     88  C   UNL A   1      47.090  27.802  35.631  1.00  0.00     0.022 A 
BRANCH  86  89
ATOM     89  S   UNL A   1      46.083  25.655  36.998  1.00  0.00     0.127 S 
ATOM     90  O   UNL A   1      44.891  25.963  37.788  1.00  0.00    -0.237 OA
ATOM     91  O   UNL A   1      45.998  24.419  36.222  1.00  0.00    -0.237 OA
ATOM     92  O   UNL A   1      47.352  25.854  37.685  1.00  0.00    -0.744 OA
ENDBRANCH  86  89
ENDBRANCH  59  82
ENDBRANCH  33  34
ENDBRANCH  25  28
ENDBRANCH   1  24
TORSDOF 14
ENDMDL
MODEL 2
REMARK VINA RESULT:     -12.5      2.597      3.500
REMARK SMILES Cc1cc(Br)cc2c1O[C@H](C(F)(F)F)C(C(=O)NCCCNC(=O)c1ccc(-c3c4nc(c(-c5cccc(S(=O)(=O)[O-])c5F)c5ccc([nH]5)c(-c5cccc(S(=O)(=O)[O-])c5F)c5nc(c(-c6cccc(S(=O)(=O)[O-])c6F)c6ccc3[nH]6)C=C5)C=C4)cc1)=C2
REMARK SMILES IDX 21 1 20 2 19 3 18 4 16 5 17 6 15 8 1 9 2 10 3 11 8 12 4 13
REMARK SMILES IDX 7 14 9 15 5 16 6 17 88 18 10 19 11 20 12 21 13 22 14 23
REMARK SMILES IDX 22 24 23 25 24 27 25 28 26 29 87 30 27 31 86 32 28 33 29 34
REMARK SMILES IDX 30 35 80 36 31 37 85 38 79 39 81 40 32 41 84 42 78 43 77 44
REMARK SMILES IDX 33 46 65 47 45 48 64 49 46 50 49 51 63 52 82 53 47 54 48 55
REMARK SMILES IDX 62 57 83 58 50 59 34 60 35 61 43 62 36 63 38 64 44 65 37 66
REMARK SMILES IDX 39 67 40 68 41 69 42 70 66 71 67 72 75 73 68 74 70 75 76 76
REMARK SMILES IDX 69 77 71 78 72 79 73 80 74 81 51 82 52 83 60 84 53 85 55 86
REMARK SMILES IDX 61 87 54 88 56 89 57 90 58 91 59 92
REMARK H PARENT 18 7 22 26 81 45 49 56
REMARK Flexibility Score: inf
ROOT
ATOM      1  C   UNL A   1      32.875  32.661  27.187  1.00  0.00     0.118 C 
ENDROOT
BRANCH   1   2
ATOM      2  C   UNL A   1      31.558  31.979  26.846  1.00  0.00     0.042 C 
BRANCH   2   3
ATOM      3  C   UNL A   1      31.726  30.482  26.634  1.00  0.00     0.118 C 
BRANCH   3   4
ATOM      4  N   UNL A   1      32.401  30.176  25.381  1.00  0.00    -0.352 N 
ATOM      5  C   UNL A   1      32.690  29.071  24.656  1.00  0.00     0.251 C 
ATOM      6  O   UNL A   1      33.271  29.277  23.585  1.00  0.00    -0.270 OA
ATOM      7  H   UNL A   1      32.734  30.992  24.943  1.00  0.00     0.163 HD
BRANCH   5   8
ATOM      8  C   UNL A   1      32.355  27.674  25.056  1.00  0.00     0.067 C 
ATOM      9  C   UNL A   1      30.150  23.428  26.875  1.00  0.00     0.048 C 
ATOM     10  C   UNL A   1      31.542  23.792  26.444  1.00  0.00    -0.007 A 
ATOM     11  C   UNL A   1      32.573  22.847  26.470  1.00  0.00     0.023 A 
ATOM     12  C   UNL A   1      31.837  25.097  26.026  1.00  0.00     0.130 A 
ATOM     13  C   UNL A   1      33.865  23.210  26.085  1.00  0.00     0.019 A 
ATOM     14  C   UNL A   1      33.133  25.466  25.648  1.00  0.00     0.019 A 
ATOM     15  O   UNL A   1      30.810  25.999  26.052  1.00  0.00    -0.475 OA
ATOM     16  Br  UNL A   1      35.247  21.919  26.128  1.00  0.00    -0.051 Br
ATOM     17  C   UNL A   1      34.153  24.514  25.679  1.00  0.00     0.027 A 
ATOM     18  C   UNL A   1      33.398  26.850  25.269  1.00  0.00     0.025 C 
ATOM     19  C   UNL A   1      30.953  27.159  25.196  1.00  0.00     0.314 C 
BRANCH  19  20
ATOM     20  C   UNL A   1      30.294  26.874  23.832  1.00  0.00     0.429 C 
ATOM     21  F   UNL A   1      29.744  28.003  23.321  1.00  0.00    -0.167 F 
ATOM     22  F   UNL A   1      31.178  26.426  22.908  1.00  0.00    -0.167 F 
ATOM     23  F   UNL A   1      29.312  25.946  23.908  1.00  0.00    -0.167 F 
ENDBRANCH  19  20
ENDBRANCH   5   8
ENDBRANCH   3   4
ENDBRANCH   2   3
ENDBRANCH   1   2
BRANCH   1  24
ATOM     24  N   UNL A   1      32.671  34.041  27.627  1.00  0.00    -0.352 N 
ATOM     25  C   UNL A   1      33.152  34.696  28.731  1.00  0.00     0.251 C 
ATOM     26  H   UNL A   1      32.098  34.584  27.039  1.00  0.00     0.163 HD
ATOM     27  O   UNL A   1      32.641  35.759  29.080  1.00  0.00    -0.269 OA
BRANCH  25  28
ATOM     28  C   UNL A   1      34.282  34.129  29.491  1.00  0.00     0.039 A 
ATOM     29  C   UNL A   1      34.030  33.317  30.598  1.00  0.00     0.014 A 
ATOM     30  C   UNL A   1      35.595  34.424  29.117  1.00  0.00     0.014 A 
ATOM     31  C   UNL A   1      35.101  32.752  31.293  1.00  0.00     0.010 A 
ATOM     32  C   UNL A   1      36.652  33.780  29.743  1.00  0.00     0.010 A 
ATOM     33  C   UNL A   1      36.418  32.956  30.851  1.00  0.00    -0.014 A 
BRANCH  33  34
ATOM     34  C   UNL A   1      37.575  32.342  31.544  1.00  0.00     0.031 A 
ATOM     35  C   UNL A   1      38.324  31.212  30.889  1.00  0.00     0.074 A 
ATOM     36  C   UNL A   1      37.896  32.746  32.788  1.00  0.00     0.049 A 
ATOM     37  N   UNL A   1      39.315  30.503  31.358  1.00  0.00    -0.248 NA
ATOM     38  C   UNL A   1      37.882  30.804  29.543  1.00  0.00     0.031 C 
ATOM     39  C   UNL A   1      37.194  33.782  33.550  1.00  0.00     0.029 A 
ATOM     40  N   UNL A   1      38.884  32.322  33.641  1.00  0.00    -0.354 N 
ATOM     41  C   UNL A   1      39.594  29.553  30.383  1.00  0.00     0.074 A 
ATOM     42  C   UNL A   1      38.637  29.739  29.318  1.00  0.00     0.031 C 
ATOM     43  C   UNL A   1      37.784  33.925  34.746  1.00  0.00     0.029 A 
ATOM     44  C   UNL A   1      38.883  32.970  34.854  1.00  0.00     0.049 A 
ATOM     45  H   UNL A   1      39.532  31.618  33.407  1.00  0.00     0.167 HD
ATOM     46  C   UNL A   1      40.587  28.634  30.358  1.00  0.00     0.034 A 
ATOM     47  C   UNL A   1      39.679  32.813  35.930  1.00  0.00     0.034 A 
ATOM     48  C   UNL A   1      41.567  28.492  31.398  1.00  0.00     0.049 A 
ATOM     49  C   UNL A   1      40.793  31.802  35.864  1.00  0.00     0.074 A 
ATOM     50  C   UNL A   1      42.660  27.647  31.435  1.00  0.00     0.029 A 
ATOM     51  N   UNL A   1      41.576  29.214  32.580  1.00  0.00    -0.354 N 
ATOM     52  N   UNL A   1      41.130  31.011  34.874  1.00  0.00    -0.248 NA
ATOM     53  C   UNL A   1      41.655  31.683  37.047  1.00  0.00     0.031 C 
ATOM     54  C   UNL A   1      43.318  27.839  32.652  1.00  0.00     0.029 A 
ATOM     55  C   UNL A   1      42.652  28.828  33.361  1.00  0.00     0.049 A 
ATOM     56  H   UNL A   1      40.917  29.901  32.829  1.00  0.00     0.167 HD
ATOM     57  C   UNL A   1      42.259  30.322  35.301  1.00  0.00     0.074 A 
ATOM     58  C   UNL A   1      42.564  30.809  36.632  1.00  0.00     0.031 C 
ATOM     59  C   UNL A   1      42.969  29.361  34.661  1.00  0.00     0.034 A 
BRANCH  46  60
ATOM     60  C   UNL A   1      40.714  27.759  29.139  1.00  0.00     0.023 A 
ATOM     61  C   UNL A   1      39.877  26.631  29.007  1.00  0.00     0.012 A 
ATOM     62  C   UNL A   1      41.585  28.099  28.085  1.00  0.00     0.148 A 
ATOM     63  C   UNL A   1      39.922  25.843  27.859  1.00  0.00     0.002 A 
ATOM     64  C   UNL A   1      41.588  27.338  26.923  1.00  0.00     0.091 A 
ATOM     65  F   UNL A   1      42.387  29.163  28.239  1.00  0.00    -0.205 F 
ATOM     66  C   UNL A   1      40.765  26.205  26.812  1.00  0.00     0.022 A 
BRANCH  64  67
ATOM     67  S   UNL A   1      42.570  27.766  25.481  1.00  0.00     0.127 S 
ATOM     68  O   UNL A   1      42.382  26.586  24.636  1.00  0.00    -0.237 OA
ATOM     69  O   UNL A   1      41.897  28.972  25.001  1.00  0.00    -0.237 OA
ATOM     70  O   UNL A   1      43.928  27.971  25.963  1.00  0.00    -0.744 OA
ENDBRANCH  64  67
ENDBRANCH  46  60
BRANCH  47  71
ATOM     71  C   UNL A   1      39.500  33.691  37.122  1.00  0.00     0.023 A 
ATOM     72  C   UNL A   1      39.932  35.030  37.060  1.00  0.00     0.012 A 
ATOM     73  C   UNL A   1      38.860  33.230  38.289  1.00  0.00     0.148 A 
ATOM     74  C   UNL A   1      39.758  35.886  38.148  1.00  0.00     0.002 A 
ATOM     75  C   UNL A   1      38.635  34.105  39.346  1.00  0.00     0.091 A 
ATOM     76  F   UNL A   1      38.464  31.951  38.333  1.00  0.00    -0.205 F 
ATOM     77  C   UNL A   1      39.099  35.429  39.285  1.00  0.00     0.022 A 
BRANCH  75  78
ATOM     78  S   UNL A   1      37.669  33.646  40.791  1.00  0.00     0.127 S 
ATOM     79  O   UNL A   1      38.564  32.710  41.465  1.00  0.00    -0.237 OA
ATOM     80  O   UNL A   1      37.503  34.935  41.463  1.00  0.00    -0.237 OA
ATOM     81  O   UNL A   1      36.432  33.077  40.272  1.00  0.00    -0.744 OA
ENDBRANCH  75  78
ENDBRANCH  47  71
BRANCH  59  82
ATOM     82  C   UNL A   1      44.158  28.768  35.369  1.00  0.00     0.023 A 
ATOM     83  C   UNL A   1      45.425  29.366  35.220  1.00  0.00     0.012 A 
ATOM     84  C   UNL A   1      43.998  27.702  36.276  1.00  0.00     0.148 A 
ATOM     85  C   UNL A   1      46.518  28.899  35.947  1.00  0.00     0.002 A 
ATOM     86  C   UNL A   1      45.081  27.277  37.037  1.00  0.00     0.091 A 
ATOM     87  F   UNL A   1      42.787  27.139  36.393  1.00  0.00    -0.205 F 
ATOM     88  C   UNL A   1      46.344  27.868  36.865  1.00  0.00     0.022 A 
BRANCH  86  89
ATOM     89  S   UNL A   1      44.929  26.034  38.325  1.00  0.00     0.127 S 
ATOM     90  O   UNL A   1      46.319  25.875  38.750  1.00  0.00    -0.237 OA
ATOM     91  O   UNL A   1      44.066  26.702  39.299  1.00  0.00    -0.237 OA
ATOM     92  O   UNL A   1      44.336  24.865  37.690  1.00  0.00    -0.744 OA
ENDBRANCH  86  89
ENDBRANCH  59  82
ENDBRANCH  33  34
ENDBRANCH  25  28
ENDBRANCH   1  24
TORSDOF 14
ENDMDL
MODEL 3
REMARK VINA RESULT:     -12.5      5.225      9.774
REMARK SMILES Cc1cc(Br)cc2c1O[C@H](C(F)(F)F)C(C(=O)NCCCNC(=O)c1ccc(-c3c4nc(c(-c5cccc(S(=O)(=O)[O-])c5F)c5ccc([nH]5)c(-c5cccc(S(=O)(=O)[O-])c5F)c5nc(c(-c6cccc(S(=O)(=O)[O-])c6F)c6ccc3[nH]6)C=C5)C=C4)cc1)=C2
REMARK SMILES IDX 21 1 20 2 19 3 18 4 16 5 17 6 15 8 1 9 2 10 3 11 8 12 4 13
REMARK SMILES IDX 7 14 9 15 5 16 6 17 88 18 10 19 11 20 12 21 13 22 14 23
REMARK SMILES IDX 22 24 23 25 24 27 25 28 26 29 87 30 27 31 86 32 28 33 29 34
REMARK SMILES IDX 30 35 80 36 31 37 85 38 79 39 81 40 32 41 84 42 78 43 77 44
REMARK SMILES IDX 33 46 65 47 45 48 64 49 46 50 49 51 63 52 82 53 47 54 48 55
REMARK SMILES IDX 62 57 83 58 50 59 34 60 35 61 43 62 36 63 38 64 44 65 37 66
REMARK SMILES IDX 39 67 40 68 41 69 42 70 66 71 67 72 75 73 68 74 70 75 76 76
REMARK SMILES IDX 69 77 71 78 72 79 73 80 74 81 51 82 52 83 60 84 53 85 55 86
REMARK SMILES IDX 61 87 54 88 56 89 57 90 58 91 59 92
REMARK H PARENT 18 7 22 26 81 45 49 56
REMARK Flexibility Score: inf
ROOT
ATOM      1  C   UNL A   1      35.681  22.296  26.171  1.00  0.00     0.118 C 
ENDROOT
BRANCH   1   2
ATOM      2  C   UNL A   1      34.440  21.757  26.869  1.00  0.00     0.042 C 
BRANCH   2   3
ATOM      3  C   UNL A   1      33.235  21.713  25.941  1.00  0.00     0.118 C 
BRANCH   3   4
ATOM      4  N   UNL A   1      32.034  22.240  26.574  1.00  0.00    -0.352 N 
ATOM      5  C   UNL A   1      31.353  23.409  26.586  1.00  0.00     0.251 C 
ATOM      6  O   UNL A   1      30.317  23.411  27.261  1.00  0.00    -0.270 OA
ATOM      7  H   UNL A   1      31.602  21.565  27.145  1.00  0.00     0.163 HD
BRANCH   5   8
ATOM      8  C   UNL A   1      31.759  24.643  25.855  1.00  0.00     0.067 C 
ATOM      9  C   UNL A   1      33.850  28.060  22.669  1.00  0.00     0.048 C 
ATOM     10  C   UNL A   1      33.131  28.147  23.985  1.00  0.00    -0.007 A 
ATOM     11  C   UNL A   1      32.883  29.384  24.588  1.00  0.00     0.023 A 
ATOM     12  C   UNL A   1      32.712  26.983  24.643  1.00  0.00     0.130 A 
ATOM     13  C   UNL A   1      32.232  29.443  25.822  1.00  0.00     0.019 A 
ATOM     14  C   UNL A   1      32.067  27.038  25.883  1.00  0.00     0.019 A 
ATOM     15  O   UNL A   1      33.008  25.793  24.037  1.00  0.00    -0.475 OA
ATOM     16  Br  UNL A   1      31.906  31.126  26.623  1.00  0.00    -0.051 Br
ATOM     17  C   UNL A   1      31.826  28.279  26.475  1.00  0.00     0.027 A 
ATOM     18  C   UNL A   1      31.696  25.794  26.550  1.00  0.00     0.025 C 
ATOM     19  C   UNL A   1      32.192  24.658  24.418  1.00  0.00     0.314 C 
BRANCH  19  20
ATOM     20  C   UNL A   1      31.002  24.534  23.447  1.00  0.00     0.429 C 
ATOM     21  F   UNL A   1      31.298  25.102  22.252  1.00  0.00    -0.167 F 
ATOM     22  F   UNL A   1      30.672  23.246  23.186  1.00  0.00    -0.167 F 
ATOM     23  F   UNL A   1      29.881  25.133  23.911  1.00  0.00    -0.167 F 
ENDBRANCH  19  20
ENDBRANCH   5   8
ENDBRANCH   3   4
ENDBRANCH   2   3
ENDBRANCH   1   2
BRANCH   1  24
ATOM     24  N   UNL A   1      36.641  21.234  25.879  1.00  0.00    -0.352 N 
ATOM     25  C   UNL A   1      38.005  21.288  25.743  1.00  0.00     0.251 C 
ATOM     26  H   UNL A   1      36.248  20.339  25.761  1.00  0.00     0.163 HD
ATOM     27  O   UNL A   1      38.602  20.351  25.216  1.00  0.00    -0.269 OA
BRANCH  25  28
ATOM     28  C   UNL A   1      38.748  22.464  26.234  1.00  0.00     0.039 A 
ATOM     29  C   UNL A   1      39.854  22.282  27.067  1.00  0.00     0.014 A 
ATOM     30  C   UNL A   1      38.332  23.750  25.886  1.00  0.00     0.014 A 
ATOM     31  C   UNL A   1      40.577  23.395  27.501  1.00  0.00     0.010 A 
ATOM     32  C   UNL A   1      39.111  24.845  26.231  1.00  0.00     0.010 A 
ATOM     33  C   UNL A   1      40.228  24.680  27.060  1.00  0.00    -0.014 A 
BRANCH  33  34
ATOM     34  C   UNL A   1      40.996  25.879  27.472  1.00  0.00     0.031 A 
ATOM     35  C   UNL A   1      40.326  26.949  28.292  1.00  0.00     0.074 A 
ATOM     36  C   UNL A   1      42.262  26.039  27.042  1.00  0.00     0.049 A 
ATOM     37  N   UNL A   1      40.804  28.097  28.693  1.00  0.00    -0.248 NA
ATOM     38  C   UNL A   1      38.925  26.715  28.688  1.00  0.00     0.031 C 
ATOM     39  C   UNL A   1      42.988  25.101  26.182  1.00  0.00     0.029 A 
ATOM     40  N   UNL A   1      43.159  27.055  27.253  1.00  0.00    -0.354 N 
ATOM     41  C   UNL A   1      39.760  28.729  29.359  1.00  0.00     0.074 A 
ATOM     42  C   UNL A   1      38.608  27.864  29.265  1.00  0.00     0.031 C 
ATOM     43  C   UNL A   1      44.222  25.576  25.955  1.00  0.00     0.029 A 
ATOM     44  C   UNL A   1      44.367  26.866  26.622  1.00  0.00     0.049 A 
ATOM     45  H   UNL A   1      42.957  27.846  27.804  1.00  0.00     0.167 HD
ATOM     46  C   UNL A   1      39.773  29.906  30.026  1.00  0.00     0.034 A 
ATOM     47  C   UNL A   1      45.465  27.646  26.586  1.00  0.00     0.034 A 
ATOM     48  C   UNL A   1      40.940  30.733  30.159  1.00  0.00     0.049 A 
ATOM     49  C   UNL A   1      45.461  28.938  27.360  1.00  0.00     0.074 A 
ATOM     50  C   UNL A   1      41.081  31.904  30.879  1.00  0.00     0.029 A 
ATOM     51  N   UNL A   1      42.165  30.475  29.565  1.00  0.00    -0.354 N 
ATOM     52  N   UNL A   1      44.510  29.450  28.103  1.00  0.00    -0.248 NA
ATOM     53  C   UNL A   1      46.689  29.743  27.318  1.00  0.00     0.031 C 
ATOM     54  C   UNL A   1      42.386  32.370  30.700  1.00  0.00     0.029 A 
ATOM     55  C   UNL A   1      43.067  31.471  29.894  1.00  0.00     0.049 A 
ATOM     56  H   UNL A   1      42.365  29.698  28.995  1.00  0.00     0.167 HD
ATOM     57  C   UNL A   1      45.032  30.620  28.641  1.00  0.00     0.074 A 
ATOM     58  C   UNL A   1      46.395  30.728  28.158  1.00  0.00     0.031 C 
ATOM     59  C   UNL A   1      44.435  31.534  29.445  1.00  0.00     0.034 A 
BRANCH  46  60
ATOM     60  C   UNL A   1      38.513  30.338  30.728  1.00  0.00     0.023 A 
ATOM     61  C   UNL A   1      38.366  30.077  32.106  1.00  0.00     0.012 A 
ATOM     62  C   UNL A   1      37.521  31.078  30.055  1.00  0.00     0.148 A 
ATOM     63  C   UNL A   1      37.243  30.526  32.799  1.00  0.00     0.002 A 
ATOM     64  C   UNL A   1      36.429  31.565  30.763  1.00  0.00     0.091 A 
ATOM     65  F   UNL A   1      37.670  31.297  28.741  1.00  0.00    -0.205 F 
ATOM     66  C   UNL A   1      36.284  31.282  32.131  1.00  0.00     0.022 A 
BRANCH  64  67
ATOM     67  S   UNL A   1      35.181  32.624  30.022  1.00  0.00     0.127 S 
ATOM     68  O   UNL A   1      34.283  32.856  31.152  1.00  0.00    -0.237 OA
ATOM     69  O   UNL A   1      35.969  33.788  29.620  1.00  0.00    -0.237 OA
ATOM     70  O   UNL A   1      34.607  31.862  28.921  1.00  0.00    -0.744 OA
ENDBRANCH  64  67
ENDBRANCH  46  60
BRANCH  47  71
ATOM     71  C   UNL A   1      46.682  27.182  25.860  1.00  0.00     0.023 A 
ATOM     72  C   UNL A   1      47.513  26.215  26.458  1.00  0.00     0.012 A 
ATOM     73  C   UNL A   1      46.993  27.647  24.568  1.00  0.00     0.148 A 
ATOM     74  C   UNL A   1      48.646  25.741  25.797  1.00  0.00     0.002 A 
ATOM     75  C   UNL A   1      48.089  27.126  23.889  1.00  0.00     0.091 A 
ATOM     76  F   UNL A   1      46.197  28.575  24.018  1.00  0.00    -0.205 F 
ATOM     77  C   UNL A   1      48.927  26.186  24.508  1.00  0.00     0.022 A 
BRANCH  75  78
ATOM     78  S   UNL A   1      48.447  27.531  22.175  1.00  0.00     0.127 S 
ATOM     79  O   UNL A   1      48.752  26.218  21.613  1.00  0.00    -0.237 OA
ATOM     80  O   UNL A   1      47.178  28.111  21.732  1.00  0.00    -0.237 OA
ATOM     81  O   UNL A   1      49.555  28.475  22.216  1.00  0.00    -0.744 OA
ENDBRANCH  75  78
ENDBRANCH  47  71
BRANCH  59  82
ATOM     82  C   UNL A   1      45.240  32.731  29.877  1.00  0.00     0.023 A 
ATOM     83  C   UNL A   1      46.043  32.649  31.031  1.00  0.00     0.012 A 
ATOM     84  C   UNL A   1      45.298  33.887  29.074  1.00  0.00     0.148 A 
ATOM     85  C   UNL A   1      46.876  33.707  31.391  1.00  0.00     0.002 A 
ATOM     86  C   UNL A   1      46.170  34.916  29.409  1.00  0.00     0.091 A 
ATOM     87  F   UNL A   1      44.515  33.950  27.987  1.00  0.00    -0.205 F 
ATOM     88  C   UNL A   1      46.951  34.831  30.574  1.00  0.00     0.022 A 
BRANCH  86  89
ATOM     89  S   UNL A   1      46.421  36.352  28.360  1.00  0.00     0.127 S 
ATOM     90  O   UNL A   1      45.109  36.995  28.418  1.00  0.00    -0.237 OA
ATOM     91  O   UNL A   1      47.484  37.067  29.064  1.00  0.00    -0.237 OA
ATOM     92  O   UNL A   1      46.801  35.835  27.052  1.00  0.00    -0.744 OA
ENDBRANCH  86  89
ENDBRANCH  59  82
ENDBRANCH  33  34
ENDBRANCH  25  28
ENDBRANCH   1  24
TORSDOF 14
ENDMDL
