MODEL 1
REMARK VINA RESULT:     -12.5      0.000      0.000
REMARK SMILES O=C(COc1ccc(/C=N/NC(=O)c2cc3cc([N+](=O)[O-])ccc3o2)cc1)NCCCNC(=O)c1ccc(-c2c3nc(c(-c4cccc(S(=O)(=O)[O-])c4F)c4ccc([nH]4)c(-c4cccc(S(=O)(=O)[O-])c4F)c4nc(c(-c5cccc(S(=O)(=O)[O-])c5F)c5ccc2[nH]5)C=C4)C=C3)cc1
REMARK SMILES IDX 1 1 2 2 28 3 3 5 4 6 5 7 6 8 27 9 7 10 26 11 8 12 9 13 10 14
REMARK SMILES IDX 11 15 12 16 13 18 14 19 15 20 25 21 16 22 24 23 17 24 23 25
REMARK SMILES IDX 18 26 22 27 19 28 20 29 21 30 29 31 30 32 31 33 32 34 33 35
REMARK SMILES IDX 34 37 35 38 36 39 97 40 37 41 96 42 38 43 39 44 40 45 90 46
REMARK SMILES IDX 41 47 95 48 89 49 91 50 42 51 94 52 88 53 87 54 43 56 75 57
REMARK SMILES IDX 55 58 74 59 56 60 59 61 73 62 92 63 57 64 58 65 72 67 93 68
REMARK SMILES IDX 60 69 44 70 45 71 53 72 46 73 48 74 54 75 47 76 49 77 50 78
REMARK SMILES IDX 51 79 52 80 76 81 77 82 85 83 78 84 80 85 86 86 79 87 81 88
REMARK SMILES IDX 82 89 83 90 84 91 61 92 62 93 70 94 63 95 65 96 71 97 64 98
REMARK SMILES IDX 66 99 67 100 68 101 69 102
REMARK H PARENT 28 4 11 17 32 36 91 55 59 66
REMARK Flexibility Score: inf
ROOT
ATOM      1  O   UNL A   1      32.650  27.611  25.395  1.00  0.00    -0.271 OA
ATOM      2  C   UNL A   1      32.094  28.461  24.706  1.00  0.00     0.257 C 
ATOM      3  N   UNL A   1      31.924  29.775  25.091  1.00  0.00    -0.353 N 
ATOM      4  H   UNL A   1      31.640  30.436  24.419  1.00  0.00     0.163 HD
ENDROOT
BRANCH   2   5
ATOM      5  C   UNL A   1      31.457  28.125  23.356  1.00  0.00     0.329 C 
BRANCH   5   6
ATOM      6  O   UNL A   1      30.537  27.032  23.361  1.00  0.00    -0.484 OA
BRANCH   6   7
ATOM      7  C   UNL A   1      31.098  25.784  23.287  1.00  0.00     0.120 A 
ATOM      8  C   UNL A   1      32.095  25.617  22.327  1.00  0.00     0.047 A 
ATOM      9  C   UNL A   1      30.645  24.673  24.004  1.00  0.00     0.047 A 
ATOM     10  C   UNL A   1      32.636  24.351  22.089  1.00  0.00     0.013 A 
ATOM     11  C   UNL A   1      31.160  23.399  23.752  1.00  0.00     0.013 A 
ATOM     12  C   UNL A   1      32.154  23.239  22.791  1.00  0.00    -0.005 A 
BRANCH  12  13
ATOM     13  C   UNL A   1      32.592  21.870  22.439  1.00  0.00     0.141 C 
ATOM     14  N   UNL A   1      31.708  20.971  22.174  1.00  0.00    -0.180 NA
BRANCH  14  15
ATOM     15  N   UNL A   1      32.016  19.659  22.056  1.00  0.00    -0.240 N 
ATOM     16  C   UNL A   1      32.343  18.650  22.929  1.00  0.00     0.307 C 
ATOM     17  H   UNL A   1      32.001  19.354  21.120  1.00  0.00     0.194 HD
ATOM     18  O   UNL A   1      32.057  17.502  22.569  1.00  0.00    -0.264 OA
BRANCH  16  19
ATOM     19  C   UNL A   1      33.105  18.851  24.144  1.00  0.00     0.194 A 
ATOM     20  C   UNL A   1      34.481  18.802  24.327  1.00  0.00     0.065 A 
ATOM     21  O   UNL A   1      32.570  19.758  25.030  1.00  0.00    -0.451 OA
ATOM     22  C   UNL A   1      34.812  19.981  25.061  1.00  0.00     0.028 A 
ATOM     23  C   UNL A   1      33.602  20.523  25.475  1.00  0.00     0.135 A 
ATOM     24  C   UNL A   1      35.993  20.715  25.280  1.00  0.00     0.097 A 
ATOM     25  C   UNL A   1      33.464  21.748  26.124  1.00  0.00     0.055 A 
ATOM     26  C   UNL A   1      35.864  22.015  25.810  1.00  0.00     0.270 A 
ATOM     27  C   UNL A   1      34.627  22.518  26.244  1.00  0.00     0.089 A 
BRANCH  26  28
ATOM     28  N   UNL A   1      37.035  22.905  25.799  1.00  0.00     0.062 N 
ATOM     29  O   UNL A   1      38.122  22.432  26.154  1.00  0.00    -0.258 OA
ATOM     30  O   UNL A   1      36.867  24.070  25.409  1.00  0.00    -0.258 OA
ENDBRANCH  26  28
ENDBRANCH  16  19
ENDBRANCH  14  15
ENDBRANCH  12  13
ENDBRANCH   6   7
ENDBRANCH   5   6
ENDBRANCH   2   5
BRANCH   3  31
ATOM     31  C   UNL A   1      32.148  30.215  26.453  1.00  0.00     0.117 C 
BRANCH  31  32
ATOM     32  C   UNL A   1      31.831  31.683  26.674  1.00  0.00     0.042 C 
BRANCH  32  33
ATOM     33  C   UNL A   1      32.930  32.456  27.394  1.00  0.00     0.118 C 
BRANCH  33  34
ATOM     34  N   UNL A   1      32.565  33.835  27.700  1.00  0.00    -0.352 N 
ATOM     35  C   UNL A   1      33.084  34.701  28.634  1.00  0.00     0.251 C 
ATOM     36  H   UNL A   1      31.833  34.203  27.154  1.00  0.00     0.163 HD
ATOM     37  O   UNL A   1      32.541  35.791  28.816  1.00  0.00    -0.269 OA
BRANCH  35  38
ATOM     38  C   UNL A   1      34.265  34.319  29.438  1.00  0.00     0.039 A 
ATOM     39  C   UNL A   1      34.069  33.652  30.652  1.00  0.00     0.014 A 
ATOM     40  C   UNL A   1      35.559  34.597  28.996  1.00  0.00     0.014 A 
ATOM     41  C   UNL A   1      35.170  33.182  31.371  1.00  0.00     0.010 A 
ATOM     42  C   UNL A   1      36.652  34.063  29.674  1.00  0.00     0.010 A 
ATOM     43  C   UNL A   1      36.469  33.340  30.862  1.00  0.00    -0.014 A 
BRANCH  43  44
ATOM     44  C   UNL A   1      37.644  32.712  31.521  1.00  0.00     0.031 A 
ATOM     45  C   UNL A   1      38.342  31.540  30.886  1.00  0.00     0.074 A 
ATOM     46  C   UNL A   1      38.011  33.125  32.751  1.00  0.00     0.049 A 
ATOM     47  N   UNL A   1      39.318  30.809  31.358  1.00  0.00    -0.248 NA
ATOM     48  C   UNL A   1      37.863  31.119  29.559  1.00  0.00     0.031 C 
ATOM     49  C   UNL A   1      37.363  34.196  33.511  1.00  0.00     0.029 A 
ATOM     50  N   UNL A   1      38.994  32.670  33.595  1.00  0.00    -0.354 N 
ATOM     51  C   UNL A   1      39.548  29.821  30.408  1.00  0.00     0.074 A 
ATOM     52  C   UNL A   1      38.589  30.031  29.344  1.00  0.00     0.031 C 
ATOM     53  C   UNL A   1      37.961  34.314  34.707  1.00  0.00     0.029 A 
ATOM     54  C   UNL A   1      39.013  33.307  34.814  1.00  0.00     0.049 A 
ATOM     55  H   UNL A   1      39.625  31.955  33.351  1.00  0.00     0.167 HD
ATOM     56  C   UNL A   1      40.486  28.846  30.408  1.00  0.00     0.034 A 
ATOM     57  C   UNL A   1      39.779  33.098  35.903  1.00  0.00     0.034 A 
ATOM     58  C   UNL A   1      41.468  28.667  31.443  1.00  0.00     0.049 A 
ATOM     59  C   UNL A   1      40.836  32.029  35.861  1.00  0.00     0.074 A 
ATOM     60  C   UNL A   1      42.523  27.771  31.483  1.00  0.00     0.029 A 
ATOM     61  N   UNL A   1      41.513  29.389  32.626  1.00  0.00    -0.354 N 
ATOM     62  N   UNL A   1      41.148  31.216  34.882  1.00  0.00    -0.248 NA
ATOM     63  C   UNL A   1      41.669  31.869  37.063  1.00  0.00     0.031 C 
ATOM     64  C   UNL A   1      43.194  27.940  32.699  1.00  0.00     0.029 A 
ATOM     65  C   UNL A   1      42.569  28.952  33.408  1.00  0.00     0.049 A 
ATOM     66  H   UNL A   1      40.888  30.108  32.872  1.00  0.00     0.167 HD
ATOM     67  C   UNL A   1      42.229  30.467  35.337  1.00  0.00     0.074 A 
ATOM     68  C   UNL A   1      42.534  30.944  36.670  1.00  0.00     0.031 C 
ATOM     69  C   UNL A   1      42.895  29.466  34.714  1.00  0.00     0.034 A 
BRANCH  56  70
ATOM     70  C   UNL A   1      40.540  27.927  29.215  1.00  0.00     0.023 A 
ATOM     71  C   UNL A   1      39.632  26.853  29.128  1.00  0.00     0.012 A 
ATOM     72  C   UNL A   1      41.439  28.160  28.156  1.00  0.00     0.148 A 
ATOM     73  C   UNL A   1      39.636  26.005  28.022  1.00  0.00     0.002 A 
ATOM     74  C   UNL A   1      41.410  27.335  27.036  1.00  0.00     0.091 A 
ATOM     75  F   UNL A   1      42.310  29.173  28.265  1.00  0.00    -0.205 F 
ATOM     76  C   UNL A   1      40.517  26.252  26.973  1.00  0.00     0.022 A 
BRANCH  74  77
ATOM     77  S   UNL A   1      42.454  27.614  25.601  1.00  0.00     0.127 S 
ATOM     78  O   UNL A   1      43.786  27.622  26.204  1.00  0.00    -0.237 OA
ATOM     79  O   UNL A   1      42.165  26.440  24.776  1.00  0.00    -0.237 OA
ATOM     80  O   UNL A   1      42.017  28.879  25.029  1.00  0.00    -0.744 OA
ENDBRANCH  74  77
ENDBRANCH  56  70
BRANCH  57  81
ATOM     81  C   UNL A   1      39.613  33.962  37.105  1.00  0.00     0.023 A 
ATOM     82  C   UNL A   1      40.068  35.294  37.062  1.00  0.00     0.012 A 
ATOM     83  C   UNL A   1      38.984  33.488  38.273  1.00  0.00     0.148 A 
ATOM     84  C   UNL A   1      39.926  36.131  38.169  1.00  0.00     0.002 A 
ATOM     85  C   UNL A   1      38.795  34.344  39.352  1.00  0.00     0.091 A 
ATOM     86  F   UNL A   1      38.571  32.214  38.300  1.00  0.00    -0.205 F 
ATOM     87  C   UNL A   1      39.280  35.660  39.309  1.00  0.00     0.022 A 
BRANCH  85  88
ATOM     88  S   UNL A   1      37.858  33.862  40.808  1.00  0.00     0.127 S 
ATOM     89  O   UNL A   1      38.795  32.970  41.484  1.00  0.00    -0.237 OA
ATOM     90  O   UNL A   1      37.644  35.149  41.471  1.00  0.00    -0.237 OA
ATOM     91  O   UNL A   1      36.642  33.241  40.300  1.00  0.00    -0.744 OA
ENDBRANCH  85  88
ENDBRANCH  57  81
BRANCH  69  92
ATOM     92  C   UNL A   1      44.037  28.821  35.454  1.00  0.00     0.023 A 
ATOM     93  C   UNL A   1      45.346  29.316  35.283  1.00  0.00     0.012 A 
ATOM     94  C   UNL A   1      43.808  27.778  36.374  1.00  0.00     0.148 A 
ATOM     95  C   UNL A   1      46.411  28.763  35.992  1.00  0.00     0.002 A 
ATOM     96  C   UNL A   1      44.868  27.264  37.111  1.00  0.00     0.091 A 
ATOM     97  F   UNL A   1      42.559  27.308  36.509  1.00  0.00    -0.205 F 
ATOM     98  C   UNL A   1      46.171  27.748  36.914  1.00  0.00     0.022 A 
BRANCH  96  99
ATOM     99  S   UNL A   1      44.639  26.019  38.386  1.00  0.00     0.127 S 
ATOM    100  O   UNL A   1      44.005  24.937  37.635  1.00  0.00    -0.237 OA
ATOM    101  O   UNL A   1      46.014  25.745  38.805  1.00  0.00    -0.237 OA
ATOM    102  O   UNL A   1      43.809  26.641  39.409  1.00  0.00    -0.744 OA
ENDBRANCH  96  99
ENDBRANCH  69  92
ENDBRANCH  43  44
ENDBRANCH  35  38
ENDBRANCH  33  34
ENDBRANCH  32  33
ENDBRANCH  31  32
ENDBRANCH   3  31
TORSDOF 19
ENDMDL
MODEL 2
REMARK VINA RESULT:     -12.1      1.837      7.594
REMARK SMILES O=C(COc1ccc(/C=N/NC(=O)c2cc3cc([N+](=O)[O-])ccc3o2)cc1)NCCCNC(=O)c1ccc(-c2c3nc(c(-c4cccc(S(=O)(=O)[O-])c4F)c4ccc([nH]4)c(-c4cccc(S(=O)(=O)[O-])c4F)c4nc(c(-c5cccc(S(=O)(=O)[O-])c5F)c5ccc2[nH]5)C=C4)C=C3)cc1
REMARK SMILES IDX 1 1 2 2 28 3 3 5 4 6 5 7 6 8 27 9 7 10 26 11 8 12 9 13 10 14
REMARK SMILES IDX 11 15 12 16 13 18 14 19 15 20 25 21 16 22 24 23 17 24 23 25
REMARK SMILES IDX 18 26 22 27 19 28 20 29 21 30 29 31 30 32 31 33 32 34 33 35
REMARK SMILES IDX 34 37 35 38 36 39 97 40 37 41 96 42 38 43 39 44 40 45 90 46
REMARK SMILES IDX 41 47 95 48 89 49 91 50 42 51 94 52 88 53 87 54 43 56 75 57
REMARK SMILES IDX 55 58 74 59 56 60 59 61 73 62 92 63 57 64 58 65 72 67 93 68
REMARK SMILES IDX 60 69 44 70 45 71 53 72 46 73 48 74 54 75 47 76 49 77 50 78
REMARK SMILES IDX 51 79 52 80 76 81 77 82 85 83 78 84 80 85 86 86 79 87 81 88
REMARK SMILES IDX 82 89 83 90 84 91 61 92 62 93 70 94 63 95 65 96 71 97 64 98
REMARK SMILES IDX 66 99 67 100 68 101 69 102
REMARK H PARENT 28 4 11 17 32 36 91 55 59 66
REMARK Flexibility Score: inf
ROOT
ATOM      1  O   UNL A   1      31.246  27.874  25.461  1.00  0.00    -0.271 OA
ATOM      2  C   UNL A   1      31.803  28.491  24.559  1.00  0.00     0.257 C 
ATOM      3  N   UNL A   1      32.723  29.498  24.767  1.00  0.00    -0.353 N 
ATOM      4  H   UNL A   1      33.262  29.816  24.007  1.00  0.00     0.163 HD
ENDROOT
BRANCH   2   5
ATOM      5  C   UNL A   1      31.475  28.249  23.084  1.00  0.00     0.329 C 
BRANCH   5   6
ATOM      6  O   UNL A   1      30.551  27.192  22.822  1.00  0.00    -0.484 OA
BRANCH   6   7
ATOM      7  C   UNL A   1      31.076  25.926  22.847  1.00  0.00     0.120 A 
ATOM      8  C   UNL A   1      32.190  25.710  22.037  1.00  0.00     0.047 A 
ATOM      9  C   UNL A   1      30.491  24.843  23.510  1.00  0.00     0.047 A 
ATOM     10  C   UNL A   1      32.718  24.424  21.897  1.00  0.00     0.013 A 
ATOM     11  C   UNL A   1      30.995  23.550  23.352  1.00  0.00     0.013 A 
ATOM     12  C   UNL A   1      32.107  23.341  22.542  1.00  0.00    -0.005 A 
BRANCH  12  13
ATOM     13  C   UNL A   1      32.545  21.953  22.276  1.00  0.00     0.141 C 
ATOM     14  N   UNL A   1      31.663  21.018  22.182  1.00  0.00    -0.180 NA
BRANCH  14  15
ATOM     15  N   UNL A   1      31.992  19.706  22.155  1.00  0.00    -0.240 N 
ATOM     16  C   UNL A   1      32.309  18.759  23.099  1.00  0.00     0.307 C 
ATOM     17  H   UNL A   1      32.007  19.342  21.240  1.00  0.00     0.194 HD
ATOM     18  O   UNL A   1      32.049  17.586  22.805  1.00  0.00    -0.264 OA
BRANCH  16  19
ATOM     19  C   UNL A   1      33.035  19.048  24.318  1.00  0.00     0.194 A 
ATOM     20  C   UNL A   1      34.401  19.221  24.498  1.00  0.00     0.065 A 
ATOM     21  O   UNL A   1      32.364  19.828  25.231  1.00  0.00    -0.451 OA
ATOM     22  C   UNL A   1      34.538  20.418  25.266  1.00  0.00     0.028 A 
ATOM     23  C   UNL A   1      33.257  20.740  25.697  1.00  0.00     0.135 A 
ATOM     24  C   UNL A   1      35.583  21.330  25.505  1.00  0.00     0.097 A 
ATOM     25  C   UNL A   1      32.923  21.906  26.383  1.00  0.00     0.055 A 
ATOM     26  C   UNL A   1      35.244  22.575  26.074  1.00  0.00     0.270 A 
ATOM     27  C   UNL A   1      33.943  22.854  26.524  1.00  0.00     0.089 A 
BRANCH  26  28
ATOM     28  N   UNL A   1      36.252  23.647  26.087  1.00  0.00     0.062 N 
ATOM     29  O   UNL A   1      37.388  23.364  26.488  1.00  0.00    -0.258 OA
ATOM     30  O   UNL A   1      35.909  24.763  25.671  1.00  0.00    -0.258 OA
ENDBRANCH  26  28
ENDBRANCH  16  19
ENDBRANCH  14  15
ENDBRANCH  12  13
ENDBRANCH   6   7
ENDBRANCH   5   6
ENDBRANCH   2   5
BRANCH   3  31
ATOM     31  C   UNL A   1      32.922  30.105  26.067  1.00  0.00     0.117 C 
BRANCH  31  32
ATOM     32  C   UNL A   1      32.090  31.357  26.284  1.00  0.00     0.042 C 
BRANCH  32  33
ATOM     33  C   UNL A   1      32.301  32.017  27.642  1.00  0.00     0.118 C 
BRANCH  33  34
ATOM     34  N   UNL A   1      32.778  33.393  27.552  1.00  0.00    -0.352 N 
ATOM     35  C   UNL A   1      33.992  33.933  27.905  1.00  0.00     0.251 C 
ATOM     36  H   UNL A   1      32.130  34.034  27.181  1.00  0.00     0.163 HD
ATOM     37  O   UNL A   1      34.146  35.153  27.864  1.00  0.00    -0.269 OA
BRANCH  35  38
ATOM     38  C   UNL A   1      35.096  33.062  28.363  1.00  0.00     0.039 A 
ATOM     39  C   UNL A   1      36.415  33.487  28.173  1.00  0.00     0.014 A 
ATOM     40  C   UNL A   1      34.840  31.842  28.989  1.00  0.00     0.014 A 
ATOM     41  C   UNL A   1      37.469  32.735  28.697  1.00  0.00     0.010 A 
ATOM     42  C   UNL A   1      35.885  31.132  29.577  1.00  0.00     0.010 A 
ATOM     43  C   UNL A   1      37.209  31.577  29.447  1.00  0.00    -0.014 A 
BRANCH  43  44
ATOM     44  C   UNL A   1      38.295  30.846  30.152  1.00  0.00     0.031 A 
ATOM     45  C   UNL A   1      38.682  31.218  31.557  1.00  0.00     0.074 A 
ATOM     46  C   UNL A   1      39.013  29.922  29.481  1.00  0.00     0.049 A 
ATOM     47  N   UNL A   1      39.661  30.758  32.291  1.00  0.00    -0.248 NA
ATOM     48  C   UNL A   1      37.878  32.262  32.214  1.00  0.00     0.031 C 
ATOM     49  C   UNL A   1      38.793  29.529  28.087  1.00  0.00     0.029 A 
ATOM     50  N   UNL A   1      40.096  29.172  29.868  1.00  0.00    -0.354 N 
ATOM     51  C   UNL A   1      39.618  31.478  33.479  1.00  0.00     0.074 A 
ATOM     52  C   UNL A   1      38.530  32.425  33.356  1.00  0.00     0.031 C 
ATOM     53  C   UNL A   1      39.712  28.616  27.735  1.00  0.00     0.029 A 
ATOM     54  C   UNL A   1      40.606  28.381  28.865  1.00  0.00     0.049 A 
ATOM     55  H   UNL A   1      40.472  29.199  30.777  1.00  0.00     0.167 HD
ATOM     56  C   UNL A   1      40.393  31.344  34.580  1.00  0.00     0.034 A 
ATOM     57  C   UNL A   1      41.681  27.568  28.848  1.00  0.00     0.034 A 
ATOM     58  C   UNL A   1      41.443  30.372  34.718  1.00  0.00     0.049 A 
ATOM     59  C   UNL A   1      42.505  27.415  30.097  1.00  0.00     0.074 A 
ATOM     60  C   UNL A   1      42.217  30.093  35.832  1.00  0.00     0.029 A 
ATOM     61  N   UNL A   1      41.876  29.524  33.710  1.00  0.00    -0.354 N 
ATOM     62  N   UNL A   1      42.341  27.982  31.267  1.00  0.00    -0.248 NA
ATOM     63  C   UNL A   1      43.643  26.487  30.034  1.00  0.00     0.031 C 
ATOM     64  C   UNL A   1      43.129  29.089  35.490  1.00  0.00     0.029 A 
ATOM     65  C   UNL A   1      42.913  28.731  34.170  1.00  0.00     0.049 A 
ATOM     66  H   UNL A   1      41.500  29.490  32.801  1.00  0.00     0.167 HD
ATOM     67  C   UNL A   1      43.335  27.460  32.087  1.00  0.00     0.074 A 
ATOM     68  C   UNL A   1      44.080  26.510  31.286  1.00  0.00     0.031 C 
ATOM     69  C   UNL A   1      43.617  27.753  33.380  1.00  0.00     0.034 A 
BRANCH  56  70
ATOM     70  C   UNL A   1      40.095  32.236  35.757  1.00  0.00     0.023 A 
ATOM     71  C   UNL A   1      40.826  33.429  35.924  1.00  0.00     0.012 A 
ATOM     72  C   UNL A   1      39.056  31.930  36.658  1.00  0.00     0.148 A 
ATOM     73  C   UNL A   1      40.552  34.290  36.985  1.00  0.00     0.002 A 
ATOM     74  C   UNL A   1      38.760  32.814  37.691  1.00  0.00     0.091 A 
ATOM     75  F   UNL A   1      38.385  30.781  36.497  1.00  0.00    -0.205 F 
ATOM     76  C   UNL A   1      39.513  33.988  37.861  1.00  0.00     0.022 A 
BRANCH  74  77
ATOM     77  S   UNL A   1      37.394  32.551  38.828  1.00  0.00     0.127 S 
ATOM     78  O   UNL A   1      37.652  33.574  39.840  1.00  0.00    -0.237 OA
ATOM     79  O   UNL A   1      36.231  32.813  37.979  1.00  0.00    -0.237 OA
ATOM     80  O   UNL A   1      37.513  31.173  39.285  1.00  0.00    -0.744 OA
ENDBRANCH  74  77
ENDBRANCH  56  70
BRANCH  57  81
ATOM     81  C   UNL A   1      42.003  26.788  27.620  1.00  0.00     0.023 A 
ATOM     82  C   UNL A   1      42.550  27.455  26.507  1.00  0.00     0.012 A 
ATOM     83  C   UNL A   1      41.803  25.396  27.557  1.00  0.00     0.148 A 
ATOM     84  C   UNL A   1      42.866  26.754  25.342  1.00  0.00     0.002 A 
ATOM     85  C   UNL A   1      42.171  24.695  26.414  1.00  0.00     0.091 A 
ATOM     86  F   UNL A   1      41.268  24.782  28.621  1.00  0.00    -0.205 F 
ATOM     87  C   UNL A   1      42.687  25.374  25.300  1.00  0.00     0.022 A 
BRANCH  85  88
ATOM     88  S   UNL A   1      42.099  22.902  26.321  1.00  0.00     0.127 S 
ATOM     89  O   UNL A   1      40.664  22.655  26.414  1.00  0.00    -0.237 OA
ATOM     90  O   UNL A   1      42.686  22.643  25.006  1.00  0.00    -0.237 OA
ATOM     91  O   UNL A   1      42.901  22.421  27.438  1.00  0.00    -0.744 OA
ENDBRANCH  85  88
ENDBRANCH  57  81
BRANCH  69  92
ATOM     92  C   UNL A   1      44.769  27.029  34.025  1.00  0.00     0.023 A 
ATOM     93  C   UNL A   1      46.080  27.519  33.857  1.00  0.00     0.012 A 
ATOM     94  C   UNL A   1      44.550  25.913  34.857  1.00  0.00     0.148 A 
ATOM     95  C   UNL A   1      47.157  26.891  34.482  1.00  0.00     0.002 A 
ATOM     96  C   UNL A   1      45.623  25.321  35.513  1.00  0.00     0.091 A 
ATOM     97  F   UNL A   1      43.298  25.450  34.989  1.00  0.00    -0.205 F 
ATOM     98  C   UNL A   1      46.927  25.802  35.318  1.00  0.00     0.022 A 
BRANCH  96  99
ATOM     99  S   UNL A   1      45.410  23.971  36.680  1.00  0.00     0.127 S 
ATOM    100  O   UNL A   1      44.818  22.937  35.834  1.00  0.00    -0.237 OA
ATOM    101  O   UNL A   1      46.786  23.703  37.099  1.00  0.00    -0.237 OA
ATOM    102  O   UNL A   1      44.548  24.487  37.735  1.00  0.00    -0.744 OA
ENDBRANCH  96  99
ENDBRANCH  69  92
ENDBRANCH  43  44
ENDBRANCH  35  38
ENDBRANCH  33  34
ENDBRANCH  32  33
ENDBRANCH  31  32
ENDBRANCH   3  31
TORSDOF 19
ENDMDL
MODEL 3
REMARK VINA RESULT:     -12.0      5.321     11.377
REMARK SMILES O=C(COc1ccc(/C=N/NC(=O)c2cc3cc([N+](=O)[O-])ccc3o2)cc1)NCCCNC(=O)c1ccc(-c2c3nc(c(-c4cccc(S(=O)(=O)[O-])c4F)c4ccc([nH]4)c(-c4cccc(S(=O)(=O)[O-])c4F)c4nc(c(-c5cccc(S(=O)(=O)[O-])c5F)c5ccc2[nH]5)C=C4)C=C3)cc1
REMARK SMILES IDX 1 1 2 2 28 3 3 5 4 6 5 7 6 8 27 9 7 10 26 11 8 12 9 13 10 14
REMARK SMILES IDX 11 15 12 16 13 18 14 19 15 20 25 21 16 22 24 23 17 24 23 25
REMARK SMILES IDX 18 26 22 27 19 28 20 29 21 30 29 31 30 32 31 33 32 34 33 35
REMARK SMILES IDX 34 37 35 38 36 39 97 40 37 41 96 42 38 43 39 44 40 45 90 46
REMARK SMILES IDX 41 47 95 48 89 49 91 50 42 51 94 52 88 53 87 54 43 56 75 57
REMARK SMILES IDX 55 58 74 59 56 60 59 61 73 62 92 63 57 64 58 65 72 67 93 68
REMARK SMILES IDX 60 69 44 70 45 71 53 72 46 73 48 74 54 75 47 76 49 77 50 78
REMARK SMILES IDX 51 79 52 80 76 81 77 82 85 83 78 84 80 85 86 86 79 87 81 88
REMARK SMILES IDX 82 89 83 90 84 91 61 92 62 93 70 94 63 95 65 96 71 97 64 98
REMARK SMILES IDX 66 99 67 100 68 101 69 102
REMARK H PARENT 28 4 11 17 32 36 91 55 59 66
REMARK Flexibility Score: inf
ROOT
ATOM      1  O   UNL A   1      44.471  20.186  24.993  1.00  0.00    -0.271 OA
ATOM      2  C   UNL A   1      44.079  21.149  25.645  1.00  0.00     0.257 C 
ATOM      3  N   UNL A   1      43.046  21.092  26.558  1.00  0.00    -0.353 N 
ATOM      4  H   UNL A   1      42.911  21.849  27.173  1.00  0.00     0.163 HD
ENDROOT
BRANCH   2   5
ATOM      5  C   UNL A   1      44.659  22.552  25.455  1.00  0.00     0.329 C 
BRANCH   5   6
ATOM      6  O   UNL A   1      43.728  23.628  25.583  1.00  0.00    -0.484 OA
BRANCH   6   7
ATOM      7  C   UNL A   1      44.275  24.858  25.840  1.00  0.00     0.120 A 
ATOM      8  C   UNL A   1      43.655  25.944  25.223  1.00  0.00     0.047 A 
ATOM      9  C   UNL A   1      45.462  25.060  26.550  1.00  0.00     0.047 A 
ATOM     10  C   UNL A   1      44.214  27.221  25.322  1.00  0.00     0.013 A 
ATOM     11  C   UNL A   1      46.042  26.328  26.629  1.00  0.00     0.013 A 
ATOM     12  C   UNL A   1      45.419  27.408  26.011  1.00  0.00    -0.005 A 
BRANCH  12  13
ATOM     13  C   UNL A   1      46.113  28.714  25.986  1.00  0.00     0.141 C 
ATOM     14  N   UNL A   1      45.419  29.799  25.950  1.00  0.00    -0.180 NA
BRANCH  14  15
ATOM     15  N   UNL A   1      45.971  31.010  25.711  1.00  0.00    -0.240 N 
ATOM     16  C   UNL A   1      45.934  32.239  26.326  1.00  0.00     0.307 C 
ATOM     17  H   UNL A   1      46.534  31.013  24.904  1.00  0.00     0.194 HD
ATOM     18  O   UNL A   1      46.926  32.961  26.163  1.00  0.00    -0.264 OA
BRANCH  16  19
ATOM     19  C   UNL A   1      44.774  32.761  27.015  1.00  0.00     0.194 A 
ATOM     20  C   UNL A   1      44.689  33.304  28.291  1.00  0.00     0.065 A 
ATOM     21  O   UNL A   1      43.836  33.366  26.211  1.00  0.00    -0.451 OA
ATOM     22  C   UNL A   1      43.959  34.522  28.141  1.00  0.00     0.028 A 
ATOM     23  C   UNL A   1      43.450  34.503  26.848  1.00  0.00     0.135 A 
ATOM     24  C   UNL A   1      43.811  35.692  28.910  1.00  0.00     0.097 A 
ATOM     25  C   UNL A   1      42.771  35.562  26.250  1.00  0.00     0.055 A 
ATOM     26  C   UNL A   1      43.249  36.820  28.279  1.00  0.00     0.270 A 
ATOM     27  C   UNL A   1      42.719  36.755  26.980  1.00  0.00     0.089 A 
BRANCH  26  28
ATOM     28  N   UNL A   1      43.327  38.124  28.956  1.00  0.00     0.062 N 
ATOM     29  O   UNL A   1      44.138  38.244  29.884  1.00  0.00    -0.258 OA
ATOM     30  O   UNL A   1      42.593  39.032  28.540  1.00  0.00    -0.258 OA
ENDBRANCH  26  28
ENDBRANCH  16  19
ENDBRANCH  14  15
ENDBRANCH  12  13
ENDBRANCH   6   7
ENDBRANCH   5   6
ENDBRANCH   2   5
BRANCH   3  31
ATOM     31  C   UNL A   1      42.151  19.956  26.642  1.00  0.00     0.117 C 
BRANCH  31  32
ATOM     32  C   UNL A   1      40.686  20.327  26.502  1.00  0.00     0.042 C 
BRANCH  32  33
ATOM     33  C   UNL A   1      40.381  21.787  26.815  1.00  0.00     0.118 C 
BRANCH  33  34
ATOM     34  N   UNL A   1      39.208  22.299  26.113  1.00  0.00    -0.352 N 
ATOM     35  C   UNL A   1      38.630  23.547  26.149  1.00  0.00     0.251 C 
ATOM     36  H   UNL A   1      38.761  21.651  25.522  1.00  0.00     0.163 HD
ATOM     37  O   UNL A   1      37.560  23.734  25.572  1.00  0.00    -0.269 OA
BRANCH  35  38
ATOM     38  C   UNL A   1      39.268  24.648  26.901  1.00  0.00     0.039 A 
ATOM     39  C   UNL A   1      40.064  25.567  26.209  1.00  0.00     0.014 A 
ATOM     40  C   UNL A   1      39.076  24.789  28.276  1.00  0.00     0.014 A 
ATOM     41  C   UNL A   1      40.584  26.677  26.878  1.00  0.00     0.010 A 
ATOM     42  C   UNL A   1      39.530  25.935  28.925  1.00  0.00     0.010 A 
ATOM     43  C   UNL A   1      40.279  26.897  28.231  1.00  0.00    -0.014 A 
BRANCH  43  44
ATOM     44  C   UNL A   1      40.681  28.148  28.926  1.00  0.00     0.031 A 
ATOM     45  C   UNL A   1      42.114  28.379  29.318  1.00  0.00     0.074 A 
ATOM     46  C   UNL A   1      39.731  29.025  29.309  1.00  0.00     0.049 A 
ATOM     47  N   UNL A   1      42.631  29.361  30.009  1.00  0.00    -0.248 NA
ATOM     48  C   UNL A   1      43.091  27.359  28.900  1.00  0.00     0.031 C 
ATOM     49  C   UNL A   1      38.295  28.878  29.064  1.00  0.00     0.029 A 
ATOM     50  N   UNL A   1      39.826  30.198  30.017  1.00  0.00    -0.354 N 
ATOM     51  C   UNL A   1      43.982  29.063  30.143  1.00  0.00     0.074 A 
ATOM     52  C   UNL A   1      44.200  27.793  29.482  1.00  0.00     0.031 C 
ATOM     53  C   UNL A   1      37.644  29.915  29.614  1.00  0.00     0.029 A 
ATOM     54  C   UNL A   1      38.609  30.784  30.279  1.00  0.00     0.049 A 
ATOM     55  H   UNL A   1      40.683  30.583  30.311  1.00  0.00     0.167 HD
ATOM     56  C   UNL A   1      44.957  29.791  30.735  1.00  0.00     0.034 A 
ATOM     57  C   UNL A   1      38.301  31.889  30.986  1.00  0.00     0.034 A 
ATOM     58  C   UNL A   1      44.749  31.074  31.350  1.00  0.00     0.049 A 
ATOM     59  C   UNL A   1      39.408  32.696  31.606  1.00  0.00     0.074 A 
ATOM     60  C   UNL A   1      45.691  31.934  31.888  1.00  0.00     0.029 A 
ATOM     61  N   UNL A   1      43.513  31.680  31.520  1.00  0.00    -0.354 N 
ATOM     62  N   UNL A   1      40.700  32.484  31.574  1.00  0.00    -0.248 NA
ATOM     63  C   UNL A   1      39.017  33.913  32.335  1.00  0.00     0.031 C 
ATOM     64  C   UNL A   1      45.022  33.052  32.399  1.00  0.00     0.029 A 
ATOM     65  C   UNL A   1      43.666  32.896  32.165  1.00  0.00     0.049 A 
ATOM     66  H   UNL A   1      42.654  31.303  31.224  1.00  0.00     0.167 HD
ATOM     67  C   UNL A   1      41.280  33.552  32.250  1.00  0.00     0.074 A 
ATOM     68  C   UNL A   1      40.197  34.424  32.658  1.00  0.00     0.031 C 
ATOM     69  C   UNL A   1      42.587  33.781  32.524  1.00  0.00     0.034 A 
BRANCH  56  70
ATOM     70  C   UNL A   1      46.360  29.246  30.694  1.00  0.00     0.023 A 
ATOM     71  C   UNL A   1      46.773  28.323  31.677  1.00  0.00     0.012 A 
ATOM     72  C   UNL A   1      47.248  29.593  29.656  1.00  0.00     0.148 A 
ATOM     73  C   UNL A   1      48.055  27.777  31.647  1.00  0.00     0.002 A 
ATOM     74  C   UNL A   1      48.511  29.012  29.609  1.00  0.00     0.091 A 
ATOM     75  F   UNL A   1      46.846  30.487  28.742  1.00  0.00    -0.205 F 
ATOM     76  C   UNL A   1      48.919  28.113  30.608  1.00  0.00     0.022 A 
BRANCH  74  77
ATOM     77  S   UNL A   1      49.669  29.325  28.272  1.00  0.00     0.127 S 
ATOM     78  O   UNL A   1      50.949  29.030  28.917  1.00  0.00    -0.237 OA
ATOM     79  O   UNL A   1      49.253  28.345  27.268  1.00  0.00    -0.237 OA
ATOM     80  O   UNL A   1      49.468  30.714  27.884  1.00  0.00    -0.744 OA
ENDBRANCH  74  77
ENDBRANCH  56  70
BRANCH  57  81
ATOM     81  C   UNL A   1      36.881  32.330  31.094  1.00  0.00     0.023 A 
ATOM     82  C   UNL A   1      36.217  32.212  32.330  1.00  0.00     0.012 A 
ATOM     83  C   UNL A   1      36.198  32.889  29.997  1.00  0.00     0.148 A 
ATOM     84  C   UNL A   1      34.889  32.618  32.466  1.00  0.00     0.002 A 
ATOM     85  C   UNL A   1      34.893  33.342  30.153  1.00  0.00     0.091 A 
ATOM     86  F   UNL A   1      36.842  32.979  28.825  1.00  0.00    -0.205 F 
ATOM     87  C   UNL A   1      34.231  33.193  31.381  1.00  0.00     0.022 A 
BRANCH  85  88
ATOM     88  S   UNL A   1      34.016  34.214  28.849  1.00  0.00     0.127 S 
ATOM     89  O   UNL A   1      34.969  35.261  28.495  1.00  0.00    -0.237 OA
ATOM     90  O   UNL A   1      33.849  33.165  27.842  1.00  0.00    -0.237 OA
ATOM     91  O   UNL A   1      32.769  34.667  29.452  1.00  0.00    -0.744 OA
ENDBRANCH  85  88
ENDBRANCH  57  81
BRANCH  69  92
ATOM     92  C   UNL A   1      42.932  35.032  33.288  1.00  0.00     0.023 A 
ATOM     93  C   UNL A   1      43.222  36.218  32.585  1.00  0.00     0.012 A 
ATOM     94  C   UNL A   1      42.896  35.054  34.696  1.00  0.00     0.148 A 
ATOM     95  C   UNL A   1      43.501  37.399  33.272  1.00  0.00     0.002 A 
ATOM     96  C   UNL A   1      43.130  36.246  35.373  1.00  0.00     0.091 A 
ATOM     97  F   UNL A   1      42.637  33.910  35.347  1.00  0.00    -0.205 F 
ATOM     98  C   UNL A   1      43.442  37.416  34.663  1.00  0.00     0.022 A 
BRANCH  96  99
ATOM     99  S   UNL A   1      42.985  36.382  37.159  1.00  0.00     0.127 S 
ATOM    100  O   UNL A   1      43.942  35.374  37.612  1.00  0.00    -0.237 OA
ATOM    101  O   UNL A   1      43.397  37.765  37.399  1.00  0.00    -0.237 OA
ATOM    102  O   UNL A   1      41.589  36.105  37.469  1.00  0.00    -0.744 OA
ENDBRANCH  96  99
ENDBRANCH  69  92
ENDBRANCH  43  44
ENDBRANCH  35  38
ENDBRANCH  33  34
ENDBRANCH  32  33
ENDBRANCH  31  32
ENDBRANCH   3  31
TORSDOF 19
ENDMDL
