MODEL 1
REMARK VINA RESULT:     -12.9      0.000      0.000
REMARK SMILES Cc1cc(C)c2c(c1)C=C(C(=O)NCCCNC(=O)c1ccc(-c3c4nc(c(-c5cccc(S(=O)(=O)[O-])c5F)c5ccc([nH]5)c(-c5cccc(S(=O)(=O)[O-])c5F)c5nc(c(-c6cccc(S(=O)(=O)[O-])c6F)c6ccc3[nH]6)C=C5)C=C4)cc1)[C@@H](C(F)(F)F)O2
REMARK SMILES IDX 16 1 15 2 14 3 13 4 11 5 12 6 10 8 1 9 2 10 3 11 8 12 4 13
REMARK SMILES IDX 7 14 5 15 6 16 9 17 88 18 83 19 84 20 85 21 86 22 87 23
REMARK SMILES IDX 17 24 18 25 19 27 20 28 21 29 82 30 22 31 81 32 23 33 24 34
REMARK SMILES IDX 25 35 75 36 26 37 80 38 74 39 76 40 27 41 79 42 73 43 72 44
REMARK SMILES IDX 28 46 60 47 40 48 59 49 41 50 44 51 58 52 77 53 42 54 43 55
REMARK SMILES IDX 57 57 78 58 45 59 29 60 30 61 38 62 31 63 33 64 39 65 32 66
REMARK SMILES IDX 34 67 35 68 36 69 37 70 61 71 62 72 70 73 63 74 65 75 71 76
REMARK SMILES IDX 64 77 66 78 67 79 68 80 69 81 46 82 47 83 55 84 48 85 50 86
REMARK SMILES IDX 56 87 49 88 51 89 52 90 53 91 54 92
REMARK H PARENT 13 7 17 26 76 45 44 56
REMARK Flexibility Score: inf
ROOT
ATOM      1  C   UNL A   1      32.820  32.725  27.228  1.00  0.00     0.118 C 
ENDROOT
BRANCH   1   2
ATOM      2  C   UNL A   1      31.515  32.097  26.762  1.00  0.00     0.042 C 
BRANCH   2   3
ATOM      3  C   UNL A   1      31.668  30.614  26.460  1.00  0.00     0.118 C 
BRANCH   3   4
ATOM      4  N   UNL A   1      31.402  30.306  25.062  1.00  0.00    -0.352 N 
ATOM      5  C   UNL A   1      31.326  29.198  24.289  1.00  0.00     0.251 C 
ATOM      6  O   UNL A   1      31.029  29.398  23.106  1.00  0.00    -0.270 OA
ATOM      7  H   UNL A   1      31.234  31.123  24.538  1.00  0.00     0.163 HD
BRANCH   5   8
ATOM      8  C   UNL A   1      31.559  27.805  24.767  1.00  0.00     0.067 C 
ATOM      9  C   UNL A   1      36.098  23.716  25.761  1.00  0.00     0.044 C 
ATOM     10  C   UNL A   1      34.699  24.256  25.754  1.00  0.00    -0.050 A 
ATOM     11  C   UNL A   1      33.651  23.482  26.272  1.00  0.00     0.010 A 
ATOM     12  C   UNL A   1      34.435  25.555  25.297  1.00  0.00     0.015 A 
ATOM     13  C   UNL A   1      32.346  23.983  26.320  1.00  0.00    -0.008 A 
ATOM     14  C   UNL A   1      33.136  26.067  25.333  1.00  0.00     0.018 A 
ATOM     15  C   UNL A   1      31.222  23.157  26.877  1.00  0.00     0.048 C 
ATOM     16  C   UNL A   1      32.103  25.276  25.842  1.00  0.00     0.130 A 
ATOM     17  C   UNL A   1      32.845  27.426  24.889  1.00  0.00     0.025 C 
ATOM     18  O   UNL A   1      30.822  25.738  25.947  1.00  0.00    -0.475 OA
ATOM     19  C   UNL A   1      30.457  26.835  25.076  1.00  0.00     0.314 C 
BRANCH  19  20
ATOM     20  C   UNL A   1      29.794  26.269  23.805  1.00  0.00     0.429 C 
ATOM     21  F   UNL A   1      30.611  26.420  22.732  1.00  0.00    -0.167 F 
ATOM     22  F   UNL A   1      29.528  24.943  23.898  1.00  0.00    -0.167 F 
ATOM     23  F   UNL A   1      28.623  26.877  23.508  1.00  0.00    -0.167 F 
ENDBRANCH  19  20
ENDBRANCH   5   8
ENDBRANCH   3   4
ENDBRANCH   2   3
ENDBRANCH   1   2
BRANCH   1  24
ATOM     24  N   UNL A   1      32.635  34.115  27.642  1.00  0.00    -0.352 N 
ATOM     25  C   UNL A   1      33.136  34.789  28.724  1.00  0.00     0.251 C 
ATOM     26  H   UNL A   1      32.059  34.651  27.049  1.00  0.00     0.163 HD
ATOM     27  O   UNL A   1      32.635  35.864  29.058  1.00  0.00    -0.269 OA
BRANCH  25  28
ATOM     28  C   UNL A   1      34.273  34.233  29.480  1.00  0.00     0.039 A 
ATOM     29  C   UNL A   1      34.033  33.478  30.631  1.00  0.00     0.014 A 
ATOM     30  C   UNL A   1      35.582  34.481  29.062  1.00  0.00     0.014 A 
ATOM     31  C   UNL A   1      35.110  32.926  31.327  1.00  0.00     0.010 A 
ATOM     32  C   UNL A   1      36.642  33.847  29.692  1.00  0.00     0.010 A 
ATOM     33  C   UNL A   1      36.420  33.081  30.844  1.00  0.00    -0.014 A 
BRANCH  33  34
ATOM     34  C   UNL A   1      37.580  32.475  31.539  1.00  0.00     0.031 A 
ATOM     35  C   UNL A   1      38.322  31.332  30.898  1.00  0.00     0.074 A 
ATOM     36  C   UNL A   1      37.909  32.895  32.777  1.00  0.00     0.049 A 
ATOM     37  N   UNL A   1      39.314  30.627  31.375  1.00  0.00    -0.248 NA
ATOM     38  C   UNL A   1      37.875  30.902  29.560  1.00  0.00     0.031 C 
ATOM     39  C   UNL A   1      37.206  33.937  33.530  1.00  0.00     0.029 A 
ATOM     40  N   UNL A   1      38.897  32.478  33.632  1.00  0.00    -0.354 N 
ATOM     41  C   UNL A   1      39.580  29.654  30.420  1.00  0.00     0.074 A 
ATOM     42  C   UNL A   1      38.627  29.831  29.350  1.00  0.00     0.031 C 
ATOM     43  C   UNL A   1      37.791  34.083  34.729  1.00  0.00     0.029 A 
ATOM     44  C   UNL A   1      38.886  33.126  34.847  1.00  0.00     0.049 A 
ATOM     45  H   UNL A   1      39.553  31.783  33.400  1.00  0.00     0.167 HD
ATOM     46  C   UNL A   1      40.560  28.721  30.418  1.00  0.00     0.034 A 
ATOM     47  C   UNL A   1      39.666  32.960  35.933  1.00  0.00     0.034 A 
ATOM     48  C   UNL A   1      41.547  28.599  31.454  1.00  0.00     0.049 A 
ATOM     49  C   UNL A   1      40.781  31.949  35.879  1.00  0.00     0.074 A 
ATOM     50  C   UNL A   1      42.642  27.755  31.493  1.00  0.00     0.029 A 
ATOM     51  N   UNL A   1      41.560  29.334  32.628  1.00  0.00    -0.354 N 
ATOM     52  N   UNL A   1      41.122  31.152  34.895  1.00  0.00    -0.248 NA
ATOM     53  C   UNL A   1      41.640  31.836  37.066  1.00  0.00     0.031 C 
ATOM     54  C   UNL A   1      43.302  27.959  32.706  1.00  0.00     0.029 A 
ATOM     55  C   UNL A   1      42.637  28.954  33.407  1.00  0.00     0.049 A 
ATOM     56  H   UNL A   1      40.902  30.024  32.870  1.00  0.00     0.167 HD
ATOM     57  C   UNL A   1      42.248  30.466  35.332  1.00  0.00     0.074 A 
ATOM     58  C   UNL A   1      42.550  30.961  36.659  1.00  0.00     0.031 C 
ATOM     59  C   UNL A   1      42.955  29.496  34.702  1.00  0.00     0.034 A 
BRANCH  46  60
ATOM     60  C   UNL A   1      40.672  27.801  29.233  1.00  0.00     0.023 A 
ATOM     61  C   UNL A   1      39.798  26.701  29.123  1.00  0.00     0.012 A 
ATOM     62  C   UNL A   1      41.545  28.102  28.169  1.00  0.00     0.148 A 
ATOM     63  C   UNL A   1      39.796  25.908  27.977  1.00  0.00     0.002 A 
ATOM     64  C   UNL A   1      41.502  27.337  27.009  1.00  0.00     0.091 A 
ATOM     65  F   UNL A   1      42.381  29.141  28.303  1.00  0.00    -0.205 F 
ATOM     66  C   UNL A   1      40.634  26.235  26.916  1.00  0.00     0.022 A 
BRANCH  64  67
ATOM     67  S   UNL A   1      42.472  27.728  25.549  1.00  0.00     0.127 S 
ATOM     68  O   UNL A   1      43.814  27.868  26.115  1.00  0.00    -0.237 OA
ATOM     69  O   UNL A   1      42.279  26.533  24.728  1.00  0.00    -0.237 OA
ATOM     70  O   UNL A   1      41.903  28.950  25.000  1.00  0.00    -0.744 OA
ENDBRANCH  64  67
ENDBRANCH  46  60
BRANCH  47  71
ATOM     71  C   UNL A   1      39.458  33.816  37.138  1.00  0.00     0.023 A 
ATOM     72  C   UNL A   1      39.880  35.159  37.117  1.00  0.00     0.012 A 
ATOM     73  C   UNL A   1      38.814  33.319  38.288  1.00  0.00     0.148 A 
ATOM     74  C   UNL A   1      39.695  35.982  38.228  1.00  0.00     0.002 A 
ATOM     75  C   UNL A   1      38.575  34.162  39.368  1.00  0.00     0.091 A 
ATOM     76  F   UNL A   1      38.430  32.035  38.297  1.00  0.00    -0.205 F 
ATOM     77  C   UNL A   1      39.033  35.488  39.349  1.00  0.00     0.022 A 
BRANCH  75  78
ATOM     78  S   UNL A   1      37.599  33.652  40.788  1.00  0.00     0.127 S 
ATOM     79  O   UNL A   1      36.418  33.078  40.148  1.00  0.00    -0.237 OA
ATOM     80  O   UNL A   1      38.484  32.682  41.432  1.00  0.00    -0.237 OA
ATOM     81  O   UNL A   1      37.374  34.864  41.565  1.00  0.00    -0.744 OA
ENDBRANCH  75  78
ENDBRANCH  47  71
BRANCH  59  82
ATOM     82  C   UNL A   1      44.141  28.904  35.417  1.00  0.00     0.023 A 
ATOM     83  C   UNL A   1      45.407  29.504  35.278  1.00  0.00     0.012 A 
ATOM     84  C   UNL A   1      43.974  27.838  36.324  1.00  0.00     0.148 A 
ATOM     85  C   UNL A   1      46.494  29.039  36.016  1.00  0.00     0.002 A 
ATOM     86  C   UNL A   1      45.049  27.416  37.096  1.00  0.00     0.091 A 
ATOM     87  F   UNL A   1      42.763  27.273  36.431  1.00  0.00    -0.205 F 
ATOM     88  C   UNL A   1      46.313  28.009  36.934  1.00  0.00     0.022 A 
BRANCH  86  89
ATOM     89  S   UNL A   1      44.886  26.177  38.386  1.00  0.00     0.127 S 
ATOM     90  O   UNL A   1      46.194  26.253  39.037  1.00  0.00    -0.237 OA
ATOM     91  O   UNL A   1      43.778  26.702  39.181  1.00  0.00    -0.237 OA
ATOM     92  O   UNL A   1      44.603  24.921  37.705  1.00  0.00    -0.744 OA
ENDBRANCH  86  89
ENDBRANCH  59  82
ENDBRANCH  33  34
ENDBRANCH  25  28
ENDBRANCH   1  24
TORSDOF 14
ENDMDL
MODEL 2
REMARK VINA RESULT:     -12.8      3.493      8.813
REMARK SMILES Cc1cc(C)c2c(c1)C=C(C(=O)NCCCNC(=O)c1ccc(-c3c4nc(c(-c5cccc(S(=O)(=O)[O-])c5F)c5ccc([nH]5)c(-c5cccc(S(=O)(=O)[O-])c5F)c5nc(c(-c6cccc(S(=O)(=O)[O-])c6F)c6ccc3[nH]6)C=C5)C=C4)cc1)[C@@H](C(F)(F)F)O2
REMARK SMILES IDX 16 1 15 2 14 3 13 4 11 5 12 6 10 8 1 9 2 10 3 11 8 12 4 13
REMARK SMILES IDX 7 14 5 15 6 16 9 17 88 18 83 19 84 20 85 21 86 22 87 23
REMARK SMILES IDX 17 24 18 25 19 27 20 28 21 29 82 30 22 31 81 32 23 33 24 34
REMARK SMILES IDX 25 35 75 36 26 37 80 38 74 39 76 40 27 41 79 42 73 43 72 44
REMARK SMILES IDX 28 46 60 47 40 48 59 49 41 50 44 51 58 52 77 53 42 54 43 55
REMARK SMILES IDX 57 57 78 58 45 59 29 60 30 61 38 62 31 63 33 64 39 65 32 66
REMARK SMILES IDX 34 67 35 68 36 69 37 70 61 71 62 72 70 73 63 74 65 75 71 76
REMARK SMILES IDX 64 77 66 78 67 79 68 80 69 81 46 82 47 83 55 84 48 85 50 86
REMARK SMILES IDX 56 87 49 88 51 89 52 90 53 91 54 92
REMARK H PARENT 13 7 17 26 76 45 44 56
REMARK Flexibility Score: inf
ROOT
ATOM      1  C   UNL A   1      33.988  29.014  25.996  1.00  0.00     0.118 C 
ENDROOT
BRANCH   1   2
ATOM      2  C   UNL A   1      32.929  28.051  26.513  1.00  0.00     0.042 C 
BRANCH   2   3
ATOM      3  C   UNL A   1      32.120  27.429  25.386  1.00  0.00     0.118 C 
BRANCH   3   4
ATOM      4  N   UNL A   1      31.097  26.518  25.879  1.00  0.00    -0.352 N 
ATOM      5  C   UNL A   1      30.971  25.186  26.083  1.00  0.00     0.251 C 
ATOM      6  O   UNL A   1      29.895  24.825  26.570  1.00  0.00    -0.270 OA
ATOM      7  H   UNL A   1      30.276  27.000  26.131  1.00  0.00     0.163 HD
BRANCH   5   8
ATOM      8  C   UNL A   1      32.021  24.172  25.775  1.00  0.00     0.067 C 
ATOM      9  C   UNL A   1      38.140  23.289  26.055  1.00  0.00     0.044 C 
ATOM     10  C   UNL A   1      36.703  22.945  25.802  1.00  0.00    -0.050 A 
ATOM     11  C   UNL A   1      36.361  21.658  25.365  1.00  0.00     0.010 A 
ATOM     12  C   UNL A   1      35.688  23.877  26.062  1.00  0.00     0.015 A 
ATOM     13  C   UNL A   1      35.023  21.299  25.168  1.00  0.00    -0.008 A 
ATOM     14  C   UNL A   1      34.348  23.535  25.865  1.00  0.00     0.018 A 
ATOM     15  C   UNL A   1      34.654  19.920  24.702  1.00  0.00     0.048 C 
ATOM     16  C   UNL A   1      34.028  22.251  25.417  1.00  0.00     0.130 A 
ATOM     17  C   UNL A   1      33.275  24.479  26.157  1.00  0.00     0.025 C 
ATOM     18  O   UNL A   1      32.734  21.843  25.252  1.00  0.00    -0.475 OA
ATOM     19  C   UNL A   1      31.749  22.884  25.055  1.00  0.00     0.314 C 
BRANCH  19  20
ATOM     20  C   UNL A   1      31.527  23.088  23.544  1.00  0.00     0.429 C 
ATOM     21  F   UNL A   1      30.257  23.497  23.297  1.00  0.00    -0.167 F 
ATOM     22  F   UNL A   1      32.341  24.035  23.017  1.00  0.00    -0.167 F 
ATOM     23  F   UNL A   1      31.734  21.960  22.825  1.00  0.00    -0.167 F 
ENDBRANCH  19  20
ENDBRANCH   5   8
ENDBRANCH   3   4
ENDBRANCH   2   3
ENDBRANCH   1   2
BRANCH   1  24
ATOM     24  N   UNL A   1      33.861  30.336  26.607  1.00  0.00    -0.352 N 
ATOM     25  C   UNL A   1      34.548  30.896  27.652  1.00  0.00     0.251 C 
ATOM     26  H   UNL A   1      33.175  30.915  26.203  1.00  0.00     0.163 HD
ATOM     27  O   UNL A   1      34.102  31.902  28.205  1.00  0.00    -0.269 OA
BRANCH  25  28
ATOM     28  C   UNL A   1      35.816  30.298  28.107  1.00  0.00     0.039 A 
ATOM     29  C   UNL A   1      36.961  30.422  27.315  1.00  0.00     0.014 A 
ATOM     30  C   UNL A   1      35.866  29.590  29.309  1.00  0.00     0.014 A 
ATOM     31  C   UNL A   1      38.168  29.883  27.763  1.00  0.00     0.010 A 
ATOM     32  C   UNL A   1      37.086  29.146  29.801  1.00  0.00     0.010 A 
ATOM     33  C   UNL A   1      38.244  29.268  29.024  1.00  0.00    -0.014 A 
BRANCH  33  34
ATOM     34  C   UNL A   1      39.519  28.719  29.544  1.00  0.00     0.031 A 
ATOM     35  C   UNL A   1      40.226  29.416  30.676  1.00  0.00     0.074 A 
ATOM     36  C   UNL A   1      40.079  27.650  28.942  1.00  0.00     0.049 A 
ATOM     37  N   UNL A   1      41.379  29.132  31.222  1.00  0.00    -0.248 NA
ATOM     38  C   UNL A   1      39.571  30.604  31.253  1.00  0.00     0.031 C 
ATOM     39  C   UNL A   1      39.525  26.947  27.782  1.00  0.00     0.029 A 
ATOM     40  N   UNL A   1      41.250  26.986  29.203  1.00  0.00    -0.354 N 
ATOM     41  C   UNL A   1      41.603  30.121  32.171  1.00  0.00     0.074 A 
ATOM     42  C   UNL A   1      40.488  31.036  32.107  1.00  0.00     0.031 C 
ATOM     43  C   UNL A   1      40.351  25.947  27.438  1.00  0.00     0.029 A 
ATOM     44  C   UNL A   1      41.508  25.956  28.327  1.00  0.00     0.049 A 
ATOM     45  H   UNL A   1      41.850  27.223  29.946  1.00  0.00     0.167 HD
ATOM     46  C   UNL A   1      42.629  30.234  33.045  1.00  0.00     0.034 A 
ATOM     47  C   UNL A   1      42.562  25.119  28.247  1.00  0.00     0.034 A 
ATOM     48  C   UNL A   1      43.698  29.281  33.148  1.00  0.00     0.049 A 
ATOM     49  C   UNL A   1      43.662  25.239  29.268  1.00  0.00     0.074 A 
ATOM     50  C   UNL A   1      44.728  29.250  34.071  1.00  0.00     0.029 A 
ATOM     51  N   UNL A   1      43.878  28.197  32.304  1.00  0.00    -0.354 N 
ATOM     52  N   UNL A   1      43.770  26.081  30.268  1.00  0.00    -0.248 NA
ATOM     53  C   UNL A   1      44.767  24.274  29.176  1.00  0.00     0.031 C 
ATOM     54  C   UNL A   1      45.549  28.162  33.767  1.00  0.00     0.029 A 
ATOM     55  C   UNL A   1      45.011  27.497  32.675  1.00  0.00     0.049 A 
ATOM     56  H   UNL A   1      43.287  27.961  31.554  1.00  0.00     0.167 HD
ATOM     57  C   UNL A   1      44.936  25.731  30.938  1.00  0.00     0.074 A 
ATOM     58  C   UNL A   1      45.485  24.582  30.249  1.00  0.00     0.031 C 
ATOM     59  C   UNL A   1      45.513  26.322  32.013  1.00  0.00     0.034 A 
BRANCH  46  60
ATOM     60  C   UNL A   1      42.621  31.382  34.017  1.00  0.00     0.023 A 
ATOM     61  C   UNL A   1      43.292  32.576  33.687  1.00  0.00     0.012 A 
ATOM     62  C   UNL A   1      41.839  31.328  35.188  1.00  0.00     0.148 A 
ATOM     63  C   UNL A   1      43.195  33.697  34.510  1.00  0.00     0.002 A 
ATOM     64  C   UNL A   1      41.707  32.464  35.978  1.00  0.00     0.091 A 
ATOM     65  F   UNL A   1      41.225  30.176  35.493  1.00  0.00    -0.205 F 
ATOM     66  C   UNL A   1      42.391  33.646  35.644  1.00  0.00     0.022 A 
BRANCH  64  67
ATOM     67  S   UNL A   1      40.622  32.535  37.408  1.00  0.00     0.127 S 
ATOM     68  O   UNL A   1      41.477  31.975  38.455  1.00  0.00    -0.237 OA
ATOM     69  O   UNL A   1      40.373  33.971  37.529  1.00  0.00    -0.237 OA
ATOM     70  O   UNL A   1      39.454  31.733  37.071  1.00  0.00    -0.744 OA
ENDBRANCH  64  67
ENDBRANCH  46  60
BRANCH  47  71
ATOM     71  C   UNL A   1      42.593  24.058  27.199  1.00  0.00     0.023 A 
ATOM     72  C   UNL A   1      43.285  24.290  25.995  1.00  0.00     0.012 A 
ATOM     73  C   UNL A   1      41.973  22.809  27.402  1.00  0.00     0.148 A 
ATOM     74  C   UNL A   1      43.333  23.314  25.000  1.00  0.00     0.002 A 
ATOM     75  C   UNL A   1      42.078  21.817  26.432  1.00  0.00     0.091 A 
ATOM     76  F   UNL A   1      41.306  22.608  28.547  1.00  0.00    -0.205 F 
ATOM     77  C   UNL A   1      42.740  22.073  25.222  1.00  0.00     0.022 A 
BRANCH  75  78
ATOM     78  S   UNL A   1      41.475  20.146  26.699  1.00  0.00     0.127 S 
ATOM     79  O   UNL A   1      40.034  20.360  26.802  1.00  0.00    -0.237 OA
ATOM     80  O   UNL A   1      41.911  19.468  25.478  1.00  0.00    -0.237 OA
ATOM     81  O   UNL A   1      42.136  19.679  27.910  1.00  0.00    -0.744 OA
ENDBRANCH  75  78
ENDBRANCH  47  71
BRANCH  59  82
ATOM     82  C   UNL A   1      46.800  25.741  32.537  1.00  0.00     0.023 A 
ATOM     83  C   UNL A   1      48.029  26.228  32.056  1.00  0.00     0.012 A 
ATOM     84  C   UNL A   1      46.789  24.810  33.595  1.00  0.00     0.148 A 
ATOM     85  C   UNL A   1      49.230  25.784  32.607  1.00  0.00     0.002 A 
ATOM     86  C   UNL A   1      47.987  24.412  34.175  1.00  0.00     0.091 A 
ATOM     87  F   UNL A   1      45.606  24.348  34.029  1.00  0.00    -0.205 F 
ATOM     88  C   UNL A   1      49.209  24.890  33.674  1.00  0.00     0.022 A 
BRANCH  86  89
ATOM     89  S   UNL A   1      48.055  23.356  35.627  1.00  0.00     0.127 S 
ATOM     90  O   UNL A   1      47.297  24.141  36.601  1.00  0.00    -0.237 OA
ATOM     91  O   UNL A   1      47.380  22.146  35.160  1.00  0.00    -0.237 OA
ATOM     92  O   UNL A   1      49.468  23.182  35.933  1.00  0.00    -0.744 OA
ENDBRANCH  86  89
ENDBRANCH  59  82
ENDBRANCH  33  34
ENDBRANCH  25  28
ENDBRANCH   1  24
TORSDOF 14
ENDMDL
MODEL 3
REMARK VINA RESULT:     -12.7      6.638     11.667
REMARK SMILES Cc1cc(C)c2c(c1)C=C(C(=O)NCCCNC(=O)c1ccc(-c3c4nc(c(-c5cccc(S(=O)(=O)[O-])c5F)c5ccc([nH]5)c(-c5cccc(S(=O)(=O)[O-])c5F)c5nc(c(-c6cccc(S(=O)(=O)[O-])c6F)c6ccc3[nH]6)C=C5)C=C4)cc1)[C@@H](C(F)(F)F)O2
REMARK SMILES IDX 16 1 15 2 14 3 13 4 11 5 12 6 10 8 1 9 2 10 3 11 8 12 4 13
REMARK SMILES IDX 7 14 5 15 6 16 9 17 88 18 83 19 84 20 85 21 86 22 87 23
REMARK SMILES IDX 17 24 18 25 19 27 20 28 21 29 82 30 22 31 81 32 23 33 24 34
REMARK SMILES IDX 25 35 75 36 26 37 80 38 74 39 76 40 27 41 79 42 73 43 72 44
REMARK SMILES IDX 28 46 60 47 40 48 59 49 41 50 44 51 58 52 77 53 42 54 43 55
REMARK SMILES IDX 57 57 78 58 45 59 29 60 30 61 38 62 31 63 33 64 39 65 32 66
REMARK SMILES IDX 34 67 35 68 36 69 37 70 61 71 62 72 70 73 63 74 65 75 71 76
REMARK SMILES IDX 64 77 66 78 67 79 68 80 69 81 46 82 47 83 55 84 48 85 50 86
REMARK SMILES IDX 56 87 49 88 51 89 52 90 53 91 54 92
REMARK H PARENT 13 7 17 26 76 45 44 56
REMARK Flexibility Score: inf
ROOT
ATOM      1  C   UNL A   1      38.701  20.177  25.474  1.00  0.00     0.118 C 
ENDROOT
BRANCH   1   2
ATOM      2  C   UNL A   1      37.482  19.405  24.988  1.00  0.00     0.042 C 
BRANCH   2   3
ATOM      3  C   UNL A   1      36.229  20.266  24.968  1.00  0.00     0.118 C 
BRANCH   3   4
ATOM      4  N   UNL A   1      35.013  19.467  24.910  1.00  0.00    -0.352 N 
ATOM      5  C   UNL A   1      33.682  19.694  24.816  1.00  0.00     0.251 C 
ATOM      6  O   UNL A   1      32.975  18.682  24.761  1.00  0.00    -0.270 OA
ATOM      7  H   UNL A   1      35.212  18.503  24.951  1.00  0.00     0.163 HD
BRANCH   5   8
ATOM      8  C   UNL A   1      33.047  21.042  24.765  1.00  0.00     0.067 C 
ATOM      9  C   UNL A   1      32.374  25.949  21.052  1.00  0.00     0.044 C 
ATOM     10  C   UNL A   1      32.177  25.100  22.273  1.00  0.00    -0.050 A 
ATOM     11  C   UNL A   1      31.337  25.544  23.303  1.00  0.00     0.010 A 
ATOM     12  C   UNL A   1      32.772  23.833  22.367  1.00  0.00     0.015 A 
ATOM     13  C   UNL A   1      31.101  24.749  24.429  1.00  0.00    -0.008 A 
ATOM     14  C   UNL A   1      32.549  23.030  23.488  1.00  0.00     0.018 A 
ATOM     15  C   UNL A   1      30.199  25.222  25.533  1.00  0.00     0.048 C 
ATOM     16  C   UNL A   1      31.719  23.495  24.510  1.00  0.00     0.130 A 
ATOM     17  C   UNL A   1      33.134  21.697  23.592  1.00  0.00     0.025 C 
ATOM     18  O   UNL A   1      31.425  22.736  25.607  1.00  0.00    -0.475 OA
ATOM     19  C   UNL A   1      32.365  21.687  25.936  1.00  0.00     0.314 C 
BRANCH  19  20
ATOM     20  C   UNL A   1      33.365  22.216  26.983  1.00  0.00     0.429 C 
ATOM     21  F   UNL A   1      33.830  21.204  27.757  1.00  0.00    -0.167 F 
ATOM     22  F   UNL A   1      34.454  22.797  26.422  1.00  0.00    -0.167 F 
ATOM     23  F   UNL A   1      32.821  23.138  27.810  1.00  0.00    -0.167 F 
ENDBRANCH  19  20
ENDBRANCH   5   8
ENDBRANCH   3   4
ENDBRANCH   2   3
ENDBRANCH   1   2
BRANCH   1  24
ATOM     24  N   UNL A   1      39.787  19.281  25.868  1.00  0.00    -0.352 N 
ATOM     25  C   UNL A   1      41.087  19.562  26.201  1.00  0.00     0.251 C 
ATOM     26  H   UNL A   1      39.547  18.327  25.900  1.00  0.00     0.163 HD
ATOM     27  O   UNL A   1      41.920  18.655  26.219  1.00  0.00    -0.269 OA
BRANCH  25  28
ATOM     28  C   UNL A   1      41.482  20.941  26.539  1.00  0.00     0.039 A 
ATOM     29  C   UNL A   1      42.070  21.206  27.778  1.00  0.00     0.014 A 
ATOM     30  C   UNL A   1      41.243  21.980  25.637  1.00  0.00     0.014 A 
ATOM     31  C   UNL A   1      42.472  22.508  28.084  1.00  0.00     0.010 A 
ATOM     32  C   UNL A   1      41.736  23.251  25.898  1.00  0.00     0.010 A 
ATOM     33  C   UNL A   1      42.335  23.533  27.133  1.00  0.00    -0.014 A 
BRANCH  33  34
ATOM     34  C   UNL A   1      42.786  24.916  27.412  1.00  0.00     0.031 A 
ATOM     35  C   UNL A   1      41.840  25.896  28.055  1.00  0.00     0.074 A 
ATOM     36  C   UNL A   1      44.012  25.311  27.011  1.00  0.00     0.049 A 
ATOM     37  N   UNL A   1      42.023  27.163  28.316  1.00  0.00    -0.248 NA
ATOM     38  C   UNL A   1      40.502  25.399  28.425  1.00  0.00     0.031 C 
ATOM     39  C   UNL A   1      44.981  24.471  26.303  1.00  0.00     0.029 A 
ATOM     40  N   UNL A   1      44.641  26.526  27.116  1.00  0.00    -0.354 N 
ATOM     41  C   UNL A   1      40.821  27.619  28.841  1.00  0.00     0.074 A 
ATOM     42  C   UNL A   1      39.900  26.508  28.830  1.00  0.00     0.031 C 
ATOM     43  C   UNL A   1      46.083  25.192  26.045  1.00  0.00     0.029 A 
ATOM     44  C   UNL A   1      45.889  26.553  26.536  1.00  0.00     0.049 A 
ATOM     45  H   UNL A   1      44.238  27.305  27.563  1.00  0.00     0.167 HD
ATOM     46  C   UNL A   1      40.525  28.847  29.325  1.00  0.00     0.034 A 
ATOM     47  C   UNL A   1      46.773  27.563  26.410  1.00  0.00     0.034 A 
ATOM     48  C   UNL A   1      41.469  29.926  29.395  1.00  0.00     0.049 A 
ATOM     49  C   UNL A   1      46.433  28.903  27.007  1.00  0.00     0.074 A 
ATOM     50  C   UNL A   1      41.297  31.175  29.964  1.00  0.00     0.029 A 
ATOM     51  N   UNL A   1      42.755  29.889  28.883  1.00  0.00    -0.354 N 
ATOM     52  N   UNL A   1      45.351  29.266  27.652  1.00  0.00    -0.248 NA
ATOM     53  C   UNL A   1      47.446  29.962  26.891  1.00  0.00     0.031 C 
ATOM     54  C   UNL A   1      42.471  31.905  29.769  1.00  0.00     0.029 A 
ATOM     55  C   UNL A   1      43.386  31.099  29.108  1.00  0.00     0.049 A 
ATOM     56  H   UNL A   1      43.160  29.117  28.426  1.00  0.00     0.167 HD
ATOM     57  C   UNL A   1      45.563  30.583  28.042  1.00  0.00     0.074 A 
ATOM     58  C   UNL A   1      46.889  30.945  27.588  1.00  0.00     0.031 C 
ATOM     59  C   UNL A   1      44.727  31.424  28.698  1.00  0.00     0.034 A 
BRANCH  46  60
ATOM     60  C   UNL A   1      39.150  29.084  29.889  1.00  0.00     0.023 A 
ATOM     61  C   UNL A   1      38.861  28.676  31.206  1.00  0.00     0.012 A 
ATOM     62  C   UNL A   1      38.196  29.830  29.169  1.00  0.00     0.148 A 
ATOM     63  C   UNL A   1      37.640  28.995  31.797  1.00  0.00     0.002 A 
ATOM     64  C   UNL A   1      37.000  30.187  29.782  1.00  0.00     0.091 A 
ATOM     65  F   UNL A   1      38.485  30.191  27.911  1.00  0.00    -0.205 F 
ATOM     66  C   UNL A   1      36.718  29.764  31.092  1.00  0.00     0.022 A 
BRANCH  64  67
ATOM     67  S   UNL A   1      35.785  31.253  28.997  1.00  0.00     0.127 S 
ATOM     68  O   UNL A   1      35.083  30.309  28.127  1.00  0.00    -0.237 OA
ATOM     69  O   UNL A   1      35.007  31.720  30.144  1.00  0.00    -0.237 OA
ATOM     70  O   UNL A   1      36.541  32.287  28.304  1.00  0.00    -0.744 OA
ENDBRANCH  64  67
ENDBRANCH  46  60
BRANCH  47  71
ATOM     71  C   UNL A   1      48.087  27.324  25.745  1.00  0.00     0.023 A 
ATOM     72  C   UNL A   1      49.177  26.860  26.507  1.00  0.00     0.012 A 
ATOM     73  C   UNL A   1      48.254  27.519  24.360  1.00  0.00     0.148 A 
ATOM     74  C   UNL A   1      50.416  26.626  25.910  1.00  0.00     0.002 A 
ATOM     75  C   UNL A   1      49.474  27.223  23.761  1.00  0.00     0.091 A 
ATOM     76  F   UNL A   1      47.212  27.975  23.651  1.00  0.00    -0.205 F 
ATOM     77  C   UNL A   1      50.562  26.795  24.536  1.00  0.00     0.022 A 
BRANCH  75  78
ATOM     78  S   UNL A   1      49.705  27.270  21.979  1.00  0.00     0.127 S 
ATOM     79  O   UNL A   1      49.468  28.680  21.683  1.00  0.00    -0.237 OA
ATOM     80  O   UNL A   1      51.095  26.836  21.842  1.00  0.00    -0.237 OA
ATOM     81  O   UNL A   1      48.731  26.334  21.433  1.00  0.00    -0.744 OA
ENDBRANCH  75  78
ENDBRANCH  47  71
BRANCH  59  82
ATOM     82  C   UNL A   1      45.209  32.821  28.989  1.00  0.00     0.023 A 
ATOM     83  C   UNL A   1      45.935  33.074  30.167  1.00  0.00     0.012 A 
ATOM     84  C   UNL A   1      45.055  33.847  28.034  1.00  0.00     0.148 A 
ATOM     85  C   UNL A   1      46.485  34.334  30.402  1.00  0.00     0.002 A 
ATOM     86  C   UNL A   1      45.652  35.083  28.250  1.00  0.00     0.091 A 
ATOM     87  F   UNL A   1      44.348  33.588  26.925  1.00  0.00    -0.205 F 
ATOM     88  C   UNL A   1      46.357  35.331  29.439  1.00  0.00     0.022 A 
BRANCH  86  89
ATOM     89  S   UNL A   1      45.640  36.390  27.018  1.00  0.00     0.127 S 
ATOM     90  O   UNL A   1      44.212  36.691  26.918  1.00  0.00    -0.237 OA
ATOM     91  O   UNL A   1      46.439  37.431  27.663  1.00  0.00    -0.237 OA
ATOM     92  O   UNL A   1      46.240  35.820  25.819  1.00  0.00    -0.744 OA
ENDBRANCH  86  89
ENDBRANCH  59  82
ENDBRANCH  33  34
ENDBRANCH  25  28
ENDBRANCH   1  24
TORSDOF 14
ENDMDL
