MODEL 1
REMARK VINA RESULT:     -12.6      0.000      0.000
REMARK SMILES C[C@H](CC(=O)NCCCNC(=O)c1ccc(-c2c3nc(c(-c4cccc(S(=O)(=O)[O-])c4F)c4ccc([nH]4)c(-c4cccc(S(=O)(=O)[O-])c4F)c4nc(c(-c5cccc(S(=O)(=O)[O-])c5F)c5ccc2[nH]5)C=C4)C=C3)cc1)N1C(=O)S/C(=C\c2ccc(Cl)cc2)C1=O
REMARK SMILES IDX 8 1 7 2 6 3 4 4 5 5 3 7 2 8 1 9 76 10 77 11 89 12 78 13
REMARK SMILES IDX 79 14 80 15 90 16 81 17 82 18 83 19 88 20 84 21 87 22 85 23
REMARK SMILES IDX 86 24 9 25 10 26 11 27 12 29 13 30 14 31 75 32 15 33 74 34
REMARK SMILES IDX 16 35 17 36 18 37 68 38 19 39 73 40 67 41 69 42 20 43 72 44
REMARK SMILES IDX 66 45 65 46 21 48 53 49 33 50 52 51 34 52 37 53 51 54 70 55
REMARK SMILES IDX 35 56 36 57 50 59 71 60 38 61 22 62 23 63 31 64 24 65 26 66
REMARK SMILES IDX 32 67 25 68 27 69 28 70 29 71 30 72 54 73 55 74 63 75 56 76
REMARK SMILES IDX 58 77 64 78 57 79 59 80 60 81 61 82 62 83 39 84 40 85 48 86
REMARK SMILES IDX 41 87 43 88 49 89 42 90 44 91 45 92 46 93 47 94
REMARK H PARENT 6 6 10 28 69 47 37 58
REMARK Flexibility Score: inf
ROOT
ATOM      1  C   UNL A   1      37.276  19.913  25.009  1.00  0.00     0.042 C 
ENDROOT
BRANCH   1   2
ATOM      2  C   UNL A   1      35.936  20.634  25.007  1.00  0.00     0.117 C 
BRANCH   2   3
ATOM      3  N   UNL A   1      34.835  19.687  25.015  1.00  0.00    -0.356 N 
ATOM      4  C   UNL A   1      33.489  19.882  25.051  1.00  0.00     0.222 C 
ATOM      5  O   UNL A   1      32.770  18.885  25.167  1.00  0.00    -0.275 OA
ATOM      6  H   UNL A   1      35.110  18.742  24.991  1.00  0.00     0.163 HD
BRANCH   4   7
ATOM      7  C   UNL A   1      32.877  21.256  24.863  1.00  0.00     0.125 C 
BRANCH   7   8
ATOM      8  C   UNL A   1      32.930  21.868  23.443  1.00  0.00     0.101 C 
ATOM      9  C   UNL A   1      32.056  21.135  22.422  1.00  0.00     0.032 C 
BRANCH   8  10
ATOM     10  N   UNL A   1      32.810  23.337  23.463  1.00  0.00    -0.265 N 
ATOM     11  C   UNL A   1      33.927  24.100  23.203  1.00  0.00     0.293 C 
ATOM     12  C   UNL A   1      31.684  24.036  23.839  1.00  0.00     0.268 C 
ATOM     13  O   UNL A   1      35.034  23.688  22.890  1.00  0.00    -0.261 OA
ATOM     14  S   UNL A   1      33.610  25.797  23.494  1.00  0.00    -0.022 SA
ATOM     15  C   UNL A   1      32.022  25.476  24.047  1.00  0.00     0.083 C 
ATOM     16  O   UNL A   1      30.586  23.565  24.102  1.00  0.00    -0.268 OA
ATOM     17  C   UNL A   1      31.211  26.288  24.739  1.00  0.00     0.029 C 
BRANCH  17  18
ATOM     18  C   UNL A   1      31.510  27.646  25.206  1.00  0.00    -0.024 A 
ATOM     19  C   UNL A   1      32.097  27.862  26.461  1.00  0.00     0.009 A 
ATOM     20  C   UNL A   1      31.106  28.746  24.448  1.00  0.00     0.009 A 
ATOM     21  C   UNL A   1      32.221  29.154  26.976  1.00  0.00     0.021 A 
ATOM     22  C   UNL A   1      31.217  30.041  24.968  1.00  0.00     0.021 A 
ATOM     23  C   UNL A   1      31.758  30.237  26.236  1.00  0.00     0.041 A 
ATOM     24  Cl  UNL A   1      31.819  31.817  26.913  1.00  0.00    -0.084 Cl
ENDBRANCH  17  18
ENDBRANCH   8  10
ENDBRANCH   7   8
ENDBRANCH   4   7
ENDBRANCH   2   3
ENDBRANCH   1   2
BRANCH   1  25
ATOM     25  C   UNL A   1      38.503  20.767  25.311  1.00  0.00     0.118 C 
BRANCH  25  26
ATOM     26  N   UNL A   1      39.544  20.015  25.988  1.00  0.00    -0.352 N 
ATOM     27  C   UNL A   1      40.642  20.396  26.723  1.00  0.00     0.251 C 
ATOM     28  H   UNL A   1      39.445  19.039  25.904  1.00  0.00     0.163 HD
ATOM     29  O   UNL A   1      41.445  19.509  27.023  1.00  0.00    -0.269 OA
BRANCH  27  30
ATOM     30  C   UNL A   1      40.930  21.798  27.139  1.00  0.00     0.039 A 
ATOM     31  C   UNL A   1      40.524  22.823  26.267  1.00  0.00     0.014 A 
ATOM     32  C   UNL A   1      41.667  22.149  28.272  1.00  0.00     0.014 A 
ATOM     33  C   UNL A   1      40.799  24.167  26.545  1.00  0.00     0.010 A 
ATOM     34  C   UNL A   1      41.915  23.497  28.573  1.00  0.00     0.010 A 
ATOM     35  C   UNL A   1      41.498  24.517  27.704  1.00  0.00    -0.014 A 
BRANCH  35  36
ATOM     36  C   UNL A   1      41.910  25.927  27.942  1.00  0.00     0.031 A 
ATOM     37  C   UNL A   1      43.287  26.367  27.535  1.00  0.00     0.074 A 
ATOM     38  C   UNL A   1      41.074  26.809  28.521  1.00  0.00     0.049 A 
ATOM     39  N   UNL A   1      43.863  27.529  27.696  1.00  0.00    -0.248 NA
ATOM     40  C   UNL A   1      44.128  25.362  26.865  1.00  0.00     0.031 C 
ATOM     41  C   UNL A   1      39.719  26.502  28.959  1.00  0.00     0.029 A 
ATOM     42  N   UNL A   1      41.239  28.131  28.857  1.00  0.00    -0.354 N 
ATOM     43  C   UNL A   1      45.147  27.387  27.185  1.00  0.00     0.074 A 
ATOM     44  C   UNL A   1      45.266  26.023  26.713  1.00  0.00     0.031 C 
ATOM     45  C   UNL A   1      39.167  27.598  29.505  1.00  0.00     0.029 A 
ATOM     46  C   UNL A   1      40.150  28.678  29.499  1.00  0.00     0.049 A 
ATOM     47  H   UNL A   1      42.058  28.640  28.657  1.00  0.00     0.167 HD
ATOM     48  C   UNL A   1      46.134  28.308  27.106  1.00  0.00     0.034 A 
ATOM     49  C   UNL A   1      39.976  29.901  30.043  1.00  0.00     0.034 A 
ATOM     50  C   UNL A   1      46.009  29.666  27.560  1.00  0.00     0.049 A 
ATOM     51  C   UNL A   1      41.098  30.903  29.957  1.00  0.00     0.074 A 
ATOM     52  C   UNL A   1      46.948  30.681  27.501  1.00  0.00     0.029 A 
ATOM     53  N   UNL A   1      44.881  30.197  28.168  1.00  0.00    -0.354 N 
ATOM     54  N   UNL A   1      42.271  30.781  29.382  1.00  0.00    -0.248 NA
ATOM     55  C   UNL A   1      40.871  32.218  30.576  1.00  0.00     0.031 C 
ATOM     56  C   UNL A   1      46.395  31.819  28.100  1.00  0.00     0.029 A 
ATOM     57  C   UNL A   1      45.103  31.522  28.500  1.00  0.00     0.049 A 
ATOM     58  H   UNL A   1      44.047  29.704  28.337  1.00  0.00     0.167 HD
ATOM     59  C   UNL A   1      42.905  32.008  29.540  1.00  0.00     0.074 A 
ATOM     60  C   UNL A   1      41.980  32.869  30.247  1.00  0.00     0.031 C 
ATOM     61  C   UNL A   1      44.148  32.384  29.150  1.00  0.00     0.034 A 
BRANCH  48  62
ATOM     62  C   UNL A   1      47.440  27.869  26.504  1.00  0.00     0.023 A 
ATOM     63  C   UNL A   1      48.508  27.490  27.342  1.00  0.00     0.012 A 
ATOM     64  C   UNL A   1      47.603  27.814  25.106  1.00  0.00     0.148 A 
ATOM     65  C   UNL A   1      49.732  27.101  26.801  1.00  0.00     0.002 A 
ATOM     66  C   UNL A   1      48.812  27.383  24.573  1.00  0.00     0.091 A 
ATOM     67  F   UNL A   1      46.583  28.200  24.328  1.00  0.00    -0.205 F 
ATOM     68  C   UNL A   1      49.881  27.039  25.417  1.00  0.00     0.022 A 
BRANCH  66  69
ATOM     69  S   UNL A   1      49.080  27.205  22.806  1.00  0.00     0.127 S 
ATOM     70  O   UNL A   1      50.534  27.061  22.743  1.00  0.00    -0.237 OA
ATOM     71  O   UNL A   1      48.331  25.985  22.504  1.00  0.00    -0.237 OA
ATOM     72  O   UNL A   1      48.546  28.414  22.194  1.00  0.00    -0.744 OA
ENDBRANCH  66  69
ENDBRANCH  48  62
BRANCH  49  73
ATOM     73  C   UNL A   1      38.685  30.260  30.701  1.00  0.00     0.023 A 
ATOM     74  C   UNL A   1      38.453  29.880  32.038  1.00  0.00     0.012 A 
ATOM     75  C   UNL A   1      37.685  30.975  30.013  1.00  0.00     0.148 A 
ATOM     76  C   UNL A   1      37.240  30.174  32.664  1.00  0.00     0.002 A 
ATOM     77  C   UNL A   1      36.503  31.317  30.661  1.00  0.00     0.091 A 
ATOM     78  F   UNL A   1      37.911  31.313  28.736  1.00  0.00    -0.205 F 
ATOM     79  C   UNL A   1      36.270  30.901  31.979  1.00  0.00     0.022 A 
BRANCH  77  80
ATOM     80  S   UNL A   1      35.260  32.368  29.900  1.00  0.00     0.127 S 
ATOM     81  O   UNL A   1      34.783  31.527  28.807  1.00  0.00    -0.237 OA
ATOM     82  O   UNL A   1      34.310  32.555  30.998  1.00  0.00    -0.237 OA
ATOM     83  O   UNL A   1      35.962  33.583  29.507  1.00  0.00    -0.744 OA
ENDBRANCH  77  80
ENDBRANCH  49  73
BRANCH  61  84
ATOM     84  C   UNL A   1      44.578  33.799  29.433  1.00  0.00     0.023 A 
ATOM     85  C   UNL A   1      45.161  34.123  30.674  1.00  0.00     0.012 A 
ATOM     86  C   UNL A   1      44.499  34.784  28.427  1.00  0.00     0.148 A 
ATOM     87  C   UNL A   1      45.637  35.410  30.917  1.00  0.00     0.002 A 
ATOM     88  C   UNL A   1      45.021  36.050  28.660  1.00  0.00     0.091 A 
ATOM     89  F   UNL A   1      43.924  34.460  27.261  1.00  0.00    -0.205 F 
ATOM     90  C   UNL A   1      45.581  36.368  29.908  1.00  0.00     0.022 A 
BRANCH  88  91
ATOM     91  S   UNL A   1      45.086  37.313  27.385  1.00  0.00     0.127 S 
ATOM     92  O   UNL A   1      45.935  36.677  26.379  1.00  0.00    -0.237 OA
ATOM     93  O   UNL A   1      43.680  37.441  27.002  1.00  0.00    -0.237 OA
ATOM     94  O   UNL A   1      45.651  38.497  28.019  1.00  0.00    -0.744 OA
ENDBRANCH  88  91
ENDBRANCH  61  84
ENDBRANCH  35  36
ENDBRANCH  27  30
ENDBRANCH  25  26
ENDBRANCH   1  25
TORSDOF 16
ENDMDL
MODEL 2
REMARK VINA RESULT:     -12.5      6.087      9.487
REMARK SMILES C[C@H](CC(=O)NCCCNC(=O)c1ccc(-c2c3nc(c(-c4cccc(S(=O)(=O)[O-])c4F)c4ccc([nH]4)c(-c4cccc(S(=O)(=O)[O-])c4F)c4nc(c(-c5cccc(S(=O)(=O)[O-])c5F)c5ccc2[nH]5)C=C4)C=C3)cc1)N1C(=O)S/C(=C\c2ccc(Cl)cc2)C1=O
REMARK SMILES IDX 8 1 7 2 6 3 4 4 5 5 3 7 2 8 1 9 76 10 77 11 89 12 78 13
REMARK SMILES IDX 79 14 80 15 90 16 81 17 82 18 83 19 88 20 84 21 87 22 85 23
REMARK SMILES IDX 86 24 9 25 10 26 11 27 12 29 13 30 14 31 75 32 15 33 74 34
REMARK SMILES IDX 16 35 17 36 18 37 68 38 19 39 73 40 67 41 69 42 20 43 72 44
REMARK SMILES IDX 66 45 65 46 21 48 53 49 33 50 52 51 34 52 37 53 51 54 70 55
REMARK SMILES IDX 35 56 36 57 50 59 71 60 38 61 22 62 23 63 31 64 24 65 26 66
REMARK SMILES IDX 32 67 25 68 27 69 28 70 29 71 30 72 54 73 55 74 63 75 56 76
REMARK SMILES IDX 58 77 64 78 57 79 59 80 60 81 61 82 62 83 39 84 40 85 48 86
REMARK SMILES IDX 41 87 43 88 49 89 42 90 44 91 45 92 46 93 47 94
REMARK H PARENT 6 6 10 28 69 47 37 58
REMARK Flexibility Score: inf
ROOT
ATOM      1  C   UNL A   1      31.775  31.752  26.804  1.00  0.00     0.042 C 
ENDROOT
BRANCH   1   2
ATOM      2  C   UNL A   1      31.981  30.433  26.073  1.00  0.00     0.117 C 
BRANCH   2   3
ATOM      3  N   UNL A   1      31.830  29.307  26.977  1.00  0.00    -0.356 N 
ATOM      4  C   UNL A   1      31.445  28.022  26.748  1.00  0.00     0.222 C 
ATOM      5  O   UNL A   1      31.289  27.290  27.728  1.00  0.00    -0.275 OA
ATOM      6  H   UNL A   1      32.043  29.508  27.917  1.00  0.00     0.163 HD
BRANCH   4   7
ATOM      7  C   UNL A   1      31.299  27.473  25.343  1.00  0.00     0.125 C 
BRANCH   7   8
ATOM      8  C   UNL A   1      30.719  26.046  25.195  1.00  0.00     0.101 C 
ATOM      9  C   UNL A   1      29.692  25.911  24.069  1.00  0.00     0.032 C 
BRANCH   8  10
ATOM     10  N   UNL A   1      31.766  25.009  25.247  1.00  0.00    -0.265 N 
ATOM     11  C   UNL A   1      31.776  24.125  26.303  1.00  0.00     0.293 C 
ATOM     12  C   UNL A   1      32.828  24.911  24.375  1.00  0.00     0.268 C 
ATOM     13  O   UNL A   1      30.956  24.060  27.206  1.00  0.00    -0.261 OA
ATOM     14  S   UNL A   1      33.218  23.132  26.276  1.00  0.00    -0.022 SA
ATOM     15  C   UNL A   1      33.844  23.958  24.913  1.00  0.00     0.083 C 
ATOM     16  O   UNL A   1      33.011  25.583  23.369  1.00  0.00    -0.268 OA
ATOM     17  C   UNL A   1      35.102  23.946  24.450  1.00  0.00     0.029 C 
BRANCH  17  18
ATOM     18  C   UNL A   1      36.248  23.233  25.023  1.00  0.00    -0.024 A 
ATOM     19  C   UNL A   1      37.152  23.889  25.871  1.00  0.00     0.009 A 
ATOM     20  C   UNL A   1      36.511  21.918  24.637  1.00  0.00     0.009 A 
ATOM     21  C   UNL A   1      38.333  23.261  26.275  1.00  0.00     0.021 A 
ATOM     22  C   UNL A   1      37.699  21.292  25.030  1.00  0.00     0.021 A 
ATOM     23  C   UNL A   1      38.613  21.972  25.832  1.00  0.00     0.041 A 
ATOM     24  Cl  UNL A   1      40.111  21.238  26.247  1.00  0.00    -0.084 Cl
ENDBRANCH  17  18
ENDBRANCH   8  10
ENDBRANCH   7   8
ENDBRANCH   4   7
ENDBRANCH   2   3
ENDBRANCH   1   2
BRANCH   1  25
ATOM     25  C   UNL A   1      33.007  32.635  26.967  1.00  0.00     0.118 C 
BRANCH  25  26
ATOM     26  N   UNL A   1      32.688  33.921  27.561  1.00  0.00    -0.352 N 
ATOM     27  C   UNL A   1      33.130  34.561  28.695  1.00  0.00     0.251 C 
ATOM     28  H   UNL A   1      32.022  34.438  27.051  1.00  0.00     0.163 HD
ATOM     29  O   UNL A   1      32.529  35.585  29.025  1.00  0.00    -0.269 OA
BRANCH  27  30
ATOM     30  C   UNL A   1      34.251  34.077  29.550  1.00  0.00     0.039 A 
ATOM     31  C   UNL A   1      35.558  34.371  29.125  1.00  0.00     0.014 A 
ATOM     32  C   UNL A   1      34.090  33.263  30.674  1.00  0.00     0.014 A 
ATOM     33  C   UNL A   1      36.674  33.911  29.833  1.00  0.00     0.010 A 
ATOM     34  C   UNL A   1      35.205  32.829  31.407  1.00  0.00     0.010 A 
ATOM     35  C   UNL A   1      36.508  33.135  30.983  1.00  0.00    -0.014 A 
BRANCH  35  36
ATOM     36  C   UNL A   1      37.685  32.531  31.666  1.00  0.00     0.031 A 
ATOM     37  C   UNL A   1      38.424  31.408  30.998  1.00  0.00     0.074 A 
ATOM     38  C   UNL A   1      38.091  32.970  32.872  1.00  0.00     0.049 A 
ATOM     39  N   UNL A   1      39.438  30.711  31.437  1.00  0.00    -0.248 NA
ATOM     40  C   UNL A   1      37.953  31.014  29.661  1.00  0.00     0.031 C 
ATOM     41  C   UNL A   1      37.456  34.049  33.619  1.00  0.00     0.029 A 
ATOM     42  N   UNL A   1      39.115  32.559  33.691  1.00  0.00    -0.354 N 
ATOM     43  C   UNL A   1      39.704  29.770  30.451  1.00  0.00     0.074 A 
ATOM     44  C   UNL A   1      38.740  29.983  29.392  1.00  0.00     0.031 C 
ATOM     45  C   UNL A   1      38.099  34.222  34.785  1.00  0.00     0.029 A 
ATOM     46  C   UNL A   1      39.168  33.233  34.891  1.00  0.00     0.049 A 
ATOM     47  H   UNL A   1      39.752  31.851  33.442  1.00  0.00     0.167 HD
ATOM     48  C   UNL A   1      40.667  28.821  30.424  1.00  0.00     0.034 A 
ATOM     49  C   UNL A   1      39.968  33.054  35.962  1.00  0.00     0.034 A 
ATOM     50  C   UNL A   1      41.634  28.621  31.469  1.00  0.00     0.049 A 
ATOM     51  C   UNL A   1      41.022  31.977  35.913  1.00  0.00     0.074 A 
ATOM     52  C   UNL A   1      42.665  27.700  31.520  1.00  0.00     0.029 A 
ATOM     53  N   UNL A   1      41.683  29.346  32.650  1.00  0.00    -0.354 N 
ATOM     54  N   UNL A   1      41.321  31.161  34.931  1.00  0.00    -0.248 NA
ATOM     55  C   UNL A   1      41.862  31.807  37.108  1.00  0.00     0.031 C 
ATOM     56  C   UNL A   1      43.320  27.849  32.747  1.00  0.00     0.029 A 
ATOM     57  C   UNL A   1      42.719  28.885  33.444  1.00  0.00     0.049 A 
ATOM     58  H   UNL A   1      41.072  30.079  32.888  1.00  0.00     0.167 HD
ATOM     59  C   UNL A   1      42.401  30.406  35.376  1.00  0.00     0.074 A 
ATOM     60  C   UNL A   1      42.718  30.875  36.708  1.00  0.00     0.031 C 
ATOM     61  C   UNL A   1      43.060  29.404  34.744  1.00  0.00     0.034 A 
BRANCH  48  62
ATOM     62  C   UNL A   1      40.717  27.924  29.217  1.00  0.00     0.023 A 
ATOM     63  C   UNL A   1      39.894  26.782  29.157  1.00  0.00     0.012 A 
ATOM     64  C   UNL A   1      41.567  28.224  28.135  1.00  0.00     0.148 A 
ATOM     65  C   UNL A   1      39.943  25.929  28.056  1.00  0.00     0.002 A 
ATOM     66  C   UNL A   1      41.579  27.393  27.022  1.00  0.00     0.091 A 
ATOM     67  F   UNL A   1      42.358  29.302  28.223  1.00  0.00    -0.205 F 
ATOM     68  C   UNL A   1      40.778  26.239  26.985  1.00  0.00     0.022 A 
BRANCH  66  69
ATOM     69  S   UNL A   1      42.569  27.743  25.565  1.00  0.00     0.127 S 
ATOM     70  O   UNL A   1      42.331  26.549  24.754  1.00  0.00    -0.237 OA
ATOM     71  O   UNL A   1      41.944  28.963  25.055  1.00  0.00    -0.237 OA
ATOM     72  O   UNL A   1      43.936  27.912  26.039  1.00  0.00    -0.744 OA
ENDBRANCH  66  69
ENDBRANCH  48  62
BRANCH  49  73
ATOM     73  C   UNL A   1      39.824  33.922  37.169  1.00  0.00     0.023 A 
ATOM     74  C   UNL A   1      40.381  35.216  37.168  1.00  0.00     0.012 A 
ATOM     75  C   UNL A   1      39.138  33.475  38.316  1.00  0.00     0.148 A 
ATOM     76  C   UNL A   1      40.288  36.033  38.298  1.00  0.00     0.002 A 
ATOM     77  C   UNL A   1      38.998  34.315  39.414  1.00  0.00     0.091 A 
ATOM     78  F   UNL A   1      38.631  32.234  38.308  1.00  0.00    -0.205 F 
ATOM     79  C   UNL A   1      39.588  35.587  39.415  1.00  0.00     0.022 A 
BRANCH  77  80
ATOM     80  S   UNL A   1      37.998  33.875  40.840  1.00  0.00     0.127 S 
ATOM     81  O   UNL A   1      38.860  32.918  41.528  1.00  0.00    -0.237 OA
ATOM     82  O   UNL A   1      37.846  35.165  41.513  1.00  0.00    -0.237 OA
ATOM     83  O   UNL A   1      36.757  33.336  40.296  1.00  0.00    -0.744 OA
ENDBRANCH  77  80
ENDBRANCH  49  73
BRANCH  61  84
ATOM     84  C   UNL A   1      44.223  28.765  35.458  1.00  0.00     0.023 A 
ATOM     85  C   UNL A   1      45.526  29.261  35.265  1.00  0.00     0.012 A 
ATOM     86  C   UNL A   1      44.005  27.739  36.400  1.00  0.00     0.148 A 
ATOM     87  C   UNL A   1      46.599  28.732  35.981  1.00  0.00     0.002 A 
ATOM     88  C   UNL A   1      45.071  27.251  37.145  1.00  0.00     0.091 A 
ATOM     89  F   UNL A   1      42.759  27.268  36.555  1.00  0.00    -0.205 F 
ATOM     90  C   UNL A   1      46.369  27.738  36.930  1.00  0.00     0.022 A 
BRANCH  88  91
ATOM     91  S   UNL A   1      44.853  26.047  38.461  1.00  0.00     0.127 S 
ATOM     92  O   UNL A   1      44.139  24.976  37.769  1.00  0.00    -0.237 OA
ATOM     93  O   UNL A   1      46.235  25.727  38.820  1.00  0.00    -0.237 OA
ATOM     94  O   UNL A   1      44.098  26.726  39.507  1.00  0.00    -0.744 OA
ENDBRANCH  88  91
ENDBRANCH  61  84
ENDBRANCH  35  36
ENDBRANCH  27  30
ENDBRANCH  25  26
ENDBRANCH   1  25
TORSDOF 16
ENDMDL
MODEL 3
REMARK VINA RESULT:     -12.5      1.760      2.268
REMARK SMILES C[C@H](CC(=O)NCCCNC(=O)c1ccc(-c2c3nc(c(-c4cccc(S(=O)(=O)[O-])c4F)c4ccc([nH]4)c(-c4cccc(S(=O)(=O)[O-])c4F)c4nc(c(-c5cccc(S(=O)(=O)[O-])c5F)c5ccc2[nH]5)C=C4)C=C3)cc1)N1C(=O)S/C(=C\c2ccc(Cl)cc2)C1=O
REMARK SMILES IDX 8 1 7 2 6 3 4 4 5 5 3 7 2 8 1 9 76 10 77 11 89 12 78 13
REMARK SMILES IDX 79 14 80 15 90 16 81 17 82 18 83 19 88 20 84 21 87 22 85 23
REMARK SMILES IDX 86 24 9 25 10 26 11 27 12 29 13 30 14 31 75 32 15 33 74 34
REMARK SMILES IDX 16 35 17 36 18 37 68 38 19 39 73 40 67 41 69 42 20 43 72 44
REMARK SMILES IDX 66 45 65 46 21 48 53 49 33 50 52 51 34 52 37 53 51 54 70 55
REMARK SMILES IDX 35 56 36 57 50 59 71 60 38 61 22 62 23 63 31 64 24 65 26 66
REMARK SMILES IDX 32 67 25 68 27 69 28 70 29 71 30 72 54 73 55 74 63 75 56 76
REMARK SMILES IDX 58 77 64 78 57 79 59 80 60 81 61 82 62 83 39 84 40 85 48 86
REMARK SMILES IDX 41 87 43 88 49 89 42 90 44 91 45 92 46 93 47 94
REMARK H PARENT 6 6 10 28 69 47 37 58
REMARK Flexibility Score: inf
ROOT
ATOM      1  C   UNL A   1      36.874  19.847  24.999  1.00  0.00     0.042 C 
ENDROOT
BRANCH   1   2
ATOM      2  C   UNL A   1      35.617  20.697  24.883  1.00  0.00     0.117 C 
BRANCH   2   3
ATOM      3  N   UNL A   1      34.422  19.882  25.015  1.00  0.00    -0.356 N 
ATOM      4  C   UNL A   1      33.125  20.226  25.240  1.00  0.00     0.222 C 
ATOM      5  O   UNL A   1      32.316  19.313  25.425  1.00  0.00    -0.275 OA
ATOM      6  H   UNL A   1      34.578  18.914  24.926  1.00  0.00     0.163 HD
BRANCH   4   7
ATOM      7  C   UNL A   1      32.661  21.667  25.177  1.00  0.00     0.125 C 
BRANCH   7   8
ATOM      8  C   UNL A   1      32.420  22.395  26.521  1.00  0.00     0.101 C 
ATOM      9  C   UNL A   1      33.575  22.255  27.515  1.00  0.00     0.032 C 
BRANCH   8  10
ATOM     10  N   UNL A   1      31.889  23.758  26.330  1.00  0.00    -0.265 N 
ATOM     11  C   UNL A   1      30.597  24.031  26.724  1.00  0.00     0.293 C 
ATOM     12  C   UNL A   1      32.542  24.779  25.676  1.00  0.00     0.268 C 
ATOM     13  O   UNL A   1      29.830  23.263  27.284  1.00  0.00    -0.261 OA
ATOM     14  S   UNL A   1      30.109  25.631  26.208  1.00  0.00    -0.022 SA
ATOM     15  C   UNL A   1      31.592  25.896  25.394  1.00  0.00     0.083 C 
ATOM     16  O   UNL A   1      33.691  24.759  25.254  1.00  0.00    -0.268 OA
ATOM     17  C   UNL A   1      31.873  26.836  24.481  1.00  0.00     0.029 C 
BRANCH  17  18
ATOM     18  C   UNL A   1      30.958  27.850  23.946  1.00  0.00    -0.024 A 
ATOM     19  C   UNL A   1      31.081  29.196  24.318  1.00  0.00     0.009 A 
ATOM     20  C   UNL A   1      29.883  27.463  23.147  1.00  0.00     0.009 A 
ATOM     21  C   UNL A   1      30.108  30.129  23.949  1.00  0.00     0.021 A 
ATOM     22  C   UNL A   1      28.900  28.392  22.787  1.00  0.00     0.021 A 
ATOM     23  C   UNL A   1      29.008  29.716  23.204  1.00  0.00     0.041 A 
ATOM     24  Cl  UNL A   1      27.763  30.842  22.835  1.00  0.00    -0.084 Cl
ENDBRANCH  17  18
ENDBRANCH   8  10
ENDBRANCH   7   8
ENDBRANCH   4   7
ENDBRANCH   2   3
ENDBRANCH   1   2
BRANCH   1  25
ATOM     25  C   UNL A   1      38.191  20.602  25.125  1.00  0.00     0.118 C 
BRANCH  25  26
ATOM     26  N   UNL A   1      39.224  19.805  25.763  1.00  0.00    -0.352 N 
ATOM     27  C   UNL A   1      40.351  20.137  26.478  1.00  0.00     0.251 C 
ATOM     28  H   UNL A   1      39.092  18.834  25.664  1.00  0.00     0.163 HD
ATOM     29  O   UNL A   1      41.132  19.220  26.741  1.00  0.00    -0.269 OA
BRANCH  27  30
ATOM     30  C   UNL A   1      40.694  21.522  26.912  1.00  0.00     0.039 A 
ATOM     31  C   UNL A   1      40.270  22.577  26.087  1.00  0.00     0.014 A 
ATOM     32  C   UNL A   1      41.496  21.827  28.014  1.00  0.00     0.014 A 
ATOM     33  C   UNL A   1      40.590  23.907  26.383  1.00  0.00     0.010 A 
ATOM     34  C   UNL A   1      41.791  23.161  28.335  1.00  0.00     0.010 A 
ATOM     35  C   UNL A   1      41.356  24.212  27.512  1.00  0.00    -0.014 A 
BRANCH  35  36
ATOM     36  C   UNL A   1      41.814  25.606  27.763  1.00  0.00     0.031 A 
ATOM     37  C   UNL A   1      43.198  26.008  27.346  1.00  0.00     0.074 A 
ATOM     38  C   UNL A   1      41.011  26.505  28.362  1.00  0.00     0.049 A 
ATOM     39  N   UNL A   1      43.812  27.150  27.514  1.00  0.00    -0.248 NA
ATOM     40  C   UNL A   1      44.000  24.987  26.653  1.00  0.00     0.031 C 
ATOM     41  C   UNL A   1      39.652  26.234  28.812  1.00  0.00     0.029 A 
ATOM     42  N   UNL A   1      41.221  27.818  28.712  1.00  0.00    -0.354 N 
ATOM     43  C   UNL A   1      45.084  26.975  26.986  1.00  0.00     0.074 A 
ATOM     44  C   UNL A   1      45.156  25.615  26.496  1.00  0.00     0.031 C 
ATOM     45  C   UNL A   1      39.141  27.339  29.378  1.00  0.00     0.029 A 
ATOM     46  C   UNL A   1      40.156  28.389  29.373  1.00  0.00     0.049 A 
ATOM     47  H   UNL A   1      42.052  28.303  28.510  1.00  0.00     0.167 HD
ATOM     48  C   UNL A   1      46.099  27.867  26.907  1.00  0.00     0.034 A 
ATOM     49  C   UNL A   1      40.025  29.610  29.934  1.00  0.00     0.034 A 
ATOM     50  C   UNL A   1      46.020  29.222  27.379  1.00  0.00     0.049 A 
ATOM     51  C   UNL A   1      41.177  30.578  29.848  1.00  0.00     0.074 A 
ATOM     52  C   UNL A   1      46.989  30.209  27.321  1.00  0.00     0.029 A 
ATOM     53  N   UNL A   1      44.916  29.779  28.006  1.00  0.00    -0.354 N 
ATOM     54  N   UNL A   1      42.338  30.427  29.258  1.00  0.00    -0.248 NA
ATOM     55  C   UNL A   1      40.997  31.892  30.485  1.00  0.00     0.031 C 
ATOM     56  C   UNL A   1      46.478  31.355  27.940  1.00  0.00     0.029 A 
ATOM     57  C   UNL A   1      45.182  31.093  28.352  1.00  0.00     0.049 A 
ATOM     58  H   UNL A   1      44.069  29.310  28.179  1.00  0.00     0.167 HD
ATOM     59  C   UNL A   1      43.012  31.632  29.424  1.00  0.00     0.074 A 
ATOM     60  C   UNL A   1      42.121  32.512  30.152  1.00  0.00     0.031 C 
ATOM     61  C   UNL A   1      44.261  31.975  29.024  1.00  0.00     0.034 A 
BRANCH  48  62
ATOM     62  C   UNL A   1      47.384  27.396  26.284  1.00  0.00     0.023 A 
ATOM     63  C   UNL A   1      47.672  27.718  24.942  1.00  0.00     0.012 A 
ATOM     64  C   UNL A   1      48.314  26.650  27.033  1.00  0.00     0.148 A 
ATOM     65  C   UNL A   1      48.849  27.272  24.343  1.00  0.00     0.002 A 
ATOM     66  C   UNL A   1      49.504  26.246  26.442  1.00  0.00     0.091 A 
ATOM     67  F   UNL A   1      48.009  26.336  28.300  1.00  0.00    -0.205 F 
ATOM     68  C   UNL A   1      49.768  26.544  25.095  1.00  0.00     0.022 A 
BRANCH  66  69
ATOM     69  S   UNL A   1      50.781  25.362  27.345  1.00  0.00     0.127 S 
ATOM     70  O   UNL A   1      50.027  24.234  27.891  1.00  0.00    -0.237 OA
ATOM     71  O   UNL A   1      51.722  25.011  26.282  1.00  0.00    -0.237 OA
ATOM     72  O   UNL A   1      51.299  26.301  28.330  1.00  0.00    -0.744 OA
ENDBRANCH  66  69
ENDBRANCH  48  62
BRANCH  49  73
ATOM     73  C   UNL A   1      38.753  29.999  30.612  1.00  0.00     0.023 A 
ATOM     74  C   UNL A   1      38.513  29.586  31.938  1.00  0.00     0.012 A 
ATOM     75  C   UNL A   1      37.780  30.777  29.953  1.00  0.00     0.148 A 
ATOM     76  C   UNL A   1      37.316  29.909  32.580  1.00  0.00     0.002 A 
ATOM     77  C   UNL A   1      36.617  31.145  30.619  1.00  0.00     0.091 A 
ATOM     78  F   UNL A   1      38.014  31.146  28.687  1.00  0.00    -0.205 F 
ATOM     79  C   UNL A   1      36.373  30.697  31.925  1.00  0.00     0.022 A 
BRANCH  77  80
ATOM     80  S   UNL A   1      35.414  32.271  29.902  1.00  0.00     0.127 S 
ATOM     81  O   UNL A   1      34.924  31.500  28.763  1.00  0.00    -0.237 OA
ATOM     82  O   UNL A   1      34.459  32.431  30.998  1.00  0.00    -0.237 OA
ATOM     83  O   UNL A   1      36.157  33.482  29.576  1.00  0.00    -0.744 OA
ENDBRANCH  77  80
ENDBRANCH  49  73
BRANCH  61  84
ATOM     84  C   UNL A   1      44.738  33.373  29.319  1.00  0.00     0.023 A 
ATOM     85  C   UNL A   1      45.398  33.650  30.532  1.00  0.00     0.012 A 
ATOM     86  C   UNL A   1      44.622  34.387  28.346  1.00  0.00     0.148 A 
ATOM     87  C   UNL A   1      45.915  34.920  30.782  1.00  0.00     0.002 A 
ATOM     88  C   UNL A   1      45.184  35.635  28.582  1.00  0.00     0.091 A 
ATOM     89  F   UNL A   1      43.974  34.107  27.207  1.00  0.00    -0.205 F 
ATOM     90  C   UNL A   1      45.822  35.907  29.803  1.00  0.00     0.022 A 
BRANCH  88  91
ATOM     91  S   UNL A   1      45.203  36.932  27.339  1.00  0.00     0.127 S 
ATOM     92  O   UNL A   1      45.870  38.020  28.055  1.00  0.00    -0.237 OA
ATOM     93  O   UNL A   1      46.000  36.327  26.272  1.00  0.00    -0.237 OA
ATOM     94  O   UNL A   1      43.810  37.177  26.991  1.00  0.00    -0.744 OA
ENDBRANCH  88  91
ENDBRANCH  61  84
ENDBRANCH  35  36
ENDBRANCH  27  30
ENDBRANCH  25  26
ENDBRANCH   1  25
TORSDOF 16
ENDMDL
