MODEL 1
REMARK VINA RESULT:     -11.3      0.000      0.000
REMARK SMILES CC(C)(C)OC(=O)N[C@H](Cc1ccc(N=[N+]=[N-])cc1)C(=O)NCCCNC(=O)c1ccc(-c2c3nc(c(-c4cccc(S(=O)(=O)[O-])c4F)c4ccc([nH]4)c(-c4cccc(S(=O)(=O)[O-])c4F)c4nc(c(-c5cccc(S(=O)(=O)[O-])c5F)c5ccc2[nH]5)C=C4)C=C3)cc1
REMARK SMILES IDX 24 1 23 2 22 3 20 4 21 5 9 7 8 8 6 9 7 10 5 12 2 13 1 14
REMARK SMILES IDX 3 15 4 16 10 17 11 18 12 19 19 20 13 21 18 22 14 23 15 24
REMARK SMILES IDX 16 25 17 26 25 27 26 28 27 29 28 31 29 32 30 33 91 34 31 35
REMARK SMILES IDX 90 36 32 37 33 38 34 39 84 40 35 41 89 42 83 43 85 44 36 45
REMARK SMILES IDX 88 46 82 47 81 48 37 50 69 51 49 52 68 53 50 54 53 55 67 56
REMARK SMILES IDX 86 57 51 58 52 59 66 61 87 62 54 63 38 64 39 65 47 66 40 67
REMARK SMILES IDX 42 68 48 69 41 70 43 71 44 72 45 73 46 74 70 75 71 76 79 77
REMARK SMILES IDX 72 78 74 79 80 80 73 81 75 82 76 83 77 84 78 85 55 86 56 87
REMARK SMILES IDX 64 88 57 89 59 90 65 91 58 92 60 93 61 94 62 95 63 96
REMARK H PARENT 22 6 8 11 26 30 85 49 53 60
REMARK Flexibility Score: inf
ROOT
ATOM      1  C   UNL A   1      33.930  27.743  25.145  1.00  0.00     0.042 C 
ENDROOT
BRANCH   1   2
ATOM      2  C   UNL A   1      33.505  26.299  24.943  1.00  0.00     0.117 C 
BRANCH   2   3
ATOM      3  N   UNL A   1      32.697  26.146  23.744  1.00  0.00    -0.354 N 
ATOM      4  C   UNL A   1      32.498  25.039  22.970  1.00  0.00     0.243 C 
ATOM      5  O   UNL A   1      31.902  25.176  21.898  1.00  0.00    -0.273 OA
ATOM      6  H   UNL A   1      32.227  26.959  23.447  1.00  0.00     0.163 HD
BRANCH   4   7
ATOM      7  C   UNL A   1      33.137  23.689  23.358  1.00  0.00     0.179 C 
BRANCH   7   8
ATOM      8  N   UNL A   1      34.407  23.420  22.669  1.00  0.00    -0.309 N 
ATOM      9  C   UNL A   1      35.645  23.332  23.244  1.00  0.00     0.408 C 
ATOM     10  O   UNL A   1      36.605  22.917  22.612  1.00  0.00    -0.225 OA
ATOM     11  H   UNL A   1      34.363  23.289  21.694  1.00  0.00     0.167 HD
BRANCH   9  12
ATOM     12  O   UNL A   1      35.681  23.830  24.500  1.00  0.00    -0.444 OA
BRANCH  12  13
ATOM     13  C   UNL A   1      36.167  23.049  25.621  1.00  0.00     0.106 C 
ATOM     14  C   UNL A   1      35.117  23.244  26.727  1.00  0.00     0.056 C 
ATOM     15  C   UNL A   1      37.508  23.581  26.144  1.00  0.00     0.056 C 
ATOM     16  C   UNL A   1      36.243  21.564  25.264  1.00  0.00     0.056 C 
ENDBRANCH  12  13
ENDBRANCH   9  12
ENDBRANCH   7   8
BRANCH   7  17
ATOM     17  C   UNL A   1      32.041  22.626  23.089  1.00  0.00     0.070 C 
BRANCH  17  18
ATOM     18  C   UNL A   1      32.266  21.261  23.686  1.00  0.00    -0.045 A 
ATOM     19  C   UNL A   1      32.580  21.127  25.045  1.00  0.00     0.004 A 
ATOM     20  C   UNL A   1      32.192  20.114  22.894  1.00  0.00     0.004 A 
ATOM     21  C   UNL A   1      32.815  19.866  25.596  1.00  0.00     0.010 A 
ATOM     22  C   UNL A   1      32.435  18.854  23.452  1.00  0.00     0.010 A 
ATOM     23  C   UNL A   1      32.747  18.709  24.813  1.00  0.00     0.038 A 
BRANCH  23  24
ATOM     24  N   UNL A   1      33.006  17.488  25.465  1.00  0.00    -0.061 NA
ATOM     25  N   UNL A   1      33.718  16.676  24.855  1.00  0.00     0.005 N 
ATOM     26  N   UNL A   1      34.366  15.916  24.299  1.00  0.00    -0.003 NA
ENDBRANCH  23  24
ENDBRANCH  17  18
ENDBRANCH   7  17
ENDBRANCH   4   7
ENDBRANCH   2   3
ENDBRANCH   1   2
BRANCH   1  27
ATOM     27  C   UNL A   1      33.979  28.146  26.608  1.00  0.00     0.118 C 
BRANCH  27  28
ATOM     28  N   UNL A   1      33.725  29.568  26.796  1.00  0.00    -0.352 N 
ATOM     29  C   UNL A   1      34.420  30.479  27.550  1.00  0.00     0.251 C 
ATOM     30  H   UNL A   1      32.945  29.926  26.314  1.00  0.00     0.163 HD
ATOM     31  O   UNL A   1      33.942  31.589  27.762  1.00  0.00    -0.269 OA
BRANCH  29  32
ATOM     32  C   UNL A   1      35.732  30.106  28.117  1.00  0.00     0.039 A 
ATOM     33  C   UNL A   1      35.790  29.606  29.419  1.00  0.00     0.014 A 
ATOM     34  C   UNL A   1      36.899  30.235  27.358  1.00  0.00     0.014 A 
ATOM     35  C   UNL A   1      37.014  29.181  29.937  1.00  0.00     0.010 A 
ATOM     36  C   UNL A   1      38.096  29.718  27.840  1.00  0.00     0.010 A 
ATOM     37  C   UNL A   1      38.171  29.200  29.139  1.00  0.00    -0.014 A 
BRANCH  37  38
ATOM     38  C   UNL A   1      39.466  28.681  29.649  1.00  0.00     0.031 A 
ATOM     39  C   UNL A   1      40.186  29.403  30.757  1.00  0.00     0.074 A 
ATOM     40  C   UNL A   1      40.031  27.608  29.059  1.00  0.00     0.049 A 
ATOM     41  N   UNL A   1      41.344  29.129  31.298  1.00  0.00    -0.248 NA
ATOM     42  C   UNL A   1      39.537  30.603  31.316  1.00  0.00     0.031 C 
ATOM     43  C   UNL A   1      39.472  26.873  27.921  1.00  0.00     0.029 A 
ATOM     44  N   UNL A   1      41.217  26.965  29.316  1.00  0.00    -0.354 N 
ATOM     45  C   UNL A   1      41.583  30.140  32.221  1.00  0.00     0.074 A 
ATOM     46  C   UNL A   1      40.461  31.048  32.155  1.00  0.00     0.031 C 
ATOM     47  C   UNL A   1      40.312  25.884  27.579  1.00  0.00     0.029 A 
ATOM     48  C   UNL A   1      41.486  25.935  28.443  1.00  0.00     0.049 A 
ATOM     49  H   UNL A   1      41.817  27.217  30.054  1.00  0.00     0.167 HD
ATOM     50  C   UNL A   1      42.634  30.289  33.058  1.00  0.00     0.034 A 
ATOM     51  C   UNL A   1      42.568  25.138  28.335  1.00  0.00     0.034 A 
ATOM     52  C   UNL A   1      43.724  29.359  33.155  1.00  0.00     0.049 A 
ATOM     53  C   UNL A   1      43.698  25.305  29.314  1.00  0.00     0.074 A 
ATOM     54  C   UNL A   1      44.776  29.362  34.055  1.00  0.00     0.029 A 
ATOM     55  N   UNL A   1      43.919  28.276  32.315  1.00  0.00    -0.354 N 
ATOM     56  N   UNL A   1      43.817  26.161  30.300  1.00  0.00    -0.248 NA
ATOM     57  C   UNL A   1      44.829  24.374  29.191  1.00  0.00     0.031 C 
ATOM     58  C   UNL A   1      45.634  28.311  33.726  1.00  0.00     0.029 A 
ATOM     59  C   UNL A   1      45.088  27.620  32.659  1.00  0.00     0.049 A 
ATOM     60  H   UNL A   1      43.316  28.012  31.583  1.00  0.00     0.167 HD
ATOM     61  C   UNL A   1      45.011  25.844  30.937  1.00  0.00     0.074 A 
ATOM     62  C   UNL A   1      45.567  24.703  30.241  1.00  0.00     0.031 C 
ATOM     63  C   UNL A   1      45.602  26.451  31.994  1.00  0.00     0.034 A 
BRANCH  50  64
ATOM     64  C   UNL A   1      42.659  31.486  33.971  1.00  0.00     0.023 A 
ATOM     65  C   UNL A   1      43.135  32.725  33.497  1.00  0.00     0.012 A 
ATOM     66  C   UNL A   1      42.099  31.405  35.261  1.00  0.00     0.148 A 
ATOM     67  C   UNL A   1      43.067  33.863  34.300  1.00  0.00     0.002 A 
ATOM     68  C   UNL A   1      41.990  32.552  36.036  1.00  0.00     0.091 A 
ATOM     69  F   UNL A   1      41.671  30.212  35.697  1.00  0.00    -0.205 F 
ATOM     70  C   UNL A   1      42.482  33.779  35.561  1.00  0.00     0.022 A 
BRANCH  68  71
ATOM     71  S   UNL A   1      41.172  32.568  37.635  1.00  0.00     0.127 S 
ATOM     72  O   UNL A   1      39.847  32.051  37.292  1.00  0.00    -0.237 OA
ATOM     73  O   UNL A   1      42.004  31.647  38.410  1.00  0.00    -0.237 OA
ATOM     74  O   UNL A   1      41.198  33.950  38.090  1.00  0.00    -0.744 OA
ENDBRANCH  68  71
ENDBRANCH  50  64
BRANCH  51  75
ATOM     75  C   UNL A   1      42.636  24.095  27.270  1.00  0.00     0.023 A 
ATOM     76  C   UNL A   1      43.276  24.380  26.049  1.00  0.00     0.012 A 
ATOM     77  C   UNL A   1      42.046  22.831  27.457  1.00  0.00     0.148 A 
ATOM     78  C   UNL A   1      43.277  23.446  25.012  1.00  0.00     0.002 A 
ATOM     79  C   UNL A   1      42.106  21.882  26.443  1.00  0.00     0.091 A 
ATOM     80  F   UNL A   1      41.432  22.580  28.622  1.00  0.00    -0.205 F 
ATOM     81  C   UNL A   1      42.699  22.195  25.211  1.00  0.00     0.022 A 
BRANCH  79  82
ATOM     82  S   UNL A   1      41.508  20.205  26.668  1.00  0.00     0.127 S 
ATOM     83  O   UNL A   1      40.072  20.418  26.829  1.00  0.00    -0.237 OA
ATOM     84  O   UNL A   1      41.900  19.572  25.409  1.00  0.00    -0.237 OA
ATOM     85  O   UNL A   1      42.210  19.692  27.837  1.00  0.00    -0.744 OA
ENDBRANCH  79  82
ENDBRANCH  51  75
BRANCH  63  86
ATOM     86  C   UNL A   1      46.890  25.865  32.512  1.00  0.00     0.023 A 
ATOM     87  C   UNL A   1      48.128  26.341  32.038  1.00  0.00     0.012 A 
ATOM     88  C   UNL A   1      46.866  24.888  33.527  1.00  0.00     0.148 A 
ATOM     89  C   UNL A   1      49.322  25.824  32.537  1.00  0.00     0.002 A 
ATOM     90  C   UNL A   1      48.058  24.420  34.060  1.00  0.00     0.091 A 
ATOM     91  F   UNL A   1      45.676  24.438  33.953  1.00  0.00    -0.205 F 
ATOM     92  C   UNL A   1      49.288  24.873  33.556  1.00  0.00     0.022 A 
BRANCH  90  93
ATOM     93  S   UNL A   1      48.111  23.274  35.443  1.00  0.00     0.127 S 
ATOM     94  O   UNL A   1      49.500  23.399  35.879  1.00  0.00    -0.237 OA
ATOM     95  O   UNL A   1      47.129  23.854  36.359  1.00  0.00    -0.237 OA
ATOM     96  O   UNL A   1      47.742  21.973  34.904  1.00  0.00    -0.744 OA
ENDBRANCH  90  93
ENDBRANCH  63  86
ENDBRANCH  37  38
ENDBRANCH  29  32
ENDBRANCH  27  28
ENDBRANCH   1  27
TORSDOF 19
ENDMDL
MODEL 2
REMARK VINA RESULT:     -11.3      5.195      8.559
REMARK SMILES CC(C)(C)OC(=O)N[C@H](Cc1ccc(N=[N+]=[N-])cc1)C(=O)NCCCNC(=O)c1ccc(-c2c3nc(c(-c4cccc(S(=O)(=O)[O-])c4F)c4ccc([nH]4)c(-c4cccc(S(=O)(=O)[O-])c4F)c4nc(c(-c5cccc(S(=O)(=O)[O-])c5F)c5ccc2[nH]5)C=C4)C=C3)cc1
REMARK SMILES IDX 24 1 23 2 22 3 20 4 21 5 9 7 8 8 6 9 7 10 5 12 2 13 1 14
REMARK SMILES IDX 3 15 4 16 10 17 11 18 12 19 19 20 13 21 18 22 14 23 15 24
REMARK SMILES IDX 16 25 17 26 25 27 26 28 27 29 28 31 29 32 30 33 91 34 31 35
REMARK SMILES IDX 90 36 32 37 33 38 34 39 84 40 35 41 89 42 83 43 85 44 36 45
REMARK SMILES IDX 88 46 82 47 81 48 37 50 69 51 49 52 68 53 50 54 53 55 67 56
REMARK SMILES IDX 86 57 51 58 52 59 66 61 87 62 54 63 38 64 39 65 47 66 40 67
REMARK SMILES IDX 42 68 48 69 41 70 43 71 44 72 45 73 46 74 70 75 71 76 79 77
REMARK SMILES IDX 72 78 74 79 80 80 73 81 75 82 76 83 77 84 78 85 55 86 56 87
REMARK SMILES IDX 64 88 57 89 59 90 65 91 58 92 60 93 61 94 62 95 63 96
REMARK H PARENT 22 6 8 11 26 30 85 49 53 60
REMARK Flexibility Score: inf
ROOT
ATOM      1  C   UNL A   1      37.751  18.831  25.213  1.00  0.00     0.042 C 
ENDROOT
BRANCH   1   2
ATOM      2  C   UNL A   1      36.631  19.672  24.626  1.00  0.00     0.117 C 
BRANCH   2   3
ATOM      3  N   UNL A   1      35.369  18.950  24.626  1.00  0.00    -0.354 N 
ATOM      4  C   UNL A   1      34.094  19.436  24.671  1.00  0.00     0.243 C 
ATOM      5  O   UNL A   1      33.169  18.634  24.829  1.00  0.00    -0.273 OA
ATOM      6  H   UNL A   1      35.445  17.969  24.589  1.00  0.00     0.163 HD
BRANCH   4   7
ATOM      7  C   UNL A   1      33.837  20.957  24.678  1.00  0.00     0.179 C 
BRANCH   7   8
ATOM      8  N   UNL A   1      33.679  21.520  26.026  1.00  0.00    -0.309 N 
ATOM      9  C   UNL A   1      34.553  22.349  26.673  1.00  0.00     0.408 C 
ATOM     10  O   UNL A   1      34.238  22.912  27.711  1.00  0.00    -0.225 OA
ATOM     11  H   UNL A   1      32.858  21.277  26.514  1.00  0.00     0.167 HD
BRANCH   9  12
ATOM     12  O   UNL A   1      35.775  22.382  26.097  1.00  0.00    -0.444 OA
BRANCH  12  13
ATOM     13  C   UNL A   1      36.288  23.576  25.453  1.00  0.00     0.106 C 
ATOM     14  C   UNL A   1      36.654  23.134  24.027  1.00  0.00     0.056 C 
ATOM     15  C   UNL A   1      37.567  24.083  26.134  1.00  0.00     0.056 C 
ATOM     16  C   UNL A   1      35.215  24.663  25.376  1.00  0.00     0.056 C 
ENDBRANCH  12  13
ENDBRANCH   9  12
ENDBRANCH   7   8
BRANCH   7  17
ATOM     17  C   UNL A   1      32.604  21.168  23.762  1.00  0.00     0.070 C 
BRANCH  17  18
ATOM     18  C   UNL A   1      32.289  22.589  23.373  1.00  0.00    -0.045 A 
ATOM     19  C   UNL A   1      31.057  23.160  23.721  1.00  0.00     0.004 A 
ATOM     20  C   UNL A   1      33.201  23.349  22.641  1.00  0.00     0.004 A 
ATOM     21  C   UNL A   1      30.750  24.468  23.341  1.00  0.00     0.010 A 
ATOM     22  C   UNL A   1      32.885  24.658  22.258  1.00  0.00     0.010 A 
ATOM     23  C   UNL A   1      31.655  25.239  22.604  1.00  0.00     0.038 A 
BRANCH  23  24
ATOM     24  N   UNL A   1      31.246  26.544  22.267  1.00  0.00    -0.061 NA
ATOM     25  N   UNL A   1      32.099  27.436  22.376  1.00  0.00     0.005 N 
ATOM     26  N   UNL A   1      32.876  28.269  22.481  1.00  0.00    -0.003 NA
ENDBRANCH  23  24
ENDBRANCH  17  18
ENDBRANCH   7  17
ENDBRANCH   4   7
ENDBRANCH   2   3
ENDBRANCH   1   2
BRANCH   1  27
ATOM     27  C   UNL A   1      38.962  19.654  25.610  1.00  0.00     0.118 C 
BRANCH  27  28
ATOM     28  N   UNL A   1      40.138  18.826  25.847  1.00  0.00    -0.352 N 
ATOM     29  C   UNL A   1      41.425  19.209  26.126  1.00  0.00     0.251 C 
ATOM     30  H   UNL A   1      39.986  17.854  25.801  1.00  0.00     0.163 HD
ATOM     31  O   UNL A   1      42.331  18.382  26.087  1.00  0.00    -0.269 OA
BRANCH  29  32
ATOM     32  C   UNL A   1      41.710  20.621  26.452  1.00  0.00     0.039 A 
ATOM     33  C   UNL A   1      42.174  20.942  27.729  1.00  0.00     0.014 A 
ATOM     34  C   UNL A   1      41.534  21.624  25.494  1.00  0.00     0.014 A 
ATOM     35  C   UNL A   1      42.518  22.262  28.024  1.00  0.00     0.010 A 
ATOM     36  C   UNL A   1      41.971  22.916  25.758  1.00  0.00     0.010 A 
ATOM     37  C   UNL A   1      42.453  23.253  27.030  1.00  0.00    -0.014 A 
BRANCH  37  38
ATOM     38  C   UNL A   1      42.885  24.647  27.305  1.00  0.00     0.031 A 
ATOM     39  C   UNL A   1      41.932  25.623  27.943  1.00  0.00     0.074 A 
ATOM     40  C   UNL A   1      44.107  25.056  26.906  1.00  0.00     0.049 A 
ATOM     41  N   UNL A   1      42.113  26.889  28.216  1.00  0.00    -0.248 NA
ATOM     42  C   UNL A   1      40.592  25.123  28.301  1.00  0.00     0.031 C 
ATOM     43  C   UNL A   1      45.090  24.228  26.201  1.00  0.00     0.029 A 
ATOM     44  N   UNL A   1      44.721  26.279  27.009  1.00  0.00    -0.354 N 
ATOM     45  C   UNL A   1      40.905  27.345  28.729  1.00  0.00     0.074 A 
ATOM     46  C   UNL A   1      39.988  26.228  28.714  1.00  0.00     0.031 C 
ATOM     47  C   UNL A   1      46.179  24.966  25.936  1.00  0.00     0.029 A 
ATOM     48  C   UNL A   1      45.961  26.327  26.414  1.00  0.00     0.049 A 
ATOM     49  H   UNL A   1      44.313  27.050  27.466  1.00  0.00     0.167 HD
ATOM     50  C   UNL A   1      40.594  28.578  29.188  1.00  0.00     0.034 A 
ATOM     51  C   UNL A   1      46.816  27.356  26.250  1.00  0.00     0.034 A 
ATOM     52  C   UNL A   1      41.522  29.673  29.248  1.00  0.00     0.049 A 
ATOM     53  C   UNL A   1      46.454  28.703  26.814  1.00  0.00     0.074 A 
ATOM     54  C   UNL A   1      41.334  30.926  29.805  1.00  0.00     0.029 A 
ATOM     55  N   UNL A   1      42.801  29.658  28.717  1.00  0.00    -0.354 N 
ATOM     56  N   UNL A   1      45.371  29.063  27.460  1.00  0.00    -0.248 NA
ATOM     57  C   UNL A   1      47.444  29.778  26.660  1.00  0.00     0.031 C 
ATOM     58  C   UNL A   1      42.480  31.686  29.564  1.00  0.00     0.029 A 
ATOM     59  C   UNL A   1      43.403  30.888  28.909  1.00  0.00     0.049 A 
ATOM     60  H   UNL A   1      43.219  28.887  28.270  1.00  0.00     0.167 HD
ATOM     61  C   UNL A   1      45.570  30.390  27.823  1.00  0.00     0.074 A 
ATOM     62  C   UNL A   1      46.885  30.763  27.347  1.00  0.00     0.031 C 
ATOM     63  C   UNL A   1      44.734  31.230  28.480  1.00  0.00     0.034 A 
BRANCH  50  64
ATOM     64  C   UNL A   1      39.199  28.822  29.698  1.00  0.00     0.023 A 
ATOM     65  C   UNL A   1      38.861  28.478  31.022  1.00  0.00     0.012 A 
ATOM     66  C   UNL A   1      38.260  29.500  28.896  1.00  0.00     0.148 A 
ATOM     67  C   UNL A   1      37.603  28.793  31.536  1.00  0.00     0.002 A 
ATOM     68  C   UNL A   1      37.028  29.854  29.430  1.00  0.00     0.091 A 
ATOM     69  F   UNL A   1      38.597  29.799  27.633  1.00  0.00    -0.205 F 
ATOM     70  C   UNL A   1      36.694  29.493  30.746  1.00  0.00     0.022 A 
BRANCH  68  71
ATOM     71  S   UNL A   1      35.825  30.834  28.526  1.00  0.00     0.127 S 
ATOM     72  O   UNL A   1      34.922  31.253  29.598  1.00  0.00    -0.237 OA
ATOM     73  O   UNL A   1      36.657  31.904  27.976  1.00  0.00    -0.237 OA
ATOM     74  O   UNL A   1      35.237  29.943  27.537  1.00  0.00    -0.744 OA
ENDBRANCH  68  71
ENDBRANCH  50  64
BRANCH  51  75
ATOM     75  C   UNL A   1      48.109  27.158  25.533  1.00  0.00     0.023 A 
ATOM     76  C   UNL A   1      49.248  26.733  26.245  1.00  0.00     0.012 A 
ATOM     77  C   UNL A   1      48.219  27.414  24.153  1.00  0.00     0.148 A 
ATOM     78  C   UNL A   1      50.485  26.623  25.607  1.00  0.00     0.002 A 
ATOM     79  C   UNL A   1      49.439  27.241  23.511  1.00  0.00     0.091 A 
ATOM     80  F   UNL A   1      47.128  27.828  23.494  1.00  0.00    -0.205 F 
ATOM     81  C   UNL A   1      50.579  26.869  24.239  1.00  0.00     0.022 A 
BRANCH  79  82
ATOM     82  S   UNL A   1      49.614  27.404  21.732  1.00  0.00     0.127 S 
ATOM     83  O   UNL A   1      51.018  27.050  21.536  1.00  0.00    -0.237 OA
ATOM     84  O   UNL A   1      48.654  26.416  21.241  1.00  0.00    -0.237 OA
ATOM     85  O   UNL A   1      49.259  28.784  21.429  1.00  0.00    -0.744 OA
ENDBRANCH  79  82
ENDBRANCH  51  75
BRANCH  63  86
ATOM     86  C   UNL A   1      45.229  32.621  28.783  1.00  0.00     0.023 A 
ATOM     87  C   UNL A   1      45.995  32.865  29.938  1.00  0.00     0.012 A 
ATOM     88  C   UNL A   1      44.990  33.671  27.875  1.00  0.00     0.148 A 
ATOM     89  C   UNL A   1      46.482  34.144  30.206  1.00  0.00     0.002 A 
ATOM     90  C   UNL A   1      45.526  34.927  28.119  1.00  0.00     0.091 A 
ATOM     91  F   UNL A   1      44.244  33.420  26.788  1.00  0.00    -0.205 F 
ATOM     92  C   UNL A   1      46.259  35.171  29.291  1.00  0.00     0.022 A 
BRANCH  90  93
ATOM     93  S   UNL A   1      45.378  36.282  26.948  1.00  0.00     0.127 S 
ATOM     94  O   UNL A   1      46.144  37.334  27.613  1.00  0.00    -0.237 OA
ATOM     95  O   UNL A   1      46.013  35.726  25.753  1.00  0.00    -0.237 OA
ATOM     96  O   UNL A   1      43.952  36.542  26.810  1.00  0.00    -0.744 OA
ENDBRANCH  90  93
ENDBRANCH  63  86
ENDBRANCH  37  38
ENDBRANCH  29  32
ENDBRANCH  27  28
ENDBRANCH   1  27
TORSDOF 19
ENDMDL
MODEL 3
REMARK VINA RESULT:     -11.2      3.216      8.529
REMARK SMILES CC(C)(C)OC(=O)N[C@H](Cc1ccc(N=[N+]=[N-])cc1)C(=O)NCCCNC(=O)c1ccc(-c2c3nc(c(-c4cccc(S(=O)(=O)[O-])c4F)c4ccc([nH]4)c(-c4cccc(S(=O)(=O)[O-])c4F)c4nc(c(-c5cccc(S(=O)(=O)[O-])c5F)c5ccc2[nH]5)C=C4)C=C3)cc1
REMARK SMILES IDX 24 1 23 2 22 3 20 4 21 5 9 7 8 8 6 9 7 10 5 12 2 13 1 14
REMARK SMILES IDX 3 15 4 16 10 17 11 18 12 19 19 20 13 21 18 22 14 23 15 24
REMARK SMILES IDX 16 25 17 26 25 27 26 28 27 29 28 31 29 32 30 33 91 34 31 35
REMARK SMILES IDX 90 36 32 37 33 38 34 39 84 40 35 41 89 42 83 43 85 44 36 45
REMARK SMILES IDX 88 46 82 47 81 48 37 50 69 51 49 52 68 53 50 54 53 55 67 56
REMARK SMILES IDX 86 57 51 58 52 59 66 61 87 62 54 63 38 64 39 65 47 66 40 67
REMARK SMILES IDX 42 68 48 69 41 70 43 71 44 72 45 73 46 74 70 75 71 76 79 77
REMARK SMILES IDX 72 78 74 79 80 80 73 81 75 82 76 83 77 84 78 85 55 86 56 87
REMARK SMILES IDX 64 88 57 89 59 90 65 91 58 92 60 93 61 94 62 95 63 96
REMARK H PARENT 22 6 8 11 26 30 85 49 53 60
REMARK Flexibility Score: inf
ROOT
ATOM      1  C   UNL A   1      31.022  32.427  26.084  1.00  0.00     0.042 C 
ENDROOT
BRANCH   1   2
ATOM      2  C   UNL A   1      30.933  30.963  25.687  1.00  0.00     0.117 C 
BRANCH   2   3
ATOM      3  N   UNL A   1      30.182  30.793  24.454  1.00  0.00    -0.354 N 
ATOM      4  C   UNL A   1      30.151  29.728  23.600  1.00  0.00     0.243 C 
ATOM      5  O   UNL A   1      29.567  29.863  22.521  1.00  0.00    -0.273 OA
ATOM      6  H   UNL A   1      29.613  31.555  24.199  1.00  0.00     0.163 HD
BRANCH   4   7
ATOM      7  C   UNL A   1      30.956  28.450  23.914  1.00  0.00     0.179 C 
BRANCH   7   8
ATOM      8  N   UNL A   1      32.285  28.423  23.287  1.00  0.00    -0.309 N 
ATOM      9  C   UNL A   1      33.490  28.551  23.919  1.00  0.00     0.408 C 
ATOM     10  O   UNL A   1      34.538  28.323  23.333  1.00  0.00    -0.225 OA
ATOM     11  H   UNL A   1      32.310  28.298  22.310  1.00  0.00     0.167 HD
BRANCH   9  12
ATOM     12  O   UNL A   1      33.378  29.032  25.177  1.00  0.00    -0.444 OA
BRANCH  12  13
ATOM     13  C   UNL A   1      33.558  28.186  26.341  1.00  0.00     0.106 C 
ATOM     14  C   UNL A   1      34.781  28.767  27.071  1.00  0.00     0.056 C 
ATOM     15  C   UNL A   1      33.886  26.740  25.946  1.00  0.00     0.056 C 
ATOM     16  C   UNL A   1      32.344  28.262  27.268  1.00  0.00     0.056 C 
ENDBRANCH  12  13
ENDBRANCH   9  12
ENDBRANCH   7   8
BRANCH   7  17
ATOM     17  C   UNL A   1      30.039  27.274  23.492  1.00  0.00     0.070 C 
BRANCH  17  18
ATOM     18  C   UNL A   1      30.333  25.933  24.112  1.00  0.00    -0.045 A 
ATOM     19  C   UNL A   1      30.638  24.832  23.302  1.00  0.00     0.004 A 
ATOM     20  C   UNL A   1      30.281  25.759  25.495  1.00  0.00     0.004 A 
ATOM     21  C   UNL A   1      30.885  23.581  23.871  1.00  0.00     0.010 A 
ATOM     22  C   UNL A   1      30.525  24.501  26.059  1.00  0.00     0.010 A 
ATOM     23  C   UNL A   1      30.834  23.393  25.256  1.00  0.00     0.038 A 
BRANCH  23  24
ATOM     24  N   UNL A   1      31.095  22.091  25.727  1.00  0.00    -0.061 NA
ATOM     25  N   UNL A   1      31.883  21.408  25.057  1.00  0.00     0.005 N 
ATOM     26  N   UNL A   1      32.602  20.767  24.442  1.00  0.00    -0.003 NA
ENDBRANCH  23  24
ENDBRANCH  17  18
ENDBRANCH   7  17
ENDBRANCH   4   7
ENDBRANCH   2   3
ENDBRANCH   1   2
BRANCH   1  27
ATOM     27  C   UNL A   1      32.238  32.734  26.939  1.00  0.00     0.118 C 
BRANCH  27  28
ATOM     28  N   UNL A   1      32.234  34.106  27.430  1.00  0.00    -0.352 N 
ATOM     29  C   UNL A   1      33.025  34.685  28.390  1.00  0.00     0.251 C 
ATOM     30  H   UNL A   1      31.569  34.702  27.014  1.00  0.00     0.163 HD
ATOM     31  O   UNL A   1      32.742  35.796  28.827  1.00  0.00    -0.269 OA
BRANCH  29  32
ATOM     32  C   UNL A   1      34.202  33.954  28.902  1.00  0.00     0.039 A 
ATOM     33  C   UNL A   1      35.470  34.513  28.739  1.00  0.00     0.014 A 
ATOM     34  C   UNL A   1      34.051  32.727  29.554  1.00  0.00     0.014 A 
ATOM     35  C   UNL A   1      36.581  33.867  29.284  1.00  0.00     0.010 A 
ATOM     36  C   UNL A   1      35.142  32.139  30.180  1.00  0.00     0.010 A 
ATOM     37  C   UNL A   1      36.422  32.693  30.040  1.00  0.00    -0.014 A 
BRANCH  37  38
ATOM     38  C   UNL A   1      37.582  32.034  30.691  1.00  0.00     0.031 A 
ATOM     39  C   UNL A   1      38.360  30.974  29.955  1.00  0.00     0.074 A 
ATOM     40  C   UNL A   1      37.885  32.331  31.971  1.00  0.00     0.049 A 
ATOM     41  N   UNL A   1      39.369  30.256  30.375  1.00  0.00    -0.248 NA
ATOM     42  C   UNL A   1      37.937  30.658  28.579  1.00  0.00     0.031 C 
ATOM     43  C   UNL A   1      37.154  33.278  32.817  1.00  0.00     0.029 A 
ATOM     44  N   UNL A   1      38.870  31.845  32.795  1.00  0.00    -0.354 N 
ATOM     45  C   UNL A   1      39.669  29.379  29.341  1.00  0.00     0.074 A 
ATOM     46  C   UNL A   1      38.725  29.636  28.278  1.00  0.00     0.031 C 
ATOM     47  C   UNL A   1      37.714  33.304  34.037  1.00  0.00     0.029 A 
ATOM     48  C   UNL A   1      38.817  32.349  34.075  1.00  0.00     0.049 A 
ATOM     49  H   UNL A   1      39.550  31.198  32.499  1.00  0.00     0.167 HD
ATOM     50  C   UNL A   1      40.654  28.455  29.276  1.00  0.00     0.034 A 
ATOM     51  C   UNL A   1      39.556  32.057  35.163  1.00  0.00     0.034 A 
ATOM     52  C   UNL A   1      41.622  28.235  30.315  1.00  0.00     0.049 A 
ATOM     53  C   UNL A   1      40.672  31.056  35.040  1.00  0.00     0.074 A 
ATOM     54  C   UNL A   1      42.728  27.403  30.293  1.00  0.00     0.029 A 
ATOM     55  N   UNL A   1      41.591  28.828  31.565  1.00  0.00    -0.354 N 
ATOM     56  N   UNL A   1      41.052  30.367  33.991  1.00  0.00    -0.248 NA
ATOM     57  C   UNL A   1      41.486  30.814  36.240  1.00  0.00     0.031 C 
ATOM     58  C   UNL A   1      43.336  27.454  31.549  1.00  0.00     0.029 A 
ATOM     59  C   UNL A   1      42.643  28.361  32.333  1.00  0.00     0.049 A 
ATOM     60  H   UNL A   1      40.921  29.485  31.864  1.00  0.00     0.167 HD
ATOM     61  C   UNL A   1      42.170  29.647  34.393  1.00  0.00     0.074 A 
ATOM     62  C   UNL A   1      42.422  30.000  35.775  1.00  0.00     0.031 C 
ATOM     63  C   UNL A   1      42.915  28.762  33.688  1.00  0.00     0.034 A 
BRANCH  50  64
ATOM     64  C   UNL A   1      40.770  27.618  28.031  1.00  0.00     0.023 A 
ATOM     65  C   UNL A   1      41.404  28.141  26.886  1.00  0.00     0.012 A 
ATOM     66  C   UNL A   1      40.354  26.272  28.039  1.00  0.00     0.148 A 
ATOM     67  C   UNL A   1      41.609  27.340  25.762  1.00  0.00     0.002 A 
ATOM     68  C   UNL A   1      40.605  25.467  26.936  1.00  0.00     0.091 A 
ATOM     69  F   UNL A   1      39.736  25.803  29.132  1.00  0.00    -0.205 F 
ATOM     70  C   UNL A   1      41.223  26.002  25.793  1.00  0.00     0.022 A 
BRANCH  68  71
ATOM     71  S   UNL A   1      40.230  23.712  26.910  1.00  0.00     0.127 S 
ATOM     72  O   UNL A   1      41.159  23.228  25.889  1.00  0.00    -0.237 OA
ATOM     73  O   UNL A   1      40.563  23.310  28.277  1.00  0.00    -0.237 OA
ATOM     74  O   UNL A   1      38.820  23.603  26.565  1.00  0.00    -0.744 OA
ENDBRANCH  68  71
ENDBRANCH  50  64
BRANCH  51  75
ATOM     75  C   UNL A   1      39.282  32.729  36.467  1.00  0.00     0.023 A 
ATOM     76  C   UNL A   1      39.943  33.930  36.790  1.00  0.00     0.012 A 
ATOM     77  C   UNL A   1      38.387  32.167  37.397  1.00  0.00     0.148 A 
ATOM     78  C   UNL A   1      39.761  34.527  38.038  1.00  0.00     0.002 A 
ATOM     79  C   UNL A   1      38.162  32.801  38.613  1.00  0.00     0.091 A 
ATOM     80  F   UNL A   1      37.775  31.018  37.077  1.00  0.00    -0.205 F 
ATOM     81  C   UNL A   1      38.866  33.968  38.946  1.00  0.00     0.022 A 
BRANCH  79  82
ATOM     82  S   UNL A   1      36.926  32.222  39.778  1.00  0.00     0.127 S 
ATOM     83  O   UNL A   1      35.693  32.383  39.011  1.00  0.00    -0.237 OA
ATOM     84  O   UNL A   1      37.341  30.836  39.997  1.00  0.00    -0.237 OA
ATOM     85  O   UNL A   1      37.061  33.077  40.950  1.00  0.00    -0.744 OA
ENDBRANCH  79  82
ENDBRANCH  51  75
BRANCH  63  86
ATOM     86  C   UNL A   1      44.114  28.152  34.368  1.00  0.00     0.023 A 
ATOM     87  C   UNL A   1      45.352  28.822  34.360  1.00  0.00     0.012 A 
ATOM     88  C   UNL A   1      43.985  26.942  35.079  1.00  0.00     0.148 A 
ATOM     89  C   UNL A   1      46.455  28.276  35.015  1.00  0.00     0.002 A 
ATOM     90  C   UNL A   1      45.072  26.434  35.776  1.00  0.00     0.091 A 
ATOM     91  F   UNL A   1      42.801  26.312  35.060  1.00  0.00    -0.205 F 
ATOM     92  C   UNL A   1      46.313  27.090  35.733  1.00  0.00     0.022 A 
BRANCH  90  93
ATOM     93  S   UNL A   1      44.954  24.970  36.811  1.00  0.00     0.127 S 
ATOM     94  O   UNL A   1      44.580  23.947  35.836  1.00  0.00    -0.237 OA
ATOM     95  O   UNL A   1      46.316  24.849  37.329  1.00  0.00    -0.237 OA
ATOM     96  O   UNL A   1      43.946  25.268  37.819  1.00  0.00    -0.744 OA
ENDBRANCH  90  93
ENDBRANCH  63  86
ENDBRANCH  37  38
ENDBRANCH  29  32
ENDBRANCH  27  28
ENDBRANCH   1  27
TORSDOF 19
ENDMDL
