MODEL 1
REMARK VINA RESULT:     -12.9      0.000      0.000
REMARK SMILES Cc1cc(Cl)cc2c1O[C@H](C(F)(F)F)C(C(=O)NCCCNC(=O)c1ccc(-c3c4nc(c(-c5cccc(S(=O)(=O)[O-])c5F)c5ccc([nH]5)c(-c5cccc(S(=O)(=O)[O-])c5F)c5nc(c(-c6cccc(S(=O)(=O)[O-])c6F)c6ccc3[nH]6)C=C5)C=C4)cc1)=C2
REMARK SMILES IDX 21 1 20 2 19 3 18 4 16 5 17 6 15 8 1 9 2 10 3 11 8 12 4 13
REMARK SMILES IDX 7 14 9 15 5 16 6 17 88 18 10 19 11 20 12 21 13 22 14 23
REMARK SMILES IDX 22 24 23 25 24 27 25 28 26 29 87 30 27 31 86 32 28 33 29 34
REMARK SMILES IDX 30 35 80 36 31 37 85 38 79 39 81 40 32 41 84 42 78 43 77 44
REMARK SMILES IDX 33 46 65 47 45 48 64 49 46 50 49 51 63 52 82 53 47 54 48 55
REMARK SMILES IDX 62 57 83 58 50 59 34 60 35 61 43 62 36 63 38 64 44 65 37 66
REMARK SMILES IDX 39 67 40 68 41 69 42 70 66 71 67 72 75 73 68 74 70 75 76 76
REMARK SMILES IDX 69 77 71 78 72 79 73 80 74 81 51 82 52 83 60 84 53 85 55 86
REMARK SMILES IDX 61 87 54 88 56 89 57 90 58 91 59 92
REMARK H PARENT 18 7 22 26 81 45 49 56
REMARK Flexibility Score: inf
ROOT
ATOM      1  C   UNL A   1      33.089  29.046  25.231  1.00  0.00     0.118 C 
ENDROOT
BRANCH   1   2
ATOM      2  C   UNL A   1      33.125  28.953  23.712  1.00  0.00     0.042 C 
BRANCH   2   3
ATOM      3  C   UNL A   1      32.029  28.051  23.169  1.00  0.00     0.118 C 
BRANCH   3   4
ATOM      4  N   UNL A   1      32.507  27.193  22.095  1.00  0.00    -0.352 N 
ATOM      5  C   UNL A   1      33.024  25.948  21.976  1.00  0.00     0.251 C 
ATOM      6  O   UNL A   1      33.278  25.589  20.822  1.00  0.00    -0.270 OA
ATOM      7  H   UNL A   1      32.432  27.637  21.219  1.00  0.00     0.163 HD
BRANCH   5   8
ATOM      8  C   UNL A   1      33.284  25.018  23.112  1.00  0.00     0.067 C 
ATOM      9  C   UNL A   1      33.335  22.405  27.557  1.00  0.00     0.048 C 
ATOM     10  C   UNL A   1      34.210  22.483  26.338  1.00  0.00    -0.007 A 
ATOM     11  C   UNL A   1      35.320  21.633  26.235  1.00  0.00     0.027 A 
ATOM     12  C   UNL A   1      33.942  23.366  25.283  1.00  0.00     0.131 A 
ATOM     13  C   UNL A   1      36.139  21.680  25.106  1.00  0.00     0.042 A 
ATOM     14  C   UNL A   1      34.761  23.413  24.150  1.00  0.00     0.019 A 
ATOM     15  O   UNL A   1      32.877  24.209  25.433  1.00  0.00    -0.475 OA
ATOM     16  Cl  UNL A   1      37.499  20.631  25.001  1.00  0.00    -0.084 Cl
ATOM     17  C   UNL A   1      35.868  22.567  24.065  1.00  0.00     0.032 A 
ATOM     18  C   UNL A   1      34.462  24.367  23.087  1.00  0.00     0.025 C 
ATOM     19  C   UNL A   1      32.306  24.761  24.222  1.00  0.00     0.314 C 
BRANCH  19  20
ATOM     20  C   UNL A   1      31.123  23.880  23.778  1.00  0.00     0.429 C 
ATOM     21  F   UNL A   1      30.521  23.313  24.853  1.00  0.00    -0.167 F 
ATOM     22  F   UNL A   1      30.162  24.578  23.126  1.00  0.00    -0.167 F 
ATOM     23  F   UNL A   1      31.501  22.877  22.952  1.00  0.00    -0.167 F 
ENDBRANCH  19  20
ENDBRANCH   5   8
ENDBRANCH   3   4
ENDBRANCH   2   3
ENDBRANCH   1   2
BRANCH   1  24
ATOM     24  N   UNL A   1      32.581  30.341  25.683  1.00  0.00    -0.352 N 
ATOM     25  C   UNL A   1      32.942  31.104  26.764  1.00  0.00     0.251 C 
ATOM     26  H   UNL A   1      31.868  30.725  25.123  1.00  0.00     0.163 HD
ATOM     27  O   UNL A   1      32.206  32.016  27.138  1.00  0.00    -0.269 OA
BRANCH  25  28
ATOM     28  C   UNL A   1      34.208  30.832  27.468  1.00  0.00     0.039 A 
ATOM     29  C   UNL A   1      35.145  31.855  27.626  1.00  0.00     0.014 A 
ATOM     30  C   UNL A   1      34.477  29.549  27.952  1.00  0.00     0.014 A 
ATOM     31  C   UNL A   1      36.327  31.602  28.324  1.00  0.00     0.010 A 
ATOM     32  C   UNL A   1      35.600  29.328  28.736  1.00  0.00     0.010 A 
ATOM     33  C   UNL A   1      36.549  30.344  28.909  1.00  0.00    -0.014 A 
BRANCH  33  34
ATOM     34  C   UNL A   1      37.779  30.052  29.681  1.00  0.00     0.031 A 
ATOM     35  C   UNL A   1      38.823  29.136  29.101  1.00  0.00     0.074 A 
ATOM     36  C   UNL A   1      37.917  30.546  30.927  1.00  0.00     0.049 A 
ATOM     37  N   UNL A   1      39.936  28.712  29.641  1.00  0.00    -0.248 NA
ATOM     38  C   UNL A   1      38.572  28.600  27.752  1.00  0.00     0.031 C 
ATOM     39  C   UNL A   1      36.935  31.384  31.618  1.00  0.00     0.029 A 
ATOM     40  N   UNL A   1      38.930  30.402  31.840  1.00  0.00    -0.354 N 
ATOM     41  C   UNL A   1      40.499  27.844  28.713  1.00  0.00     0.074 A 
ATOM     42  C   UNL A   1      39.581  27.756  27.601  1.00  0.00     0.031 C 
ATOM     43  C   UNL A   1      37.404  31.699  32.835  1.00  0.00     0.029 A 
ATOM     44  C   UNL A   1      38.702  31.059  33.026  1.00  0.00     0.049 A 
ATOM     45  H   UNL A   1      39.745  29.877  31.664  1.00  0.00     0.167 HD
ATOM     46  C   UNL A   1      41.694  27.213  28.763  1.00  0.00     0.034 A 
ATOM     47  C   UNL A   1      39.456  31.139  34.140  1.00  0.00     0.034 A 
ATOM     48  C   UNL A   1      42.623  27.350  29.849  1.00  0.00     0.049 A 
ATOM     49  C   UNL A   1      40.793  30.445  34.161  1.00  0.00     0.074 A 
ATOM     50  C   UNL A   1      43.893  26.815  29.964  1.00  0.00     0.029 A 
ATOM     51  N   UNL A   1      42.384  28.074  31.007  1.00  0.00    -0.354 N 
ATOM     52  N   UNL A   1      41.372  29.746  33.215  1.00  0.00    -0.248 NA
ATOM     53  C   UNL A   1      41.592  30.575  35.387  1.00  0.00     0.031 C 
ATOM     54  C   UNL A   1      44.412  27.196  31.204  1.00  0.00     0.029 A 
ATOM     55  C   UNL A   1      43.478  27.992  31.849  1.00  0.00     0.049 A 
ATOM     56  H   UNL A   1      41.557  28.573  31.201  1.00  0.00     0.167 HD
ATOM     57  C   UNL A   1      42.613  29.375  33.719  1.00  0.00     0.074 A 
ATOM     58  C   UNL A   1      42.712  29.951  35.046  1.00  0.00     0.031 C 
ATOM     59  C   UNL A   1      43.577  28.611  33.146  1.00  0.00     0.034 A 
BRANCH  46  60
ATOM     60  C   UNL A   1      42.100  26.378  27.576  1.00  0.00     0.023 A 
ATOM     61  C   UNL A   1      42.892  26.957  26.562  1.00  0.00     0.012 A 
ATOM     62  C   UNL A   1      41.769  25.011  27.498  1.00  0.00     0.148 A 
ATOM     63  C   UNL A   1      43.324  26.197  25.476  1.00  0.00     0.002 A 
ATOM     64  C   UNL A   1      42.245  24.249  26.437  1.00  0.00     0.091 A 
ATOM     65  F   UNL A   1      40.997  24.484  28.459  1.00  0.00    -0.205 F 
ATOM     66  C   UNL A   1      43.012  24.843  25.420  1.00  0.00     0.022 A 
BRANCH  64  67
ATOM     67  S   UNL A   1      41.975  22.477  26.313  1.00  0.00     0.127 S 
ATOM     68  O   UNL A   1      42.654  22.162  25.057  1.00  0.00    -0.237 OA
ATOM     69  O   UNL A   1      42.651  21.981  27.512  1.00  0.00    -0.237 OA
ATOM     70  O   UNL A   1      40.531  22.289  26.303  1.00  0.00    -0.744 OA
ENDBRANCH  64  67
ENDBRANCH  46  60
BRANCH  47  71
ATOM     71  C   UNL A   1      39.000  31.980  35.284  1.00  0.00     0.023 A 
ATOM     72  C   UNL A   1      39.100  33.382  35.186  1.00  0.00     0.012 A 
ATOM     73  C   UNL A   1      38.415  31.414  36.433  1.00  0.00     0.148 A 
ATOM     74  C   UNL A   1      38.647  34.203  36.220  1.00  0.00     0.002 A 
ATOM     75  C   UNL A   1      37.911  32.238  37.433  1.00  0.00     0.091 A 
ATOM     76  F   UNL A   1      38.336  30.077  36.511  1.00  0.00    -0.205 F 
ATOM     77  C   UNL A   1      38.041  33.633  37.336  1.00  0.00     0.022 A 
BRANCH  75  78
ATOM     78  S   UNL A   1      36.988  31.604  38.838  1.00  0.00     0.127 S 
ATOM     79  O   UNL A   1      37.946  31.773  39.926  1.00  0.00    -0.237 OA
ATOM     80  O   UNL A   1      35.841  32.511  38.877  1.00  0.00    -0.237 OA
ATOM     81  O   UNL A   1      36.653  30.227  38.501  1.00  0.00    -0.744 OA
ENDBRANCH  75  78
ENDBRANCH  47  71
BRANCH  59  82
ATOM     82  C   UNL A   1      44.833  28.349  33.933  1.00  0.00     0.023 A 
ATOM     83  C   UNL A   1      45.887  29.283  33.889  1.00  0.00     0.012 A 
ATOM     84  C   UNL A   1      44.918  27.250  34.811  1.00  0.00     0.148 A 
ATOM     85  C   UNL A   1      47.014  29.118  34.692  1.00  0.00     0.002 A 
ATOM     86  C   UNL A   1      46.020  27.121  35.648  1.00  0.00     0.091 A 
ATOM     87  F   UNL A   1      43.911  26.366  34.828  1.00  0.00    -0.205 F 
ATOM     88  C   UNL A   1      47.074  28.048  35.581  1.00  0.00     0.022 A 
BRANCH  86  89
ATOM     89  S   UNL A   1      46.138  25.841  36.903  1.00  0.00     0.127 S 
ATOM     90  O   UNL A   1      47.424  26.152  37.525  1.00  0.00    -0.237 OA
ATOM     91  O   UNL A   1      44.971  26.123  37.740  1.00  0.00    -0.237 OA
ATOM     92  O   UNL A   1      46.082  24.572  36.192  1.00  0.00    -0.744 OA
ENDBRANCH  86  89
ENDBRANCH  59  82
ENDBRANCH  33  34
ENDBRANCH  25  28
ENDBRANCH   1  24
TORSDOF 14
ENDMDL
MODEL 2
REMARK VINA RESULT:     -12.7      2.402      3.250
REMARK SMILES Cc1cc(Cl)cc2c1O[C@H](C(F)(F)F)C(C(=O)NCCCNC(=O)c1ccc(-c3c4nc(c(-c5cccc(S(=O)(=O)[O-])c5F)c5ccc([nH]5)c(-c5cccc(S(=O)(=O)[O-])c5F)c5nc(c(-c6cccc(S(=O)(=O)[O-])c6F)c6ccc3[nH]6)C=C5)C=C4)cc1)=C2
REMARK SMILES IDX 21 1 20 2 19 3 18 4 16 5 17 6 15 8 1 9 2 10 3 11 8 12 4 13
REMARK SMILES IDX 7 14 9 15 5 16 6 17 88 18 10 19 11 20 12 21 13 22 14 23
REMARK SMILES IDX 22 24 23 25 24 27 25 28 26 29 87 30 27 31 86 32 28 33 29 34
REMARK SMILES IDX 30 35 80 36 31 37 85 38 79 39 81 40 32 41 84 42 78 43 77 44
REMARK SMILES IDX 33 46 65 47 45 48 64 49 46 50 49 51 63 52 82 53 47 54 48 55
REMARK SMILES IDX 62 57 83 58 50 59 34 60 35 61 43 62 36 63 38 64 44 65 37 66
REMARK SMILES IDX 39 67 40 68 41 69 42 70 66 71 67 72 75 73 68 74 70 75 76 76
REMARK SMILES IDX 69 77 71 78 72 79 73 80 74 81 51 82 52 83 60 84 53 85 55 86
REMARK SMILES IDX 61 87 54 88 56 89 57 90 58 91 59 92
REMARK H PARENT 18 7 22 26 81 45 49 56
REMARK Flexibility Score: inf
ROOT
ATOM      1  C   UNL A   1      32.785  32.519  27.262  1.00  0.00     0.118 C 
ENDROOT
BRANCH   1   2
ATOM      2  C   UNL A   1      31.517  31.960  26.632  1.00  0.00     0.042 C 
BRANCH   2   3
ATOM      3  C   UNL A   1      31.600  30.457  26.419  1.00  0.00     0.118 C 
BRANCH   3   4
ATOM      4  N   UNL A   1      32.327  30.114  25.206  1.00  0.00    -0.352 N 
ATOM      5  C   UNL A   1      32.687  28.986  24.551  1.00  0.00     0.251 C 
ATOM      6  O   UNL A   1      33.302  29.162  23.494  1.00  0.00    -0.270 OA
ATOM      7  H   UNL A   1      32.640  30.920  24.734  1.00  0.00     0.163 HD
BRANCH   5   8
ATOM      8  C   UNL A   1      32.386  27.599  25.008  1.00  0.00     0.067 C 
ATOM      9  C   UNL A   1      30.294  23.243  26.806  1.00  0.00     0.048 C 
ATOM     10  C   UNL A   1      31.678  23.715  26.456  1.00  0.00    -0.007 A 
ATOM     11  C   UNL A   1      32.750  22.816  26.537  1.00  0.00     0.027 A 
ATOM     12  C   UNL A   1      31.932  25.024  26.027  1.00  0.00     0.131 A 
ATOM     13  C   UNL A   1      34.040  23.229  26.205  1.00  0.00     0.042 A 
ATOM     14  C   UNL A   1      33.226  25.441  25.693  1.00  0.00     0.019 A 
ATOM     15  O   UNL A   1      30.873  25.887  25.998  1.00  0.00    -0.475 OA
ATOM     16  Cl  UNL A   1      35.344  22.110  26.315  1.00  0.00    -0.084 Cl
ATOM     17  C   UNL A   1      34.285  24.536  25.786  1.00  0.00     0.032 A 
ATOM     18  C   UNL A   1      33.451  26.821  25.278  1.00  0.00     0.025 C 
ATOM     19  C   UNL A   1      30.998  27.046  25.139  1.00  0.00     0.314 C 
BRANCH  19  20
ATOM     20  C   UNL A   1      30.353  26.731  23.776  1.00  0.00     0.429 C 
ATOM     21  F   UNL A   1      29.437  25.738  23.899  1.00  0.00    -0.167 F 
ATOM     22  F   UNL A   1      29.698  27.792  23.246  1.00  0.00    -0.167 F 
ATOM     23  F   UNL A   1      31.257  26.333  22.851  1.00  0.00    -0.167 F 
ENDBRANCH  19  20
ENDBRANCH   5   8
ENDBRANCH   3   4
ENDBRANCH   2   3
ENDBRANCH   1   2
BRANCH   1  24
ATOM     24  N   UNL A   1      32.637  33.929  27.618  1.00  0.00    -0.352 N 
ATOM     25  C   UNL A   1      33.170  34.638  28.664  1.00  0.00     0.251 C 
ATOM     26  H   UNL A   1      32.066  34.452  27.010  1.00  0.00     0.163 HD
ATOM     27  O   UNL A   1      32.700  35.737  28.957  1.00  0.00    -0.269 OA
BRANCH  25  28
ATOM     28  C   UNL A   1      34.301  34.083  29.430  1.00  0.00     0.039 A 
ATOM     29  C   UNL A   1      34.053  33.228  30.506  1.00  0.00     0.014 A 
ATOM     30  C   UNL A   1      35.611  34.434  29.095  1.00  0.00     0.014 A 
ATOM     31  C   UNL A   1      35.128  32.678  31.207  1.00  0.00     0.010 A 
ATOM     32  C   UNL A   1      36.676  33.805  29.722  1.00  0.00     0.010 A 
ATOM     33  C   UNL A   1      36.447  32.940  30.800  1.00  0.00    -0.014 A 
BRANCH  33  34
ATOM     34  C   UNL A   1      37.609  32.349  31.504  1.00  0.00     0.031 A 
ATOM     35  C   UNL A   1      38.372  31.219  30.865  1.00  0.00     0.074 A 
ATOM     36  C   UNL A   1      37.926  32.774  32.742  1.00  0.00     0.049 A 
ATOM     37  N   UNL A   1      39.376  30.531  31.342  1.00  0.00    -0.248 NA
ATOM     38  C   UNL A   1      37.930  30.780  29.529  1.00  0.00     0.031 C 
ATOM     39  C   UNL A   1      37.210  33.812  33.488  1.00  0.00     0.029 A 
ATOM     40  N   UNL A   1      38.920  32.376  33.599  1.00  0.00    -0.354 N 
ATOM     41  C   UNL A   1      39.665  29.569  30.382  1.00  0.00     0.074 A 
ATOM     42  C   UNL A   1      38.697  29.722  29.321  1.00  0.00     0.031 C 
ATOM     43  C   UNL A   1      37.803  33.985  34.679  1.00  0.00     0.029 A 
ATOM     44  C   UNL A   1      38.918  33.050  34.798  1.00  0.00     0.049 A 
ATOM     45  H   UNL A   1      39.574  31.674  33.377  1.00  0.00     0.167 HD
ATOM     46  C   UNL A   1      40.674  28.669  30.365  1.00  0.00     0.034 A 
ATOM     47  C   UNL A   1      39.725  32.927  35.870  1.00  0.00     0.034 A 
ATOM     48  C   UNL A   1      41.663  28.561  31.401  1.00  0.00     0.049 A 
ATOM     49  C   UNL A   1      40.855  31.933  35.816  1.00  0.00     0.074 A 
ATOM     50  C   UNL A   1      42.772  27.736  31.445  1.00  0.00     0.029 A 
ATOM     51  N   UNL A   1      41.665  29.302  32.573  1.00  0.00    -0.354 N 
ATOM     52  N   UNL A   1      41.200  31.131  34.838  1.00  0.00    -0.248 NA
ATOM     53  C   UNL A   1      41.723  31.847  36.998  1.00  0.00     0.031 C 
ATOM     54  C   UNL A   1      43.430  27.960  32.657  1.00  0.00     0.029 A 
ATOM     55  C   UNL A   1      42.749  28.946  33.355  1.00  0.00     0.049 A 
ATOM     56  H   UNL A   1      40.994  29.981  32.812  1.00  0.00     0.167 HD
ATOM     57  C   UNL A   1      42.340  30.465  35.274  1.00  0.00     0.074 A 
ATOM     58  C   UNL A   1      42.641  30.978  36.595  1.00  0.00     0.031 C 
ATOM     59  C   UNL A   1      43.060  29.502  34.647  1.00  0.00     0.034 A 
BRANCH  46  60
ATOM     60  C   UNL A   1      40.806  27.780  29.156  1.00  0.00     0.023 A 
ATOM     61  C   UNL A   1      40.018  26.613  29.066  1.00  0.00     0.012 A 
ATOM     62  C   UNL A   1      41.642  28.133  28.078  1.00  0.00     0.148 A 
ATOM     63  C   UNL A   1      40.082  25.796  27.939  1.00  0.00     0.002 A 
ATOM     64  C   UNL A   1      41.663  27.339  26.937  1.00  0.00     0.091 A 
ATOM     65  F   UNL A   1      42.399  29.234  28.190  1.00  0.00    -0.205 F 
ATOM     66  C   UNL A   1      40.893  26.166  26.871  1.00  0.00     0.022 A 
BRANCH  64  67
ATOM     67  S   UNL A   1      42.605  27.770  25.470  1.00  0.00     0.127 S 
ATOM     68  O   UNL A   1      42.395  26.592  24.628  1.00  0.00    -0.237 OA
ATOM     69  O   UNL A   1      41.919  28.977  25.009  1.00  0.00    -0.237 OA
ATOM     70  O   UNL A   1      43.975  27.978  25.916  1.00  0.00    -0.744 OA
ENDBRANCH  64  67
ENDBRANCH  46  60
BRANCH  47  71
ATOM     71  C   UNL A   1      39.544  33.834  37.039  1.00  0.00     0.023 A 
ATOM     72  C   UNL A   1      39.922  35.186  36.924  1.00  0.00     0.012 A 
ATOM     73  C   UNL A   1      38.947  33.390  38.236  1.00  0.00     0.148 A 
ATOM     74  C   UNL A   1      39.730  36.074  37.984  1.00  0.00     0.002 A 
ATOM     75  C   UNL A   1      38.705  34.292  39.266  1.00  0.00     0.091 A 
ATOM     76  F   UNL A   1      38.601  32.098  38.331  1.00  0.00    -0.205 F 
ATOM     77  C   UNL A   1      39.111  35.631  39.149  1.00  0.00     0.022 A 
BRANCH  75  78
ATOM     78  S   UNL A   1      37.785  33.849  40.745  1.00  0.00     0.127 S 
ATOM     79  O   UNL A   1      36.594  33.222  40.179  1.00  0.00    -0.237 OA
ATOM     80  O   UNL A   1      38.711  32.931  41.409  1.00  0.00    -0.237 OA
ATOM     81  O   UNL A   1      37.560  35.098  41.460  1.00  0.00    -0.744 OA
ENDBRANCH  75  78
ENDBRANCH  47  71
BRANCH  59  82
ATOM     82  C   UNL A   1      44.256  28.933  35.364  1.00  0.00     0.023 A 
ATOM     83  C   UNL A   1      45.513  29.551  35.214  1.00  0.00     0.012 A 
ATOM     84  C   UNL A   1      44.109  27.873  36.281  1.00  0.00     0.148 A 
ATOM     85  C   UNL A   1      46.611  29.110  35.951  1.00  0.00     0.002 A 
ATOM     86  C   UNL A   1      45.195  27.475  37.052  1.00  0.00     0.091 A 
ATOM     87  F   UNL A   1      42.908  27.291  36.398  1.00  0.00    -0.205 F 
ATOM     88  C   UNL A   1      46.449  28.085  36.880  1.00  0.00     0.022 A 
BRANCH  86  89
ATOM     89  S   UNL A   1      45.059  26.241  38.350  1.00  0.00     0.127 S 
ATOM     90  O   UNL A   1      46.435  26.173  38.841  1.00  0.00    -0.237 OA
ATOM     91  O   UNL A   1      44.113  26.869  39.273  1.00  0.00    -0.237 OA
ATOM     92  O   UNL A   1      44.567  25.031  37.707  1.00  0.00    -0.744 OA
ENDBRANCH  86  89
ENDBRANCH  59  82
ENDBRANCH  33  34
ENDBRANCH  25  28
ENDBRANCH   1  24
TORSDOF 14
ENDMDL
MODEL 3
REMARK VINA RESULT:     -12.7      1.386      7.730
REMARK SMILES Cc1cc(Cl)cc2c1O[C@H](C(F)(F)F)C(C(=O)NCCCNC(=O)c1ccc(-c3c4nc(c(-c5cccc(S(=O)(=O)[O-])c5F)c5ccc([nH]5)c(-c5cccc(S(=O)(=O)[O-])c5F)c5nc(c(-c6cccc(S(=O)(=O)[O-])c6F)c6ccc3[nH]6)C=C5)C=C4)cc1)=C2
REMARK SMILES IDX 21 1 20 2 19 3 18 4 16 5 17 6 15 8 1 9 2 10 3 11 8 12 4 13
REMARK SMILES IDX 7 14 9 15 5 16 6 17 88 18 10 19 11 20 12 21 13 22 14 23
REMARK SMILES IDX 22 24 23 25 24 27 25 28 26 29 87 30 27 31 86 32 28 33 29 34
REMARK SMILES IDX 30 35 80 36 31 37 85 38 79 39 81 40 32 41 84 42 78 43 77 44
REMARK SMILES IDX 33 46 65 47 45 48 64 49 46 50 49 51 63 52 82 53 47 54 48 55
REMARK SMILES IDX 62 57 83 58 50 59 34 60 35 61 43 62 36 63 38 64 44 65 37 66
REMARK SMILES IDX 39 67 40 68 41 69 42 70 66 71 67 72 75 73 68 74 70 75 76 76
REMARK SMILES IDX 69 77 71 78 72 79 73 80 74 81 51 82 52 83 60 84 53 85 55 86
REMARK SMILES IDX 61 87 54 88 56 89 57 90 58 91 59 92
REMARK H PARENT 18 7 22 26 81 45 49 56
REMARK Flexibility Score: inf
ROOT
ATOM      1  C   UNL A   1      33.069  29.149  25.374  1.00  0.00     0.118 C 
ENDROOT
BRANCH   1   2
ATOM      2  C   UNL A   1      33.060  29.047  23.855  1.00  0.00     0.042 C 
BRANCH   2   3
ATOM      3  C   UNL A   1      31.990  28.090  23.354  1.00  0.00     0.118 C 
BRANCH   3   4
ATOM      4  N   UNL A   1      32.461  27.273  22.246  1.00  0.00    -0.352 N 
ATOM      5  C   UNL A   1      32.983  26.036  22.078  1.00  0.00     0.251 C 
ATOM      6  O   UNL A   1      33.226  25.719  20.909  1.00  0.00    -0.270 OA
ATOM      7  H   UNL A   1      32.375  27.747  21.387  1.00  0.00     0.163 HD
BRANCH   5   8
ATOM      8  C   UNL A   1      33.258  25.068  23.178  1.00  0.00     0.067 C 
ATOM      9  C   UNL A   1      33.374  22.307  27.531  1.00  0.00     0.048 C 
ATOM     10  C   UNL A   1      34.231  22.425  26.301  1.00  0.00    -0.007 A 
ATOM     11  C   UNL A   1      35.337  21.578  26.152  1.00  0.00     0.027 A 
ATOM     12  C   UNL A   1      33.947  23.343  25.282  1.00  0.00     0.131 A 
ATOM     13  C   UNL A   1      36.138  21.661  25.013  1.00  0.00     0.042 A 
ATOM     14  C   UNL A   1      34.749  23.428  24.137  1.00  0.00     0.019 A 
ATOM     15  O   UNL A   1      32.887  24.182  25.475  1.00  0.00    -0.475 OA
ATOM     16  Cl  UNL A   1      37.495  20.614  24.851  1.00  0.00    -0.084 Cl
ATOM     17  C   UNL A   1      35.853  22.583  24.007  1.00  0.00     0.032 A 
ATOM     18  C   UNL A   1      34.434  24.417  23.112  1.00  0.00     0.025 C 
ATOM     19  C   UNL A   1      32.298  24.775  24.293  1.00  0.00     0.314 C 
BRANCH  19  20
ATOM     20  C   UNL A   1      31.106  23.911  23.839  1.00  0.00     0.429 C 
ATOM     21  F   UNL A   1      31.510  22.970  22.949  1.00  0.00    -0.167 F 
ATOM     22  F   UNL A   1      30.520  23.244  24.862  1.00  0.00    -0.167 F 
ATOM     23  F   UNL A   1      30.132  24.638  23.243  1.00  0.00    -0.167 F 
ENDBRANCH  19  20
ENDBRANCH   5   8
ENDBRANCH   3   4
ENDBRANCH   2   3
ENDBRANCH   1   2
BRANCH   1  24
ATOM     24  N   UNL A   1      32.691  30.486  25.830  1.00  0.00    -0.352 N 
ATOM     25  C   UNL A   1      33.156  31.223  26.888  1.00  0.00     0.251 C 
ATOM     26  H   UNL A   1      31.993  30.925  25.291  1.00  0.00     0.163 HD
ATOM     27  O   UNL A   1      32.514  32.199  27.278  1.00  0.00    -0.269 OA
BRANCH  25  28
ATOM     28  C   UNL A   1      34.419  30.849  27.550  1.00  0.00     0.039 A 
ATOM     29  C   UNL A   1      35.423  31.805  27.713  1.00  0.00     0.014 A 
ATOM     30  C   UNL A   1      34.617  29.537  27.987  1.00  0.00     0.014 A 
ATOM     31  C   UNL A   1      36.604  31.455  28.371  1.00  0.00     0.010 A 
ATOM     32  C   UNL A   1      35.743  29.220  28.733  1.00  0.00     0.010 A 
ATOM     33  C   UNL A   1      36.758  30.168  28.911  1.00  0.00    -0.014 A 
BRANCH  33  34
ATOM     34  C   UNL A   1      37.987  29.774  29.641  1.00  0.00     0.031 A 
ATOM     35  C   UNL A   1      38.255  30.340  31.009  1.00  0.00     0.074 A 
ATOM     36  C   UNL A   1      38.890  28.974  29.042  1.00  0.00     0.049 A 
ATOM     37  N   UNL A   1      39.295  30.166  31.782  1.00  0.00    -0.248 NA
ATOM     38  C   UNL A   1      37.239  31.247  31.573  1.00  0.00     0.031 C 
ATOM     39  C   UNL A   1      38.768  28.426  27.689  1.00  0.00     0.029 A 
ATOM     40  N   UNL A   1      40.096  28.495  29.486  1.00  0.00    -0.354 N 
ATOM     41  C   UNL A   1      39.070  30.957  32.902  1.00  0.00     0.074 A 
ATOM     42  C   UNL A   1      37.825  31.657  32.687  1.00  0.00     0.031 C 
ATOM     43  C   UNL A   1      39.843  27.668  27.423  1.00  0.00     0.029 A 
ATOM     44  C   UNL A   1      40.746  27.702  28.570  1.00  0.00     0.049 A 
ATOM     45  H   UNL A   1      40.462  28.700  30.377  1.00  0.00     0.167 HD
ATOM     46  C   UNL A   1      39.812  31.058  34.028  1.00  0.00     0.034 A 
ATOM     47  C   UNL A   1      41.934  27.071  28.648  1.00  0.00     0.034 A 
ATOM     48  C   UNL A   1      41.022  30.317  34.254  1.00  0.00     0.049 A 
ATOM     49  C   UNL A   1      42.730  27.181  29.922  1.00  0.00     0.074 A 
ATOM     50  C   UNL A   1      41.809  30.287  35.391  1.00  0.00     0.029 A 
ATOM     51  N   UNL A   1      41.619  29.475  33.328  1.00  0.00    -0.354 N 
ATOM     52  N   UNL A   1      42.431  27.820  31.027  1.00  0.00    -0.248 NA
ATOM     53  C   UNL A   1      44.010  26.461  29.972  1.00  0.00     0.031 C 
ATOM     54  C   UNL A   1      42.896  29.445  35.142  1.00  0.00     0.029 A 
ATOM     55  C   UNL A   1      42.771  28.928  33.861  1.00  0.00     0.049 A 
ATOM     56  H   UNL A   1      41.272  29.294  32.424  1.00  0.00     0.167 HD
ATOM     57  C   UNL A   1      43.469  27.558  31.913  1.00  0.00     0.074 A 
ATOM     58  C   UNL A   1      44.394  26.680  31.223  1.00  0.00     0.031 C 
ATOM     59  C   UNL A   1      43.653  28.018  33.176  1.00  0.00     0.034 A 
BRANCH  46  60
ATOM     60  C   UNL A   1      39.299  31.943  35.134  1.00  0.00     0.023 A 
ATOM     61  C   UNL A   1      38.364  31.425  36.056  1.00  0.00     0.012 A 
ATOM     62  C   UNL A   1      39.791  33.251  35.311  1.00  0.00     0.148 A 
ATOM     63  C   UNL A   1      37.907  32.203  37.118  1.00  0.00     0.002 A 
ATOM     64  C   UNL A   1      39.367  34.002  36.401  1.00  0.00     0.091 A 
ATOM     65  F   UNL A   1      40.662  33.733  34.413  1.00  0.00    -0.205 F 
ATOM     66  C   UNL A   1      38.417  33.484  37.298  1.00  0.00     0.022 A 
BRANCH  64  67
ATOM     67  S   UNL A   1      40.026  35.631  36.775  1.00  0.00     0.127 S 
ATOM     68  O   UNL A   1      39.548  36.412  35.633  1.00  0.00    -0.237 OA
ATOM     69  O   UNL A   1      39.368  35.942  38.044  1.00  0.00    -0.237 OA
ATOM     70  O   UNL A   1      41.471  35.473  36.857  1.00  0.00    -0.744 OA
ENDBRANCH  64  67
ENDBRANCH  46  60
BRANCH  47  71
ATOM     71  C   UNL A   1      42.391  26.211  27.519  1.00  0.00     0.023 A 
ATOM     72  C   UNL A   1      43.290  26.741  26.574  1.00  0.00     0.012 A 
ATOM     73  C   UNL A   1      41.995  24.864  27.408  1.00  0.00     0.148 A 
ATOM     74  C   UNL A   1      43.771  25.953  25.526  1.00  0.00     0.002 A 
ATOM     75  C   UNL A   1      42.522  24.067  26.397  1.00  0.00     0.091 A 
ATOM     76  F   UNL A   1      41.132  24.379  28.312  1.00  0.00    -0.205 F 
ATOM     77  C   UNL A   1      43.398  24.615  25.445  1.00  0.00     0.022 A 
BRANCH  75  78
ATOM     78  S   UNL A   1      42.214  22.300  26.296  1.00  0.00     0.127 S 
ATOM     79  O   UNL A   1      40.765  22.259  26.116  1.00  0.00    -0.237 OA
ATOM     80  O   UNL A   1      42.994  21.927  25.115  1.00  0.00    -0.237 OA
ATOM     81  O   UNL A   1      42.710  21.740  27.546  1.00  0.00    -0.744 OA
ENDBRANCH  75  78
ENDBRANCH  47  71
BRANCH  59  82
ATOM     82  C   UNL A   1      44.892  27.584  33.914  1.00  0.00     0.023 A 
ATOM     83  C   UNL A   1      46.035  28.407  33.893  1.00  0.00     0.012 A 
ATOM     84  C   UNL A   1      44.881  26.433  34.727  1.00  0.00     0.148 A 
ATOM     85  C   UNL A   1      47.156  28.082  34.655  1.00  0.00     0.002 A 
ATOM     86  C   UNL A   1      45.981  26.145  35.526  1.00  0.00     0.091 A 
ATOM     87  F   UNL A   1      43.788  25.657  34.721  1.00  0.00    -0.205 F 
ATOM     88  C   UNL A   1      47.123  26.962  35.482  1.00  0.00     0.022 A 
BRANCH  86  89
ATOM     89  S   UNL A   1      45.992  24.789  36.705  1.00  0.00     0.127 S 
ATOM     90  O   UNL A   1      44.835  25.111  37.538  1.00  0.00    -0.237 OA
ATOM     91  O   UNL A   1      45.814  23.625  35.837  1.00  0.00    -0.237 OA
ATOM     92  O   UNL A   1      47.281  24.852  37.380  1.00  0.00    -0.744 OA
ENDBRANCH  86  89
ENDBRANCH  59  82
ENDBRANCH  33  34
ENDBRANCH  25  28
ENDBRANCH   1  24
TORSDOF 14
ENDMDL
