MODEL 1
REMARK VINA RESULT:     -12.2      0.000      0.000
REMARK SMILES NS(=O)(=O)c1ccc(/N=N/c2ccc(O)c(C(=O)NCCCNC(=O)c3ccc(-c4c5nc(c(-c6cccc(S(=O)(=O)[O-])c6F)c6ccc([nH]6)c(-c6cccc(S(=O)(=O)[O-])c6F)c6nc(c(-c7cccc(S(=O)(=O)[O-])c7F)c7ccc4[nH]7)C=C6)C=C5)cc3)c2)cc1
REMARK SMILES IDX 20 1 19 2 17 3 18 4 16 6 11 7 12 8 89 9 13 10 14 11 10 12
REMARK SMILES IDX 9 13 8 14 5 15 6 16 91 17 7 18 90 19 2 20 3 21 4 22 1 23
REMARK SMILES IDX 15 26 21 28 22 29 23 30 24 31 25 33 26 34 27 35 88 36 28 37
REMARK SMILES IDX 87 38 29 39 30 40 31 41 81 42 32 43 86 44 80 45 82 46 33 47
REMARK SMILES IDX 85 48 79 49 78 50 34 52 66 53 46 54 65 55 47 56 50 57 64 58
REMARK SMILES IDX 83 59 48 60 49 61 63 63 84 64 51 65 35 66 36 67 44 68 37 69
REMARK SMILES IDX 39 70 45 71 38 72 40 73 41 74 42 75 43 76 67 77 68 78 76 79
REMARK SMILES IDX 69 80 71 81 77 82 70 83 72 84 73 85 74 86 75 87 52 88 53 89
REMARK SMILES IDX 61 90 54 91 56 92 62 93 55 94 57 95 58 96 59 97 60 98
REMARK H PARENT 19 5 1 24 1 25 15 27 23 32 82 51 50 62
REMARK Flexibility Score: inf
ROOT
ATOM      1  C   UNL A   1      33.011  29.541  24.950  1.00  0.00     0.118 C 
ENDROOT
BRANCH   1   2
ATOM      2  N   UNL A   1      33.592  29.239  23.644  1.00  0.00    -0.352 N 
ATOM      3  C   UNL A   1      33.484  28.164  22.791  1.00  0.00     0.255 C 
ATOM      4  O   UNL A   1      34.167  28.160  21.764  1.00  0.00    -0.269 OA
ATOM      5  H   UNL A   1      34.182  29.950  23.303  1.00  0.00     0.163 HD
BRANCH   3   6
ATOM      6  C   UNL A   1      32.646  26.969  23.068  1.00  0.00     0.083 A 
ATOM      7  C   UNL A   1      32.428  24.558  23.316  1.00  0.00     0.087 A 
ATOM      8  C   UNL A   1      31.039  24.676  23.228  1.00  0.00     0.034 A 
ATOM      9  C   UNL A   1      33.201  25.727  23.361  1.00  0.00     0.048 A 
ATOM     10  C   UNL A   1      30.445  25.937  23.119  1.00  0.00     0.049 A 
ATOM     11  C   UNL A   1      31.248  27.072  23.014  1.00  0.00     0.128 A 
BRANCH   7  12
ATOM     12  N   UNL A   1      33.033  23.279  23.272  1.00  0.00    -0.151 NA
ATOM     13  N   UNL A   1      32.134  22.409  23.362  1.00  0.00    -0.151 NA
BRANCH  13  14
ATOM     14  C   UNL A   1      32.631  21.106  23.511  1.00  0.00     0.086 A 
ATOM     15  C   UNL A   1      33.389  18.451  23.970  1.00  0.00     0.082 A 
ATOM     16  C   UNL A   1      32.437  18.739  22.987  1.00  0.00     0.024 A 
ATOM     17  C   UNL A   1      33.963  19.474  24.727  1.00  0.00     0.024 A 
ATOM     18  C   UNL A   1      32.057  20.065  22.768  1.00  0.00     0.031 A 
ATOM     19  C   UNL A   1      33.579  20.798  24.495  1.00  0.00     0.031 A 
BRANCH  15  20
ATOM     20  S   UNL A   1      33.859  16.769  24.256  1.00  0.00     0.238 S 
ATOM     21  O   UNL A   1      34.795  16.708  25.349  1.00  0.00    -0.207 OA
ATOM     22  O   UNL A   1      34.128  16.155  22.972  1.00  0.00    -0.207 OA
BRANCH  20  23
ATOM     23  N   UNL A   1      32.438  16.079  24.820  1.00  0.00    -0.225 NA
ATOM     24  H   UNL A   1      32.246  16.416  25.763  1.00  0.00     0.137 HD
ATOM     25  H   UNL A   1      32.537  15.064  24.835  1.00  0.00     0.137 HD
ENDBRANCH  20  23
ENDBRANCH  15  20
ENDBRANCH  13  14
ENDBRANCH   7  12
BRANCH  11  26
ATOM     26  O   UNL A   1      30.589  28.264  22.855  1.00  0.00    -0.507 OA
ATOM     27  H   UNL A   1      30.942  29.047  23.228  1.00  0.00     0.293 HD
ENDBRANCH  11  26
ENDBRANCH   3   6
ENDBRANCH   1   2
BRANCH   1  28
ATOM     28  C   UNL A   1      33.252  28.472  26.005  1.00  0.00     0.042 C 
BRANCH  28  29
ATOM     29  C   UNL A   1      33.300  28.983  27.435  1.00  0.00     0.118 C 
BRANCH  29  30
ATOM     30  N   UNL A   1      33.521  30.424  27.517  1.00  0.00    -0.352 N 
ATOM     31  C   UNL A   1      34.562  31.153  28.043  1.00  0.00     0.251 C 
ATOM     32  H   UNL A   1      32.800  30.968  27.128  1.00  0.00     0.163 HD
ATOM     33  O   UNL A   1      34.427  32.368  28.178  1.00  0.00    -0.269 OA
BRANCH  31  34
ATOM     34  C   UNL A   1      35.826  30.504  28.460  1.00  0.00     0.039 A 
ATOM     35  C   UNL A   1      36.944  30.584  27.619  1.00  0.00     0.014 A 
ATOM     36  C   UNL A   1      35.910  29.779  29.648  1.00  0.00     0.014 A 
ATOM     37  C   UNL A   1      38.156  30.003  28.010  1.00  0.00     0.010 A 
ATOM     38  C   UNL A   1      37.138  29.289  30.081  1.00  0.00     0.010 A 
ATOM     39  C   UNL A   1      38.274  29.383  29.263  1.00  0.00    -0.014 A 
BRANCH  39  40
ATOM     40  C   UNL A   1      39.556  28.810  29.749  1.00  0.00     0.031 A 
ATOM     41  C   UNL A   1      40.309  29.492  30.863  1.00  0.00     0.074 A 
ATOM     42  C   UNL A   1      40.108  27.761  29.108  1.00  0.00     0.049 A 
ATOM     43  N   UNL A   1      41.508  29.248  31.322  1.00  0.00    -0.248 NA
ATOM     44  C   UNL A   1      39.637  30.628  31.520  1.00  0.00     0.031 C 
ATOM     45  C   UNL A   1      39.521  27.061  27.963  1.00  0.00     0.029 A 
ATOM     46  N   UNL A   1      41.309  27.123  29.304  1.00  0.00    -0.354 N 
ATOM     47  C   UNL A   1      41.758  30.229  32.275  1.00  0.00     0.074 A 
ATOM     48  C   UNL A   1      40.597  31.091  32.309  1.00  0.00     0.031 C 
ATOM     49  C   UNL A   1      40.361  26.096  27.557  1.00  0.00     0.029 A 
ATOM     50  C   UNL A   1      41.560  26.128  28.387  1.00  0.00     0.049 A 
ATOM     51  H   UNL A   1      41.930  27.354  30.031  1.00  0.00     0.167 HD
ATOM     52  C   UNL A   1      42.841  30.383  33.073  1.00  0.00     0.034 A 
ATOM     53  C   UNL A   1      42.641  25.337  28.225  1.00  0.00     0.034 A 
ATOM     54  C   UNL A   1      43.960  29.480  33.090  1.00  0.00     0.049 A 
ATOM     55  C   UNL A   1      43.800  25.481  29.175  1.00  0.00     0.074 A 
ATOM     56  C   UNL A   1      45.057  29.485  33.932  1.00  0.00     0.029 A 
ATOM     57  N   UNL A   1      44.120  28.405  32.229  1.00  0.00    -0.354 N 
ATOM     58  N   UNL A   1      43.950  26.320  30.171  1.00  0.00    -0.248 NA
ATOM     59  C   UNL A   1      44.922  24.547  29.002  1.00  0.00     0.031 C 
ATOM     60  C   UNL A   1      45.886  28.417  33.574  1.00  0.00     0.029 A 
ATOM     61  C   UNL A   1      45.296  27.739  32.520  1.00  0.00     0.049 A 
ATOM     62  H   UNL A   1      43.489  28.154  31.515  1.00  0.00     0.167 HD
ATOM     63  C   UNL A   1      45.161  25.991  30.768  1.00  0.00     0.074 A 
ATOM     64  C   UNL A   1      45.698  24.864  30.031  1.00  0.00     0.031 C 
ATOM     65  C   UNL A   1      45.782  26.577  31.820  1.00  0.00     0.034 A 
BRANCH  52  66
ATOM     66  C   UNL A   1      42.840  31.536  34.042  1.00  0.00     0.023 A 
ATOM     67  C   UNL A   1      43.386  32.775  33.646  1.00  0.00     0.012 A 
ATOM     68  C   UNL A   1      42.254  31.415  35.317  1.00  0.00     0.148 A 
ATOM     69  C   UNL A   1      43.382  33.863  34.517  1.00  0.00     0.002 A 
ATOM     70  C   UNL A   1      42.215  32.519  36.163  1.00  0.00     0.091 A 
ATOM     71  F   UNL A   1      41.759  30.225  35.685  1.00  0.00    -0.205 F 
ATOM     72  C   UNL A   1      42.789  33.739  35.769  1.00  0.00     0.022 A 
BRANCH  70  73
ATOM     73  S   UNL A   1      41.402  32.482  37.765  1.00  0.00     0.127 S 
ATOM     74  O   UNL A   1      41.459  33.890  38.156  1.00  0.00    -0.237 OA
ATOM     75  O   UNL A   1      40.064  31.999  37.421  1.00  0.00    -0.237 OA
ATOM     76  O   UNL A   1      42.182  31.570  38.588  1.00  0.00    -0.744 OA
ENDBRANCH  70  73
ENDBRANCH  52  66
BRANCH  53  77
ATOM     77  C   UNL A   1      42.642  24.288  27.167  1.00  0.00     0.023 A 
ATOM     78  C   UNL A   1      43.298  24.546  25.947  1.00  0.00     0.012 A 
ATOM     79  C   UNL A   1      42.036  23.033  27.369  1.00  0.00     0.148 A 
ATOM     80  C   UNL A   1      43.327  23.584  24.937  1.00  0.00     0.002 A 
ATOM     81  C   UNL A   1      42.117  22.059  26.380  1.00  0.00     0.091 A 
ATOM     82  F   UNL A   1      41.406  22.811  28.532  1.00  0.00    -0.205 F 
ATOM     83  C   UNL A   1      42.746  22.338  25.157  1.00  0.00     0.022 A 
BRANCH  81  84
ATOM     84  S   UNL A   1      41.523  20.383  26.631  1.00  0.00     0.127 S 
ATOM     85  O   UNL A   1      42.039  19.702  25.446  1.00  0.00    -0.237 OA
ATOM     86  O   UNL A   1      42.179  20.016  27.887  1.00  0.00    -0.237 OA
ATOM     87  O   UNL A   1      40.074  20.491  26.725  1.00  0.00    -0.744 OA
ENDBRANCH  81  84
ENDBRANCH  53  77
BRANCH  65  88
ATOM     88  C   UNL A   1      47.091  25.993  32.278  1.00  0.00     0.023 A 
ATOM     89  C   UNL A   1      48.296  26.452  31.714  1.00  0.00     0.012 A 
ATOM     90  C   UNL A   1      47.128  25.059  33.333  1.00  0.00     0.148 A 
ATOM     91  C   UNL A   1      49.522  25.971  32.177  1.00  0.00     0.002 A 
ATOM     92  C   UNL A   1      48.353  24.620  33.819  1.00  0.00     0.091 A 
ATOM     93  F   UNL A   1      45.967  24.620  33.840  1.00  0.00    -0.205 F 
ATOM     94  C   UNL A   1      49.550  25.067  33.237  1.00  0.00     0.022 A 
BRANCH  92  95
ATOM     95  S   UNL A   1      48.486  23.531  35.242  1.00  0.00     0.127 S 
ATOM     96  O   UNL A   1      47.836  22.317  34.750  1.00  0.00    -0.237 OA
ATOM     97  O   UNL A   1      49.935  23.420  35.415  1.00  0.00    -0.237 OA
ATOM     98  O   UNL A   1      47.800  24.211  36.332  1.00  0.00    -0.744 OA
ENDBRANCH  92  95
ENDBRANCH  65  88
ENDBRANCH  39  40
ENDBRANCH  31  34
ENDBRANCH  29  30
ENDBRANCH  28  29
ENDBRANCH   1  28
TORSDOF 18
ENDMDL
MODEL 2
REMARK VINA RESULT:     -12.0      2.138      7.976
REMARK SMILES NS(=O)(=O)c1ccc(/N=N/c2ccc(O)c(C(=O)NCCCNC(=O)c3ccc(-c4c5nc(c(-c6cccc(S(=O)(=O)[O-])c6F)c6ccc([nH]6)c(-c6cccc(S(=O)(=O)[O-])c6F)c6nc(c(-c7cccc(S(=O)(=O)[O-])c7F)c7ccc4[nH]7)C=C6)C=C5)cc3)c2)cc1
REMARK SMILES IDX 20 1 19 2 17 3 18 4 16 6 11 7 12 8 89 9 13 10 14 11 10 12
REMARK SMILES IDX 9 13 8 14 5 15 6 16 91 17 7 18 90 19 2 20 3 21 4 22 1 23
REMARK SMILES IDX 15 26 21 28 22 29 23 30 24 31 25 33 26 34 27 35 88 36 28 37
REMARK SMILES IDX 87 38 29 39 30 40 31 41 81 42 32 43 86 44 80 45 82 46 33 47
REMARK SMILES IDX 85 48 79 49 78 50 34 52 66 53 46 54 65 55 47 56 50 57 64 58
REMARK SMILES IDX 83 59 48 60 49 61 63 63 84 64 51 65 35 66 36 67 44 68 37 69
REMARK SMILES IDX 39 70 45 71 38 72 40 73 41 74 42 75 43 76 67 77 68 78 76 79
REMARK SMILES IDX 69 80 71 81 77 82 70 83 72 84 73 85 74 86 75 87 52 88 53 89
REMARK SMILES IDX 61 90 54 91 56 92 62 93 55 94 57 95 58 96 59 97 60 98
REMARK H PARENT 19 5 1 24 1 25 15 27 23 32 82 51 50 62
REMARK Flexibility Score: inf
ROOT
ATOM      1  C   UNL A   1      31.490  26.570  26.262  1.00  0.00     0.118 C 
ENDROOT
BRANCH   1   2
ATOM      2  N   UNL A   1      30.250  26.666  25.494  1.00  0.00    -0.352 N 
ATOM      3  C   UNL A   1      29.912  26.321  24.205  1.00  0.00     0.255 C 
ATOM      4  O   UNL A   1      28.779  26.594  23.804  1.00  0.00    -0.269 OA
ATOM      5  H   UNL A   1      29.504  27.056  26.002  1.00  0.00     0.163 HD
BRANCH   3   6
ATOM      6  C   UNL A   1      30.856  25.701  23.239  1.00  0.00     0.083 A 
ATOM      7  C   UNL A   1      32.298  23.851  22.590  1.00  0.00     0.087 A 
ATOM      8  C   UNL A   1      32.903  24.663  21.629  1.00  0.00     0.034 A 
ATOM      9  C   UNL A   1      31.194  24.352  23.295  1.00  0.00     0.048 A 
ATOM     10  C   UNL A   1      32.454  25.970  21.427  1.00  0.00     0.049 A 
ATOM     11  C   UNL A   1      31.454  26.492  22.247  1.00  0.00     0.128 A 
BRANCH   7  12
ATOM     12  N   UNL A   1      32.852  22.585  22.898  1.00  0.00    -0.151 NA
ATOM     13  N   UNL A   1      31.921  21.748  22.971  1.00  0.00    -0.151 NA
BRANCH  13  14
ATOM     14  C   UNL A   1      32.333  20.495  23.448  1.00  0.00     0.086 A 
ATOM     15  C   UNL A   1      32.873  17.926  24.416  1.00  0.00     0.082 A 
ATOM     16  C   UNL A   1      32.580  18.107  23.062  1.00  0.00     0.024 A 
ATOM     17  C   UNL A   1      32.895  19.013  25.293  1.00  0.00     0.024 A 
ATOM     18  C   UNL A   1      32.304  19.391  22.586  1.00  0.00     0.031 A 
ATOM     19  C   UNL A   1      32.622  20.294  24.803  1.00  0.00     0.031 A 
BRANCH  15  20
ATOM     20  S   UNL A   1      33.209  16.297  25.021  1.00  0.00     0.238 S 
ATOM     21  O   UNL A   1      33.768  15.493  23.965  1.00  0.00    -0.207 OA
ATOM     22  O   UNL A   1      32.066  15.865  25.799  1.00  0.00    -0.207 OA
BRANCH  20  23
ATOM     23  N   UNL A   1      34.451  16.559  26.117  1.00  0.00    -0.225 NA
ATOM     24  H   UNL A   1      34.144  17.220  26.829  1.00  0.00     0.137 HD
ATOM     25  H   UNL A   1      35.261  16.940  25.626  1.00  0.00     0.137 HD
ENDBRANCH  20  23
ENDBRANCH  15  20
ENDBRANCH  13  14
ENDBRANCH   7  12
BRANCH  11  26
ATOM     26  O   UNL A   1      31.107  27.799  22.020  1.00  0.00    -0.507 OA
ATOM     27  H   UNL A   1      31.272  28.448  22.674  1.00  0.00     0.293 HD
ENDBRANCH  11  26
ENDBRANCH   3   6
ENDBRANCH   1   2
BRANCH   1  28
ATOM     28  C   UNL A   1      31.957  27.888  26.863  1.00  0.00     0.042 C 
BRANCH  28  29
ATOM     29  C   UNL A   1      32.665  28.818  25.892  1.00  0.00     0.118 C 
BRANCH  29  30
ATOM     30  N   UNL A   1      32.357  30.225  26.126  1.00  0.00    -0.352 N 
ATOM     31  C   UNL A   1      32.960  31.165  26.928  1.00  0.00     0.251 C 
ATOM     32  H   UNL A   1      31.581  30.561  25.621  1.00  0.00     0.163 HD
ATOM     33  O   UNL A   1      32.392  32.240  27.115  1.00  0.00    -0.269 OA
BRANCH  31  34
ATOM     34  C   UNL A   1      34.265  30.902  27.577  1.00  0.00     0.039 A 
ATOM     35  C   UNL A   1      35.176  31.955  27.731  1.00  0.00     0.014 A 
ATOM     36  C   UNL A   1      34.621  29.620  27.995  1.00  0.00     0.014 A 
ATOM     37  C   UNL A   1      36.402  31.734  28.370  1.00  0.00     0.010 A 
ATOM     38  C   UNL A   1      35.793  29.422  28.717  1.00  0.00     0.010 A 
ATOM     39  C   UNL A   1      36.705  30.472  28.903  1.00  0.00    -0.014 A 
BRANCH  39  40
ATOM     40  C   UNL A   1      37.964  30.205  29.646  1.00  0.00     0.031 A 
ATOM     41  C   UNL A   1      38.979  29.243  29.084  1.00  0.00     0.074 A 
ATOM     42  C   UNL A   1      38.137  30.720  30.880  1.00  0.00     0.049 A 
ATOM     43  N   UNL A   1      40.057  28.757  29.642  1.00  0.00    -0.248 NA
ATOM     44  C   UNL A   1      38.724  28.727  27.727  1.00  0.00     0.031 C 
ATOM     45  C   UNL A   1      37.192  31.600  31.572  1.00  0.00     0.029 A 
ATOM     46  N   UNL A   1      39.152  30.547  31.788  1.00  0.00    -0.354 N 
ATOM     47  C   UNL A   1      40.574  27.840  28.735  1.00  0.00     0.074 A 
ATOM     48  C   UNL A   1      39.677  27.815  27.601  1.00  0.00     0.031 C 
ATOM     49  C   UNL A   1      37.668  31.886  32.794  1.00  0.00     0.029 A 
ATOM     50  C   UNL A   1      38.934  31.186  32.988  1.00  0.00     0.049 A 
ATOM     51  H   UNL A   1      39.960  30.017  31.600  1.00  0.00     0.167 HD
ATOM     52  C   UNL A   1      41.709  27.107  28.821  1.00  0.00     0.034 A 
ATOM     53  C   UNL A   1      39.665  31.196  34.121  1.00  0.00     0.034 A 
ATOM     54  C   UNL A   1      42.638  27.192  29.916  1.00  0.00     0.049 A 
ATOM     55  C   UNL A   1      40.960  30.431  34.163  1.00  0.00     0.074 A 
ATOM     56  C   UNL A   1      43.867  26.573  30.051  1.00  0.00     0.029 A 
ATOM     57  N   UNL A   1      42.442  27.949  31.060  1.00  0.00    -0.354 N 
ATOM     58  N   UNL A   1      41.509  29.689  33.232  1.00  0.00    -0.248 NA
ATOM     59  C   UNL A   1      41.756  30.534  35.395  1.00  0.00     0.031 C 
ATOM     60  C   UNL A   1      44.412  26.950  31.283  1.00  0.00     0.029 A 
ATOM     61  C   UNL A   1      43.528  27.816  31.906  1.00  0.00     0.049 A 
ATOM     62  H   UNL A   1      41.647  28.501  31.243  1.00  0.00     0.167 HD
ATOM     63  C   UNL A   1      42.728  29.269  33.748  1.00  0.00     0.074 A 
ATOM     64  C   UNL A   1      42.847  29.854  35.069  1.00  0.00     0.031 C 
ATOM     65  C   UNL A   1      43.660  28.459  33.188  1.00  0.00     0.034 A 
BRANCH  52  66
ATOM     66  C   UNL A   1      42.045  26.196  27.670  1.00  0.00     0.023 A 
ATOM     67  C   UNL A   1      42.767  26.705  26.570  1.00  0.00     0.012 A 
ATOM     68  C   UNL A   1      41.701  24.831  27.696  1.00  0.00     0.148 A 
ATOM     69  C   UNL A   1      43.107  25.881  25.499  1.00  0.00     0.002 A 
ATOM     70  C   UNL A   1      42.082  24.005  26.643  1.00  0.00     0.091 A 
ATOM     71  F   UNL A   1      40.996  24.367  28.738  1.00  0.00    -0.205 F 
ATOM     72  C   UNL A   1      42.774  24.531  25.540  1.00  0.00     0.022 A 
BRANCH  70  73
ATOM     73  S   UNL A   1      41.769  22.235  26.640  1.00  0.00     0.127 S 
ATOM     74  O   UNL A   1      42.491  21.807  27.838  1.00  0.00    -0.237 OA
ATOM     75  O   UNL A   1      40.311  22.178  26.754  1.00  0.00    -0.237 OA
ATOM     76  O   UNL A   1      42.298  21.738  25.378  1.00  0.00    -0.744 OA
ENDBRANCH  70  73
ENDBRANCH  52  66
BRANCH  53  77
ATOM     77  C   UNL A   1      39.223  32.020  35.281  1.00  0.00     0.023 A 
ATOM     78  C   UNL A   1      38.328  31.464  36.217  1.00  0.00     0.012 A 
ATOM     79  C   UNL A   1      39.706  33.327  35.487  1.00  0.00     0.148 A 
ATOM     80  C   UNL A   1      37.900  32.202  37.320  1.00  0.00     0.002 A 
ATOM     81  C   UNL A   1      39.319  34.037  36.619  1.00  0.00     0.091 A 
ATOM     82  F   UNL A   1      40.548  33.844  34.581  1.00  0.00    -0.205 F 
ATOM     83  C   UNL A   1      38.403  33.484  37.527  1.00  0.00     0.022 A 
BRANCH  81  84
ATOM     84  S   UNL A   1      40.025  35.634  37.039  1.00  0.00     0.127 S 
ATOM     85  O   UNL A   1      39.654  36.441  35.879  1.00  0.00    -0.237 OA
ATOM     86  O   UNL A   1      39.312  35.964  38.274  1.00  0.00    -0.237 OA
ATOM     87  O   UNL A   1      41.451  35.395  37.219  1.00  0.00    -0.744 OA
ENDBRANCH  81  84
ENDBRANCH  53  77
BRANCH  65  88
ATOM     88  C   UNL A   1      44.916  28.186  33.971  1.00  0.00     0.023 A 
ATOM     89  C   UNL A   1      46.017  29.054  33.850  1.00  0.00     0.012 A 
ATOM     90  C   UNL A   1      44.966  27.123  34.895  1.00  0.00     0.148 A 
ATOM     91  C   UNL A   1      47.163  28.854  34.621  1.00  0.00     0.002 A 
ATOM     92  C   UNL A   1      46.092  26.958  35.692  1.00  0.00     0.091 A 
ATOM     93  F   UNL A   1      43.914  26.297  34.977  1.00  0.00    -0.205 F 
ATOM     94  C   UNL A   1      47.194  27.817  35.550  1.00  0.00     0.022 A 
BRANCH  92  95
ATOM     95  S   UNL A   1      46.181  25.709  36.980  1.00  0.00     0.127 S 
ATOM     96  O   UNL A   1      47.557  25.862  37.449  1.00  0.00    -0.237 OA
ATOM     97  O   UNL A   1      45.160  26.161  37.924  1.00  0.00    -0.237 OA
ATOM     98  O   UNL A   1      45.879  24.441  36.329  1.00  0.00    -0.744 OA
ENDBRANCH  92  95
ENDBRANCH  65  88
ENDBRANCH  39  40
ENDBRANCH  31  34
ENDBRANCH  29  30
ENDBRANCH  28  29
ENDBRANCH   1  28
TORSDOF 18
ENDMDL
MODEL 3
REMARK VINA RESULT:     -11.9      5.276     10.373
REMARK SMILES NS(=O)(=O)c1ccc(/N=N/c2ccc(O)c(C(=O)NCCCNC(=O)c3ccc(-c4c5nc(c(-c6cccc(S(=O)(=O)[O-])c6F)c6ccc([nH]6)c(-c6cccc(S(=O)(=O)[O-])c6F)c6nc(c(-c7cccc(S(=O)(=O)[O-])c7F)c7ccc4[nH]7)C=C6)C=C5)cc3)c2)cc1
REMARK SMILES IDX 20 1 19 2 17 3 18 4 16 6 11 7 12 8 89 9 13 10 14 11 10 12
REMARK SMILES IDX 9 13 8 14 5 15 6 16 91 17 7 18 90 19 2 20 3 21 4 22 1 23
REMARK SMILES IDX 15 26 21 28 22 29 23 30 24 31 25 33 26 34 27 35 88 36 28 37
REMARK SMILES IDX 87 38 29 39 30 40 31 41 81 42 32 43 86 44 80 45 82 46 33 47
REMARK SMILES IDX 85 48 79 49 78 50 34 52 66 53 46 54 65 55 47 56 50 57 64 58
REMARK SMILES IDX 83 59 48 60 49 61 63 63 84 64 51 65 35 66 36 67 44 68 37 69
REMARK SMILES IDX 39 70 45 71 38 72 40 73 41 74 42 75 43 76 67 77 68 78 76 79
REMARK SMILES IDX 69 80 71 81 77 82 70 83 72 84 73 85 74 86 75 87 52 88 53 89
REMARK SMILES IDX 61 90 54 91 56 92 62 93 55 94 57 95 58 96 59 97 60 98
REMARK H PARENT 19 5 1 24 1 25 15 27 23 32 82 51 50 62
REMARK Flexibility Score: inf
ROOT
ATOM      1  C   UNL A   1      36.199  22.590  26.205  1.00  0.00     0.118 C 
ENDROOT
BRANCH   1   2
ATOM      2  N   UNL A   1      35.030  22.370  27.055  1.00  0.00    -0.352 N 
ATOM      3  C   UNL A   1      33.689  22.215  26.788  1.00  0.00     0.255 C 
ATOM      4  O   UNL A   1      32.912  22.114  27.740  1.00  0.00    -0.269 OA
ATOM      5  H   UNL A   1      35.247  22.321  28.013  1.00  0.00     0.163 HD
BRANCH   3   6
ATOM      6  C   UNL A   1      33.109  22.236  25.421  1.00  0.00     0.083 A 
ATOM      7  C   UNL A   1      31.770  23.340  23.715  1.00  0.00     0.087 A 
ATOM      8  C   UNL A   1      31.709  22.146  22.993  1.00  0.00     0.034 A 
ATOM      9  C   UNL A   1      32.579  23.394  24.859  1.00  0.00     0.048 A 
ATOM     10  C   UNL A   1      32.390  21.013  23.447  1.00  0.00     0.049 A 
ATOM     11  C   UNL A   1      33.064  21.054  24.667  1.00  0.00     0.128 A 
BRANCH   7  12
ATOM     12  N   UNL A   1      30.958  24.436  23.338  1.00  0.00    -0.151 NA
ATOM     13  N   UNL A   1      31.627  25.490  23.460  1.00  0.00    -0.151 NA
BRANCH  13  14
ATOM     14  C   UNL A   1      30.868  26.657  23.287  1.00  0.00     0.086 A 
ATOM     15  C   UNL A   1      29.230  28.852  22.714  1.00  0.00     0.082 A 
ATOM     16  C   UNL A   1      28.708  27.766  23.422  1.00  0.00     0.024 A 
ATOM     17  C   UNL A   1      30.560  28.852  22.286  1.00  0.00     0.024 A 
ATOM     18  C   UNL A   1      29.529  26.670  23.699  1.00  0.00     0.031 A 
ATOM     19  C   UNL A   1      31.373  27.751  22.573  1.00  0.00     0.031 A 
BRANCH  15  20
ATOM     20  S   UNL A   1      28.186  30.235  22.352  1.00  0.00     0.238 S 
ATOM     21  O   UNL A   1      27.088  30.269  23.283  1.00  0.00    -0.207 OA
ATOM     22  O   UNL A   1      27.986  30.280  20.918  1.00  0.00    -0.207 OA
BRANCH  20  23
ATOM     23  N   UNL A   1      29.163  31.544  22.732  1.00  0.00    -0.225 NA
ATOM     24  H   UNL A   1      28.693  32.409  22.465  1.00  0.00     0.137 HD
ATOM     25  H   UNL A   1      30.046  31.467  22.226  1.00  0.00     0.137 HD
ENDBRANCH  20  23
ENDBRANCH  15  20
ENDBRANCH  13  14
ENDBRANCH   7  12
BRANCH  11  26
ATOM     26  O   UNL A   1      33.662  19.886  25.066  1.00  0.00    -0.507 OA
ATOM     27  H   UNL A   1      34.541  19.896  25.387  1.00  0.00     0.293 HD
ENDBRANCH  11  26
ENDBRANCH   3   6
ENDBRANCH   1   2
BRANCH   1  28
ATOM     28  C   UNL A   1      36.739  21.330  25.545  1.00  0.00     0.042 C 
BRANCH  28  29
ATOM     29  C   UNL A   1      38.214  21.378  25.185  1.00  0.00     0.118 C 
BRANCH  29  30
ATOM     30  N   UNL A   1      39.038  20.537  26.048  1.00  0.00    -0.352 N 
ATOM     31  C   UNL A   1      40.105  20.843  26.861  1.00  0.00     0.251 C 
ATOM     32  H   UNL A   1      38.787  19.586  26.050  1.00  0.00     0.163 HD
ATOM     33  O   UNL A   1      40.770  19.925  27.338  1.00  0.00    -0.269 OA
BRANCH  31  34
ATOM     34  C   UNL A   1      40.473  22.246  27.156  1.00  0.00     0.039 A 
ATOM     35  C   UNL A   1      41.386  22.511  28.185  1.00  0.00     0.014 A 
ATOM     36  C   UNL A   1      39.896  23.309  26.461  1.00  0.00     0.014 A 
ATOM     37  C   UNL A   1      41.770  23.828  28.460  1.00  0.00     0.010 A 
ATOM     38  C   UNL A   1      40.351  24.607  26.666  1.00  0.00     0.010 A 
ATOM     39  C   UNL A   1      41.284  24.886  27.675  1.00  0.00    -0.014 A 
BRANCH  39  40
ATOM     40  C   UNL A   1      41.714  26.293  27.885  1.00  0.00     0.031 A 
ATOM     41  C   UNL A   1      43.091  26.731  27.455  1.00  0.00     0.074 A 
ATOM     42  C   UNL A   1      40.924  27.140  28.575  1.00  0.00     0.049 A 
ATOM     43  N   UNL A   1      43.711  27.858  27.687  1.00  0.00    -0.248 NA
ATOM     44  C   UNL A   1      43.892  25.752  26.699  1.00  0.00     0.031 C 
ATOM     45  C   UNL A   1      39.602  26.816  29.118  1.00  0.00     0.029 A 
ATOM     46  N   UNL A   1      41.134  28.438  28.973  1.00  0.00    -0.354 N 
ATOM     47  C   UNL A   1      44.988  27.704  27.161  1.00  0.00     0.074 A 
ATOM     48  C   UNL A   1      45.065  26.364  26.622  1.00  0.00     0.031 C 
ATOM     49  C   UNL A   1      39.123  27.881  29.778  1.00  0.00     0.029 A 
ATOM     50  C   UNL A   1      40.113  28.952  29.738  1.00  0.00     0.049 A 
ATOM     51  H   UNL A   1      41.939  28.951  28.734  1.00  0.00     0.167 HD
ATOM     52  C   UNL A   1      45.997  28.606  27.101  1.00  0.00     0.034 A 
ATOM     53  C   UNL A   1      39.992  30.149  30.349  1.00  0.00     0.034 A 
ATOM     54  C   UNL A   1      45.890  29.961  27.568  1.00  0.00     0.049 A 
ATOM     55  C   UNL A   1      41.098  31.159  30.203  1.00  0.00     0.074 A 
ATOM     56  C   UNL A   1      46.815  30.984  27.459  1.00  0.00     0.029 A 
ATOM     57  N   UNL A   1      44.789  30.485  28.227  1.00  0.00    -0.354 N 
ATOM     58  N   UNL A   1      42.239  31.045  29.568  1.00  0.00    -0.248 NA
ATOM     59  C   UNL A   1      40.886  32.474  30.826  1.00  0.00     0.031 C 
ATOM     60  C   UNL A   1      46.275  32.125  28.060  1.00  0.00     0.029 A 
ATOM     61  C   UNL A   1      45.008  31.816  28.529  1.00  0.00     0.049 A 
ATOM     62  H   UNL A   1      43.971  29.982  28.447  1.00  0.00     0.167 HD
ATOM     63  C   UNL A   1      42.863  32.282  29.680  1.00  0.00     0.074 A 
ATOM     64  C   UNL A   1      41.965  33.136  30.430  1.00  0.00     0.031 C 
ATOM     65  C   UNL A   1      44.076  32.671  29.217  1.00  0.00     0.034 A 
BRANCH  52  66
ATOM     66  C   UNL A   1      47.284  28.175  26.449  1.00  0.00     0.023 A 
ATOM     67  C   UNL A   1      48.354  27.729  27.253  1.00  0.00     0.012 A 
ATOM     68  C   UNL A   1      47.421  28.157  25.047  1.00  0.00     0.148 A 
ATOM     69  C   UNL A   1      49.551  27.309  26.675  1.00  0.00     0.002 A 
ATOM     70  C   UNL A   1      48.602  27.694  24.477  1.00  0.00     0.091 A 
ATOM     71  F   UNL A   1      46.402  28.604  24.298  1.00  0.00    -0.205 F 
ATOM     72  C   UNL A   1      49.671  27.281  25.289  1.00  0.00     0.022 A 
BRANCH  70  73
ATOM     73  S   UNL A   1      48.825  27.545  22.700  1.00  0.00     0.127 S 
ATOM     74  O   UNL A   1      50.182  28.064  22.530  1.00  0.00    -0.237 OA
ATOM     75  O   UNL A   1      48.695  26.102  22.492  1.00  0.00    -0.237 OA
ATOM     76  O   UNL A   1      47.768  28.342  22.096  1.00  0.00    -0.744 OA
ENDBRANCH  70  73
ENDBRANCH  52  66
BRANCH  53  77
ATOM     77  C   UNL A   1      38.742  30.481  31.089  1.00  0.00     0.023 A 
ATOM     78  C   UNL A   1      38.632  30.119  32.447  1.00  0.00     0.012 A 
ATOM     79  C   UNL A   1      37.684  31.181  30.478  1.00  0.00     0.148 A 
ATOM     80  C   UNL A   1      37.481  30.422  33.174  1.00  0.00     0.002 A 
ATOM     81  C   UNL A   1      36.563  31.529  31.224  1.00  0.00     0.091 A 
ATOM     82  F   UNL A   1      37.802  31.508  29.183  1.00  0.00    -0.205 F 
ATOM     83  C   UNL A   1      36.451  31.135  32.566  1.00  0.00     0.022 A 
BRANCH  81  84
ATOM     84  S   UNL A   1      35.256  32.569  30.564  1.00  0.00     0.127 S 
ATOM     85  O   UNL A   1      35.968  33.818  30.306  1.00  0.00    -0.237 OA
ATOM     86  O   UNL A   1      34.856  31.828  29.367  1.00  0.00    -0.237 OA
ATOM     87  O   UNL A   1      34.235  32.620  31.603  1.00  0.00    -0.744 OA
ENDBRANCH  81  84
ENDBRANCH  53  77
BRANCH  65  88
ATOM     88  C   UNL A   1      44.497  34.096  29.463  1.00  0.00     0.023 A 
ATOM     89  C   UNL A   1      45.102  34.443  30.685  1.00  0.00     0.012 A 
ATOM     90  C   UNL A   1      44.378  35.063  28.446  1.00  0.00     0.148 A 
ATOM     91  C   UNL A   1      45.562  35.743  30.902  1.00  0.00     0.002 A 
ATOM     92  C   UNL A   1      44.880  36.342  28.651  1.00  0.00     0.091 A 
ATOM     93  F   UNL A   1      43.779  34.714  27.298  1.00  0.00    -0.205 F 
ATOM     94  C   UNL A   1      45.463  36.687  29.882  1.00  0.00     0.022 A 
BRANCH  92  95
ATOM     95  S   UNL A   1      44.881  37.592  27.361  1.00  0.00     0.127 S 
ATOM     96  O   UNL A   1      45.398  38.758  28.075  1.00  0.00    -0.237 OA
ATOM     97  O   UNL A   1      45.800  37.022  26.376  1.00  0.00    -0.237 OA
ATOM     98  O   UNL A   1      43.501  37.698  26.906  1.00  0.00    -0.744 OA
ENDBRANCH  92  95
ENDBRANCH  65  88
ENDBRANCH  39  40
ENDBRANCH  31  34
ENDBRANCH  29  30
ENDBRANCH  28  29
ENDBRANCH   1  28
TORSDOF 18
ENDMDL
