MODEL 1
REMARK VINA RESULT:     -12.0      0.000      0.000
REMARK SMILES O=C(NCCCNC(=O)[C@@H]1CN(C(=O)[C@H]2CC=CCC2)c2ccccc2O1)c1ccc(-c2c3nc(c(-c4cccc(S(=O)(=O)[O-])c4F)c4ccc([nH]4)c(-c4cccc(S(=O)(=O)[O-])c4F)c4nc(c(-c5cccc(S(=O)(=O)[O-])c5F)c5ccc2[nH]5)C=C4)C=C3)cc1
REMARK SMILES IDX 4 1 3 2 1 3 2 4 28 6 29 7 90 8 30 9 89 10 31 11 32 12 33 13
REMARK SMILES IDX 83 14 34 15 88 16 82 17 84 18 35 19 87 20 81 21 80 22 36 24
REMARK SMILES IDX 68 25 48 26 67 27 49 28 52 29 66 30 85 31 50 32 51 33 65 35
REMARK SMILES IDX 86 36 53 37 37 38 38 39 46 40 39 41 41 42 47 43 40 44 42 45
REMARK SMILES IDX 43 46 44 47 45 48 69 49 70 50 78 51 71 52 73 53 79 54 72 55
REMARK SMILES IDX 74 56 75 57 76 58 77 59 54 60 55 61 63 62 56 63 58 64 64 65
REMARK SMILES IDX 57 66 59 67 60 68 61 69 62 70 5 71 6 72 7 73 8 74 9 76 10 77
REMARK SMILES IDX 11 78 27 79 12 80 26 81 21 82 25 83 22 84 24 85 23 86 13 87
REMARK SMILES IDX 14 88 15 89 16 90 20 91 17 92 19 93 18 94
REMARK H PARENT 3 5 84 23 52 34 7 75
REMARK Flexibility Score: inf
ROOT
ATOM      1  C   UNL A   1      34.084  28.434  26.186  1.00  0.00     0.118 C 
ENDROOT
BRANCH   1   2
ATOM      2  N   UNL A   1      33.818  29.781  26.662  1.00  0.00    -0.352 N 
ATOM      3  O   UNL A   1      34.043  31.639  27.902  1.00  0.00    -0.269 OA
ATOM      4  C   UNL A   1      34.531  30.574  27.530  1.00  0.00     0.251 C 
ATOM      5  H   UNL A   1      32.997  30.192  26.306  1.00  0.00     0.163 HD
BRANCH   4   6
ATOM      6  C   UNL A   1      35.852  30.140  28.040  1.00  0.00     0.039 A 
ATOM      7  C   UNL A   1      37.010  30.308  27.278  1.00  0.00     0.014 A 
ATOM      8  C   UNL A   1      35.936  29.574  29.315  1.00  0.00     0.014 A 
ATOM      9  C   UNL A   1      38.213  29.768  27.717  1.00  0.00     0.010 A 
ATOM     10  C   UNL A   1      37.168  29.120  29.799  1.00  0.00     0.010 A 
ATOM     11  C   UNL A   1      38.312  29.181  28.989  1.00  0.00    -0.014 A 
BRANCH  11  12
ATOM     12  C   UNL A   1      39.640  28.724  29.475  1.00  0.00     0.031 A 
ATOM     13  C   UNL A   1      40.361  29.436  30.587  1.00  0.00     0.074 A 
ATOM     14  C   UNL A   1      40.193  27.638  28.899  1.00  0.00     0.049 A 
ATOM     15  N   UNL A   1      41.502  29.131  31.151  1.00  0.00    -0.248 NA
ATOM     16  C   UNL A   1      39.731  30.649  31.133  1.00  0.00     0.031 C 
ATOM     17  C   UNL A   1      39.613  26.897  27.775  1.00  0.00     0.029 A 
ATOM     18  N   UNL A   1      41.356  26.965  29.173  1.00  0.00    -0.354 N 
ATOM     19  C   UNL A   1      41.745  30.125  32.090  1.00  0.00     0.074 A 
ATOM     20  C   UNL A   1      40.636  31.053  32.016  1.00  0.00     0.031 C 
ATOM     21  C   UNL A   1      40.403  25.856  27.477  1.00  0.00     0.029 A 
ATOM     22  C   UNL A   1      41.570  25.884  28.351  1.00  0.00     0.049 A 
ATOM     23  H   UNL A   1      41.976  27.229  29.889  1.00  0.00     0.167 HD
ATOM     24  C   UNL A   1      42.788  30.244  32.947  1.00  0.00     0.034 A 
ATOM     25  C   UNL A   1      42.597  25.016  28.292  1.00  0.00     0.034 A 
ATOM     26  C   UNL A   1      43.872  29.300  33.040  1.00  0.00     0.049 A 
ATOM     27  C   UNL A   1      43.723  25.157  29.274  1.00  0.00     0.074 A 
ATOM     28  C   UNL A   1      44.940  29.300  33.921  1.00  0.00     0.029 A 
ATOM     29  N   UNL A   1      44.032  28.192  32.221  1.00  0.00    -0.354 N 
ATOM     30  N   UNL A   1      43.863  26.026  30.246  1.00  0.00    -0.248 NA
ATOM     31  C   UNL A   1      44.818  24.184  29.173  1.00  0.00     0.031 C 
ATOM     32  C   UNL A   1      45.754  28.202  33.622  1.00  0.00     0.029 A 
ATOM     33  C   UNL A   1      45.185  27.508  32.569  1.00  0.00     0.049 A 
ATOM     34  H   UNL A   1      43.416  27.931  31.498  1.00  0.00     0.167 HD
ATOM     35  C   UNL A   1      45.052  25.695  30.883  1.00  0.00     0.074 A 
ATOM     36  C   UNL A   1      45.574  24.523  30.209  1.00  0.00     0.031 C 
ATOM     37  C   UNL A   1      45.668  26.317  31.917  1.00  0.00     0.034 A 
BRANCH  24  38
ATOM     38  C   UNL A   1      42.795  31.417  33.894  1.00  0.00     0.023 A 
ATOM     39  C   UNL A   1      43.300  32.658  33.457  1.00  0.00     0.012 A 
ATOM     40  C   UNL A   1      42.227  31.317  35.180  1.00  0.00     0.148 A 
ATOM     41  C   UNL A   1      43.258  33.776  34.290  1.00  0.00     0.002 A 
ATOM     42  C   UNL A   1      42.156  32.444  35.992  1.00  0.00     0.091 A 
ATOM     43  F   UNL A   1      41.771  30.123  35.586  1.00  0.00    -0.205 F 
ATOM     44  C   UNL A   1      42.678  33.672  35.551  1.00  0.00     0.022 A 
BRANCH  42  45
ATOM     45  S   UNL A   1      41.362  32.431  37.604  1.00  0.00     0.127 S 
ATOM     46  O   UNL A   1      41.408  33.847  37.964  1.00  0.00    -0.237 OA
ATOM     47  O   UNL A   1      40.027  31.925  37.287  1.00  0.00    -0.237 OA
ATOM     48  O   UNL A   1      42.164  31.546  38.438  1.00  0.00    -0.744 OA
ENDBRANCH  42  45
ENDBRANCH  24  38
BRANCH  25  49
ATOM     49  C   UNL A   1      42.575  23.912  27.292  1.00  0.00     0.023 A 
ATOM     50  C   UNL A   1      43.151  24.113  26.024  1.00  0.00     0.012 A 
ATOM     51  C   UNL A   1      42.036  22.651  27.611  1.00  0.00     0.148 A 
ATOM     52  C   UNL A   1      43.169  23.083  25.081  1.00  0.00     0.002 A 
ATOM     53  C   UNL A   1      42.112  21.613  26.691  1.00  0.00     0.091 A 
ATOM     54  F   UNL A   1      41.474  22.484  28.816  1.00  0.00    -0.205 F 
ATOM     55  C   UNL A   1      42.663  21.831  25.419  1.00  0.00     0.022 A 
BRANCH  53  56
ATOM     56  S   UNL A   1      41.621  19.936  27.109  1.00  0.00     0.127 S 
ATOM     57  O   UNL A   1      41.279  19.388  25.800  1.00  0.00    -0.237 OA
ATOM     58  O   UNL A   1      42.845  19.396  27.702  1.00  0.00    -0.237 OA
ATOM     59  O   UNL A   1      40.519  20.082  28.051  1.00  0.00    -0.744 OA
ENDBRANCH  53  56
ENDBRANCH  25  49
BRANCH  37  60
ATOM     60  C   UNL A   1      46.972  25.734  32.393  1.00  0.00     0.023 A 
ATOM     61  C   UNL A   1      48.176  26.142  31.787  1.00  0.00     0.012 A 
ATOM     62  C   UNL A   1      47.009  24.829  33.470  1.00  0.00     0.148 A 
ATOM     63  C   UNL A   1      49.397  25.630  32.224  1.00  0.00     0.002 A 
ATOM     64  C   UNL A   1      48.233  24.358  33.930  1.00  0.00     0.091 A 
ATOM     65  F   UNL A   1      45.850  24.437  34.019  1.00  0.00    -0.205 F 
ATOM     66  C   UNL A   1      49.427  24.748  33.302  1.00  0.00     0.022 A 
BRANCH  64  67
ATOM     67  S   UNL A   1      48.368  23.288  35.367  1.00  0.00     0.127 S 
ATOM     68  O   UNL A   1      47.724  24.094  36.402  1.00  0.00    -0.237 OA
ATOM     69  O   UNL A   1      47.608  22.108  34.952  1.00  0.00    -0.237 OA
ATOM     70  O   UNL A   1      49.794  23.049  35.551  1.00  0.00    -0.744 OA
ENDBRANCH  64  67
ENDBRANCH  37  60
ENDBRANCH  11  12
ENDBRANCH   4   6
ENDBRANCH   1   2
BRANCH   1  71
ATOM     71  C   UNL A   1      33.905  28.277  24.682  1.00  0.00     0.042 C 
BRANCH  71  72
ATOM     72  C   UNL A   1      33.040  27.103  24.249  1.00  0.00     0.118 C 
BRANCH  72  73
ATOM     73  N   UNL A   1      33.702  26.200  23.321  1.00  0.00    -0.353 N 
ATOM     74  C   UNL A   1      33.344  24.936  22.927  1.00  0.00     0.262 C 
ATOM     75  H   UNL A   1      34.532  26.547  22.917  1.00  0.00     0.163 HD
ATOM     76  O   UNL A   1      33.905  24.467  21.937  1.00  0.00    -0.271 OA
BRANCH  74  77
ATOM     77  C   UNL A   1      32.301  24.159  23.747  1.00  0.00     0.281 C 
ATOM     78  C   UNL A   1      32.801  24.022  25.185  1.00  0.00     0.181 C 
ATOM     79  O   UNL A   1      31.864  22.944  23.164  1.00  0.00    -0.477 OA
ATOM     80  N   UNL A   1      33.793  22.958  25.353  1.00  0.00    -0.304 N 
ATOM     81  C   UNL A   1      32.454  21.805  23.633  1.00  0.00     0.144 A 
ATOM     82  C   UNL A   1      33.421  21.755  24.652  1.00  0.00     0.086 A 
ATOM     83  C   UNL A   1      32.009  20.638  23.002  1.00  0.00     0.049 A 
ATOM     84  C   UNL A   1      33.922  20.495  25.012  1.00  0.00     0.030 A 
ATOM     85  C   UNL A   1      32.510  19.399  23.380  1.00  0.00     0.004 A 
ATOM     86  C   UNL A   1      33.468  19.328  24.385  1.00  0.00     0.002 A 
BRANCH  80  87
ATOM     87  C   UNL A   1      34.999  23.059  26.039  1.00  0.00     0.230 C 
ATOM     88  O   UNL A   1      35.063  22.863  27.264  1.00  0.00    -0.274 OA
BRANCH  87  89
ATOM     89  C   UNL A   1      36.305  23.573  25.387  1.00  0.00     0.083 C 
ATOM     90  C   UNL A   1      37.540  23.927  26.219  1.00  0.00     0.040 C 
ATOM     91  C   UNL A   1      36.667  22.708  24.172  1.00  0.00     0.018 C 
ATOM     92  C   UNL A   1      38.578  22.837  26.288  1.00  0.00    -0.030 C 
ATOM     93  C   UNL A   1      37.436  21.446  24.553  1.00  0.00     0.028 C 
ATOM     94  C   UNL A   1      38.515  21.713  25.560  1.00  0.00    -0.031 C 
ENDBRANCH  87  89
ENDBRANCH  80  87
ENDBRANCH  74  77
ENDBRANCH  72  73
ENDBRANCH  71  72
ENDBRANCH   1  71
TORSDOF 15
ENDMDL
MODEL 2
REMARK VINA RESULT:     -11.8      2.306      3.641
REMARK SMILES O=C(NCCCNC(=O)[C@@H]1CN(C(=O)[C@H]2CC=CCC2)c2ccccc2O1)c1ccc(-c2c3nc(c(-c4cccc(S(=O)(=O)[O-])c4F)c4ccc([nH]4)c(-c4cccc(S(=O)(=O)[O-])c4F)c4nc(c(-c5cccc(S(=O)(=O)[O-])c5F)c5ccc2[nH]5)C=C4)C=C3)cc1
REMARK SMILES IDX 4 1 3 2 1 3 2 4 28 6 29 7 90 8 30 9 89 10 31 11 32 12 33 13
REMARK SMILES IDX 83 14 34 15 88 16 82 17 84 18 35 19 87 20 81 21 80 22 36 24
REMARK SMILES IDX 68 25 48 26 67 27 49 28 52 29 66 30 85 31 50 32 51 33 65 35
REMARK SMILES IDX 86 36 53 37 37 38 38 39 46 40 39 41 41 42 47 43 40 44 42 45
REMARK SMILES IDX 43 46 44 47 45 48 69 49 70 50 78 51 71 52 73 53 79 54 72 55
REMARK SMILES IDX 74 56 75 57 76 58 77 59 54 60 55 61 63 62 56 63 58 64 64 65
REMARK SMILES IDX 57 66 59 67 60 68 61 69 62 70 5 71 6 72 7 73 8 74 9 76 10 77
REMARK SMILES IDX 11 78 27 79 12 80 26 81 21 82 25 83 22 84 24 85 23 86 13 87
REMARK SMILES IDX 14 88 15 89 16 90 20 91 17 92 19 93 18 94
REMARK H PARENT 3 5 84 23 52 34 7 75
REMARK Flexibility Score: inf
ROOT
ATOM      1  C   UNL A   1      33.252  28.941  25.048  1.00  0.00     0.118 C 
ENDROOT
BRANCH   1   2
ATOM      2  N   UNL A   1      32.659  30.149  25.596  1.00  0.00    -0.352 N 
ATOM      3  O   UNL A   1      32.295  31.823  27.048  1.00  0.00    -0.269 OA
ATOM      4  C   UNL A   1      33.031  30.909  26.680  1.00  0.00     0.251 C 
ATOM      5  H   UNL A   1      31.866  30.478  25.114  1.00  0.00     0.163 HD
BRANCH   4   6
ATOM      6  C   UNL A   1      34.279  30.612  27.419  1.00  0.00     0.039 A 
ATOM      7  C   UNL A   1      34.551  29.326  27.888  1.00  0.00     0.014 A 
ATOM      8  C   UNL A   1      35.207  31.637  27.626  1.00  0.00     0.014 A 
ATOM      9  C   UNL A   1      35.659  29.103  28.698  1.00  0.00     0.010 A 
ATOM     10  C   UNL A   1      36.373  31.387  28.357  1.00  0.00     0.010 A 
ATOM     11  C   UNL A   1      36.593  30.126  28.930  1.00  0.00    -0.014 A 
BRANCH  11  12
ATOM     12  C   UNL A   1      37.828  29.819  29.698  1.00  0.00     0.031 A 
ATOM     13  C   UNL A   1      38.040  30.344  31.092  1.00  0.00     0.074 A 
ATOM     14  C   UNL A   1      38.765  29.041  29.120  1.00  0.00     0.049 A 
ATOM     15  N   UNL A   1      39.041  30.125  31.905  1.00  0.00    -0.248 NA
ATOM     16  C   UNL A   1      37.006  31.234  31.644  1.00  0.00     0.031 C 
ATOM     17  C   UNL A   1      38.694  28.519  27.751  1.00  0.00     0.029 A 
ATOM     18  N   UNL A   1      39.953  28.553  29.598  1.00  0.00    -0.354 N 
ATOM     19  C   UNL A   1      38.780  30.872  33.047  1.00  0.00     0.074 A 
ATOM     20  C   UNL A   1      37.527  31.561  32.820  1.00  0.00     0.031 C 
ATOM     21  C   UNL A   1      39.771  27.758  27.513  1.00  0.00     0.029 A 
ATOM     22  C   UNL A   1      40.634  27.780  28.688  1.00  0.00     0.049 A 
ATOM     23  H   UNL A   1      40.285  28.737  30.506  1.00  0.00     0.167 HD
ATOM     24  C   UNL A   1      39.509  30.962  34.186  1.00  0.00     0.034 A 
ATOM     25  C   UNL A   1      41.829  27.166  28.778  1.00  0.00     0.034 A 
ATOM     26  C   UNL A   1      40.737  30.248  34.420  1.00  0.00     0.049 A 
ATOM     27  C   UNL A   1      42.598  27.261  30.064  1.00  0.00     0.074 A 
ATOM     28  C   UNL A   1      41.513  30.223  35.566  1.00  0.00     0.029 A 
ATOM     29  N   UNL A   1      41.374  29.438  33.492  1.00  0.00    -0.354 N 
ATOM     30  N   UNL A   1      42.263  27.861  31.181  1.00  0.00    -0.248 NA
ATOM     31  C   UNL A   1      43.893  26.571  30.114  1.00  0.00     0.031 C 
ATOM     32  C   UNL A   1      42.627  29.413  35.324  1.00  0.00     0.029 A 
ATOM     33  C   UNL A   1      42.537  28.918  34.034  1.00  0.00     0.049 A 
ATOM     34  H   UNL A   1      41.047  29.260  32.580  1.00  0.00     0.167 HD
ATOM     35  C   UNL A   1      43.298  27.608  32.072  1.00  0.00     0.074 A 
ATOM     36  C   UNL A   1      44.253  26.769  31.376  1.00  0.00     0.031 C 
ATOM     37  C   UNL A   1      43.455  28.048  33.344  1.00  0.00     0.034 A 
BRANCH  24  38
ATOM     38  C   UNL A   1      38.979  31.831  35.298  1.00  0.00     0.023 A 
ATOM     39  C   UNL A   1      39.017  33.233  35.160  1.00  0.00     0.012 A 
ATOM     40  C   UNL A   1      38.366  31.266  36.435  1.00  0.00     0.148 A 
ATOM     41  C   UNL A   1      38.475  34.060  36.144  1.00  0.00     0.002 A 
ATOM     42  C   UNL A   1      37.795  32.096  37.394  1.00  0.00     0.091 A 
ATOM     43  F   UNL A   1      38.357  29.931  36.558  1.00  0.00    -0.205 F 
ATOM     44  C   UNL A   1      37.855  33.492  37.254  1.00  0.00     0.022 A 
BRANCH  42  45
ATOM     45  S   UNL A   1      36.911  31.461  38.824  1.00  0.00     0.127 S 
ATOM     46  O   UNL A   1      37.904  31.633  39.883  1.00  0.00    -0.237 OA
ATOM     47  O   UNL A   1      35.767  32.369  38.908  1.00  0.00    -0.237 OA
ATOM     48  O   UNL A   1      36.568  30.082  38.503  1.00  0.00    -0.744 OA
ENDBRANCH  42  45
ENDBRANCH  24  38
BRANCH  25  49
ATOM     49  C   UNL A   1      42.341  26.373  27.626  1.00  0.00     0.023 A 
ATOM     50  C   UNL A   1      43.243  26.964  26.722  1.00  0.00     0.012 A 
ATOM     51  C   UNL A   1      41.980  25.023  27.454  1.00  0.00     0.148 A 
ATOM     52  C   UNL A   1      43.758  26.231  25.652  1.00  0.00     0.002 A 
ATOM     53  C   UNL A   1      42.544  24.282  26.423  1.00  0.00     0.091 A 
ATOM     54  F   UNL A   1      41.104  24.483  28.312  1.00  0.00    -0.205 F 
ATOM     55  C   UNL A   1      43.420  24.888  25.510  1.00  0.00     0.022 A 
BRANCH  53  56
ATOM     56  S   UNL A   1      42.276  22.512  26.270  1.00  0.00     0.127 S 
ATOM     57  O   UNL A   1      42.950  22.214  25.009  1.00  0.00    -0.237 OA
ATOM     58  O   UNL A   1      42.946  21.995  27.464  1.00  0.00    -0.237 OA
ATOM     59  O   UNL A   1      40.829  22.340  26.279  1.00  0.00    -0.744 OA
ENDBRANCH  53  56
ENDBRANCH  25  49
BRANCH  37  60
ATOM     60  C   UNL A   1      44.701  27.620  34.071  1.00  0.00     0.023 A 
ATOM     61  C   UNL A   1      45.841  28.447  34.041  1.00  0.00     0.012 A 
ATOM     62  C   UNL A   1      44.726  26.431  34.825  1.00  0.00     0.148 A 
ATOM     63  C   UNL A   1      47.000  28.080  34.724  1.00  0.00     0.002 A 
ATOM     64  C   UNL A   1      45.869  26.094  35.539  1.00  0.00     0.091 A 
ATOM     65  F   UNL A   1      43.638  25.647  34.822  1.00  0.00    -0.205 F 
ATOM     66  C   UNL A   1      47.011  26.910  35.481  1.00  0.00     0.022 A 
BRANCH  64  67
ATOM     67  S   UNL A   1      45.940  24.652  36.609  1.00  0.00     0.127 S 
ATOM     68  O   UNL A   1      44.831  24.907  37.527  1.00  0.00    -0.237 OA
ATOM     69  O   UNL A   1      45.714  23.554  35.669  1.00  0.00    -0.237 OA
ATOM     70  O   UNL A   1      47.268  24.667  37.208  1.00  0.00    -0.744 OA
ENDBRANCH  64  67
ENDBRANCH  37  60
ENDBRANCH  11  12
ENDBRANCH   4   6
ENDBRANCH   1   2
BRANCH   1  71
ATOM     71  C   UNL A   1      32.351  27.719  25.162  1.00  0.00     0.042 C 
BRANCH  71  72
ATOM     72  C   UNL A   1      33.031  26.383  24.904  1.00  0.00     0.118 C 
BRANCH  72  73
ATOM     73  N   UNL A   1      32.345  25.252  25.508  1.00  0.00    -0.353 N 
ATOM     74  C   UNL A   1      32.506  23.910  25.278  1.00  0.00     0.262 C 
ATOM     75  H   UNL A   1      31.664  25.484  26.181  1.00  0.00     0.163 HD
ATOM     76  O   UNL A   1      32.011  23.128  26.091  1.00  0.00    -0.271 OA
BRANCH  74  77
ATOM     77  C   UNL A   1      33.253  23.445  24.017  1.00  0.00     0.281 C 
ATOM     78  C   UNL A   1      32.820  22.018  23.680  1.00  0.00     0.181 C 
ATOM     79  O   UNL A   1      34.656  23.638  24.046  1.00  0.00    -0.477 OA
ATOM     80  N   UNL A   1      33.486  21.004  24.501  1.00  0.00    -0.304 N 
ATOM     81  C   UNL A   1      35.407  22.544  24.372  1.00  0.00     0.144 A 
ATOM     82  C   UNL A   1      34.896  21.264  24.646  1.00  0.00     0.086 A 
ATOM     83  C   UNL A   1      36.782  22.798  24.417  1.00  0.00     0.049 A 
ATOM     84  C   UNL A   1      35.813  20.252  24.965  1.00  0.00     0.030 A 
ATOM     85  C   UNL A   1      37.676  21.779  24.725  1.00  0.00     0.004 A 
ATOM     86  C   UNL A   1      37.190  20.506  25.000  1.00  0.00     0.002 A 
BRANCH  80  87
ATOM     87  C   UNL A   1      32.870  19.935  25.143  1.00  0.00     0.230 C 
ATOM     88  O   UNL A   1      32.907  19.817  26.379  1.00  0.00    -0.274 OA
BRANCH  87  89
ATOM     89  C   UNL A   1      32.242  18.739  24.389  1.00  0.00     0.083 C 
ATOM     90  C   UNL A   1      32.613  18.411  22.940  1.00  0.00     0.040 C 
ATOM     91  C   UNL A   1      32.253  17.487  25.275  1.00  0.00     0.018 C 
ATOM     92  C   UNL A   1      33.653  17.331  22.793  1.00  0.00    -0.030 C 
ATOM     93  C   UNL A   1      33.581  16.734  25.220  1.00  0.00     0.028 C 
ATOM     94  C   UNL A   1      34.105  16.598  23.821  1.00  0.00    -0.031 C 
ENDBRANCH  87  89
ENDBRANCH  80  87
ENDBRANCH  74  77
ENDBRANCH  72  73
ENDBRANCH  71  72
ENDBRANCH   1  71
TORSDOF 15
ENDMDL
MODEL 3
REMARK VINA RESULT:     -11.8      1.806      2.938
REMARK SMILES O=C(NCCCNC(=O)[C@@H]1CN(C(=O)[C@H]2CC=CCC2)c2ccccc2O1)c1ccc(-c2c3nc(c(-c4cccc(S(=O)(=O)[O-])c4F)c4ccc([nH]4)c(-c4cccc(S(=O)(=O)[O-])c4F)c4nc(c(-c5cccc(S(=O)(=O)[O-])c5F)c5ccc2[nH]5)C=C4)C=C3)cc1
REMARK SMILES IDX 4 1 3 2 1 3 2 4 28 6 29 7 90 8 30 9 89 10 31 11 32 12 33 13
REMARK SMILES IDX 83 14 34 15 88 16 82 17 84 18 35 19 87 20 81 21 80 22 36 24
REMARK SMILES IDX 68 25 48 26 67 27 49 28 52 29 66 30 85 31 50 32 51 33 65 35
REMARK SMILES IDX 86 36 53 37 37 38 38 39 46 40 39 41 41 42 47 43 40 44 42 45
REMARK SMILES IDX 43 46 44 47 45 48 69 49 70 50 78 51 71 52 73 53 79 54 72 55
REMARK SMILES IDX 74 56 75 57 76 58 77 59 54 60 55 61 63 62 56 63 58 64 64 65
REMARK SMILES IDX 57 66 59 67 60 68 61 69 62 70 5 71 6 72 7 73 8 74 9 76 10 77
REMARK SMILES IDX 11 78 27 79 12 80 26 81 21 82 25 83 22 84 24 85 23 86 13 87
REMARK SMILES IDX 14 88 15 89 16 90 20 91 17 92 19 93 18 94
REMARK H PARENT 3 5 84 23 52 34 7 75
REMARK Flexibility Score: inf
ROOT
ATOM      1  C   UNL A   1      34.014  28.243  26.468  1.00  0.00     0.118 C 
ENDROOT
BRANCH   1   2
ATOM      2  N   UNL A   1      33.725  29.592  26.925  1.00  0.00    -0.352 N 
ATOM      3  O   UNL A   1      33.945  31.487  28.109  1.00  0.00    -0.269 OA
ATOM      4  C   UNL A   1      34.451  30.430  27.738  1.00  0.00     0.251 C 
ATOM      5  H   UNL A   1      32.874  29.966  26.601  1.00  0.00     0.163 HD
BRANCH   4   6
ATOM      6  C   UNL A   1      35.810  30.053  28.192  1.00  0.00     0.039 A 
ATOM      7  C   UNL A   1      36.929  30.290  27.392  1.00  0.00     0.014 A 
ATOM      8  C   UNL A   1      35.968  29.472  29.454  1.00  0.00     0.014 A 
ATOM      9  C   UNL A   1      38.173  29.802  27.777  1.00  0.00     0.010 A 
ATOM     10  C   UNL A   1      37.237  29.071  29.884  1.00  0.00     0.010 A 
ATOM     11  C   UNL A   1      38.347  29.200  29.035  1.00  0.00    -0.014 A 
BRANCH  11  12
ATOM     12  C   UNL A   1      39.712  28.801  29.464  1.00  0.00     0.031 A 
ATOM     13  C   UNL A   1      40.434  29.524  30.568  1.00  0.00     0.074 A 
ATOM     14  C   UNL A   1      40.298  27.758  28.844  1.00  0.00     0.049 A 
ATOM     15  N   UNL A   1      41.608  29.264  31.086  1.00  0.00    -0.248 NA
ATOM     16  C   UNL A   1      39.763  30.690  31.165  1.00  0.00     0.031 C 
ATOM     17  C   UNL A   1      39.717  27.014  27.722  1.00  0.00     0.029 A 
ATOM     18  N   UNL A   1      41.502  27.140  29.061  1.00  0.00    -0.354 N 
ATOM     19  C   UNL A   1      41.834  30.248  32.040  1.00  0.00     0.074 A 
ATOM     20  C   UNL A   1      40.677  31.119  32.027  1.00  0.00     0.031 C 
ATOM     21  C   UNL A   1      40.548  26.023  27.372  1.00  0.00     0.029 A 
ATOM     22  C   UNL A   1      41.742  26.090  28.206  1.00  0.00     0.049 A 
ATOM     23  H   UNL A   1      42.134  27.419  29.763  1.00  0.00     0.167 HD
ATOM     24  C   UNL A   1      42.899  30.402  32.864  1.00  0.00     0.034 A 
ATOM     25  C   UNL A   1      42.809  25.277  28.091  1.00  0.00     0.034 A 
ATOM     26  C   UNL A   1      44.031  29.512  32.897  1.00  0.00     0.049 A 
ATOM     27  C   UNL A   1      43.960  25.454  29.039  1.00  0.00     0.074 A 
ATOM     28  C   UNL A   1      45.128  29.547  33.742  1.00  0.00     0.029 A 
ATOM     29  N   UNL A   1      44.218  28.433  32.047  1.00  0.00    -0.354 N 
ATOM     30  N   UNL A   1      44.090  26.307  30.027  1.00  0.00    -0.248 NA
ATOM     31  C   UNL A   1      45.099  24.541  28.876  1.00  0.00     0.031 C 
ATOM     32  C   UNL A   1      45.985  28.499  33.389  1.00  0.00     0.029 A 
ATOM     33  C   UNL A   1      45.415  27.801  32.339  1.00  0.00     0.049 A 
ATOM     34  H   UNL A   1      43.591  28.157  31.339  1.00  0.00     0.167 HD
ATOM     35  C   UNL A   1      45.316  26.022  30.614  1.00  0.00     0.074 A 
ATOM     36  C   UNL A   1      45.872  24.895  29.894  1.00  0.00     0.031 C 
ATOM     37  C   UNL A   1      45.935  26.652  31.642  1.00  0.00     0.034 A 
BRANCH  24  38
ATOM     38  C   UNL A   1      42.879  31.551  33.840  1.00  0.00     0.023 A 
ATOM     39  C   UNL A   1      43.325  32.821  33.422  1.00  0.00     0.012 A 
ATOM     40  C   UNL A   1      42.343  31.399  35.134  1.00  0.00     0.148 A 
ATOM     41  C   UNL A   1      43.257  33.917  34.283  1.00  0.00     0.002 A 
ATOM     42  C   UNL A   1      42.244  32.503  35.973  1.00  0.00     0.091 A 
ATOM     43  F   UNL A   1      41.942  30.178  35.520  1.00  0.00    -0.205 F 
ATOM     44  C   UNL A   1      42.708  33.760  35.552  1.00  0.00     0.022 A 
BRANCH  42  45
ATOM     45  S   UNL A   1      41.486  32.421  37.601  1.00  0.00     0.127 S 
ATOM     46  O   UNL A   1      40.131  31.983  37.271  1.00  0.00    -0.237 OA
ATOM     47  O   UNL A   1      42.306  31.413  38.273  1.00  0.00    -0.237 OA
ATOM     48  O   UNL A   1      41.593  33.761  38.160  1.00  0.00    -0.744 OA
ENDBRANCH  42  45
ENDBRANCH  24  38
BRANCH  25  49
ATOM     49  C   UNL A   1      42.808  24.197  27.067  1.00  0.00     0.023 A 
ATOM     50  C   UNL A   1      43.533  24.372  25.873  1.00  0.00     0.012 A 
ATOM     51  C   UNL A   1      42.138  22.979  27.292  1.00  0.00     0.148 A 
ATOM     52  C   UNL A   1      43.571  23.362  24.911  1.00  0.00     0.002 A 
ATOM     53  C   UNL A   1      42.231  21.955  26.358  1.00  0.00     0.091 A 
ATOM     54  F   UNL A   1      41.438  22.838  28.425  1.00  0.00    -0.205 F 
ATOM     55  C   UNL A   1      42.932  22.149  25.159  1.00  0.00     0.022 A 
BRANCH  53  56
ATOM     56  S   UNL A   1      41.565  20.317  26.677  1.00  0.00     0.127 S 
ATOM     57  O   UNL A   1      41.888  19.615  25.438  1.00  0.00    -0.237 OA
ATOM     58  O   UNL A   1      42.339  19.893  27.845  1.00  0.00    -0.237 OA
ATOM     59  O   UNL A   1      40.149  20.523  26.946  1.00  0.00    -0.744 OA
ENDBRANCH  53  56
ENDBRANCH  25  49
BRANCH  37  60
ATOM     60  C   UNL A   1      47.283  26.126  32.060  1.00  0.00     0.023 A 
ATOM     61  C   UNL A   1      47.374  25.241  33.152  1.00  0.00     0.012 A 
ATOM     62  C   UNL A   1      48.445  26.463  31.341  1.00  0.00     0.148 A 
ATOM     63  C   UNL A   1      48.609  24.727  33.545  1.00  0.00     0.002 A 
ATOM     64  C   UNL A   1      49.666  25.911  31.710  1.00  0.00     0.091 A 
ATOM     65  F   UNL A   1      48.340  27.324  30.318  1.00  0.00    -0.205 F 
ATOM     66  C   UNL A   1      49.752  25.052  32.818  1.00  0.00     0.022 A 
BRANCH  64  67
ATOM     67  S   UNL A   1      51.172  26.206  30.776  1.00  0.00     0.127 S 
ATOM     68  O   UNL A   1      51.354  27.646  30.951  1.00  0.00    -0.237 OA
ATOM     69  O   UNL A   1      52.147  25.377  31.486  1.00  0.00    -0.237 OA
ATOM     70  O   UNL A   1      50.888  25.768  29.416  1.00  0.00    -0.744 OA
ENDBRANCH  64  67
ENDBRANCH  37  60
ENDBRANCH  11  12
ENDBRANCH   4   6
ENDBRANCH   1   2
BRANCH   1  71
ATOM     71  C   UNL A   1      32.813  27.310  26.538  1.00  0.00     0.042 C 
BRANCH  71  72
ATOM     72  C   UNL A   1      32.882  26.092  25.629  1.00  0.00     0.118 C 
BRANCH  72  73
ATOM     73  N   UNL A   1      32.277  24.900  26.202  1.00  0.00    -0.353 N 
ATOM     74  C   UNL A   1      32.437  23.584  25.848  1.00  0.00     0.262 C 
ATOM     75  H   UNL A   1      31.661  25.061  26.954  1.00  0.00     0.163 HD
ATOM     76  O   UNL A   1      32.037  22.729  26.638  1.00  0.00    -0.271 OA
BRANCH  74  77
ATOM     77  C   UNL A   1      33.065  23.241  24.487  1.00  0.00     0.281 C 
ATOM     78  C   UNL A   1      32.627  21.834  24.080  1.00  0.00     0.181 C 
ATOM     79  O   UNL A   1      34.460  23.467  24.396  1.00  0.00    -0.477 OA
ATOM     80  N   UNL A   1      33.389  20.776  24.748  1.00  0.00    -0.304 N 
ATOM     81  C   UNL A   1      35.259  22.371  24.559  1.00  0.00     0.144 A 
ATOM     82  C   UNL A   1      34.801  21.061  24.777  1.00  0.00     0.086 A 
ATOM     83  C   UNL A   1      36.627  22.656  24.491  1.00  0.00     0.049 A 
ATOM     84  C   UNL A   1      35.763  20.051  24.923  1.00  0.00     0.030 A 
ATOM     85  C   UNL A   1      37.565  21.640  24.628  1.00  0.00     0.004 A 
ATOM     86  C   UNL A   1      37.133  20.337  24.845  1.00  0.00     0.002 A 
BRANCH  80  87
ATOM     87  C   UNL A   1      32.859  19.643  25.358  1.00  0.00     0.230 C 
ATOM     88  O   UNL A   1      32.910  19.492  26.590  1.00  0.00    -0.274 OA
BRANCH  87  89
ATOM     89  C   UNL A   1      32.322  18.427  24.568  1.00  0.00     0.083 C 
ATOM     90  C   UNL A   1      32.677  18.195  23.097  1.00  0.00     0.040 C 
ATOM     91  C   UNL A   1      32.475  17.145  25.398  1.00  0.00     0.018 C 
ATOM     92  C   UNL A   1      33.807  17.224  22.875  1.00  0.00    -0.030 C 
ATOM     93  C   UNL A   1      33.863  16.523  25.275  1.00  0.00     0.028 C 
ATOM     94  C   UNL A   1      34.356  16.495  23.858  1.00  0.00    -0.031 C 
ENDBRANCH  87  89
ENDBRANCH  80  87
ENDBRANCH  74  77
ENDBRANCH  72  73
ENDBRANCH  71  72
ENDBRANCH   1  71
TORSDOF 15
ENDMDL
