MODEL 1
REMARK VINA RESULT:     -13.8      0.000      0.000
REMARK SMILES Cc1cc(NC(=O)c2ccc(Br)cc2N)ccc1C(=O)NCCCNC(=O)c1ccc(-c2c3nc(c(-c4cccc(S(=O)(=O)[O-])c4F)c4ccc([nH]4)c(-c4cccc(S(=O)(=O)[O-])c4F)c4nc(c(-c5cccc(S(=O)(=O)[O-])c5F)c5ccc2[nH]5)C=C4)C=C3)cc1
REMARK SMILES IDX 23 1 22 2 21 3 19 4 20 5 18 7 1 8 2 9 3 10 4 11 17 12 16 13
REMARK SMILES IDX 5 14 6 15 7 17 8 18 9 19 14 20 10 21 13 22 11 23 12 24 15 25
REMARK SMILES IDX 24 28 25 29 26 30 27 32 28 33 29 34 90 35 30 36 89 37 31 38
REMARK SMILES IDX 32 39 33 40 83 41 34 42 88 43 82 44 84 45 35 46 87 47 81 48
REMARK SMILES IDX 80 49 36 51 68 52 48 53 67 54 49 55 52 56 66 57 85 58 50 59
REMARK SMILES IDX 51 60 65 62 86 63 53 64 37 65 38 66 46 67 39 68 41 69 47 70
REMARK SMILES IDX 40 71 42 72 43 73 44 74 45 75 69 76 70 77 78 78 71 79 73 80
REMARK SMILES IDX 79 81 72 82 74 83 75 84 76 85 77 86 54 87 55 88 63 89 56 90
REMARK SMILES IDX 58 91 64 92 57 93 59 94 60 95 61 96 62 97
REMARK H PARENT 21 6 5 16 15 26 15 27 25 31 84 50 52 61
REMARK Flexibility Score: inf
ROOT
ATOM      1  C   UNL A   1      32.923  31.404  27.297  1.00  0.00     0.042 C 
ENDROOT
BRANCH   1   2
ATOM      2  C   UNL A   1      31.839  30.759  26.437  1.00  0.00     0.118 C 
BRANCH   2   3
ATOM      3  N   UNL A   1      32.336  30.328  25.144  1.00  0.00    -0.352 N 
ATOM      4  C   UNL A   1      32.251  29.161  24.425  1.00  0.00     0.251 C 
ATOM      5  O   UNL A   1      32.704  29.192  23.276  1.00  0.00    -0.269 OA
ATOM      6  H   UNL A   1      32.849  31.028  24.679  1.00  0.00     0.163 HD
BRANCH   4   7
ATOM      7  C   UNL A   1      31.581  27.890  24.856  1.00  0.00     0.042 A 
ATOM      8  C   UNL A   1      29.531  27.832  23.275  1.00  0.00     0.045 C 
ATOM      9  C   UNL A   1      30.404  27.306  24.360  1.00  0.00    -0.036 A 
ATOM     10  C   UNL A   1      29.946  26.098  24.916  1.00  0.00     0.030 A 
ATOM     11  C   UNL A   1      30.591  25.476  25.976  1.00  0.00     0.041 A 
ATOM     12  C   UNL A   1      32.152  27.302  26.013  1.00  0.00     0.016 A 
ATOM     13  C   UNL A   1      31.647  26.129  26.592  1.00  0.00     0.027 A 
BRANCH  11  14
ATOM     14  N   UNL A   1      30.211  24.193  26.397  1.00  0.00    -0.322 N 
ATOM     15  C   UNL A   1      30.720  22.978  25.961  1.00  0.00     0.257 C 
ATOM     16  H   UNL A   1      29.502  24.149  27.078  1.00  0.00     0.170 HD
ATOM     17  O   UNL A   1      30.083  21.941  26.142  1.00  0.00    -0.269 OA
BRANCH  15  18
ATOM     18  C   UNL A   1      32.078  22.897  25.334  1.00  0.00     0.063 A 
ATOM     19  C   UNL A   1      33.172  22.779  26.209  1.00  0.00     0.017 A 
ATOM     20  C   UNL A   1      32.292  22.932  23.935  1.00  0.00     0.045 A 
ATOM     21  C   UNL A   1      34.474  22.689  25.710  1.00  0.00     0.016 A 
ATOM     22  C   UNL A   1      33.610  22.860  23.457  1.00  0.00     0.042 A 
ATOM     23  C   UNL A   1      34.684  22.731  24.335  1.00  0.00     0.020 A 
ATOM     24  Br  UNL A   1      36.444  22.648  23.648  1.00  0.00    -0.051 Br
BRANCH  20  25
ATOM     25  N   UNL A   1      31.283  23.197  23.006  1.00  0.00    -0.398 N 
ATOM     26  H   UNL A   1      30.541  23.798  23.243  1.00  0.00     0.156 HD
ATOM     27  H   UNL A   1      31.316  22.784  22.113  1.00  0.00     0.156 HD
ENDBRANCH  20  25
ENDBRANCH  15  18
ENDBRANCH  11  14
ENDBRANCH   4   7
ENDBRANCH   2   3
ENDBRANCH   1   2
BRANCH   1  28
ATOM     28  C   UNL A   1      34.143  30.580  27.668  1.00  0.00     0.118 C 
BRANCH  28  29
ATOM     29  N   UNL A   1      35.161  31.497  28.217  1.00  0.00    -0.352 N 
ATOM     30  C   UNL A   1      36.465  31.270  28.611  1.00  0.00     0.251 C 
ATOM     31  H   UNL A   1      34.859  32.428  28.322  1.00  0.00     0.163 HD
ATOM     32  O   UNL A   1      37.148  32.150  29.104  1.00  0.00    -0.269 OA
BRANCH  30  33
ATOM     33  C   UNL A   1      36.993  29.927  28.347  1.00  0.00     0.039 A 
ATOM     34  C   UNL A   1      37.177  29.114  29.468  1.00  0.00     0.014 A 
ATOM     35  C   UNL A   1      37.704  29.744  27.162  1.00  0.00     0.014 A 
ATOM     36  C   UNL A   1      38.273  28.270  29.499  1.00  0.00     0.010 A 
ATOM     37  C   UNL A   1      38.817  28.928  27.211  1.00  0.00     0.010 A 
ATOM     38  C   UNL A   1      39.145  28.277  28.411  1.00  0.00    -0.014 A 
BRANCH  38  39
ATOM     39  C   UNL A   1      40.455  27.652  28.460  1.00  0.00     0.031 A 
ATOM     40  C   UNL A   1      40.543  26.194  28.322  1.00  0.00     0.074 A 
ATOM     41  C   UNL A   1      41.578  28.378  28.653  1.00  0.00     0.049 A 
ATOM     42  N   UNL A   1      41.521  25.482  28.761  1.00  0.00    -0.248 NA
ATOM     43  C   UNL A   1      39.461  25.420  27.735  1.00  0.00     0.031 C 
ATOM     44  C   UNL A   1      42.953  27.934  28.461  1.00  0.00     0.029 A 
ATOM     45  N   UNL A   1      41.699  29.598  29.322  1.00  0.00    -0.354 N 
ATOM     46  C   UNL A   1      41.343  24.207  28.276  1.00  0.00     0.074 A 
ATOM     47  C   UNL A   1      40.001  24.201  27.743  1.00  0.00     0.031 C 
ATOM     48  C   UNL A   1      43.759  28.686  29.225  1.00  0.00     0.029 A 
ATOM     49  C   UNL A   1      42.911  29.537  30.039  1.00  0.00     0.049 A 
ATOM     50  H   UNL A   1      41.064  30.351  29.299  1.00  0.00     0.167 HD
ATOM     51  C   UNL A   1      42.414  23.365  28.239  1.00  0.00     0.034 A 
ATOM     52  C   UNL A   1      43.015  29.719  31.388  1.00  0.00     0.034 A 
ATOM     53  C   UNL A   1      43.577  23.947  28.936  1.00  0.00     0.049 A 
ATOM     54  C   UNL A   1      43.678  28.556  32.115  1.00  0.00     0.074 A 
ATOM     55  C   UNL A   1      44.739  24.579  28.520  1.00  0.00     0.029 A 
ATOM     56  N   UNL A   1      43.505  24.154  30.307  1.00  0.00    -0.354 N 
ATOM     57  N   UNL A   1      44.150  27.482  31.545  1.00  0.00    -0.248 NA
ATOM     58  C   UNL A   1      43.716  28.472  33.573  1.00  0.00     0.031 C 
ATOM     59  C   UNL A   1      45.361  25.173  29.657  1.00  0.00     0.029 A 
ATOM     60  C   UNL A   1      44.589  24.890  30.769  1.00  0.00     0.049 A 
ATOM     61  H   UNL A   1      42.778  23.820  30.880  1.00  0.00     0.167 HD
ATOM     62  C   UNL A   1      44.366  26.516  32.503  1.00  0.00     0.074 A 
ATOM     63  C   UNL A   1      44.093  27.198  33.757  1.00  0.00     0.031 C 
ATOM     64  C   UNL A   1      44.664  25.212  32.191  1.00  0.00     0.034 A 
BRANCH  51  65
ATOM     65  C   UNL A   1      42.515  22.166  27.305  1.00  0.00     0.023 A 
ATOM     66  C   UNL A   1      41.652  21.076  27.553  1.00  0.00     0.012 A 
ATOM     67  C   UNL A   1      43.453  21.975  26.264  1.00  0.00     0.148 A 
ATOM     68  C   UNL A   1      41.795  19.841  26.909  1.00  0.00     0.002 A 
ATOM     69  C   UNL A   1      43.655  20.723  25.680  1.00  0.00     0.091 A 
ATOM     70  F   UNL A   1      44.092  23.023  25.741  1.00  0.00    -0.205 F 
ATOM     71  C   UNL A   1      42.827  19.648  26.005  1.00  0.00     0.022 A 
BRANCH  69  72
ATOM     72  S   UNL A   1      45.033  20.391  24.565  1.00  0.00     0.127 S 
ATOM     73  O   UNL A   1      44.948  18.939  24.393  1.00  0.00    -0.237 OA
ATOM     74  O   UNL A   1      44.673  21.165  23.380  1.00  0.00    -0.237 OA
ATOM     75  O   UNL A   1      46.235  20.835  25.263  1.00  0.00    -0.744 OA
ENDBRANCH  69  72
ENDBRANCH  51  65
BRANCH  52  76
ATOM     76  C   UNL A   1      41.914  30.553  31.959  1.00  0.00     0.023 A 
ATOM     77  C   UNL A   1      41.809  31.890  31.511  1.00  0.00     0.012 A 
ATOM     78  C   UNL A   1      40.806  29.959  32.582  1.00  0.00     0.148 A 
ATOM     79  C   UNL A   1      40.580  32.553  31.534  1.00  0.00     0.002 A 
ATOM     80  C   UNL A   1      39.589  30.630  32.609  1.00  0.00     0.091 A 
ATOM     81  F   UNL A   1      40.917  28.718  33.070  1.00  0.00    -0.205 F 
ATOM     82  C   UNL A   1      39.459  31.904  32.040  1.00  0.00     0.022 A 
BRANCH  80  83
ATOM     83  S   UNL A   1      38.132  29.815  33.268  1.00  0.00     0.127 S 
ATOM     84  O   UNL A   1      38.277  30.072  34.696  1.00  0.00    -0.237 OA
ATOM     85  O   UNL A   1      37.040  30.538  32.616  1.00  0.00    -0.237 OA
ATOM     86  O   UNL A   1      38.274  28.432  32.832  1.00  0.00    -0.744 OA
ENDBRANCH  80  83
ENDBRANCH  52  76
BRANCH  64  87
ATOM     87  C   UNL A   1      44.969  24.102  33.201  1.00  0.00     0.023 A 
ATOM     88  C   UNL A   1      43.974  23.230  33.685  1.00  0.00     0.012 A 
ATOM     89  C   UNL A   1      46.261  23.938  33.775  1.00  0.00     0.148 A 
ATOM     90  C   UNL A   1      44.260  22.164  34.547  1.00  0.00     0.002 A 
ATOM     91  C   UNL A   1      46.540  22.899  34.663  1.00  0.00     0.091 A 
ATOM     92  F   UNL A   1      47.226  24.825  33.512  1.00  0.00    -0.205 F 
ATOM     93  C   UNL A   1      45.548  21.986  35.021  1.00  0.00     0.022 A 
BRANCH  91  94
ATOM     94  S   UNL A   1      48.155  22.686  35.429  1.00  0.00     0.127 S 
ATOM     95  O   UNL A   1      48.189  23.818  36.355  1.00  0.00    -0.237 OA
ATOM     96  O   UNL A   1      48.016  21.379  36.072  1.00  0.00    -0.237 OA
ATOM     97  O   UNL A   1      49.128  22.732  34.348  1.00  0.00    -0.744 OA
ENDBRANCH  91  94
ENDBRANCH  64  87
ENDBRANCH  38  39
ENDBRANCH  30  33
ENDBRANCH  28  29
ENDBRANCH   1  28
TORSDOF 16
ENDMDL
MODEL 2
REMARK VINA RESULT:     -13.4      4.418     10.564
REMARK SMILES Cc1cc(NC(=O)c2ccc(Br)cc2N)ccc1C(=O)NCCCNC(=O)c1ccc(-c2c3nc(c(-c4cccc(S(=O)(=O)[O-])c4F)c4ccc([nH]4)c(-c4cccc(S(=O)(=O)[O-])c4F)c4nc(c(-c5cccc(S(=O)(=O)[O-])c5F)c5ccc2[nH]5)C=C4)C=C3)cc1
REMARK SMILES IDX 23 1 22 2 21 3 19 4 20 5 18 7 1 8 2 9 3 10 4 11 17 12 16 13
REMARK SMILES IDX 5 14 6 15 7 17 8 18 9 19 14 20 10 21 13 22 11 23 12 24 15 25
REMARK SMILES IDX 24 28 25 29 26 30 27 32 28 33 29 34 90 35 30 36 89 37 31 38
REMARK SMILES IDX 32 39 33 40 83 41 34 42 88 43 82 44 84 45 35 46 87 47 81 48
REMARK SMILES IDX 80 49 36 51 68 52 48 53 67 54 49 55 52 56 66 57 85 58 50 59
REMARK SMILES IDX 51 60 65 62 86 63 53 64 37 65 38 66 46 67 39 68 41 69 47 70
REMARK SMILES IDX 40 71 42 72 43 73 44 74 45 75 69 76 70 77 78 78 71 79 73 80
REMARK SMILES IDX 79 81 72 82 74 83 75 84 76 85 77 86 54 87 55 88 63 89 56 90
REMARK SMILES IDX 58 91 64 92 57 93 59 94 60 95 61 96 62 97
REMARK H PARENT 21 6 5 16 15 26 15 27 25 31 84 50 52 61
REMARK Flexibility Score: inf
ROOT
ATOM      1  C   UNL A   1      38.542  21.341  25.495  1.00  0.00     0.042 C 
ENDROOT
BRANCH   1   2
ATOM      2  C   UNL A   1      37.192  20.801  25.028  1.00  0.00     0.118 C 
BRANCH   2   3
ATOM      3  N   UNL A   1      36.139  21.014  26.002  1.00  0.00    -0.352 N 
ATOM      4  C   UNL A   1      34.890  21.585  25.954  1.00  0.00     0.251 C 
ATOM      5  O   UNL A   1      34.202  21.481  26.974  1.00  0.00    -0.269 OA
ATOM      6  H   UNL A   1      36.371  20.676  26.897  1.00  0.00     0.163 HD
BRANCH   4   7
ATOM      7  C   UNL A   1      34.246  22.231  24.763  1.00  0.00     0.042 A 
ATOM      8  C   UNL A   1      32.538  20.416  24.059  1.00  0.00     0.045 C 
ATOM      9  C   UNL A   1      33.224  21.732  23.939  1.00  0.00    -0.036 A 
ATOM     10  C   UNL A   1      32.764  22.511  22.862  1.00  0.00     0.030 A 
ATOM     11  C   UNL A   1      33.314  23.745  22.550  1.00  0.00     0.041 A 
ATOM     12  C   UNL A   1      34.872  23.435  24.353  1.00  0.00     0.016 A 
ATOM     13  C   UNL A   1      34.438  24.171  23.241  1.00  0.00     0.027 A 
BRANCH  11  14
ATOM     14  N   UNL A   1      32.726  24.572  21.580  1.00  0.00    -0.322 N 
ATOM     15  C   UNL A   1      32.074  25.779  21.786  1.00  0.00     0.257 C 
ATOM     16  H   UNL A   1      32.782  24.259  20.649  1.00  0.00     0.170 HD
ATOM     17  O   UNL A   1      31.316  26.225  20.925  1.00  0.00    -0.269 OA
BRANCH  15  18
ATOM     18  C   UNL A   1      32.334  26.591  23.017  1.00  0.00     0.063 A 
ATOM     19  C   UNL A   1      31.602  26.246  24.168  1.00  0.00     0.017 A 
ATOM     20  C   UNL A   1      33.261  27.659  23.063  1.00  0.00     0.045 A 
ATOM     21  C   UNL A   1      31.787  26.946  25.363  1.00  0.00     0.016 A 
ATOM     22  C   UNL A   1      33.416  28.360  24.269  1.00  0.00     0.042 A 
ATOM     23  C   UNL A   1      32.694  28.000  25.406  1.00  0.00     0.020 A 
ATOM     24  Br  UNL A   1      32.926  28.979  27.007  1.00  0.00    -0.051 Br
BRANCH  20  25
ATOM     25  N   UNL A   1      33.916  28.163  21.937  1.00  0.00    -0.398 N 
ATOM     26  H   UNL A   1      33.644  29.029  21.556  1.00  0.00     0.156 HD
ATOM     27  H   UNL A   1      34.650  27.652  21.525  1.00  0.00     0.156 HD
ENDBRANCH  20  25
ENDBRANCH  15  18
ENDBRANCH  11  14
ENDBRANCH   4   7
ENDBRANCH   2   3
ENDBRANCH   1   2
BRANCH   1  28
ATOM     28  C   UNL A   1      38.598  22.732  26.100  1.00  0.00     0.118 C 
BRANCH  28  29
ATOM     29  N   UNL A   1      39.863  22.852  26.849  1.00  0.00    -0.352 N 
ATOM     30  C   UNL A   1      40.450  23.939  27.467  1.00  0.00     0.251 C 
ATOM     31  H   UNL A   1      40.378  22.016  26.919  1.00  0.00     0.163 HD
ATOM     32  O   UNL A   1      41.544  23.863  27.995  1.00  0.00    -0.269 OA
BRANCH  30  33
ATOM     33  C   UNL A   1      39.652  25.170  27.497  1.00  0.00     0.039 A 
ATOM     34  C   UNL A   1      40.159  26.242  26.759  1.00  0.00     0.014 A 
ATOM     35  C   UNL A   1      38.792  25.344  28.581  1.00  0.00     0.014 A 
ATOM     36  C   UNL A   1      40.015  27.521  27.268  1.00  0.00     0.010 A 
ATOM     37  C   UNL A   1      38.683  26.617  29.104  1.00  0.00     0.010 A 
ATOM     38  C   UNL A   1      39.377  27.676  28.499  1.00  0.00    -0.014 A 
BRANCH  38  39
ATOM     39  C   UNL A   1      39.422  28.920  29.247  1.00  0.00     0.031 A 
ATOM     40  C   UNL A   1      38.503  30.000  28.870  1.00  0.00     0.074 A 
ATOM     41  C   UNL A   1      40.302  29.107  30.255  1.00  0.00     0.049 A 
ATOM     42  N   UNL A   1      38.705  31.246  29.124  1.00  0.00    -0.248 NA
ATOM     43  C   UNL A   1      37.304  29.739  28.090  1.00  0.00     0.031 C 
ATOM     44  C   UNL A   1      40.284  30.173  31.249  1.00  0.00     0.029 A 
ATOM     45  N   UNL A   1      41.551  28.503  30.418  1.00  0.00    -0.354 N 
ATOM     46  C   UNL A   1      37.550  31.917  28.799  1.00  0.00     0.074 A 
ATOM     47  C   UNL A   1      36.761  30.957  28.064  1.00  0.00     0.031 C 
ATOM     48  C   UNL A   1      41.529  30.349  31.715  1.00  0.00     0.029 A 
ATOM     49  C   UNL A   1      42.407  29.500  30.930  1.00  0.00     0.049 A 
ATOM     50  H   UNL A   1      41.788  27.569  30.215  1.00  0.00     0.167 HD
ATOM     51  C   UNL A   1      37.338  33.152  29.334  1.00  0.00     0.034 A 
ATOM     52  C   UNL A   1      43.578  29.883  30.343  1.00  0.00     0.034 A 
ATOM     53  C   UNL A   1      38.533  33.639  30.048  1.00  0.00     0.049 A 
ATOM     54  C   UNL A   1      43.654  31.373  30.039  1.00  0.00     0.074 A 
ATOM     55  C   UNL A   1      38.902  33.712  31.384  1.00  0.00     0.029 A 
ATOM     56  N   UNL A   1      39.687  33.908  29.324  1.00  0.00    -0.354 N 
ATOM     57  N   UNL A   1      42.731  32.249  30.326  1.00  0.00    -0.248 NA
ATOM     58  C   UNL A   1      44.738  31.951  29.248  1.00  0.00     0.031 C 
ATOM     59  C   UNL A   1      40.292  34.022  31.452  1.00  0.00     0.029 A 
ATOM     60  C   UNL A   1      40.768  34.155  30.160  1.00  0.00     0.049 A 
ATOM     61  H   UNL A   1      39.732  33.922  28.341  1.00  0.00     0.167 HD
ATOM     62  C   UNL A   1      42.974  33.412  29.628  1.00  0.00     0.074 A 
ATOM     63  C   UNL A   1      44.254  33.172  28.982  1.00  0.00     0.031 C 
ATOM     64  C   UNL A   1      42.068  34.442  29.560  1.00  0.00     0.034 A 
BRANCH  51  65
ATOM     65  C   UNL A   1      35.958  33.779  29.492  1.00  0.00     0.023 A 
ATOM     66  C   UNL A   1      35.300  34.200  28.316  1.00  0.00     0.012 A 
ATOM     67  C   UNL A   1      35.296  34.083  30.703  1.00  0.00     0.148 A 
ATOM     68  C   UNL A   1      34.137  34.980  28.342  1.00  0.00     0.002 A 
ATOM     69  C   UNL A   1      34.185  34.930  30.738  1.00  0.00     0.091 A 
ATOM     70  F   UNL A   1      35.656  33.473  31.833  1.00  0.00    -0.205 F 
ATOM     71  C   UNL A   1      33.604  35.386  29.555  1.00  0.00     0.022 A 
BRANCH  69  72
ATOM     72  S   UNL A   1      33.504  35.560  32.285  1.00  0.00     0.127 S 
ATOM     73  O   UNL A   1      34.696  36.088  32.954  1.00  0.00    -0.237 OA
ATOM     74  O   UNL A   1      32.565  36.580  31.824  1.00  0.00    -0.237 OA
ATOM     75  O   UNL A   1      32.905  34.414  32.961  1.00  0.00    -0.744 OA
ENDBRANCH  69  72
ENDBRANCH  51  65
BRANCH  52  76
ATOM     76  C   UNL A   1      44.188  28.817  29.491  1.00  0.00     0.023 A 
ATOM     77  C   UNL A   1      44.601  27.625  30.132  1.00  0.00     0.012 A 
ATOM     78  C   UNL A   1      44.000  28.806  28.101  1.00  0.00     0.148 A 
ATOM     79  C   UNL A   1      44.659  26.421  29.428  1.00  0.00     0.002 A 
ATOM     80  C   UNL A   1      44.069  27.604  27.406  1.00  0.00     0.091 A 
ATOM     81  F   UNL A   1      43.676  29.944  27.475  1.00  0.00    -0.205 F 
ATOM     82  C   UNL A   1      44.346  26.404  28.073  1.00  0.00     0.022 A 
BRANCH  80  83
ATOM     83  S   UNL A   1      43.680  27.560  25.654  1.00  0.00     0.127 S 
ATOM     84  O   UNL A   1      43.253  26.175  25.487  1.00  0.00    -0.237 OA
ATOM     85  O   UNL A   1      42.614  28.554  25.539  1.00  0.00    -0.237 OA
ATOM     86  O   UNL A   1      44.926  27.945  25.005  1.00  0.00    -0.744 OA
ENDBRANCH  80  83
ENDBRANCH  52  76
BRANCH  64  87
ATOM     87  C   UNL A   1      42.293  35.780  28.850  1.00  0.00     0.023 A 
ATOM     88  C   UNL A   1      41.817  36.030  27.548  1.00  0.00     0.012 A 
ATOM     89  C   UNL A   1      43.068  36.822  29.431  1.00  0.00     0.148 A 
ATOM     90  C   UNL A   1      41.950  37.277  26.923  1.00  0.00     0.002 A 
ATOM     91  C   UNL A   1      43.233  38.052  28.795  1.00  0.00     0.091 A 
ATOM     92  F   UNL A   1      43.707  36.614  30.587  1.00  0.00    -0.205 F 
ATOM     93  C   UNL A   1      42.641  38.296  27.556  1.00  0.00     0.022 A 
BRANCH  91  94
ATOM     94  S   UNL A   1      44.234  39.376  29.492  1.00  0.00     0.127 S 
ATOM     95  O   UNL A   1      45.556  38.752  29.532  1.00  0.00    -0.237 OA
ATOM     96  O   UNL A   1      44.090  40.428  28.484  1.00  0.00    -0.237 OA
ATOM     97  O   UNL A   1      43.650  39.692  30.786  1.00  0.00    -0.744 OA
ENDBRANCH  91  94
ENDBRANCH  64  87
ENDBRANCH  38  39
ENDBRANCH  30  33
ENDBRANCH  28  29
ENDBRANCH   1  28
TORSDOF 16
ENDMDL
MODEL 3
REMARK VINA RESULT:     -13.4      4.409     10.507
REMARK SMILES Cc1cc(NC(=O)c2ccc(Br)cc2N)ccc1C(=O)NCCCNC(=O)c1ccc(-c2c3nc(c(-c4cccc(S(=O)(=O)[O-])c4F)c4ccc([nH]4)c(-c4cccc(S(=O)(=O)[O-])c4F)c4nc(c(-c5cccc(S(=O)(=O)[O-])c5F)c5ccc2[nH]5)C=C4)C=C3)cc1
REMARK SMILES IDX 23 1 22 2 21 3 19 4 20 5 18 7 1 8 2 9 3 10 4 11 17 12 16 13
REMARK SMILES IDX 5 14 6 15 7 17 8 18 9 19 14 20 10 21 13 22 11 23 12 24 15 25
REMARK SMILES IDX 24 28 25 29 26 30 27 32 28 33 29 34 90 35 30 36 89 37 31 38
REMARK SMILES IDX 32 39 33 40 83 41 34 42 88 43 82 44 84 45 35 46 87 47 81 48
REMARK SMILES IDX 80 49 36 51 68 52 48 53 67 54 49 55 52 56 66 57 85 58 50 59
REMARK SMILES IDX 51 60 65 62 86 63 53 64 37 65 38 66 46 67 39 68 41 69 47 70
REMARK SMILES IDX 40 71 42 72 43 73 44 74 45 75 69 76 70 77 78 78 71 79 73 80
REMARK SMILES IDX 79 81 72 82 74 83 75 84 76 85 77 86 54 87 55 88 63 89 56 90
REMARK SMILES IDX 58 91 64 92 57 93 59 94 60 95 61 96 62 97
REMARK H PARENT 21 6 5 16 15 26 15 27 25 31 84 50 52 61
REMARK Flexibility Score: inf
ROOT
ATOM      1  C   UNL A   1      38.960  21.231  25.852  1.00  0.00     0.042 C 
ENDROOT
BRANCH   1   2
ATOM      2  C   UNL A   1      37.772  20.754  25.021  1.00  0.00     0.118 C 
BRANCH   2   3
ATOM      3  N   UNL A   1      37.421  21.684  23.964  1.00  0.00    -0.352 N 
ATOM      4  C   UNL A   1      36.332  22.482  23.711  1.00  0.00     0.251 C 
ATOM      5  O   UNL A   1      36.430  23.255  22.753  1.00  0.00    -0.269 OA
ATOM      6  H   UNL A   1      38.119  21.759  23.273  1.00  0.00     0.163 HD
BRANCH   4   7
ATOM      7  C   UNL A   1      35.081  22.577  24.534  1.00  0.00     0.042 A 
ATOM      8  C   UNL A   1      35.864  24.098  26.478  1.00  0.00     0.045 C 
ATOM      9  C   UNL A   1      34.870  23.278  25.732  1.00  0.00    -0.036 A 
ATOM     10  C   UNL A   1      33.606  23.230  26.346  1.00  0.00     0.030 A 
ATOM     11  C   UNL A   1      32.560  22.474  25.835  1.00  0.00     0.041 A 
ATOM     12  C   UNL A   1      34.040  21.719  24.100  1.00  0.00     0.016 A 
ATOM     13  C   UNL A   1      32.804  21.638  24.757  1.00  0.00     0.027 A 
BRANCH  11  14
ATOM     14  N   UNL A   1      31.267  22.578  26.371  1.00  0.00    -0.322 N 
ATOM     15  C   UNL A   1      30.501  23.727  26.507  1.00  0.00     0.257 C 
ATOM     16  H   UNL A   1      30.857  21.741  26.687  1.00  0.00     0.170 HD
ATOM     17  O   UNL A   1      29.551  23.747  27.288  1.00  0.00    -0.269 OA
BRANCH  15  18
ATOM     18  C   UNL A   1      30.769  24.932  25.657  1.00  0.00     0.063 A 
ATOM     19  C   UNL A   1      31.140  26.110  26.330  1.00  0.00     0.017 A 
ATOM     20  C   UNL A   1      30.667  24.927  24.246  1.00  0.00     0.045 A 
ATOM     21  C   UNL A   1      31.416  27.278  25.617  1.00  0.00     0.016 A 
ATOM     22  C   UNL A   1      30.930  26.118  23.551  1.00  0.00     0.042 A 
ATOM     23  C   UNL A   1      31.309  27.275  24.229  1.00  0.00     0.020 A 
ATOM     24  Br  UNL A   1      31.643  28.860  23.254  1.00  0.00    -0.051 Br
BRANCH  20  25
ATOM     25  N   UNL A   1      30.163  23.850  23.512  1.00  0.00    -0.398 N 
ATOM     26  H   UNL A   1      30.772  23.147  23.189  1.00  0.00     0.156 HD
ATOM     27  H   UNL A   1      29.200  23.795  23.318  1.00  0.00     0.156 HD
ENDBRANCH  20  25
ENDBRANCH  15  18
ENDBRANCH  11  14
ENDBRANCH   4   7
ENDBRANCH   2   3
ENDBRANCH   1   2
BRANCH   1  28
ATOM     28  C   UNL A   1      39.049  22.703  26.216  1.00  0.00     0.118 C 
BRANCH  28  29
ATOM     29  N   UNL A   1      40.338  22.925  26.898  1.00  0.00    -0.352 N 
ATOM     30  C   UNL A   1      40.867  24.058  27.485  1.00  0.00     0.251 C 
ATOM     31  H   UNL A   1      40.919  22.132  26.942  1.00  0.00     0.163 HD
ATOM     32  O   UNL A   1      41.990  24.070  27.957  1.00  0.00    -0.269 OA
BRANCH  30  33
ATOM     33  C   UNL A   1      39.977  25.222  27.556  1.00  0.00     0.039 A 
ATOM     34  C   UNL A   1      40.345  26.318  26.772  1.00  0.00     0.014 A 
ATOM     35  C   UNL A   1      39.182  25.347  28.694  1.00  0.00     0.014 A 
ATOM     36  C   UNL A   1      40.134  27.590  27.274  1.00  0.00     0.010 A 
ATOM     37  C   UNL A   1      39.007  26.616  29.209  1.00  0.00     0.010 A 
ATOM     38  C   UNL A   1      39.572  27.716  28.544  1.00  0.00    -0.014 A 
BRANCH  38  39
ATOM     39  C   UNL A   1      39.567  28.973  29.272  1.00  0.00     0.031 A 
ATOM     40  C   UNL A   1      38.618  30.015  28.867  1.00  0.00     0.074 A 
ATOM     41  C   UNL A   1      40.429  29.204  30.286  1.00  0.00     0.049 A 
ATOM     42  N   UNL A   1      38.776  31.271  29.103  1.00  0.00    -0.248 NA
ATOM     43  C   UNL A   1      37.437  29.703  28.079  1.00  0.00     0.031 C 
ATOM     44  C   UNL A   1      40.365  30.285  31.262  1.00  0.00     0.029 A 
ATOM     45  N   UNL A   1      41.696  28.645  30.472  1.00  0.00    -0.354 N 
ATOM     46  C   UNL A   1      37.604  31.899  28.754  1.00  0.00     0.074 A 
ATOM     47  C   UNL A   1      36.855  30.902  28.026  1.00  0.00     0.031 C 
ATOM     48  C   UNL A   1      41.598  30.509  31.738  1.00  0.00     0.029 A 
ATOM     49  C   UNL A   1      42.513  29.677  30.977  1.00  0.00     0.049 A 
ATOM     50  H   UNL A   1      41.965  27.715  30.287  1.00  0.00     0.167 HD
ATOM     51  C   UNL A   1      37.346  33.135  29.267  1.00  0.00     0.034 A 
ATOM     52  C   UNL A   1      43.677  30.088  30.396  1.00  0.00     0.034 A 
ATOM     53  C   UNL A   1      38.516  33.672  29.986  1.00  0.00     0.049 A 
ATOM     54  C   UNL A   1      43.708  31.575  30.069  1.00  0.00     0.074 A 
ATOM     55  C   UNL A   1      38.867  33.778  31.324  1.00  0.00     0.029 A 
ATOM     56  N   UNL A   1      39.669  33.967  29.269  1.00  0.00    -0.354 N 
ATOM     57  N   UNL A   1      42.754  32.425  30.331  1.00  0.00    -0.248 NA
ATOM     58  C   UNL A   1      44.782  32.175  29.280  1.00  0.00     0.031 C 
ATOM     59  C   UNL A   1      40.246  34.135  31.401  1.00  0.00     0.029 A 
ATOM     60  C   UNL A   1      40.732  34.262  30.113  1.00  0.00     0.049 A 
ATOM     61  H   UNL A   1      39.725  33.967  28.287  1.00  0.00     0.167 HD
ATOM     62  C   UNL A   1      42.966  33.583  29.617  1.00  0.00     0.074 A 
ATOM     63  C   UNL A   1      44.261  33.375  28.989  1.00  0.00     0.031 C 
ATOM     64  C   UNL A   1      42.029  34.582  29.522  1.00  0.00     0.034 A 
BRANCH  51  65
ATOM     65  C   UNL A   1      35.945  33.719  29.399  1.00  0.00     0.023 A 
ATOM     66  C   UNL A   1      35.273  34.069  28.207  1.00  0.00     0.012 A 
ATOM     67  C   UNL A   1      35.270  34.048  30.598  1.00  0.00     0.148 A 
ATOM     68  C   UNL A   1      34.084  34.808  28.202  1.00  0.00     0.002 A 
ATOM     69  C   UNL A   1      34.131  34.856  30.599  1.00  0.00     0.091 A 
ATOM     70  F   UNL A   1      35.650  33.496  31.751  1.00  0.00    -0.205 F 
ATOM     71  C   UNL A   1      33.536  35.244  29.399  1.00  0.00     0.022 A 
BRANCH  69  72
ATOM     72  S   UNL A   1      33.426  35.523  32.119  1.00  0.00     0.127 S 
ATOM     73  O   UNL A   1      32.376  36.409  31.609  1.00  0.00    -0.237 OA
ATOM     74  O   UNL A   1      32.935  34.324  32.792  1.00  0.00    -0.237 OA
ATOM     75  O   UNL A   1      34.512  36.224  32.797  1.00  0.00    -0.744 OA
ENDBRANCH  69  72
ENDBRANCH  51  65
BRANCH  52  76
ATOM     76  C   UNL A   1      44.331  29.029  29.569  1.00  0.00     0.023 A 
ATOM     77  C   UNL A   1      44.804  27.876  30.239  1.00  0.00     0.012 A 
ATOM     78  C   UNL A   1      44.134  28.972  28.181  1.00  0.00     0.148 A 
ATOM     79  C   UNL A   1      44.914  26.658  29.566  1.00  0.00     0.002 A 
ATOM     80  C   UNL A   1      44.256  27.756  27.518  1.00  0.00     0.091 A 
ATOM     81  F   UNL A   1      43.753  30.075  27.527  1.00  0.00    -0.205 F 
ATOM     82  C   UNL A   1      44.593  26.588  28.215  1.00  0.00     0.022 A 
BRANCH  80  83
ATOM     83  S   UNL A   1      43.857  27.645  25.771  1.00  0.00     0.127 S 
ATOM     84  O   UNL A   1      45.124  28.032  25.160  1.00  0.00    -0.237 OA
ATOM     85  O   UNL A   1      43.498  26.236  25.614  1.00  0.00    -0.237 OA
ATOM     86  O   UNL A   1      42.740  28.566  25.605  1.00  0.00    -0.744 OA
ENDBRANCH  80  83
ENDBRANCH  52  76
BRANCH  64  87
ATOM     87  C   UNL A   1      42.218  35.915  28.793  1.00  0.00     0.023 A 
ATOM     88  C   UNL A   1      41.773  36.120  27.472  1.00  0.00     0.012 A 
ATOM     89  C   UNL A   1      42.929  37.001  29.376  1.00  0.00     0.148 A 
ATOM     90  C   UNL A   1      41.872  37.359  26.827  1.00  0.00     0.002 A 
ATOM     91  C   UNL A   1      43.060  38.225  28.721  1.00  0.00     0.091 A 
ATOM     92  F   UNL A   1      43.539  36.843  30.556  1.00  0.00    -0.205 F 
ATOM     93  C   UNL A   1      42.498  38.419  27.460  1.00  0.00     0.022 A 
BRANCH  91  94
ATOM     94  S   UNL A   1      43.981  39.604  29.421  1.00  0.00     0.127 S 
ATOM     95  O   UNL A   1      43.255  39.835  30.670  1.00  0.00    -0.237 OA
ATOM     96  O   UNL A   1      45.314  39.025  29.591  1.00  0.00    -0.237 OA
ATOM     97  O   UNL A   1      43.907  40.682  28.446  1.00  0.00    -0.744 OA
ENDBRANCH  91  94
ENDBRANCH  64  87
ENDBRANCH  38  39
ENDBRANCH  30  33
ENDBRANCH  28  29
ENDBRANCH   1  28
TORSDOF 16
ENDMDL
