MODEL 1
REMARK VINA RESULT:     -12.0      0.000      0.000
REMARK SMILES CC(C)[NH2+][C@@]1(C(=O)NCCCNC(=O)c2ccc(-c3c4nc(c(-c5cccc(S(=O)(=O)[O-])c5F)c5ccc([nH]5)c(-c5cccc(S(=O)(=O)[O-])c5F)c5nc(c(-c6cccc(S(=O)(=O)[O-])c6F)c6ccc3[nH]6)C=C5)C=C4)cc2)CC[C@@H](Sc2cccc(Br)c2)C1
REMARK SMILES IDX 10 1 9 2 8 3 6 4 7 5 5 7 78 8 89 9 79 10 80 11 4 12 2 15
REMARK SMILES IDX 1 16 3 17 81 18 82 19 83 20 88 21 84 22 86 23 85 24 87 25
REMARK SMILES IDX 11 26 12 27 13 28 14 30 15 31 16 32 77 33 17 34 76 35 18 36
REMARK SMILES IDX 19 37 20 38 70 39 21 40 75 41 69 42 71 43 22 44 74 45 68 46
REMARK SMILES IDX 67 47 23 49 55 50 35 51 54 52 36 53 39 54 53 55 72 56 37 57
REMARK SMILES IDX 38 58 52 60 73 61 40 62 24 63 25 64 33 65 26 66 28 67 34 68
REMARK SMILES IDX 27 69 29 70 30 71 31 72 32 73 56 74 57 75 65 76 58 77 60 78
REMARK SMILES IDX 66 79 59 80 61 81 62 82 63 83 64 84 41 85 42 86 50 87 43 88
REMARK SMILES IDX 45 89 51 90 44 91 46 92 47 93 48 94 49 95
REMARK H PARENT 8 6 4 13 4 14 12 29 71 48 39 59
REMARK Flexibility Score: inf
ROOT
ATOM      1  C   UNL A   1      38.135  19.781  24.996  1.00  0.00     0.042 C 
ENDROOT
BRANCH   1   2
ATOM      2  C   UNL A   1      37.002  20.798  25.004  1.00  0.00     0.118 C 
BRANCH   2   3
ATOM      3  N   UNL A   1      37.438  22.086  25.487  1.00  0.00    -0.351 N 
ATOM      4  C   UNL A   1      36.771  23.215  25.835  1.00  0.00     0.281 C 
ATOM      5  O   UNL A   1      37.505  24.172  26.128  1.00  0.00    -0.268 OA
ATOM      6  H   UNL A   1      38.415  22.162  25.582  1.00  0.00     0.163 HD
BRANCH   4   7
ATOM      7  C   UNL A   1      35.184  23.375  25.848  1.00  0.00     0.176 C 
ATOM      8  C   UNL A   1      34.603  23.146  27.253  1.00  0.00     0.080 C 
ATOM      9  C   UNL A   1      34.547  22.322  24.917  1.00  0.00     0.094 C 
ATOM     10  C   UNL A   1      33.649  21.955  27.184  1.00  0.00     0.022 C 
ATOM     11  C   UNL A   1      33.788  21.329  25.801  1.00  0.00     0.058 C 
BRANCH   7  12
ATOM     12  N   UNL A   1      34.992  24.785  25.430  1.00  0.00    -0.332 N 
ATOM     13  H   UNL A   1      35.292  25.349  26.226  1.00  0.00     0.347 HD
ATOM     14  H   UNL A   1      35.507  24.792  24.549  1.00  0.00     0.347 HD
BRANCH  12  15
ATOM     15  C   UNL A   1      33.724  25.354  25.004  1.00  0.00     0.176 C 
ATOM     16  C   UNL A   1      33.530  26.638  25.826  1.00  0.00     0.075 C 
ATOM     17  C   UNL A   1      33.680  25.754  23.534  1.00  0.00     0.075 C 
ENDBRANCH  12  15
ENDBRANCH   7  12
BRANCH  11  18
ATOM     18  S   UNL A   1      32.282  20.592  25.027  1.00  0.00    -0.122 SA
BRANCH  18  19
ATOM     19  C   UNL A   1      32.861  19.080  24.287  1.00  0.00     0.009 A 
ATOM     20  C   UNL A   1      32.438  18.714  23.004  1.00  0.00     0.015 A 
ATOM     21  C   UNL A   1      33.701  18.220  24.995  1.00  0.00     0.030 A 
ATOM     22  C   UNL A   1      32.929  17.554  22.398  1.00  0.00     0.002 A 
ATOM     23  C   UNL A   1      34.208  17.075  24.380  1.00  0.00     0.019 A 
ATOM     24  C   UNL A   1      33.835  16.744  23.080  1.00  0.00     0.016 A 
ATOM     25  Br  UNL A   1      35.427  15.968  25.312  1.00  0.00    -0.051 Br
ENDBRANCH  18  19
ENDBRANCH  11  18
ENDBRANCH   4   7
ENDBRANCH   2   3
ENDBRANCH   1   2
BRANCH   1  26
ATOM     26  C   UNL A   1      39.355  20.254  25.770  1.00  0.00     0.118 C 
BRANCH  26  27
ATOM     27  N   UNL A   1      40.327  19.180  25.956  1.00  0.00    -0.352 N 
ATOM     28  C   UNL A   1      41.689  19.252  26.113  1.00  0.00     0.251 C 
ATOM     29  H   UNL A   1      39.951  18.271  25.972  1.00  0.00     0.163 HD
ATOM     30  O   UNL A   1      42.371  18.234  26.008  1.00  0.00    -0.269 OA
BRANCH  28  31
ATOM     31  C   UNL A   1      42.325  20.552  26.401  1.00  0.00     0.039 A 
ATOM     32  C   UNL A   1      42.726  21.376  25.346  1.00  0.00     0.014 A 
ATOM     33  C   UNL A   1      42.516  20.956  27.724  1.00  0.00     0.014 A 
ATOM     34  C   UNL A   1      43.258  22.638  25.622  1.00  0.00     0.010 A 
ATOM     35  C   UNL A   1      42.944  22.248  27.992  1.00  0.00     0.010 A 
ATOM     36  C   UNL A   1      43.336  23.096  26.946  1.00  0.00    -0.014 A 
BRANCH  36  37
ATOM     37  C   UNL A   1      43.844  24.447  27.291  1.00  0.00     0.031 A 
ATOM     38  C   UNL A   1      42.882  25.490  27.791  1.00  0.00     0.074 A 
ATOM     39  C   UNL A   1      45.126  24.770  27.030  1.00  0.00     0.049 A 
ATOM     40  N   UNL A   1      43.073  26.769  27.980  1.00  0.00    -0.248 NA
ATOM     41  C   UNL A   1      41.506  25.043  28.075  1.00  0.00     0.031 C 
ATOM     42  C   UNL A   1      46.136  23.862  26.479  1.00  0.00     0.029 A 
ATOM     43  N   UNL A   1      45.790  25.965  27.154  1.00  0.00    -0.354 N 
ATOM     44  C   UNL A   1      41.836  27.286  28.346  1.00  0.00     0.074 A 
ATOM     45  C   UNL A   1      40.893  26.191  28.319  1.00  0.00     0.031 C 
ATOM     46  C   UNL A   1      47.287  24.533  26.310  1.00  0.00     0.029 A 
ATOM     47  C   UNL A   1      47.087  25.926  26.698  1.00  0.00     0.049 A 
ATOM     48  H   UNL A   1      45.376  26.773  27.535  1.00  0.00     0.167 HD
ATOM     49  C   UNL A   1      41.518  28.553  28.699  1.00  0.00     0.034 A 
ATOM     50  C   UNL A   1      48.004  26.907  26.583  1.00  0.00     0.034 A 
ATOM     51  C   UNL A   1      42.475  29.622  28.775  1.00  0.00     0.049 A 
ATOM     52  C   UNL A   1      47.638  28.298  27.025  1.00  0.00     0.074 A 
ATOM     53  C   UNL A   1      42.280  30.920  29.209  1.00  0.00     0.029 A 
ATOM     54  N   UNL A   1      43.807  29.515  28.408  1.00  0.00    -0.354 N 
ATOM     55  N   UNL A   1      46.497  28.740  27.497  1.00  0.00    -0.248 NA
ATOM     56  C   UNL A   1      48.693  29.320  26.954  1.00  0.00     0.031 C 
ATOM     57  C   UNL A   1      43.490  31.608  29.078  1.00  0.00     0.029 A 
ATOM     58  C   UNL A   1      44.447  30.725  28.601  1.00  0.00     0.049 A 
ATOM     59  H   UNL A   1      44.234  28.699  28.061  1.00  0.00     0.167 HD
ATOM     60  C   UNL A   1      46.711  30.074  27.824  1.00  0.00     0.074 A 
ATOM     61  C   UNL A   1      48.093  30.367  27.502  1.00  0.00     0.031 C 
ATOM     62  C   UNL A   1      45.841  30.977  28.339  1.00  0.00     0.034 A 
BRANCH  49  63
ATOM     63  C   UNL A   1      40.087  28.841  29.073  1.00  0.00     0.023 A 
ATOM     64  C   UNL A   1      39.115  28.991  28.064  1.00  0.00     0.012 A 
ATOM     65  C   UNL A   1      39.695  28.914  30.424  1.00  0.00     0.148 A 
ATOM     66  C   UNL A   1      37.785  29.250  28.389  1.00  0.00     0.002 A 
ATOM     67  C   UNL A   1      38.358  29.121  30.743  1.00  0.00     0.091 A 
ATOM     68  F   UNL A   1      40.636  28.791  31.372  1.00  0.00    -0.205 F 
ATOM     69  C   UNL A   1      37.405  29.304  29.727  1.00  0.00     0.022 A 
BRANCH  67  70
ATOM     70  S   UNL A   1      37.753  29.121  32.434  1.00  0.00     0.127 S 
ATOM     71  O   UNL A   1      38.695  30.031  33.083  1.00  0.00    -0.237 OA
ATOM     72  O   UNL A   1      36.400  29.656  32.274  1.00  0.00    -0.237 OA
ATOM     73  O   UNL A   1      37.810  27.738  32.883  1.00  0.00    -0.744 OA
ENDBRANCH  67  70
ENDBRANCH  49  63
BRANCH  50  74
ATOM     74  C   UNL A   1      49.373  26.596  26.085  1.00  0.00     0.023 A 
ATOM     75  C   UNL A   1      50.230  25.800  26.871  1.00  0.00     0.012 A 
ATOM     76  C   UNL A   1      49.823  27.060  24.834  1.00  0.00     0.148 A 
ATOM     77  C   UNL A   1      51.522  25.502  26.438  1.00  0.00     0.002 A 
ATOM     78  C   UNL A   1      51.093  26.714  24.383  1.00  0.00     0.091 A 
ATOM     79  F   UNL A   1      48.996  27.820  24.104  1.00  0.00    -0.205 F 
ATOM     80  C   UNL A   1      51.950  25.951  25.191  1.00  0.00     0.022 A 
BRANCH  78  81
ATOM     81  S   UNL A   1      51.683  27.139  22.741  1.00  0.00     0.127 S 
ATOM     82  O   UNL A   1      51.941  28.570  22.878  1.00  0.00    -0.237 OA
ATOM     83  O   UNL A   1      52.880  26.306  22.628  1.00  0.00    -0.237 OA
ATOM     84  O   UNL A   1      50.608  26.774  21.829  1.00  0.00    -0.744 OA
ENDBRANCH  78  81
ENDBRANCH  50  74
BRANCH  62  85
ATOM     85  C   UNL A   1      46.360  32.352  28.663  1.00  0.00     0.023 A 
ATOM     86  C   UNL A   1      46.912  32.622  29.930  1.00  0.00     0.012 A 
ATOM     87  C   UNL A   1      46.394  33.345  27.664  1.00  0.00     0.148 A 
ATOM     88  C   UNL A   1      47.468  33.871  30.206  1.00  0.00     0.002 A 
ATOM     89  C   UNL A   1      46.997  34.568  27.929  1.00  0.00     0.091 A 
ATOM     90  F   UNL A   1      45.847  33.070  26.471  1.00  0.00    -0.205 F 
ATOM     91  C   UNL A   1      47.524  34.837  29.203  1.00  0.00     0.022 A 
BRANCH  89  92
ATOM     92  S   UNL A   1      47.210  35.829  26.669  1.00  0.00     0.127 S 
ATOM     93  O   UNL A   1      47.976  36.844  27.391  1.00  0.00    -0.237 OA
ATOM     94  O   UNL A   1      47.964  35.114  25.640  1.00  0.00    -0.237 OA
ATOM     95  O   UNL A   1      45.869  36.231  26.268  1.00  0.00    -0.744 OA
ENDBRANCH  89  92
ENDBRANCH  62  85
ENDBRANCH  36  37
ENDBRANCH  28  31
ENDBRANCH  26  27
ENDBRANCH   1  26
TORSDOF 17
ENDMDL
MODEL 2
REMARK VINA RESULT:     -12.0      6.173     11.984
REMARK SMILES CC(C)[NH2+][C@@]1(C(=O)NCCCNC(=O)c2ccc(-c3c4nc(c(-c5cccc(S(=O)(=O)[O-])c5F)c5ccc([nH]5)c(-c5cccc(S(=O)(=O)[O-])c5F)c5nc(c(-c6cccc(S(=O)(=O)[O-])c6F)c6ccc3[nH]6)C=C5)C=C4)cc2)CC[C@@H](Sc2cccc(Br)c2)C1
REMARK SMILES IDX 10 1 9 2 8 3 6 4 7 5 5 7 78 8 89 9 79 10 80 11 4 12 2 15
REMARK SMILES IDX 1 16 3 17 81 18 82 19 83 20 88 21 84 22 86 23 85 24 87 25
REMARK SMILES IDX 11 26 12 27 13 28 14 30 15 31 16 32 77 33 17 34 76 35 18 36
REMARK SMILES IDX 19 37 20 38 70 39 21 40 75 41 69 42 71 43 22 44 74 45 68 46
REMARK SMILES IDX 67 47 23 49 55 50 35 51 54 52 36 53 39 54 53 55 72 56 37 57
REMARK SMILES IDX 38 58 52 60 73 61 40 62 24 63 25 64 33 65 26 66 28 67 34 68
REMARK SMILES IDX 27 69 29 70 30 71 31 72 32 73 56 74 57 75 65 76 58 77 60 78
REMARK SMILES IDX 66 79 59 80 61 81 62 82 63 83 64 84 41 85 42 86 50 87 43 88
REMARK SMILES IDX 45 89 51 90 44 91 46 92 47 93 48 94 49 95
REMARK H PARENT 8 6 4 13 4 14 12 29 71 48 39 59
REMARK Flexibility Score: inf
ROOT
ATOM      1  C   UNL A   1      31.646  31.565  26.928  1.00  0.00     0.042 C 
ENDROOT
BRANCH   1   2
ATOM      2  C   UNL A   1      31.851  30.573  25.790  1.00  0.00     0.118 C 
BRANCH   2   3
ATOM      3  N   UNL A   1      30.764  30.610  24.841  1.00  0.00    -0.351 N 
ATOM      4  C   UNL A   1      30.308  29.720  23.925  1.00  0.00     0.281 C 
ATOM      5  O   UNL A   1      29.385  30.147  23.213  1.00  0.00    -0.268 OA
ATOM      6  H   UNL A   1      30.252  31.451  24.860  1.00  0.00     0.163 HD
BRANCH   4   7
ATOM      7  C   UNL A   1      30.892  28.252  23.705  1.00  0.00     0.176 C 
ATOM      8  C   UNL A   1      29.921  27.372  22.900  1.00  0.00     0.080 C 
ATOM      9  C   UNL A   1      31.102  27.564  25.069  1.00  0.00     0.094 C 
ATOM     10  C   UNL A   1      29.524  26.182  23.771  1.00  0.00     0.022 C 
ATOM     11  C   UNL A   1      30.083  26.424  25.168  1.00  0.00     0.058 C 
BRANCH   7  12
ATOM     12  N   UNL A   1      32.131  28.503  22.928  1.00  0.00    -0.332 N 
ATOM     13  H   UNL A   1      31.882  28.334  21.953  1.00  0.00     0.347 HD
ATOM     14  H   UNL A   1      32.374  29.437  23.260  1.00  0.00     0.347 HD
BRANCH  12  15
ATOM     15  C   UNL A   1      33.390  27.808  23.135  1.00  0.00     0.176 C 
ATOM     16  C   UNL A   1      33.341  26.553  22.250  1.00  0.00     0.075 C 
ATOM     17  C   UNL A   1      34.620  28.604  22.715  1.00  0.00     0.075 C 
ENDBRANCH  12  15
ENDBRANCH   7  12
BRANCH  11  18
ATOM     18  S   UNL A   1      30.647  24.961  26.143  1.00  0.00    -0.122 SA
BRANCH  18  19
ATOM     19  C   UNL A   1      31.812  24.142  25.075  1.00  0.00     0.009 A 
ATOM     20  C   UNL A   1      31.363  23.399  23.977  1.00  0.00     0.015 A 
ATOM     21  C   UNL A   1      33.179  24.187  25.349  1.00  0.00     0.030 A 
ATOM     22  C   UNL A   1      32.274  22.796  23.106  1.00  0.00     0.002 A 
ATOM     23  C   UNL A   1      34.089  23.604  24.466  1.00  0.00     0.019 A 
ATOM     24  C   UNL A   1      33.642  22.919  23.339  1.00  0.00     0.016 A 
ATOM     25  Br  UNL A   1      35.946  23.758  24.790  1.00  0.00    -0.051 Br
ENDBRANCH  18  19
ENDBRANCH  11  18
ENDBRANCH   4   7
ENDBRANCH   2   3
ENDBRANCH   1   2
BRANCH   1  26
ATOM     26  C   UNL A   1      32.907  32.344  27.262  1.00  0.00     0.118 C 
BRANCH  26  27
ATOM     27  N   UNL A   1      32.618  33.749  27.536  1.00  0.00    -0.352 N 
ATOM     28  C   UNL A   1      33.109  34.565  28.524  1.00  0.00     0.251 C 
ATOM     29  H   UNL A   1      31.978  34.173  26.921  1.00  0.00     0.163 HD
ATOM     30  O   UNL A   1      32.567  35.646  28.751  1.00  0.00    -0.269 OA
BRANCH  28  31
ATOM     31  C   UNL A   1      34.281  34.138  29.312  1.00  0.00     0.039 A 
ATOM     32  C   UNL A   1      34.094  33.497  30.539  1.00  0.00     0.014 A 
ATOM     33  C   UNL A   1      35.569  34.368  28.826  1.00  0.00     0.014 A 
ATOM     34  C   UNL A   1      35.204  33.026  31.246  1.00  0.00     0.010 A 
ATOM     35  C   UNL A   1      36.659  33.807  29.475  1.00  0.00     0.010 A 
ATOM     36  C   UNL A   1      36.491  33.146  30.701  1.00  0.00    -0.014 A 
BRANCH  36  37
ATOM     37  C   UNL A   1      37.697  32.618  31.384  1.00  0.00     0.031 A 
ATOM     38  C   UNL A   1      38.454  31.475  30.763  1.00  0.00     0.074 A 
ATOM     39  C   UNL A   1      38.025  33.068  32.611  1.00  0.00     0.049 A 
ATOM     40  N   UNL A   1      39.418  30.750  31.267  1.00  0.00    -0.248 NA
ATOM     41  C   UNL A   1      38.044  31.065  29.408  1.00  0.00     0.031 C 
ATOM     42  C   UNL A   1      37.323  34.124  33.345  1.00  0.00     0.029 A 
ATOM     43  N   UNL A   1      39.012  32.664  33.477  1.00  0.00    -0.354 N 
ATOM     44  C   UNL A   1      39.686  29.768  30.321  1.00  0.00     0.074 A 
ATOM     45  C   UNL A   1      38.762  29.967  29.228  1.00  0.00     0.031 C 
ATOM     46  C   UNL A   1      37.898  34.281  34.548  1.00  0.00     0.029 A 
ATOM     47  C   UNL A   1      38.979  33.311  34.691  1.00  0.00     0.049 A 
ATOM     48  H   UNL A   1      39.679  31.977  33.249  1.00  0.00     0.167 HD
ATOM     49  C   UNL A   1      40.634  28.803  30.347  1.00  0.00     0.034 A 
ATOM     50  C   UNL A   1      39.721  33.126  35.800  1.00  0.00     0.034 A 
ATOM     51  C   UNL A   1      41.584  28.649  31.415  1.00  0.00     0.049 A 
ATOM     52  C   UNL A   1      40.799  32.076  35.787  1.00  0.00     0.074 A 
ATOM     53  C   UNL A   1      42.644  27.765  31.501  1.00  0.00     0.029 A 
ATOM     54  N   UNL A   1      41.586  29.396  32.582  1.00  0.00    -0.354 N 
ATOM     55  N   UNL A   1      41.127  31.243  34.828  1.00  0.00    -0.248 NA
ATOM     56  C   UNL A   1      41.633  31.961  36.991  1.00  0.00     0.031 C 
ATOM     57  C   UNL A   1      43.272  27.960  32.734  1.00  0.00     0.029 A 
ATOM     58  C   UNL A   1      42.627  28.993  33.397  1.00  0.00     0.049 A 
ATOM     59  H   UNL A   1      40.942  30.109  32.798  1.00  0.00     0.167 HD
ATOM     60  C   UNL A   1      42.233  30.542  35.294  1.00  0.00     0.074 A 
ATOM     61  C   UNL A   1      42.523  31.052  36.618  1.00  0.00     0.031 C 
ATOM     62  C   UNL A   1      42.941  29.561  34.683  1.00  0.00     0.034 A 
BRANCH  49  63
ATOM     63  C   UNL A   1      40.721  27.869  29.168  1.00  0.00     0.023 A 
ATOM     64  C   UNL A   1      39.871  26.747  29.098  1.00  0.00     0.012 A 
ATOM     65  C   UNL A   1      41.608  28.130  28.105  1.00  0.00     0.148 A 
ATOM     66  C   UNL A   1      39.930  25.876  28.012  1.00  0.00     0.002 A 
ATOM     67  C   UNL A   1      41.625  27.286  27.000  1.00  0.00     0.091 A 
ATOM     68  F   UNL A   1      42.424  29.190  28.196  1.00  0.00    -0.205 F 
ATOM     69  C   UNL A   1      40.798  26.151  26.959  1.00  0.00     0.022 A 
BRANCH  67  70
ATOM     70  S   UNL A   1      42.644  27.600  25.555  1.00  0.00     0.127 S 
ATOM     71  O   UNL A   1      42.371  26.418  24.740  1.00  0.00    -0.237 OA
ATOM     72  O   UNL A   1      42.068  28.843  25.040  1.00  0.00    -0.237 OA
ATOM     73  O   UNL A   1      44.010  27.720  26.044  1.00  0.00    -0.744 OA
ENDBRANCH  67  70
ENDBRANCH  49  63
BRANCH  50  74
ATOM     74  C   UNL A   1      39.510  33.993  36.993  1.00  0.00     0.023 A 
ATOM     75  C   UNL A   1      39.895  35.348  36.938  1.00  0.00     0.012 A 
ATOM     76  C   UNL A   1      38.915  33.497  38.168  1.00  0.00     0.148 A 
ATOM     77  C   UNL A   1      39.723  36.183  38.042  1.00  0.00     0.002 A 
ATOM     78  C   UNL A   1      38.696  34.347  39.247  1.00  0.00     0.091 A 
ATOM     79  F   UNL A   1      38.562  32.204  38.204  1.00  0.00    -0.205 F 
ATOM     80  C   UNL A   1      39.116  35.685  39.193  1.00  0.00     0.022 A 
BRANCH  78  81
ATOM     81  S   UNL A   1      37.809  33.830  40.720  1.00  0.00     0.127 S 
ATOM     82  O   UNL A   1      38.762  32.908  41.334  1.00  0.00    -0.237 OA
ATOM     83  O   UNL A   1      37.638  35.099  41.427  1.00  0.00    -0.237 OA
ATOM     84  O   UNL A   1      36.569  33.234  40.244  1.00  0.00    -0.744 OA
ENDBRANCH  78  81
ENDBRANCH  50  74
BRANCH  62  85
ATOM     85  C   UNL A   1      44.149  29.015  35.396  1.00  0.00     0.023 A 
ATOM     86  C   UNL A   1      45.409  29.617  35.220  1.00  0.00     0.012 A 
ATOM     87  C   UNL A   1      44.004  27.965  36.324  1.00  0.00     0.148 A 
ATOM     88  C   UNL A   1      46.514  29.164  35.941  1.00  0.00     0.002 A 
ATOM     89  C   UNL A   1      45.096  27.555  37.077  1.00  0.00     0.091 A 
ATOM     90  F   UNL A   1      42.797  27.396  36.461  1.00  0.00    -0.205 F 
ATOM     91  C   UNL A   1      46.355  28.146  36.879  1.00  0.00     0.022 A 
BRANCH  89  92
ATOM     92  S   UNL A   1      44.961  26.327  38.380  1.00  0.00     0.127 S 
ATOM     93  O   UNL A   1      45.168  25.084  37.639  1.00  0.00    -0.237 OA
ATOM     94  O   UNL A   1      46.062  26.698  39.269  1.00  0.00    -0.237 OA
ATOM     95  O   UNL A   1      43.634  26.494  38.957  1.00  0.00    -0.744 OA
ENDBRANCH  89  92
ENDBRANCH  62  85
ENDBRANCH  36  37
ENDBRANCH  28  31
ENDBRANCH  26  27
ENDBRANCH   1  26
TORSDOF 17
ENDMDL
MODEL 3
REMARK VINA RESULT:     -11.9      6.058     11.915
REMARK SMILES CC(C)[NH2+][C@@]1(C(=O)NCCCNC(=O)c2ccc(-c3c4nc(c(-c5cccc(S(=O)(=O)[O-])c5F)c5ccc([nH]5)c(-c5cccc(S(=O)(=O)[O-])c5F)c5nc(c(-c6cccc(S(=O)(=O)[O-])c6F)c6ccc3[nH]6)C=C5)C=C4)cc2)CC[C@@H](Sc2cccc(Br)c2)C1
REMARK SMILES IDX 10 1 9 2 8 3 6 4 7 5 5 7 78 8 89 9 79 10 80 11 4 12 2 15
REMARK SMILES IDX 1 16 3 17 81 18 82 19 83 20 88 21 84 22 86 23 85 24 87 25
REMARK SMILES IDX 11 26 12 27 13 28 14 30 15 31 16 32 77 33 17 34 76 35 18 36
REMARK SMILES IDX 19 37 20 38 70 39 21 40 75 41 69 42 71 43 22 44 74 45 68 46
REMARK SMILES IDX 67 47 23 49 55 50 35 51 54 52 36 53 39 54 53 55 72 56 37 57
REMARK SMILES IDX 38 58 52 60 73 61 40 62 24 63 25 64 33 65 26 66 28 67 34 68
REMARK SMILES IDX 27 69 29 70 30 71 31 72 32 73 56 74 57 75 65 76 58 77 60 78
REMARK SMILES IDX 66 79 59 80 61 81 62 82 63 83 64 84 41 85 42 86 50 87 43 88
REMARK SMILES IDX 45 89 51 90 44 91 46 92 47 93 48 94 49 95
REMARK H PARENT 8 6 4 13 4 14 12 29 71 48 39 59
REMARK Flexibility Score: inf
ROOT
ATOM      1  C   UNL A   1      31.655  31.817  26.535  1.00  0.00     0.042 C 
ENDROOT
BRANCH   1   2
ATOM      2  C   UNL A   1      31.860  30.326  26.300  1.00  0.00     0.118 C 
BRANCH   2   3
ATOM      3  N   UNL A   1      32.753  30.073  25.195  1.00  0.00    -0.351 N 
ATOM      4  C   UNL A   1      32.692  29.228  24.136  1.00  0.00     0.281 C 
ATOM      5  O   UNL A   1      33.710  29.228  23.423  1.00  0.00    -0.268 OA
ATOM      6  H   UNL A   1      33.569  30.622  25.213  1.00  0.00     0.163 HD
BRANCH   4   7
ATOM      7  C   UNL A   1      31.468  28.262  23.802  1.00  0.00     0.176 C 
ATOM      8  C   UNL A   1      30.800  27.734  25.082  1.00  0.00     0.080 C 
ATOM      9  C   UNL A   1      31.971  27.035  23.014  1.00  0.00     0.094 C 
ATOM     10  C   UNL A   1      30.919  26.210  25.086  1.00  0.00     0.022 C 
ATOM     11  C   UNL A   1      31.824  25.814  23.926  1.00  0.00     0.058 C 
BRANCH   7  12
ATOM     12  N   UNL A   1      30.540  29.151  23.061  1.00  0.00    -0.332 N 
ATOM     13  H   UNL A   1      31.051  30.022  22.918  1.00  0.00     0.347 HD
ATOM     14  H   UNL A   1      30.286  28.548  22.278  1.00  0.00     0.347 HD
BRANCH  12  15
ATOM     15  C   UNL A   1      29.222  29.546  23.533  1.00  0.00     0.176 C 
ATOM     16  C   UNL A   1      29.164  31.077  23.420  1.00  0.00     0.075 C 
ATOM     17  C   UNL A   1      28.070  28.992  22.703  1.00  0.00     0.075 C 
ENDBRANCH  12  15
ENDBRANCH   7  12
BRANCH  11  18
ATOM     18  S   UNL A   1      31.466  24.229  23.049  1.00  0.00    -0.122 SA
BRANCH  18  19
ATOM     19  C   UNL A   1      32.751  23.124  23.593  1.00  0.00     0.009 A 
ATOM     20  C   UNL A   1      34.079  23.563  23.663  1.00  0.00     0.015 A 
ATOM     21  C   UNL A   1      32.459  21.796  23.906  1.00  0.00     0.030 A 
ATOM     22  C   UNL A   1      35.083  22.716  24.137  1.00  0.00     0.002 A 
ATOM     23  C   UNL A   1      33.459  20.959  24.401  1.00  0.00     0.019 A 
ATOM     24  C   UNL A   1      34.768  21.417  24.530  1.00  0.00     0.016 A 
ATOM     25  Br  UNL A   1      33.034  19.190  24.921  1.00  0.00    -0.051 Br
ENDBRANCH  18  19
ENDBRANCH  11  18
ENDBRANCH   4   7
ENDBRANCH   2   3
ENDBRANCH   1   2
BRANCH   1  26
ATOM     26  C   UNL A   1      32.808  32.457  27.291  1.00  0.00     0.118 C 
BRANCH  26  27
ATOM     27  N   UNL A   1      32.559  33.871  27.561  1.00  0.00    -0.352 N 
ATOM     28  C   UNL A   1      33.075  34.676  28.546  1.00  0.00     0.251 C 
ATOM     29  H   UNL A   1      31.930  34.311  26.945  1.00  0.00     0.163 HD
ATOM     30  O   UNL A   1      32.564  35.772  28.770  1.00  0.00    -0.269 OA
BRANCH  28  31
ATOM     31  C   UNL A   1      34.235  34.217  29.333  1.00  0.00     0.039 A 
ATOM     32  C   UNL A   1      34.033  33.446  30.481  1.00  0.00     0.014 A 
ATOM     33  C   UNL A   1      35.529  34.549  28.925  1.00  0.00     0.014 A 
ATOM     34  C   UNL A   1      35.136  32.951  31.181  1.00  0.00     0.010 A 
ATOM     35  C   UNL A   1      36.618  33.969  29.559  1.00  0.00     0.010 A 
ATOM     36  C   UNL A   1      36.435  33.179  30.703  1.00  0.00    -0.014 A 
BRANCH  36  37
ATOM     37  C   UNL A   1      37.638  32.632  31.378  1.00  0.00     0.031 A 
ATOM     38  C   UNL A   1      38.385  31.491  30.742  1.00  0.00     0.074 A 
ATOM     39  C   UNL A   1      37.973  33.066  32.610  1.00  0.00     0.049 A 
ATOM     40  N   UNL A   1      39.343  30.752  31.236  1.00  0.00    -0.248 NA
ATOM     41  C   UNL A   1      37.968  31.099  29.384  1.00  0.00     0.031 C 
ATOM     42  C   UNL A   1      37.281  34.119  33.357  1.00  0.00     0.029 A 
ATOM     43  N   UNL A   1      38.957  32.644  33.468  1.00  0.00    -0.354 N 
ATOM     44  C   UNL A   1      39.601  29.778  30.279  1.00  0.00     0.074 A 
ATOM     45  C   UNL A   1      38.677  29.998  29.189  1.00  0.00     0.031 C 
ATOM     46  C   UNL A   1      37.859  34.257  34.561  1.00  0.00     0.029 A 
ATOM     47  C   UNL A   1      38.932  33.277  34.690  1.00  0.00     0.049 A 
ATOM     48  H   UNL A   1      39.619  31.954  33.231  1.00  0.00     0.167 HD
ATOM     49  C   UNL A   1      40.541  28.805  30.292  1.00  0.00     0.034 A 
ATOM     50  C   UNL A   1      39.675  33.073  35.796  1.00  0.00     0.034 A 
ATOM     51  C   UNL A   1      41.491  28.631  31.355  1.00  0.00     0.049 A 
ATOM     52  C   UNL A   1      40.744  32.014  35.768  1.00  0.00     0.074 A 
ATOM     53  C   UNL A   1      42.544  27.737  31.430  1.00  0.00     0.029 A 
ATOM     54  N   UNL A   1      41.502  29.365  32.531  1.00  0.00    -0.354 N 
ATOM     55  N   UNL A   1      41.063  31.189  34.799  1.00  0.00    -0.248 NA
ATOM     56  C   UNL A   1      41.579  31.878  36.970  1.00  0.00     0.031 C 
ATOM     57  C   UNL A   1      43.176  27.913  32.663  1.00  0.00     0.029 A 
ATOM     58  C   UNL A   1      42.541  28.944  33.340  1.00  0.00     0.049 A 
ATOM     59  H   UNL A   1      40.865  30.081  32.756  1.00  0.00     0.167 HD
ATOM     60  C   UNL A   1      42.164  30.474  35.255  1.00  0.00     0.074 A 
ATOM     61  C   UNL A   1      42.461  30.966  36.584  1.00  0.00     0.031 C 
ATOM     62  C   UNL A   1      42.862  29.494  34.632  1.00  0.00     0.034 A 
BRANCH  49  63
ATOM     63  C   UNL A   1      40.618  27.884  29.101  1.00  0.00     0.023 A 
ATOM     64  C   UNL A   1      39.746  26.781  29.012  1.00  0.00     0.012 A 
ATOM     65  C   UNL A   1      41.518  28.140  28.048  1.00  0.00     0.148 A 
ATOM     66  C   UNL A   1      39.795  25.922  27.916  1.00  0.00     0.002 A 
ATOM     67  C   UNL A   1      41.526  27.309  26.933  1.00  0.00     0.091 A 
ATOM     68  F   UNL A   1      42.354  29.181  28.159  1.00  0.00    -0.205 F 
ATOM     69  C   UNL A   1      40.676  26.192  26.872  1.00  0.00     0.022 A 
BRANCH  67  70
ATOM     70  S   UNL A   1      42.562  27.620  25.500  1.00  0.00     0.127 S 
ATOM     71  O   UNL A   1      42.268  26.456  24.666  1.00  0.00    -0.237 OA
ATOM     72  O   UNL A   1      42.018  28.883  24.998  1.00  0.00    -0.237 OA
ATOM     73  O   UNL A   1      43.927  27.702  25.999  1.00  0.00    -0.744 OA
ENDBRANCH  67  70
ENDBRANCH  49  63
BRANCH  50  74
ATOM     74  C   UNL A   1      39.474  33.928  36.999  1.00  0.00     0.023 A 
ATOM     75  C   UNL A   1      39.903  35.270  36.971  1.00  0.00     0.012 A 
ATOM     76  C   UNL A   1      38.844  33.434  38.156  1.00  0.00     0.148 A 
ATOM     77  C   UNL A   1      39.741  36.093  38.085  1.00  0.00     0.002 A 
ATOM     78  C   UNL A   1      38.636  34.274  39.245  1.00  0.00     0.091 A 
ATOM     79  F   UNL A   1      38.448  32.153  38.166  1.00  0.00    -0.205 F 
ATOM     80  C   UNL A   1      39.100  35.598  39.219  1.00  0.00     0.022 A 
BRANCH  78  81
ATOM     81  S   UNL A   1      37.709  33.764  40.696  1.00  0.00     0.127 S 
ATOM     82  O   UNL A   1      38.614  32.788  41.300  1.00  0.00    -0.237 OA
ATOM     83  O   UNL A   1      37.584  35.023  41.430  1.00  0.00    -0.237 OA
ATOM     84  O   UNL A   1      36.451  33.233  40.193  1.00  0.00    -0.744 OA
ENDBRANCH  78  81
ENDBRANCH  50  74
BRANCH  62  85
ATOM     85  C   UNL A   1      44.067  28.929  35.335  1.00  0.00     0.023 A 
ATOM     86  C   UNL A   1      45.327  29.541  35.188  1.00  0.00     0.012 A 
ATOM     87  C   UNL A   1      43.919  27.850  36.229  1.00  0.00     0.148 A 
ATOM     88  C   UNL A   1      46.427  29.069  35.902  1.00  0.00     0.002 A 
ATOM     89  C   UNL A   1      45.007  27.420  36.977  1.00  0.00     0.091 A 
ATOM     90  F   UNL A   1      42.713  27.273  36.339  1.00  0.00    -0.205 F 
ATOM     91  C   UNL A   1      46.265  28.021  36.806  1.00  0.00     0.022 A 
BRANCH  89  92
ATOM     92  S   UNL A   1      44.867  26.151  38.239  1.00  0.00     0.127 S 
ATOM     93  O   UNL A   1      46.086  26.370  39.016  1.00  0.00    -0.237 OA
ATOM     94  O   UNL A   1      43.631  26.531  38.923  1.00  0.00    -0.237 OA
ATOM     95  O   UNL A   1      44.801  24.881  37.530  1.00  0.00    -0.744 OA
ENDBRANCH  89  92
ENDBRANCH  62  85
ENDBRANCH  36  37
ENDBRANCH  28  31
ENDBRANCH  26  27
ENDBRANCH   1  26
TORSDOF 17
ENDMDL
