MODEL 1
REMARK VINA RESULT:     -11.1      0.000      0.000
REMARK SMILES Nc1nonc1C(=O)N1[C@@H]2CC[C@H]1C[C@H](CC(=O)NCCCNC(=O)c1ccc(-c3c4nc(c(-c5cccc(S(=O)(=O)[O-])c5F)c5ccc([nH]5)c(-c5cccc(S(=O)(=O)[O-])c5F)c5nc(c(-c6cccc(S(=O)(=O)[O-])c6F)c6ccc3[nH]6)C=C5)C=C4)cc1)C2
REMARK SMILES IDX 20 1 19 2 17 3 18 4 16 6 15 7 9 8 10 9 13 10 11 11 89 12
REMARK SMILES IDX 12 13 14 14 7 15 8 16 6 17 2 18 3 19 4 20 5 21 1 22 21 25
REMARK SMILES IDX 22 26 23 27 24 28 25 30 26 31 27 32 88 33 28 34 87 35 29 36
REMARK SMILES IDX 30 37 31 38 81 39 32 40 86 41 80 42 82 43 33 44 85 45 79 46
REMARK SMILES IDX 78 47 34 49 66 50 46 51 65 52 47 53 50 54 64 55 83 56 48 57
REMARK SMILES IDX 49 58 63 60 84 61 51 62 35 63 36 64 44 65 37 66 39 67 45 68
REMARK SMILES IDX 38 69 40 70 41 71 42 72 43 73 67 74 68 75 76 76 69 77 71 78
REMARK SMILES IDX 77 79 70 80 72 81 73 82 74 83 75 84 52 85 53 86 61 87 54 88
REMARK SMILES IDX 56 89 62 90 55 91 57 92 58 93 59 94 60 95
REMARK H PARENT 19 5 1 23 1 24 23 29 82 48 50 59
REMARK Flexibility Score: inf
ROOT
ATOM      1  C   UNL A   1      32.869  35.399  29.903  1.00  0.00     0.117 C 
ENDROOT
BRANCH   1   2
ATOM      2  N   UNL A   1      33.005  36.640  30.659  1.00  0.00    -0.356 N 
ATOM      3  C   UNL A   1      33.248  36.879  31.980  1.00  0.00     0.220 C 
ATOM      4  O   UNL A   1      33.342  38.054  32.344  1.00  0.00    -0.275 OA
ATOM      5  H   UNL A   1      32.901  37.453  30.114  1.00  0.00     0.163 HD
BRANCH   3   6
ATOM      6  C   UNL A   1      33.396  35.752  32.988  1.00  0.00     0.103 C 
BRANCH   6   7
ATOM      7  C   UNL A   1      34.414  34.666  32.562  1.00  0.00     0.002 C 
ATOM      8  N   UNL A   1      36.796  33.911  33.963  1.00  0.00    -0.331 N 
ATOM      9  C   UNL A   1      35.832  32.848  33.715  1.00  0.00     0.086 C 
ATOM     10  C   UNL A   1      37.031  34.487  32.654  1.00  0.00     0.086 C 
ATOM     11  C   UNL A   1      36.266  32.227  32.375  1.00  0.00     0.027 C 
ATOM     12  C   UNL A   1      34.461  33.533  33.619  1.00  0.00     0.029 C 
ATOM     13  C   UNL A   1      37.164  33.284  31.729  1.00  0.00     0.027 C 
ATOM     14  C   UNL A   1      35.790  35.312  32.304  1.00  0.00     0.029 C 
BRANCH   8  15
ATOM     15  C   UNL A   1      37.857  33.652  34.830  1.00  0.00     0.280 C 
ATOM     16  O   UNL A   1      38.980  34.096  34.594  1.00  0.00    -0.267 OA
BRANCH  15  17
ATOM     17  C   UNL A   1      37.598  32.679  35.897  1.00  0.00     0.216 A 
ATOM     18  C   UNL A   1      37.873  31.291  36.038  1.00  0.00     0.201 A 
ATOM     19  N   UNL A   1      37.541  30.889  37.263  1.00  0.00    -0.032 NA
ATOM     20  O   UNL A   1      36.993  31.999  37.876  1.00  0.00    -0.242 OA
ATOM     21  N   UNL A   1      37.027  33.099  37.040  1.00  0.00    -0.042 NA
BRANCH  18  22
ATOM     22  N   UNL A   1      38.360  30.434  35.124  1.00  0.00    -0.379 N 
ATOM     23  H   UNL A   1      38.327  29.464  35.291  1.00  0.00     0.158 HD
ATOM     24  H   UNL A   1      38.749  30.776  34.286  1.00  0.00     0.158 HD
ENDBRANCH  18  22
ENDBRANCH  15  17
ENDBRANCH   8  15
ENDBRANCH   6   7
ENDBRANCH   3   6
ENDBRANCH   1   2
BRANCH   1  25
ATOM     25  C   UNL A   1      34.006  35.192  28.901  1.00  0.00     0.042 C 
BRANCH  25  26
ATOM     26  C   UNL A   1      34.787  33.897  29.063  1.00  0.00     0.118 C 
BRANCH  26  27
ATOM     27  N   UNL A   1      34.067  32.764  28.514  1.00  0.00    -0.352 N 
ATOM     28  C   UNL A   1      34.499  31.486  28.241  1.00  0.00     0.251 C 
ATOM     29  H   UNL A   1      33.121  32.936  28.303  1.00  0.00     0.163 HD
ATOM     30  O   UNL A   1      33.777  30.768  27.552  1.00  0.00    -0.269 OA
BRANCH  28  31
ATOM     31  C   UNL A   1      35.799  30.961  28.741  1.00  0.00     0.039 A 
ATOM     32  C   UNL A   1      36.980  31.514  28.231  1.00  0.00     0.014 A 
ATOM     33  C   UNL A   1      35.886  29.887  29.632  1.00  0.00     0.014 A 
ATOM     34  C   UNL A   1      38.226  31.007  28.621  1.00  0.00     0.010 A 
ATOM     35  C   UNL A   1      37.129  29.444  30.092  1.00  0.00     0.010 A 
ATOM     36  C   UNL A   1      38.316  29.972  29.566  1.00  0.00    -0.014 A 
BRANCH  36  37
ATOM     37  C   UNL A   1      39.636  29.412  29.970  1.00  0.00     0.031 A 
ATOM     38  C   UNL A   1      40.413  30.025  31.110  1.00  0.00     0.074 A 
ATOM     39  C   UNL A   1      40.165  28.378  29.287  1.00  0.00     0.049 A 
ATOM     40  N   UNL A   1      41.566  29.661  31.612  1.00  0.00    -0.248 NA
ATOM     41  C   UNL A   1      39.840  31.222  31.749  1.00  0.00     0.031 C 
ATOM     42  C   UNL A   1      39.568  27.748  28.108  1.00  0.00     0.029 A 
ATOM     43  N   UNL A   1      41.334  27.682  29.478  1.00  0.00    -0.354 N 
ATOM     44  C   UNL A   1      41.869  30.597  32.595  1.00  0.00     0.074 A 
ATOM     45  C   UNL A   1      40.801  31.571  32.591  1.00  0.00     0.031 C 
ATOM     46  C   UNL A   1      40.364  26.752  27.690  1.00  0.00     0.029 A 
ATOM     47  C   UNL A   1      41.533  26.675  28.561  1.00  0.00     0.049 A 
ATOM     48  H   UNL A   1      41.969  27.883  30.202  1.00  0.00     0.167 HD
ATOM     49  C   UNL A   1      42.918  30.627  33.452  1.00  0.00     0.034 A 
ATOM     50  C   UNL A   1      42.535  25.781  28.443  1.00  0.00     0.034 A 
ATOM     51  C   UNL A   1      43.947  29.623  33.504  1.00  0.00     0.049 A 
ATOM     52  C   UNL A   1      43.640  25.776  29.466  1.00  0.00     0.074 A 
ATOM     53  C   UNL A   1      45.000  29.513  34.396  1.00  0.00     0.029 A 
ATOM     54  N   UNL A   1      44.050  28.553  32.631  1.00  0.00    -0.354 N 
ATOM     55  N   UNL A   1      43.815  26.568  30.495  1.00  0.00    -0.248 NA
ATOM     56  C   UNL A   1      44.659  24.723  29.341  1.00  0.00     0.031 C 
ATOM     57  C   UNL A   1      45.743  28.377  34.058  1.00  0.00     0.029 A 
ATOM     58  C   UNL A   1      45.144  27.773  32.964  1.00  0.00     0.049 A 
ATOM     59  H   UNL A   1      43.435  28.372  31.883  1.00  0.00     0.167 HD
ATOM     60  C   UNL A   1      44.937  26.089  31.162  1.00  0.00     0.074 A 
ATOM     61  C   UNL A   1      45.390  24.923  30.430  1.00  0.00     0.031 C 
ATOM     62  C   UNL A   1      45.547  26.579  32.268  1.00  0.00     0.034 A 
BRANCH  49  63
ATOM     63  C   UNL A   1      42.968  31.747  34.461  1.00  0.00     0.023 A 
ATOM     64  C   UNL A   1      43.454  33.010  34.067  1.00  0.00     0.012 A 
ATOM     65  C   UNL A   1      42.486  31.572  35.772  1.00  0.00     0.148 A 
ATOM     66  C   UNL A   1      43.494  34.072  34.969  1.00  0.00     0.002 A 
ATOM     67  C   UNL A   1      42.489  32.648  36.656  1.00  0.00     0.091 A 
ATOM     68  F   UNL A   1      42.047  30.360  36.138  1.00  0.00    -0.205 F 
ATOM     69  C   UNL A   1      43.001  33.894  36.259  1.00  0.00     0.022 A 
BRANCH  67  70
ATOM     70  S   UNL A   1      41.805  32.540  38.314  1.00  0.00     0.127 S 
ATOM     71  O   UNL A   1      42.591  31.447  38.885  1.00  0.00    -0.237 OA
ATOM     72  O   UNL A   1      42.110  33.862  38.863  1.00  0.00    -0.237 OA
ATOM     73  O   UNL A   1      40.385  32.270  38.143  1.00  0.00    -0.744 OA
ENDBRANCH  67  70
ENDBRANCH  49  63
BRANCH  50  74
ATOM     74  C   UNL A   1      42.481  24.746  27.373  1.00  0.00     0.023 A 
ATOM     75  C   UNL A   1      43.329  24.864  26.254  1.00  0.00     0.012 A 
ATOM     76  C   UNL A   1      41.629  23.629  27.473  1.00  0.00     0.148 A 
ATOM     77  C   UNL A   1      43.310  23.905  25.241  1.00  0.00     0.002 A 
ATOM     78  C   UNL A   1      41.654  22.650  26.487  1.00  0.00     0.091 A 
ATOM     79  F   UNL A   1      40.818  23.542  28.537  1.00  0.00    -0.205 F 
ATOM     80  C   UNL A   1      42.482  22.793  25.362  1.00  0.00     0.022 A 
BRANCH  78  81
ATOM     81  S   UNL A   1      40.721  21.123  26.636  1.00  0.00     0.127 S 
ATOM     82  O   UNL A   1      41.436  20.243  25.715  1.00  0.00    -0.237 OA
ATOM     83  O   UNL A   1      40.889  20.798  28.053  1.00  0.00    -0.237 OA
ATOM     84  O   UNL A   1      39.356  21.467  26.261  1.00  0.00    -0.744 OA
ENDBRANCH  78  81
ENDBRANCH  50  74
BRANCH  62  85
ATOM     85  C   UNL A   1      46.751  25.839  32.789  1.00  0.00     0.023 A 
ATOM     86  C   UNL A   1      48.043  26.247  32.402  1.00  0.00     0.012 A 
ATOM     87  C   UNL A   1      46.606  24.789  33.716  1.00  0.00     0.148 A 
ATOM     88  C   UNL A   1      49.171  25.600  32.904  1.00  0.00     0.002 A 
ATOM     89  C   UNL A   1      47.737  24.178  34.247  1.00  0.00     0.091 A 
ATOM     90  F   UNL A   1      45.369  24.399  34.056  1.00  0.00    -0.205 F 
ATOM     91  C   UNL A   1      49.018  24.574  33.834  1.00  0.00     0.022 A 
BRANCH  89  92
ATOM     92  S   UNL A   1      47.627  22.914  35.519  1.00  0.00     0.127 S 
ATOM     93  O   UNL A   1      46.964  21.826  34.803  1.00  0.00    -0.237 OA
ATOM     94  O   UNL A   1      49.033  22.664  35.839  1.00  0.00    -0.237 OA
ATOM     95  O   UNL A   1      46.863  23.514  36.606  1.00  0.00    -0.744 OA
ENDBRANCH  89  92
ENDBRANCH  62  85
ENDBRANCH  36  37
ENDBRANCH  28  31
ENDBRANCH  26  27
ENDBRANCH  25  26
ENDBRANCH   1  25
TORSDOF 17
ENDMDL
MODEL 2
REMARK VINA RESULT:     -11.1      4.293      7.459
REMARK SMILES Nc1nonc1C(=O)N1[C@@H]2CC[C@H]1C[C@H](CC(=O)NCCCNC(=O)c1ccc(-c3c4nc(c(-c5cccc(S(=O)(=O)[O-])c5F)c5ccc([nH]5)c(-c5cccc(S(=O)(=O)[O-])c5F)c5nc(c(-c6cccc(S(=O)(=O)[O-])c6F)c6ccc3[nH]6)C=C5)C=C4)cc1)C2
REMARK SMILES IDX 20 1 19 2 17 3 18 4 16 6 15 7 9 8 10 9 13 10 11 11 89 12
REMARK SMILES IDX 12 13 14 14 7 15 8 16 6 17 2 18 3 19 4 20 5 21 1 22 21 25
REMARK SMILES IDX 22 26 23 27 24 28 25 30 26 31 27 32 88 33 28 34 87 35 29 36
REMARK SMILES IDX 30 37 31 38 81 39 32 40 86 41 80 42 82 43 33 44 85 45 79 46
REMARK SMILES IDX 78 47 34 49 66 50 46 51 65 52 47 53 50 54 64 55 83 56 48 57
REMARK SMILES IDX 49 58 63 60 84 61 51 62 35 63 36 64 44 65 37 66 39 67 45 68
REMARK SMILES IDX 38 69 40 70 41 71 42 72 43 73 67 74 68 75 76 76 69 77 71 78
REMARK SMILES IDX 77 79 70 80 72 81 73 82 74 83 75 84 52 85 53 86 61 87 54 88
REMARK SMILES IDX 56 89 62 90 55 91 57 92 58 93 59 94 60 95
REMARK H PARENT 19 5 1 23 1 24 23 29 82 48 50 59
REMARK Flexibility Score: inf
ROOT
ATOM      1  C   UNL A   1      31.622  28.633  24.165  1.00  0.00     0.117 C 
ENDROOT
BRANCH   1   2
ATOM      2  N   UNL A   1      32.599  28.439  23.099  1.00  0.00    -0.356 N 
ATOM      3  C   UNL A   1      33.146  27.311  22.560  1.00  0.00     0.220 C 
ATOM      4  O   UNL A   1      33.944  27.447  21.629  1.00  0.00    -0.275 OA
ATOM      5  H   UNL A   1      32.924  29.276  22.697  1.00  0.00     0.163 HD
BRANCH   3   6
ATOM      6  C   UNL A   1      32.802  25.924  23.075  1.00  0.00     0.103 C 
BRANCH   6   7
ATOM      7  C   UNL A   1      34.039  25.086  23.482  1.00  0.00     0.002 C 
ATOM      8  N   UNL A   1      34.068  22.827  25.244  1.00  0.00    -0.331 N 
ATOM      9  C   UNL A   1      34.584  22.602  23.901  1.00  0.00     0.086 C 
ATOM     10  C   UNL A   1      34.821  23.968  25.725  1.00  0.00     0.086 C 
ATOM     11  C   UNL A   1      36.096  22.872  24.009  1.00  0.00     0.027 C 
ATOM     12  C   UNL A   1      33.876  23.622  22.998  1.00  0.00     0.029 C 
ATOM     13  C   UNL A   1      36.256  23.684  25.296  1.00  0.00     0.027 C 
ATOM     14  C   UNL A   1      34.268  25.200  25.003  1.00  0.00     0.029 C 
BRANCH   8  15
ATOM     15  C   UNL A   1      33.850  21.720  26.064  1.00  0.00     0.280 C 
ATOM     16  O   UNL A   1      34.144  21.757  27.257  1.00  0.00    -0.267 OA
BRANCH  15  17
ATOM     17  C   UNL A   1      33.449  20.482  25.384  1.00  0.00     0.216 A 
ATOM     18  C   UNL A   1      34.170  19.347  24.922  1.00  0.00     0.201 A 
ATOM     19  N   UNL A   1      33.319  18.425  24.477  1.00  0.00    -0.032 NA
ATOM     20  O   UNL A   1      32.067  18.998  24.590  1.00  0.00    -0.242 OA
ATOM     21  N   UNL A   1      32.144  20.260  25.148  1.00  0.00    -0.042 NA
BRANCH  18  22
ATOM     22  N   UNL A   1      35.500  19.159  24.873  1.00  0.00    -0.379 N 
ATOM     23  H   UNL A   1      36.109  19.862  25.194  1.00  0.00     0.158 HD
ATOM     24  H   UNL A   1      35.865  18.317  24.516  1.00  0.00     0.158 HD
ENDBRANCH  18  22
ENDBRANCH  15  17
ENDBRANCH   8  15
ENDBRANCH   6   7
ENDBRANCH   3   6
ENDBRANCH   1   2
BRANCH   1  25
ATOM     25  C   UNL A   1      32.240  28.521  25.560  1.00  0.00     0.042 C 
BRANCH  25  26
ATOM     26  C   UNL A   1      33.514  29.324  25.772  1.00  0.00     0.118 C 
BRANCH  26  27
ATOM     27  N   UNL A   1      33.230  30.675  26.216  1.00  0.00    -0.352 N 
ATOM     28  C   UNL A   1      33.762  31.397  27.259  1.00  0.00     0.251 C 
ATOM     29  H   UNL A   1      32.549  31.151  25.688  1.00  0.00     0.163 HD
ATOM     30  O   UNL A   1      33.193  32.435  27.593  1.00  0.00    -0.269 OA
BRANCH  28  31
ATOM     31  C   UNL A   1      34.984  30.959  27.989  1.00  0.00     0.039 A 
ATOM     32  C   UNL A   1      36.096  31.810  27.994  1.00  0.00     0.014 A 
ATOM     33  C   UNL A   1      35.092  29.704  28.594  1.00  0.00     0.014 A 
ATOM     34  C   UNL A   1      37.290  31.414  28.610  1.00  0.00     0.010 A 
ATOM     35  C   UNL A   1      36.251  29.347  29.288  1.00  0.00     0.010 A 
ATOM     36  C   UNL A   1      37.377  30.180  29.275  1.00  0.00    -0.014 A 
BRANCH  36  37
ATOM     37  C   UNL A   1      38.650  29.740  29.914  1.00  0.00     0.031 A 
ATOM     38  C   UNL A   1      39.053  30.273  31.267  1.00  0.00     0.074 A 
ATOM     39  C   UNL A   1      39.472  28.894  29.262  1.00  0.00     0.049 A 
ATOM     40  N   UNL A   1      40.112  29.988  31.984  1.00  0.00    -0.248 NA
ATOM     41  C   UNL A   1      38.172  31.278  31.885  1.00  0.00     0.031 C 
ATOM     42  C   UNL A   1      39.253  28.374  27.911  1.00  0.00     0.029 A 
ATOM     43  N   UNL A   1      40.667  28.333  29.643  1.00  0.00    -0.354 N 
ATOM     44  C   UNL A   1      40.041  30.800  33.111  1.00  0.00     0.074 A 
ATOM     45  C   UNL A   1      38.858  31.619  32.965  1.00  0.00     0.031 C 
ATOM     46  C   UNL A   1      40.270  27.561  27.582  1.00  0.00     0.029 A 
ATOM     47  C   UNL A   1      41.218  27.507  28.691  1.00  0.00     0.049 A 
ATOM     48  H   UNL A   1      41.088  28.505  30.516  1.00  0.00     0.167 HD
ATOM     49  C   UNL A   1      40.860  30.838  34.190  1.00  0.00     0.034 A 
ATOM     50  C   UNL A   1      42.350  26.775  28.713  1.00  0.00     0.034 A 
ATOM     51  C   UNL A   1      41.999  29.977  34.368  1.00  0.00     0.049 A 
ATOM     52  C   UNL A   1      43.192  26.761  29.961  1.00  0.00     0.074 A 
ATOM     53  C   UNL A   1      42.835  29.872  35.467  1.00  0.00     0.029 A 
ATOM     54  N   UNL A   1      42.458  29.069  33.429  1.00  0.00    -0.354 N 
ATOM     55  N   UNL A   1      43.010  27.409  31.085  1.00  0.00    -0.248 NA
ATOM     56  C   UNL A   1      44.368  25.877  29.961  1.00  0.00     0.031 C 
ATOM     57  C   UNL A   1      43.805  28.903  35.186  1.00  0.00     0.029 A 
ATOM     58  C   UNL A   1      43.562  28.395  33.920  1.00  0.00     0.049 A 
ATOM     59  H   UNL A   1      42.057  28.924  32.541  1.00  0.00     0.167 HD
ATOM     60  C   UNL A   1      44.022  26.983  31.940  1.00  0.00     0.074 A 
ATOM     61  C   UNL A   1      44.802  26.006  31.207  1.00  0.00     0.031 C 
ATOM     62  C   UNL A   1      44.291  27.378  33.208  1.00  0.00     0.034 A 
BRANCH  49  63
ATOM     63  C   UNL A   1      40.511  31.793  35.303  1.00  0.00     0.023 A 
ATOM     64  C   UNL A   1      41.275  32.966  35.471  1.00  0.00     0.012 A 
ATOM     65  C   UNL A   1      39.403  31.566  36.142  1.00  0.00     0.148 A 
ATOM     66  C   UNL A   1      40.965  33.880  36.477  1.00  0.00     0.002 A 
ATOM     67  C   UNL A   1      39.074  32.504  37.116  1.00  0.00     0.091 A 
ATOM     68  F   UNL A   1      38.700  30.436  35.984  1.00  0.00    -0.205 F 
ATOM     69  C   UNL A   1      39.860  33.655  37.291  1.00  0.00     0.022 A 
BRANCH  67  70
ATOM     70  S   UNL A   1      37.624  32.341  38.165  1.00  0.00     0.127 S 
ATOM     71  O   UNL A   1      38.082  32.973  39.401  1.00  0.00    -0.237 OA
ATOM     72  O   UNL A   1      36.618  33.105  37.425  1.00  0.00    -0.237 OA
ATOM     73  O   UNL A   1      37.353  30.913  38.252  1.00  0.00    -0.744 OA
ENDBRANCH  67  70
ENDBRANCH  49  63
BRANCH  50  74
ATOM     74  C   UNL A   1      42.695  25.911  27.549  1.00  0.00     0.023 A 
ATOM     75  C   UNL A   1      43.562  26.406  26.555  1.00  0.00     0.012 A 
ATOM     76  C   UNL A   1      42.205  24.596  27.440  1.00  0.00     0.148 A 
ATOM     77  C   UNL A   1      43.914  25.617  25.459  1.00  0.00     0.002 A 
ATOM     78  C   UNL A   1      42.602  23.797  26.374  1.00  0.00     0.091 A 
ATOM     79  F   UNL A   1      41.368  24.148  28.387  1.00  0.00    -0.205 F 
ATOM     80  C   UNL A   1      43.443  24.310  25.374  1.00  0.00     0.022 A 
BRANCH  78  81
ATOM     81  S   UNL A   1      42.152  22.061  26.264  1.00  0.00     0.127 S 
ATOM     82  O   UNL A   1      40.712  22.139  26.035  1.00  0.00    -0.237 OA
ATOM     83  O   UNL A   1      42.936  21.614  25.112  1.00  0.00    -0.237 OA
ATOM     84  O   UNL A   1      42.567  21.474  27.531  1.00  0.00    -0.744 OA
ENDBRANCH  78  81
ENDBRANCH  50  74
BRANCH  62  85
ATOM     85  C   UNL A   1      45.455  26.730  33.911  1.00  0.00     0.023 A 
ATOM     86  C   UNL A   1      46.714  27.361  33.903  1.00  0.00     0.012 A 
ATOM     87  C   UNL A   1      45.282  25.537  34.638  1.00  0.00     0.148 A 
ATOM     88  C   UNL A   1      47.794  26.796  34.582  1.00  0.00     0.002 A 
ATOM     89  C   UNL A   1      46.352  25.003  35.349  1.00  0.00     0.091 A 
ATOM     90  F   UNL A   1      44.082  24.939  34.617  1.00  0.00    -0.205 F 
ATOM     91  C   UNL A   1      47.610  25.625  35.313  1.00  0.00     0.022 A 
BRANCH  89  92
ATOM     92  S   UNL A   1      46.172  23.550  36.391  1.00  0.00     0.127 S 
ATOM     93  O   UNL A   1      47.463  23.510  37.074  1.00  0.00    -0.237 OA
ATOM     94  O   UNL A   1      45.040  23.913  37.246  1.00  0.00    -0.237 OA
ATOM     95  O   UNL A   1      45.903  22.444  35.480  1.00  0.00    -0.744 OA
ENDBRANCH  89  92
ENDBRANCH  62  85
ENDBRANCH  36  37
ENDBRANCH  28  31
ENDBRANCH  26  27
ENDBRANCH  25  26
ENDBRANCH   1  25
TORSDOF 17
ENDMDL
MODEL 3
REMARK VINA RESULT:     -10.9      4.260      7.471
REMARK SMILES Nc1nonc1C(=O)N1[C@@H]2CC[C@H]1C[C@H](CC(=O)NCCCNC(=O)c1ccc(-c3c4nc(c(-c5cccc(S(=O)(=O)[O-])c5F)c5ccc([nH]5)c(-c5cccc(S(=O)(=O)[O-])c5F)c5nc(c(-c6cccc(S(=O)(=O)[O-])c6F)c6ccc3[nH]6)C=C5)C=C4)cc1)C2
REMARK SMILES IDX 20 1 19 2 17 3 18 4 16 6 15 7 9 8 10 9 13 10 11 11 89 12
REMARK SMILES IDX 12 13 14 14 7 15 8 16 6 17 2 18 3 19 4 20 5 21 1 22 21 25
REMARK SMILES IDX 22 26 23 27 24 28 25 30 26 31 27 32 88 33 28 34 87 35 29 36
REMARK SMILES IDX 30 37 31 38 81 39 32 40 86 41 80 42 82 43 33 44 85 45 79 46
REMARK SMILES IDX 78 47 34 49 66 50 46 51 65 52 47 53 50 54 64 55 83 56 48 57
REMARK SMILES IDX 49 58 63 60 84 61 51 62 35 63 36 64 44 65 37 66 39 67 45 68
REMARK SMILES IDX 38 69 40 70 41 71 42 72 43 73 67 74 68 75 76 76 69 77 71 78
REMARK SMILES IDX 77 79 70 80 72 81 73 82 74 83 75 84 52 85 53 86 61 87 54 88
REMARK SMILES IDX 56 89 62 90 55 91 57 92 58 93 59 94 60 95
REMARK H PARENT 19 5 1 23 1 24 23 29 82 48 50 59
REMARK Flexibility Score: inf
ROOT
ATOM      1  C   UNL A   1      32.222  28.054  24.287  1.00  0.00     0.117 C 
ENDROOT
BRANCH   1   2
ATOM      2  N   UNL A   1      31.563  27.286  25.338  1.00  0.00    -0.356 N 
ATOM      3  C   UNL A   1      31.440  25.943  25.544  1.00  0.00     0.220 C 
ATOM      4  O   UNL A   1      30.840  25.568  26.554  1.00  0.00    -0.275 OA
ATOM      5  H   UNL A   1      31.126  27.840  26.025  1.00  0.00     0.163 HD
BRANCH   3   6
ATOM      6  C   UNL A   1      32.011  24.924  24.572  1.00  0.00     0.103 C 
BRANCH   6   7
ATOM      7  C   UNL A   1      33.518  24.637  24.785  1.00  0.00     0.002 C 
ATOM      8  N   UNL A   1      34.747  22.062  25.045  1.00  0.00    -0.331 N 
ATOM      9  C   UNL A   1      35.245  22.907  23.969  1.00  0.00     0.086 C 
ATOM     10  C   UNL A   1      34.852  22.896  26.226  1.00  0.00     0.086 C 
ATOM     11  C   UNL A   1      36.425  23.678  24.587  1.00  0.00     0.027 C 
ATOM     12  C   UNL A   1      34.084  23.835  23.585  1.00  0.00     0.029 C 
ATOM     13  C   UNL A   1      36.217  23.562  26.098  1.00  0.00     0.027 C 
ATOM     14  C   UNL A   1      33.728  23.931  26.140  1.00  0.00     0.029 C 
BRANCH   8  15
ATOM     15  C   UNL A   1      35.146  20.726  25.078  1.00  0.00     0.280 C 
ATOM     16  O   UNL A   1      36.338  20.428  25.039  1.00  0.00    -0.267 OA
BRANCH  15  17
ATOM     17  C   UNL A   1      34.074  19.730  24.958  1.00  0.00     0.216 A 
ATOM     18  C   UNL A   1      34.071  18.326  24.730  1.00  0.00     0.201 A 
ATOM     19  N   UNL A   1      32.829  17.858  24.831  1.00  0.00    -0.032 NA
ATOM     20  O   UNL A   1      32.037  18.967  25.054  1.00  0.00    -0.242 OA
ATOM     21  N   UNL A   1      32.798  20.117  25.133  1.00  0.00    -0.042 NA
BRANCH  18  22
ATOM     22  N   UNL A   1      35.103  17.522  24.421  1.00  0.00    -0.379 N 
ATOM     23  H   UNL A   1      35.648  17.704  23.622  1.00  0.00     0.158 HD
ATOM     24  H   UNL A   1      35.315  16.751  24.996  1.00  0.00     0.158 HD
ENDBRANCH  18  22
ENDBRANCH  15  17
ENDBRANCH   8  15
ENDBRANCH   6   7
ENDBRANCH   3   6
ENDBRANCH   1   2
BRANCH   1  25
ATOM     25  C   UNL A   1      33.665  28.421  24.642  1.00  0.00     0.042 C 
BRANCH  25  26
ATOM     26  C   UNL A   1      33.929  28.661  26.119  1.00  0.00     0.118 C 
BRANCH  26  27
ATOM     27  N   UNL A   1      33.840  30.068  26.459  1.00  0.00    -0.352 N 
ATOM     28  C   UNL A   1      34.567  30.812  27.359  1.00  0.00     0.251 C 
ATOM     29  H   UNL A   1      33.150  30.570  25.968  1.00  0.00     0.163 HD
ATOM     30  O   UNL A   1      34.151  31.932  27.653  1.00  0.00    -0.269 OA
BRANCH  28  31
ATOM     31  C   UNL A   1      35.820  30.304  27.984  1.00  0.00     0.039 A 
ATOM     32  C   UNL A   1      37.004  30.358  27.239  1.00  0.00     0.014 A 
ATOM     33  C   UNL A   1      35.842  29.703  29.246  1.00  0.00     0.014 A 
ATOM     34  C   UNL A   1      38.193  29.831  27.759  1.00  0.00     0.010 A 
ATOM     35  C   UNL A   1      37.047  29.263  29.801  1.00  0.00     0.010 A 
ATOM     36  C   UNL A   1      38.231  29.287  29.053  1.00  0.00    -0.014 A 
BRANCH  36  37
ATOM     37  C   UNL A   1      39.486  28.705  29.606  1.00  0.00     0.031 A 
ATOM     38  C   UNL A   1      40.108  29.271  30.859  1.00  0.00     0.074 A 
ATOM     39  C   UNL A   1      40.099  27.693  28.959  1.00  0.00     0.049 A 
ATOM     40  N   UNL A   1      41.184  28.881  31.495  1.00  0.00    -0.248 NA
ATOM     41  C   UNL A   1      39.456  30.446  31.463  1.00  0.00     0.031 C 
ATOM     42  C   UNL A   1      39.661  27.111  27.689  1.00  0.00     0.029 A 
ATOM     43  N   UNL A   1      41.232  26.984  29.275  1.00  0.00    -0.354 N 
ATOM     44  C   UNL A   1      41.356  29.778  32.543  1.00  0.00     0.074 A 
ATOM     45  C   UNL A   1      40.299  30.758  32.436  1.00  0.00     0.031 C 
ATOM     46  C   UNL A   1      40.505  26.126  27.342  1.00  0.00     0.029 A 
ATOM     47  C   UNL A   1      41.550  26.010  28.355  1.00  0.00     0.049 A 
ATOM     48  H   UNL A   1      41.767  27.154  30.084  1.00  0.00     0.167 HD
ATOM     49  C   UNL A   1      42.284  29.770  33.531  1.00  0.00     0.034 A 
ATOM     50  C   UNL A   1      42.557  25.115  28.337  1.00  0.00     0.034 A 
ATOM     51  C   UNL A   1      43.296  28.759  33.679  1.00  0.00     0.049 A 
ATOM     52  C   UNL A   1      43.518  25.067  29.495  1.00  0.00     0.074 A 
ATOM     53  C   UNL A   1      44.222  28.610  34.698  1.00  0.00     0.029 A 
ATOM     54  N   UNL A   1      43.512  27.722  32.788  1.00  0.00    -0.354 N 
ATOM     55  N   UNL A   1      43.557  25.819  30.567  1.00  0.00    -0.248 NA
ATOM     56  C   UNL A   1      44.544  24.013  29.465  1.00  0.00     0.031 C 
ATOM     57  C   UNL A   1      45.002  27.483  34.417  1.00  0.00     0.029 A 
ATOM     58  C   UNL A   1      44.552  26.923  33.232  1.00  0.00     0.049 A 
ATOM     59  H   UNL A   1      43.000  27.572  31.960  1.00  0.00     0.167 HD
ATOM     60  C   UNL A   1      44.581  25.308  31.357  1.00  0.00     0.074 A 
ATOM     61  C   UNL A   1      45.125  24.168  30.647  1.00  0.00     0.031 C 
ATOM     62  C   UNL A   1      45.041  25.753  32.551  1.00  0.00     0.034 A 
BRANCH  49  63
ATOM     63  C   UNL A   1      42.202  30.852  34.579  1.00  0.00     0.023 A 
ATOM     64  C   UNL A   1      41.490  30.604  35.771  1.00  0.00     0.012 A 
ATOM     65  C   UNL A   1      42.869  32.081  34.417  1.00  0.00     0.148 A 
ATOM     66  C   UNL A   1      41.413  31.575  36.769  1.00  0.00     0.002 A 
ATOM     67  C   UNL A   1      42.823  33.028  35.436  1.00  0.00     0.091 A 
ATOM     68  F   UNL A   1      43.523  32.309  33.270  1.00  0.00    -0.205 F 
ATOM     69  C   UNL A   1      42.087  32.781  36.606  1.00  0.00     0.022 A 
BRANCH  67  70
ATOM     70  S   UNL A   1      43.722  34.582  35.353  1.00  0.00     0.127 S 
ATOM     71  O   UNL A   1      43.058  35.247  34.232  1.00  0.00    -0.237 OA
ATOM     72  O   UNL A   1      43.445  35.172  36.663  1.00  0.00    -0.237 OA
ATOM     73  O   UNL A   1      45.117  34.224  35.134  1.00  0.00    -0.744 OA
ENDBRANCH  67  70
ENDBRANCH  49  63
BRANCH  50  74
ATOM     74  C   UNL A   1      42.643  24.121  27.231  1.00  0.00     0.023 A 
ATOM     75  C   UNL A   1      43.404  24.427  26.085  1.00  0.00     0.012 A 
ATOM     76  C   UNL A   1      42.013  22.866  27.321  1.00  0.00     0.148 A 
ATOM     77  C   UNL A   1      43.514  23.512  25.038  1.00  0.00     0.002 A 
ATOM     78  C   UNL A   1      42.170  21.938  26.298  1.00  0.00     0.091 A 
ATOM     79  F   UNL A   1      41.280  22.599  28.412  1.00  0.00    -0.205 F 
ATOM     80  C   UNL A   1      42.907  22.264  25.148  1.00  0.00     0.022 A 
BRANCH  78  81
ATOM     81  S   UNL A   1      41.537  20.262  26.425  1.00  0.00     0.127 S 
ATOM     82  O   UNL A   1      40.098  20.474  26.286  1.00  0.00    -0.237 OA
ATOM     83  O   UNL A   1      42.176  19.606  25.283  1.00  0.00    -0.237 OA
ATOM     84  O   UNL A   1      41.989  19.775  27.722  1.00  0.00    -0.744 OA
ENDBRANCH  78  81
ENDBRANCH  50  74
BRANCH  62  85
ATOM     85  C   UNL A   1      46.166  24.988  33.197  1.00  0.00     0.023 A 
ATOM     86  C   UNL A   1      47.494  25.430  33.037  1.00  0.00     0.012 A 
ATOM     87  C   UNL A   1      45.901  23.876  34.020  1.00  0.00     0.148 A 
ATOM     88  C   UNL A   1      48.545  24.757  33.660  1.00  0.00     0.002 A 
ATOM     89  C   UNL A   1      46.950  23.238  34.674  1.00  0.00     0.091 A 
ATOM     90  F   UNL A   1      44.634  23.456  34.144  1.00  0.00    -0.205 F 
ATOM     91  C   UNL A   1      48.272  23.670  34.486  1.00  0.00     0.022 A 
BRANCH  89  92
ATOM     92  S   UNL A   1      46.671  21.889  35.828  1.00  0.00     0.127 S 
ATOM     93  O   UNL A   1      45.917  20.944  35.007  1.00  0.00    -0.237 OA
ATOM     94  O   UNL A   1      48.034  21.464  36.151  1.00  0.00    -0.237 OA
ATOM     95  O   UNL A   1      45.945  22.474  36.949  1.00  0.00    -0.744 OA
ENDBRANCH  89  92
ENDBRANCH  62  85
ENDBRANCH  36  37
ENDBRANCH  28  31
ENDBRANCH  26  27
ENDBRANCH  25  26
ENDBRANCH   1  25
TORSDOF 17
ENDMDL
