MODEL 1
REMARK VINA RESULT:     -11.6      0.000      0.000
REMARK SMILES CC(C)[C@@H]1CN(C(=O)Cc2ccsc2)C[C@H]1C(=O)NCCCNC(=O)c1ccc(-c2c3nc(c(-c4cccc(S(=O)(=O)[O-])c4F)c4ccc([nH]4)c(-c4cccc(S(=O)(=O)[O-])c4F)c4nc(c(-c5cccc(S(=O)(=O)[O-])c5F)c5ccc2[nH]5)C=C4)C=C3)cc1
REMARK SMILES IDX 21 1 20 2 19 3 17 4 18 5 16 7 4 8 5 9 6 10 15 11 2 12 1 13
REMARK SMILES IDX 3 14 7 15 8 16 9 17 10 18 11 19 14 20 12 21 13 22 22 23
REMARK SMILES IDX 23 24 24 25 25 27 26 28 27 29 88 30 28 31 87 32 29 33 30 34
REMARK SMILES IDX 31 35 81 36 32 37 86 38 80 39 82 40 33 41 85 42 79 43 78 44
REMARK SMILES IDX 34 46 66 47 46 48 65 49 47 50 50 51 64 52 83 53 48 54 49 55
REMARK SMILES IDX 63 57 84 58 51 59 35 60 36 61 44 62 37 63 39 64 45 65 38 66
REMARK SMILES IDX 40 67 41 68 42 69 43 70 67 71 68 72 76 73 69 74 71 75 77 76
REMARK SMILES IDX 70 77 72 78 73 79 74 80 75 81 52 82 53 83 61 84 54 85 56 86
REMARK SMILES IDX 62 87 55 88 57 89 58 90 59 91 60 92
REMARK H PARENT 19 6 23 26 82 45 50 56
REMARK Flexibility Score: inf
ROOT
ATOM      1  C   UNL A   1      31.847  28.859  26.509  1.00  0.00     0.042 C 
ENDROOT
BRANCH   1   2
ATOM      2  C   UNL A   1      32.041  27.397  26.133  1.00  0.00     0.117 C 
BRANCH   2   3
ATOM      3  N   UNL A   1      30.911  26.566  26.517  1.00  0.00    -0.356 N 
ATOM      4  C   UNL A   1      29.995  25.892  25.774  1.00  0.00     0.225 C 
ATOM      5  O   UNL A   1      29.155  25.221  26.380  1.00  0.00    -0.275 OA
ATOM      6  H   UNL A   1      30.788  26.475  27.490  1.00  0.00     0.163 HD
BRANCH   4   7
ATOM      7  C   UNL A   1      29.974  25.939  24.258  1.00  0.00     0.103 C 
ATOM      8  C   UNL A   1      30.340  27.315  23.652  1.00  0.00     0.025 C 
ATOM      9  C   UNL A   1      31.050  26.939  22.350  1.00  0.00     0.124 C 
ATOM     10  N   UNL A   1      31.689  25.668  22.647  1.00  0.00    -0.341 N 
ATOM     11  C   UNL A   1      30.926  24.923  23.629  1.00  0.00     0.133 C 
BRANCH   8  12
ATOM     12  C   UNL A   1      29.204  28.376  23.541  1.00  0.00    -0.012 C 
ATOM     13  C   UNL A   1      29.396  29.345  22.367  1.00  0.00     0.008 C 
ATOM     14  C   UNL A   1      27.779  27.820  23.502  1.00  0.00     0.008 C 
ENDBRANCH   8  12
BRANCH  10  15
ATOM     15  C   UNL A   1      32.820  25.127  22.070  1.00  0.00     0.227 C 
ATOM     16  O   UNL A   1      33.441  25.731  21.192  1.00  0.00    -0.275 OA
BRANCH  15  17
ATOM     17  C   UNL A   1      33.270  23.749  22.527  1.00  0.00     0.136 C 
BRANCH  17  18
ATOM     18  C   UNL A   1      34.419  23.754  23.501  1.00  0.00    -0.028 A 
ATOM     19  C   UNL A   1      34.453  24.602  24.660  1.00  0.00     0.016 A 
ATOM     20  C   UNL A   1      35.562  22.974  23.444  1.00  0.00     0.069 A 
ATOM     21  C   UNL A   1      35.608  24.456  25.396  1.00  0.00     0.065 A 
ATOM     22  S   UNL A   1      36.660  23.299  24.713  1.00  0.00    -0.152 S 
ENDBRANCH  17  18
ENDBRANCH  15  17
ENDBRANCH  10  15
ENDBRANCH   4   7
ENDBRANCH   2   3
ENDBRANCH   1   2
BRANCH   1  23
ATOM     23  C   UNL A   1      32.814  29.813  25.822  1.00  0.00     0.118 C 
BRANCH  23  24
ATOM     24  N   UNL A   1      32.617  31.197  26.228  1.00  0.00    -0.352 N 
ATOM     25  C   UNL A   1      33.254  31.941  27.188  1.00  0.00     0.251 C 
ATOM     26  H   UNL A   1      31.914  31.677  25.732  1.00  0.00     0.163 HD
ATOM     27  O   UNL A   1      32.791  33.038  27.497  1.00  0.00    -0.269 OA
BRANCH  25  28
ATOM     28  C   UNL A   1      34.473  31.438  27.858  1.00  0.00     0.039 A 
ATOM     29  C   UNL A   1      35.564  32.302  28.002  1.00  0.00     0.014 A 
ATOM     30  C   UNL A   1      34.567  30.120  28.310  1.00  0.00     0.014 A 
ATOM     31  C   UNL A   1      36.724  31.855  28.640  1.00  0.00     0.010 A 
ATOM     32  C   UNL A   1      35.687  29.706  29.028  1.00  0.00     0.010 A 
ATOM     33  C   UNL A   1      36.784  30.562  29.185  1.00  0.00    -0.014 A 
BRANCH  33  34
ATOM     34  C   UNL A   1      37.989  30.097  29.917  1.00  0.00     0.031 A 
ATOM     35  C   UNL A   1      38.272  30.579  31.316  1.00  0.00     0.074 A 
ATOM     36  C   UNL A   1      38.872  29.291  29.294  1.00  0.00     0.049 A 
ATOM     37  N   UNL A   1      39.276  30.285  32.101  1.00  0.00    -0.248 NA
ATOM     38  C   UNL A   1      37.319  31.538  31.898  1.00  0.00     0.031 C 
ATOM     39  C   UNL A   1      38.767  28.839  27.904  1.00  0.00     0.029 A 
ATOM     40  N   UNL A   1      40.041  28.728  29.738  1.00  0.00    -0.354 N 
ATOM     41  C   UNL A   1      39.093  31.042  33.253  1.00  0.00     0.074 A 
ATOM     42  C   UNL A   1      37.908  31.844  33.044  1.00  0.00     0.031 C 
ATOM     43  C   UNL A   1      39.824  28.064  27.613  1.00  0.00     0.029 A 
ATOM     44  C   UNL A   1      40.689  27.978  28.785  1.00  0.00     0.049 A 
ATOM     45  H   UNL A   1      40.384  28.850  30.654  1.00  0.00     0.167 HD
ATOM     46  C   UNL A   1      39.820  31.041  34.396  1.00  0.00     0.034 A 
ATOM     47  C   UNL A   1      41.849  27.296  28.848  1.00  0.00     0.034 A 
ATOM     48  C   UNL A   1      40.974  30.211  34.616  1.00  0.00     0.049 A 
ATOM     49  C   UNL A   1      42.598  27.248  30.151  1.00  0.00     0.074 A 
ATOM     50  C   UNL A   1      41.733  30.076  35.764  1.00  0.00     0.029 A 
ATOM     51  N   UNL A   1      41.539  29.376  33.664  1.00  0.00    -0.354 N 
ATOM     52  N   UNL A   1      42.314  27.840  31.286  1.00  0.00    -0.248 NA
ATOM     53  C   UNL A   1      43.798  26.402  30.197  1.00  0.00     0.031 C 
ATOM     54  C   UNL A   1      42.766  29.166  35.502  1.00  0.00     0.029 A 
ATOM     55  C   UNL A   1      42.637  28.721  34.196  1.00  0.00     0.049 A 
ATOM     56  H   UNL A   1      41.208  29.265  32.742  1.00  0.00     0.167 HD
ATOM     57  C   UNL A   1      43.283  27.417  32.189  1.00  0.00     0.074 A 
ATOM     58  C   UNL A   1      44.143  26.495  31.474  1.00  0.00     0.031 C 
ATOM     59  C   UNL A   1      43.457  27.773  33.486  1.00  0.00     0.034 A 
BRANCH  46  60
ATOM     60  C   UNL A   1      39.341  31.921  35.523  1.00  0.00     0.023 A 
ATOM     61  C   UNL A   1      38.441  31.396  36.475  1.00  0.00     0.012 A 
ATOM     62  C   UNL A   1      39.801  33.244  35.668  1.00  0.00     0.148 A 
ATOM     63  C   UNL A   1      37.975  32.183  37.526  1.00  0.00     0.002 A 
ATOM     64  C   UNL A   1      39.366  34.010  36.745  1.00  0.00     0.091 A 
ATOM     65  F   UNL A   1      40.637  33.737  34.743  1.00  0.00    -0.205 F 
ATOM     66  C   UNL A   1      38.445  33.486  37.667  1.00  0.00     0.022 A 
BRANCH  64  67
ATOM     67  S   UNL A   1      39.974  35.671  37.058  1.00  0.00     0.127 S 
ATOM     68  O   UNL A   1      39.255  36.023  38.282  1.00  0.00    -0.237 OA
ATOM     69  O   UNL A   1      41.409  35.448  37.240  1.00  0.00    -0.237 OA
ATOM     70  O   UNL A   1      39.628  36.452  35.880  1.00  0.00    -0.744 OA
ENDBRANCH  64  67
ENDBRANCH  46  60
BRANCH  47  71
ATOM     71  C   UNL A   1      42.321  26.537  27.655  1.00  0.00     0.023 A 
ATOM     72  C   UNL A   1      43.157  27.169  26.716  1.00  0.00     0.012 A 
ATOM     73  C   UNL A   1      41.991  25.178  27.477  1.00  0.00     0.148 A 
ATOM     74  C   UNL A   1      43.633  26.473  25.605  1.00  0.00     0.002 A 
ATOM     75  C   UNL A   1      42.515  24.475  26.399  1.00  0.00     0.091 A 
ATOM     76  F   UNL A   1      41.185  24.597  28.378  1.00  0.00    -0.205 F 
ATOM     77  C   UNL A   1      43.322  25.124  25.452  1.00  0.00     0.022 A 
BRANCH  75  78
ATOM     78  S   UNL A   1      42.286  22.703  26.211  1.00  0.00     0.127 S 
ATOM     79  O   UNL A   1      40.829  22.598  26.119  1.00  0.00    -0.237 OA
ATOM     80  O   UNL A   1      43.000  22.437  24.959  1.00  0.00    -0.237 OA
ATOM     81  O   UNL A   1      42.893  22.100  27.384  1.00  0.00    -0.744 OA
ENDBRANCH  75  78
ENDBRANCH  47  71
BRANCH  59  82
ATOM     82  C   UNL A   1      44.613  27.152  34.224  1.00  0.00     0.023 A 
ATOM     83  C   UNL A   1      45.878  27.774  34.195  1.00  0.00     0.012 A 
ATOM     84  C   UNL A   1      44.439  25.979  34.987  1.00  0.00     0.148 A 
ATOM     85  C   UNL A   1      46.959  27.218  34.877  1.00  0.00     0.002 A 
ATOM     86  C   UNL A   1      45.510  25.457  35.703  1.00  0.00     0.091 A 
ATOM     87  F   UNL A   1      43.235  25.388  34.986  1.00  0.00    -0.205 F 
ATOM     88  C   UNL A   1      46.773  26.067  35.639  1.00  0.00     0.022 A 
BRANCH  86  89
ATOM     89  S   UNL A   1      45.331  24.032  36.781  1.00  0.00     0.127 S 
ATOM     90  O   UNL A   1      44.672  23.071  35.899  1.00  0.00    -0.237 OA
ATOM     91  O   UNL A   1      46.722  23.707  37.105  1.00  0.00    -0.237 OA
ATOM     92  O   UNL A   1      44.544  24.491  37.917  1.00  0.00    -0.744 OA
ENDBRANCH  86  89
ENDBRANCH  59  82
ENDBRANCH  33  34
ENDBRANCH  25  28
ENDBRANCH  23  24
ENDBRANCH   1  23
TORSDOF 17
ENDMDL
MODEL 2
REMARK VINA RESULT:     -11.4      4.806      9.770
REMARK SMILES CC(C)[C@@H]1CN(C(=O)Cc2ccsc2)C[C@H]1C(=O)NCCCNC(=O)c1ccc(-c2c3nc(c(-c4cccc(S(=O)(=O)[O-])c4F)c4ccc([nH]4)c(-c4cccc(S(=O)(=O)[O-])c4F)c4nc(c(-c5cccc(S(=O)(=O)[O-])c5F)c5ccc2[nH]5)C=C4)C=C3)cc1
REMARK SMILES IDX 21 1 20 2 19 3 17 4 18 5 16 7 4 8 5 9 6 10 15 11 2 12 1 13
REMARK SMILES IDX 3 14 7 15 8 16 9 17 10 18 11 19 14 20 12 21 13 22 22 23
REMARK SMILES IDX 23 24 24 25 25 27 26 28 27 29 88 30 28 31 87 32 29 33 30 34
REMARK SMILES IDX 31 35 81 36 32 37 86 38 80 39 82 40 33 41 85 42 79 43 78 44
REMARK SMILES IDX 34 46 66 47 46 48 65 49 47 50 50 51 64 52 83 53 48 54 49 55
REMARK SMILES IDX 63 57 84 58 51 59 35 60 36 61 44 62 37 63 39 64 45 65 38 66
REMARK SMILES IDX 40 67 41 68 42 69 43 70 67 71 68 72 76 73 69 74 71 75 77 76
REMARK SMILES IDX 70 77 72 78 73 79 74 80 75 81 52 82 53 83 61 84 54 85 56 86
REMARK SMILES IDX 62 87 55 88 57 89 58 90 59 91 60 92
REMARK H PARENT 19 6 23 26 82 45 50 56
REMARK Flexibility Score: inf
ROOT
ATOM      1  C   UNL A   1      36.359  23.874  24.688  1.00  0.00     0.042 C 
ENDROOT
BRANCH   1   2
ATOM      2  C   UNL A   1      34.901  24.236  24.448  1.00  0.00     0.117 C 
BRANCH   2   3
ATOM      3  N   UNL A   1      34.505  24.069  23.059  1.00  0.00    -0.356 N 
ATOM      4  C   UNL A   1      33.411  23.492  22.497  1.00  0.00     0.225 C 
ATOM      5  O   UNL A   1      33.315  23.534  21.268  1.00  0.00    -0.275 OA
ATOM      6  H   UNL A   1      35.144  24.442  22.408  1.00  0.00     0.163 HD
BRANCH   4   7
ATOM      7  C   UNL A   1      32.329  22.815  23.317  1.00  0.00     0.103 C 
ATOM      8  C   UNL A   1      32.849  22.033  24.547  1.00  0.00     0.025 C 
ATOM      9  C   UNL A   1      31.719  22.203  25.564  1.00  0.00     0.124 C 
ATOM     10  N   UNL A   1      31.152  23.505  25.254  1.00  0.00    -0.341 N 
ATOM     11  C   UNL A   1      31.289  23.803  23.841  1.00  0.00     0.133 C 
BRANCH   8  12
ATOM     12  C   UNL A   1      33.356  20.579  24.311  1.00  0.00    -0.012 C 
ATOM     13  C   UNL A   1      34.767  20.335  24.863  1.00  0.00     0.008 C 
ATOM     14  C   UNL A   1      32.429  19.465  24.801  1.00  0.00     0.008 C 
ENDBRANCH   8  12
BRANCH  10  15
ATOM     15  C   UNL A   1      30.488  24.370  26.099  1.00  0.00     0.227 C 
ATOM     16  O   UNL A   1      30.051  23.989  27.189  1.00  0.00    -0.275 OA
BRANCH  15  17
ATOM     17  C   UNL A   1      30.285  25.805  25.644  1.00  0.00     0.136 C 
BRANCH  17  18
ATOM     18  C   UNL A   1      31.405  26.744  26.007  1.00  0.00    -0.028 A 
ATOM     19  C   UNL A   1      31.409  27.523  27.214  1.00  0.00     0.016 A 
ATOM     20  C   UNL A   1      32.557  26.987  25.278  1.00  0.00     0.069 A 
ATOM     21  C   UNL A   1      32.520  28.328  27.329  1.00  0.00     0.065 A 
ATOM     22  S   UNL A   1      33.575  28.156  25.998  1.00  0.00    -0.152 S 
ENDBRANCH  17  18
ENDBRANCH  15  17
ENDBRANCH  10  15
ENDBRANCH   4   7
ENDBRANCH   2   3
ENDBRANCH   1   2
BRANCH   1  23
ATOM     23  C   UNL A   1      36.666  23.429  26.111  1.00  0.00     0.118 C 
BRANCH  23  24
ATOM     24  N   UNL A   1      37.770  22.483  26.175  1.00  0.00    -0.352 N 
ATOM     25  C   UNL A   1      39.103  22.687  26.428  1.00  0.00     0.251 C 
ATOM     26  H   UNL A   1      37.520  21.544  26.011  1.00  0.00     0.163 HD
ATOM     27  O   UNL A   1      39.894  21.765  26.240  1.00  0.00    -0.269 OA
BRANCH  25  28
ATOM     28  C   UNL A   1      39.594  23.996  26.911  1.00  0.00     0.039 A 
ATOM     29  C   UNL A   1      39.947  24.969  25.970  1.00  0.00     0.014 A 
ATOM     30  C   UNL A   1      39.748  24.262  28.274  1.00  0.00     0.014 A 
ATOM     31  C   UNL A   1      40.404  26.217  26.398  1.00  0.00     0.010 A 
ATOM     32  C   UNL A   1      40.113  25.537  28.700  1.00  0.00     0.010 A 
ATOM     33  C   UNL A   1      40.463  26.522  27.768  1.00  0.00    -0.014 A 
BRANCH  33  34
ATOM     34  C   UNL A   1      40.890  27.866  28.235  1.00  0.00     0.031 A 
ATOM     35  C   UNL A   1      42.348  28.241  28.262  1.00  0.00     0.074 A 
ATOM     36  C   UNL A   1      39.966  28.729  28.703  1.00  0.00     0.049 A 
ATOM     37  N   UNL A   1      42.903  29.363  28.643  1.00  0.00    -0.248 NA
ATOM     38  C   UNL A   1      43.312  27.214  27.833  1.00  0.00     0.031 C 
ATOM     39  C   UNL A   1      38.534  28.446  28.828  1.00  0.00     0.029 A 
ATOM     40  N   UNL A   1      40.095  30.007  29.181  1.00  0.00    -0.354 N 
ATOM     41  C   UNL A   1      44.275  29.167  28.529  1.00  0.00     0.074 A 
ATOM     42  C   UNL A   1      44.469  27.804  28.088  1.00  0.00     0.031 C 
ATOM     43  C   UNL A   1      37.917  29.521  29.343  1.00  0.00     0.029 A 
ATOM     44  C   UNL A   1      38.909  30.561  29.601  1.00  0.00     0.049 A 
ATOM     45  H   UNL A   1      40.956  30.484  29.221  1.00  0.00     0.167 HD
ATOM     46  C   UNL A   1      45.281  30.052  28.732  1.00  0.00     0.034 A 
ATOM     47  C   UNL A   1      38.646  31.771  30.132  1.00  0.00     0.034 A 
ATOM     48  C   UNL A   1      45.081  31.420  29.130  1.00  0.00     0.049 A 
ATOM     49  C   UNL A   1      39.768  32.763  30.276  1.00  0.00     0.074 A 
ATOM     50  C   UNL A   1      46.025  32.419  29.286  1.00  0.00     0.029 A 
ATOM     51  N   UNL A   1      43.852  31.981  29.439  1.00  0.00    -0.354 N 
ATOM     52  N   UNL A   1      41.041  32.612  30.000  1.00  0.00    -0.248 NA
ATOM     53  C   UNL A   1      39.411  34.104  30.757  1.00  0.00     0.031 C 
ATOM     54  C   UNL A   1      45.366  33.583  29.701  1.00  0.00     0.029 A 
ATOM     55  C   UNL A   1      44.009  33.313  29.784  1.00  0.00     0.049 A 
ATOM     56  H   UNL A   1      42.991  31.502  29.416  1.00  0.00     0.167 HD
ATOM     57  C   UNL A   1      41.633  33.846  30.248  1.00  0.00     0.074 A 
ATOM     58  C   UNL A   1      40.571  34.739  30.667  1.00  0.00     0.031 C 
ATOM     59  C   UNL A   1      42.938  34.201  30.157  1.00  0.00     0.034 A 
BRANCH  46  60
ATOM     60  C   UNL A   1      46.686  29.580  28.458  1.00  0.00     0.023 A 
ATOM     61  C   UNL A   1      47.220  29.714  27.159  1.00  0.00     0.012 A 
ATOM     62  C   UNL A   1      47.492  29.041  29.480  1.00  0.00     0.148 A 
ATOM     63  C   UNL A   1      48.513  29.284  26.870  1.00  0.00     0.002 A 
ATOM     64  C   UNL A   1      48.797  28.654  29.195  1.00  0.00     0.091 A 
ATOM     65  F   UNL A   1      46.964  28.897  30.703  1.00  0.00    -0.205 F 
ATOM     66  C   UNL A   1      49.305  28.763  27.890  1.00  0.00     0.022 A 
BRANCH  64  67
ATOM     67  S   UNL A   1      49.923  28.046  30.456  1.00  0.00     0.127 S 
ATOM     68  O   UNL A   1      49.943  29.166  31.398  1.00  0.00    -0.237 OA
ATOM     69  O   UNL A   1      49.226  26.855  30.945  1.00  0.00    -0.237 OA
ATOM     70  O   UNL A   1      51.179  27.776  29.775  1.00  0.00    -0.744 OA
ENDBRANCH  64  67
ENDBRANCH  46  60
BRANCH  47  71
ATOM     71  C   UNL A   1      37.244  32.131  30.485  1.00  0.00     0.023 A 
ATOM     72  C   UNL A   1      36.792  31.946  31.805  1.00  0.00     0.012 A 
ATOM     73  C   UNL A   1      36.377  32.705  29.535  1.00  0.00     0.148 A 
ATOM     74  C   UNL A   1      35.492  32.300  32.167  1.00  0.00     0.002 A 
ATOM     75  C   UNL A   1      35.102  33.108  29.916  1.00  0.00     0.091 A 
ATOM     76  F   UNL A   1      36.824  32.864  28.281  1.00  0.00    -0.205 F 
ATOM     77  C   UNL A   1      34.651  32.891  31.227  1.00  0.00     0.022 A 
BRANCH  75  78
ATOM     78  S   UNL A   1      34.012  34.010  28.809  1.00  0.00     0.127 S 
ATOM     79  O   UNL A   1      34.895  35.072  28.321  1.00  0.00    -0.237 OA
ATOM     80  O   UNL A   1      33.677  32.987  27.815  1.00  0.00    -0.237 OA
ATOM     81  O   UNL A   1      32.891  34.442  29.624  1.00  0.00    -0.744 OA
ENDBRANCH  75  78
ENDBRANCH  47  71
BRANCH  59  82
ATOM     82  C   UNL A   1      43.292  35.625  30.500  1.00  0.00     0.023 A 
ATOM     83  C   UNL A   1      43.653  35.957  31.821  1.00  0.00     0.012 A 
ATOM     84  C   UNL A   1      43.315  36.624  29.507  1.00  0.00     0.148 A 
ATOM     85  C   UNL A   1      43.991  37.267  32.158  1.00  0.00     0.002 A 
ATOM     86  C   UNL A   1      43.699  37.918  29.839  1.00  0.00     0.091 A 
ATOM     87  F   UNL A   1      42.948  36.297  28.259  1.00  0.00    -0.205 F 
ATOM     88  C   UNL A   1      44.024  38.244  31.166  1.00  0.00     0.022 A 
BRANCH  86  89
ATOM     89  S   UNL A   1      43.857  39.214  28.605  1.00  0.00     0.127 S 
ATOM     90  O   UNL A   1      44.604  40.234  29.338  1.00  0.00    -0.237 OA
ATOM     91  O   UNL A   1      44.616  38.546  27.545  1.00  0.00    -0.237 OA
ATOM     92  O   UNL A   1      42.496  39.573  28.232  1.00  0.00    -0.744 OA
ENDBRANCH  86  89
ENDBRANCH  59  82
ENDBRANCH  33  34
ENDBRANCH  25  28
ENDBRANCH  23  24
ENDBRANCH   1  23
TORSDOF 17
ENDMDL
MODEL 3
REMARK VINA RESULT:     -11.4      2.072      2.779
REMARK SMILES CC(C)[C@@H]1CN(C(=O)Cc2ccsc2)C[C@H]1C(=O)NCCCNC(=O)c1ccc(-c2c3nc(c(-c4cccc(S(=O)(=O)[O-])c4F)c4ccc([nH]4)c(-c4cccc(S(=O)(=O)[O-])c4F)c4nc(c(-c5cccc(S(=O)(=O)[O-])c5F)c5ccc2[nH]5)C=C4)C=C3)cc1
REMARK SMILES IDX 21 1 20 2 19 3 17 4 18 5 16 7 4 8 5 9 6 10 15 11 2 12 1 13
REMARK SMILES IDX 3 14 7 15 8 16 9 17 10 18 11 19 14 20 12 21 13 22 22 23
REMARK SMILES IDX 23 24 24 25 25 27 26 28 27 29 88 30 28 31 87 32 29 33 30 34
REMARK SMILES IDX 31 35 81 36 32 37 86 38 80 39 82 40 33 41 85 42 79 43 78 44
REMARK SMILES IDX 34 46 66 47 46 48 65 49 47 50 50 51 64 52 83 53 48 54 49 55
REMARK SMILES IDX 63 57 84 58 51 59 35 60 36 61 44 62 37 63 39 64 45 65 38 66
REMARK SMILES IDX 40 67 41 68 42 69 43 70 67 71 68 72 76 73 69 74 71 75 77 76
REMARK SMILES IDX 70 77 72 78 73 79 74 80 75 81 52 82 53 83 61 84 54 85 56 86
REMARK SMILES IDX 62 87 55 88 57 89 58 90 59 91 60 92
REMARK H PARENT 19 6 23 26 82 45 50 56
REMARK Flexibility Score: inf
ROOT
ATOM      1  C   UNL A   1      33.611  28.957  24.160  1.00  0.00     0.042 C 
ENDROOT
BRANCH   1   2
ATOM      2  C   UNL A   1      32.544  28.770  23.091  1.00  0.00     0.117 C 
BRANCH   2   3
ATOM      3  N   UNL A   1      32.896  27.742  22.124  1.00  0.00    -0.356 N 
ATOM      4  C   UNL A   1      33.080  26.403  22.260  1.00  0.00     0.225 C 
ATOM      5  O   UNL A   1      33.338  25.759  21.240  1.00  0.00    -0.275 OA
ATOM      6  H   UNL A   1      33.024  28.076  21.206  1.00  0.00     0.163 HD
BRANCH   4   7
ATOM      7  C   UNL A   1      32.981  25.694  23.597  1.00  0.00     0.103 C 
ATOM      8  C   UNL A   1      31.559  25.209  23.965  1.00  0.00     0.025 C 
ATOM      9  C   UNL A   1      31.827  23.927  24.756  1.00  0.00     0.124 C 
ATOM     10  N   UNL A   1      33.048  23.396  24.173  1.00  0.00    -0.341 N 
ATOM     11  C   UNL A   1      33.890  24.468  23.676  1.00  0.00     0.133 C 
BRANCH   8  12
ATOM     12  C   UNL A   1      30.596  26.241  24.623  1.00  0.00    -0.012 C 
ATOM     13  C   UNL A   1      29.485  26.718  23.678  1.00  0.00     0.008 C 
ATOM     14  C   UNL A   1      29.972  25.812  25.952  1.00  0.00     0.008 C 
ENDBRANCH   8  12
BRANCH  10  15
ATOM     15  C   UNL A   1      33.470  22.084  24.125  1.00  0.00     0.227 C 
ATOM     16  O   UNL A   1      34.513  21.727  24.679  1.00  0.00    -0.275 OA
BRANCH  15  17
ATOM     17  C   UNL A   1      32.629  21.086  23.346  1.00  0.00     0.136 C 
BRANCH  17  18
ATOM     18  C   UNL A   1      32.663  19.680  23.883  1.00  0.00    -0.028 A 
ATOM     19  C   UNL A   1      32.538  18.522  23.042  1.00  0.00     0.016 A 
ATOM     20  C   UNL A   1      32.824  19.297  25.204  1.00  0.00     0.069 A 
ATOM     21  C   UNL A   1      32.575  17.340  23.749  1.00  0.00     0.065 A 
ATOM     22  S   UNL A   1      32.767  17.603  25.425  1.00  0.00    -0.152 S 
ENDBRANCH  17  18
ENDBRANCH  15  17
ENDBRANCH  10  15
ENDBRANCH   4   7
ENDBRANCH   2   3
ENDBRANCH   1   2
BRANCH   1  23
ATOM     23  C   UNL A   1      33.060  29.086  25.573  1.00  0.00     0.118 C 
BRANCH  23  24
ATOM     24  N   UNL A   1      32.678  30.452  25.902  1.00  0.00    -0.352 N 
ATOM     25  C   UNL A   1      33.141  31.293  26.883  1.00  0.00     0.251 C 
ATOM     26  H   UNL A   1      31.975  30.834  25.329  1.00  0.00     0.163 HD
ATOM     27  O   UNL A   1      32.536  32.340  27.105  1.00  0.00    -0.269 OA
BRANCH  25  28
ATOM     28  C   UNL A   1      34.342  30.951  27.676  1.00  0.00     0.039 A 
ATOM     29  C   UNL A   1      34.427  29.678  28.249  1.00  0.00     0.014 A 
ATOM     30  C   UNL A   1      35.364  31.879  27.892  1.00  0.00     0.014 A 
ATOM     31  C   UNL A   1      35.555  29.325  28.994  1.00  0.00     0.010 A 
ATOM     32  C   UNL A   1      36.527  31.495  28.554  1.00  0.00     0.010 A 
ATOM     33  C   UNL A   1      36.629  30.221  29.127  1.00  0.00    -0.014 A 
BRANCH  33  34
ATOM     34  C   UNL A   1      37.858  29.835  29.866  1.00  0.00     0.031 A 
ATOM     35  C   UNL A   1      38.130  30.384  31.242  1.00  0.00     0.074 A 
ATOM     36  C   UNL A   1      38.768  29.042  29.267  1.00  0.00     0.049 A 
ATOM     37  N   UNL A   1      39.152  30.163  32.029  1.00  0.00    -0.248 NA
ATOM     38  C   UNL A   1      37.143  31.326  31.795  1.00  0.00     0.031 C 
ATOM     39  C   UNL A   1      38.672  28.532  27.898  1.00  0.00     0.029 A 
ATOM     40  N   UNL A   1      39.963  28.547  29.723  1.00  0.00    -0.354 N 
ATOM     41  C   UNL A   1      38.946  30.957  33.152  1.00  0.00     0.074 A 
ATOM     42  C   UNL A   1      37.727  31.700  32.923  1.00  0.00     0.031 C 
ATOM     43  C   UNL A   1      39.758  27.790  27.628  1.00  0.00     0.029 A 
ATOM     44  C   UNL A   1      40.635  27.787  28.794  1.00  0.00     0.049 A 
ATOM     45  H   UNL A   1      40.307  28.719  30.630  1.00  0.00     0.167 HD
ATOM     46  C   UNL A   1      39.680  31.032  34.288  1.00  0.00     0.034 A 
ATOM     47  C   UNL A   1      41.823  27.156  28.873  1.00  0.00     0.034 A 
ATOM     48  C   UNL A   1      40.870  30.260  34.529  1.00  0.00     0.049 A 
ATOM     49  C   UNL A   1      42.583  27.192  30.171  1.00  0.00     0.074 A 
ATOM     50  C   UNL A   1      41.642  30.202  35.675  1.00  0.00     0.029 A 
ATOM     51  N   UNL A   1      41.462  29.412  33.606  1.00  0.00    -0.354 N 
ATOM     52  N   UNL A   1      42.282  27.815  31.284  1.00  0.00    -0.248 NA
ATOM     53  C   UNL A   1      43.817  26.398  30.239  1.00  0.00     0.031 C 
ATOM     54  C   UNL A   1      42.710  29.326  35.440  1.00  0.00     0.029 A 
ATOM     55  C   UNL A   1      42.590  28.824  34.154  1.00  0.00     0.049 A 
ATOM     56  H   UNL A   1      41.129  29.250  32.693  1.00  0.00     0.167 HD
ATOM     57  C   UNL A   1      43.275  27.469  32.194  1.00  0.00     0.074 A 
ATOM     58  C   UNL A   1      44.167  26.556  31.508  1.00  0.00     0.031 C 
ATOM     59  C   UNL A   1      43.444  27.884  33.474  1.00  0.00     0.034 A 
BRANCH  46  60
ATOM     60  C   UNL A   1      39.173  31.935  35.383  1.00  0.00     0.023 A 
ATOM     61  C   UNL A   1      39.359  33.330  35.270  1.00  0.00     0.012 A 
ATOM     62  C   UNL A   1      38.486  31.422  36.500  1.00  0.00     0.148 A 
ATOM     63  C   UNL A   1      38.907  34.193  36.266  1.00  0.00     0.002 A 
ATOM     64  C   UNL A   1      37.998  32.292  37.468  1.00  0.00     0.091 A 
ATOM     65  F   UNL A   1      38.338  30.094  36.606  1.00  0.00    -0.205 F 
ATOM     66  C   UNL A   1      38.218  33.675  37.360  1.00  0.00     0.022 A 
BRANCH  64  67
ATOM     67  S   UNL A   1      37.030  31.731  38.874  1.00  0.00     0.127 S 
ATOM     68  O   UNL A   1      37.980  31.900  39.973  1.00  0.00    -0.237 OA
ATOM     69  O   UNL A   1      35.916  32.682  38.882  1.00  0.00    -0.237 OA
ATOM     70  O   UNL A   1      36.651  30.358  38.576  1.00  0.00    -0.744 OA
ENDBRANCH  64  67
ENDBRANCH  46  60
BRANCH  47  71
ATOM     71  C   UNL A   1      42.317  26.370  27.707  1.00  0.00     0.023 A 
ATOM     72  C   UNL A   1      43.231  26.957  26.812  1.00  0.00     0.012 A 
ATOM     73  C   UNL A   1      41.928  25.030  27.513  1.00  0.00     0.148 A 
ATOM     74  C   UNL A   1      43.729  26.234  25.728  1.00  0.00     0.002 A 
ATOM     75  C   UNL A   1      42.472  24.297  26.465  1.00  0.00     0.091 A 
ATOM     76  F   UNL A   1      41.049  24.493  28.371  1.00  0.00    -0.205 F 
ATOM     77  C   UNL A   1      43.359  24.902  25.560  1.00  0.00     0.022 A 
BRANCH  75  78
ATOM     78  S   UNL A   1      42.164  22.538  26.266  1.00  0.00     0.127 S 
ATOM     79  O   UNL A   1      40.702  22.495  26.215  1.00  0.00    -0.237 OA
ATOM     80  O   UNL A   1      42.830  22.257  24.991  1.00  0.00    -0.237 OA
ATOM     81  O   UNL A   1      42.779  21.898  27.415  1.00  0.00    -0.744 OA
ENDBRANCH  75  78
ENDBRANCH  47  71
BRANCH  59  82
ATOM     82  C   UNL A   1      44.630  27.341  34.226  1.00  0.00     0.023 A 
ATOM     83  C   UNL A   1      45.855  28.037  34.197  1.00  0.00     0.012 A 
ATOM     84  C   UNL A   1      44.522  26.168  35.000  1.00  0.00     0.148 A 
ATOM     85  C   UNL A   1      46.964  27.555  34.892  1.00  0.00     0.002 A 
ATOM     86  C   UNL A   1      45.617  25.718  35.728  1.00  0.00     0.091 A 
ATOM     87  F   UNL A   1      43.356  25.505  34.999  1.00  0.00    -0.205 F 
ATOM     88  C   UNL A   1      46.842  26.402  35.665  1.00  0.00     0.022 A 
BRANCH  86  89
ATOM     89  S   UNL A   1      45.518  24.296  36.821  1.00  0.00     0.127 S 
ATOM     90  O   UNL A   1      46.860  24.271  37.400  1.00  0.00    -0.237 OA
ATOM     91  O   UNL A   1      44.459  24.690  37.752  1.00  0.00    -0.237 OA
ATOM     92  O   UNL A   1      45.176  23.166  35.969  1.00  0.00    -0.744 OA
ENDBRANCH  86  89
ENDBRANCH  59  82
ENDBRANCH  33  34
ENDBRANCH  25  28
ENDBRANCH  23  24
ENDBRANCH   1  23
TORSDOF 17
ENDMDL
