MODEL 1
REMARK VINA RESULT:     -12.4      0.000      0.000
REMARK SMILES O=C(NCCCNC(=O)[C@H](CO)NC(=O)[C@H](Cc1c[nH]c2ccccc12)NC(=O)[C@H](Cc1ccc(O)cc1)NC(=O)c1ccc(F)cc1)c1ccc(-c2c3nc(c(-c4cccc(S(=O)(=O)[O-])c4F)c4ccc([nH]4)c(-c4cccc(S(=O)(=O)[O-])c4F)c4nc(c(-c5cccc(S(=O)(=O)[O-])c5F)c5ccc2[nH]5)C=C4)C=C3)cc1
REMARK SMILES IDX 7 1 8 2 9 3 6 5 5 6 4 7 3 8 1 9 2 10 49 12 50 13 111 14
REMARK SMILES IDX 51 15 110 16 52 17 53 18 54 19 104 20 55 21 109 22 103 23
REMARK SMILES IDX 105 24 56 25 108 26 102 27 101 28 57 30 89 31 69 32 88 33
REMARK SMILES IDX 70 34 73 35 87 36 106 37 71 38 72 39 86 41 107 42 74 43
REMARK SMILES IDX 58 44 59 45 67 46 60 47 62 48 68 49 61 50 63 51 64 52 65 53
REMARK SMILES IDX 66 54 90 55 91 56 99 57 92 58 94 59 100 60 93 61 95 62 96 63
REMARK SMILES IDX 97 64 98 65 75 66 76 67 84 68 77 69 79 70 85 71 78 72 80 73
REMARK SMILES IDX 81 74 82 75 83 76 10 77 13 78 14 79 15 81 16 82 27 83 28 84
REMARK SMILES IDX 29 86 30 87 39 88 40 89 41 91 42 92 43 93 48 94 44 95 47 96
REMARK SMILES IDX 45 97 46 98 31 99 32 100 33 101 38 102 34 103 37 104 35 105
REMARK SMILES IDX 36 106 17 108 18 109 19 110 26 111 20 112 21 113 25 114
REMARK SMILES IDX 22 116 24 117 23 118 11 119 12 120
REMARK H PARENT 7 4 3 11 105 29 73 40 13 80 27 85 39 90 36 107 20 115 12 121
REMARK Flexibility Score: inf
ROOT
ATOM      1  N   UNL A   1      30.200  31.158  24.706  1.00  0.00    -0.354 N 
ATOM      2  C   UNL A   1      29.664  30.441  23.682  1.00  0.00     0.244 C 
ATOM      3  O   UNL A   1      28.746  30.991  23.060  1.00  0.00    -0.273 OA
ATOM      4  H   UNL A   1      29.733  32.009  24.873  1.00  0.00     0.163 HD
ENDROOT
BRANCH   1   5
ATOM      5  C   UNL A   1      31.322  30.926  25.605  1.00  0.00     0.117 C 
BRANCH   5   6
ATOM      6  C   UNL A   1      31.321  31.925  26.759  1.00  0.00     0.042 C 
BRANCH   6   7
ATOM      7  C   UNL A   1      32.721  32.422  27.115  1.00  0.00     0.118 C 
BRANCH   7   8
ATOM      8  N   UNL A   1      32.733  33.836  27.474  1.00  0.00    -0.352 N 
ATOM      9  O   UNL A   1      33.111  35.647  28.745  1.00  0.00    -0.269 OA
ATOM     10  C   UNL A   1      33.439  34.500  28.446  1.00  0.00     0.251 C 
ATOM     11  H   UNL A   1      32.139  34.404  26.932  1.00  0.00     0.163 HD
BRANCH  10  12
ATOM     12  C   UNL A   1      34.570  33.841  29.131  1.00  0.00     0.039 A 
ATOM     13  C   UNL A   1      35.857  34.370  29.036  1.00  0.00     0.014 A 
ATOM     14  C   UNL A   1      34.340  32.698  29.902  1.00  0.00     0.014 A 
ATOM     15  C   UNL A   1      36.934  33.667  29.560  1.00  0.00     0.010 A 
ATOM     16  C   UNL A   1      35.415  32.048  30.517  1.00  0.00     0.010 A 
ATOM     17  C   UNL A   1      36.726  32.503  30.317  1.00  0.00    -0.014 A 
BRANCH  17  18
ATOM     18  C   UNL A   1      37.898  31.815  30.918  1.00  0.00     0.031 A 
ATOM     19  C   UNL A   1      38.270  32.027  32.362  1.00  0.00     0.074 A 
ATOM     20  C   UNL A   1      38.614  30.964  30.153  1.00  0.00     0.049 A 
ATOM     21  N   UNL A   1      39.236  31.472  33.046  1.00  0.00    -0.248 NA
ATOM     22  C   UNL A   1      37.462  32.982  33.139  1.00  0.00     0.031 C 
ATOM     23  C   UNL A   1      38.370  30.707  28.731  1.00  0.00     0.029 A 
ATOM     24  N   UNL A   1      39.679  30.155  30.456  1.00  0.00    -0.354 N 
ATOM     25  C   UNL A   1      39.181  32.036  34.315  1.00  0.00     0.074 A 
ATOM     26  C   UNL A   1      38.089  32.984  34.308  1.00  0.00     0.031 C 
ATOM     27  C   UNL A   1      39.231  29.778  28.296  1.00  0.00     0.029 A 
ATOM     28  C   UNL A   1      40.131  29.419  29.385  1.00  0.00     0.049 A 
ATOM     29  H   UNL A   1      40.082  30.106  31.353  1.00  0.00     0.167 HD
ATOM     30  C   UNL A   1      39.958  31.770  35.392  1.00  0.00     0.034 A 
ATOM     31  C   UNL A   1      41.166  28.563  29.281  1.00  0.00     0.034 A 
ATOM     32  C   UNL A   1      41.008  30.788  35.406  1.00  0.00     0.049 A 
ATOM     33  C   UNL A   1      42.003  28.283  30.497  1.00  0.00     0.074 A 
ATOM     34  C   UNL A   1      41.798  30.397  36.473  1.00  0.00     0.029 A 
ATOM     35  N   UNL A   1      41.421  30.049  34.309  1.00  0.00    -0.354 N 
ATOM     36  N   UNL A   1      41.850  28.733  31.719  1.00  0.00    -0.248 NA
ATOM     37  C   UNL A   1      43.139  27.367  30.330  1.00  0.00     0.031 C 
ATOM     38  C   UNL A   1      42.710  29.443  36.014  1.00  0.00     0.029 A 
ATOM     39  C   UNL A   1      42.468  29.218  34.669  1.00  0.00     0.049 A 
ATOM     40  H   UNL A   1      41.028  30.106  33.408  1.00  0.00     0.167 HD
ATOM     41  C   UNL A   1      42.862  28.146  32.469  1.00  0.00     0.074 A 
ATOM     42  C   UNL A   1      43.600  27.282  31.572  1.00  0.00     0.031 C 
ATOM     43  C   UNL A   1      43.165  28.328  33.777  1.00  0.00     0.034 A 
BRANCH  30  44
ATOM     44  C   UNL A   1      39.685  32.509  36.676  1.00  0.00     0.023 A 
ATOM     45  C   UNL A   1      40.364  33.714  36.942  1.00  0.00     0.012 A 
ATOM     46  C   UNL A   1      38.661  32.082  37.548  1.00  0.00     0.148 A 
ATOM     47  C   UNL A   1      40.036  34.480  38.060  1.00  0.00     0.002 A 
ATOM     48  C   UNL A   1      38.311  32.873  38.636  1.00  0.00     0.091 A 
ATOM     49  F   UNL A   1      38.038  30.925  37.282  1.00  0.00    -0.205 F 
ATOM     50  C   UNL A   1      39.002  34.068  38.898  1.00  0.00     0.022 A 
BRANCH  48  51
ATOM     51  S   UNL A   1      36.941  32.477  39.728  1.00  0.00     0.127 S 
ATOM     52  O   UNL A   1      35.796  32.639  38.832  1.00  0.00    -0.237 OA
ATOM     53  O   UNL A   1      37.235  31.093  40.097  1.00  0.00    -0.237 OA
ATOM     54  O   UNL A   1      37.007  33.433  40.825  1.00  0.00    -0.744 OA
ENDBRANCH  48  51
ENDBRANCH  30  44
BRANCH  31  55
ATOM     55  C   UNL A   1      41.442  27.894  27.978  1.00  0.00     0.023 A 
ATOM     56  C   UNL A   1      41.851  28.664  26.873  1.00  0.00     0.012 A 
ATOM     57  C   UNL A   1      41.356  26.494  27.845  1.00  0.00     0.148 A 
ATOM     58  C   UNL A   1      42.152  28.054  25.654  1.00  0.00     0.002 A 
ATOM     59  C   UNL A   1      41.718  25.887  26.649  1.00  0.00     0.091 A 
ATOM     60  F   UNL A   1      40.946  25.779  28.902  1.00  0.00    -0.205 F 
ATOM     61  C   UNL A   1      42.099  26.666  25.546  1.00  0.00     0.022 A 
BRANCH  59  62
ATOM     62  S   UNL A   1      41.828  24.103  26.473  1.00  0.00     0.127 S 
ATOM     63  O   UNL A   1      40.420  23.713  26.487  1.00  0.00    -0.237 OA
ATOM     64  O   UNL A   1      42.492  23.968  25.176  1.00  0.00    -0.237 OA
ATOM     65  O   UNL A   1      42.624  23.646  27.603  1.00  0.00    -0.744 OA
ENDBRANCH  59  62
ENDBRANCH  31  55
BRANCH  43  66
ATOM     66  C   UNL A   1      44.344  27.579  34.338  1.00  0.00     0.023 A 
ATOM     67  C   UNL A   1      45.628  28.151  34.259  1.00  0.00     0.012 A 
ATOM     68  C   UNL A   1      44.160  26.379  35.053  1.00  0.00     0.148 A 
ATOM     69  C   UNL A   1      46.717  27.534  34.871  1.00  0.00     0.002 A 
ATOM     70  C   UNL A   1      45.240  25.795  35.704  1.00  0.00     0.091 A 
ATOM     71  F   UNL A   1      42.931  25.847  35.103  1.00  0.00    -0.205 F 
ATOM     72  C   UNL A   1      46.521  26.365  35.605  1.00  0.00     0.022 A 
BRANCH  70  73
ATOM     73  S   UNL A   1      45.070  24.351  36.758  1.00  0.00     0.127 S 
ATOM     74  O   UNL A   1      44.088  24.811  37.739  1.00  0.00    -0.237 OA
ATOM     75  O   UNL A   1      44.571  23.344  35.821  1.00  0.00    -0.237 OA
ATOM     76  O   UNL A   1      46.398  24.080  37.291  1.00  0.00    -0.744 OA
ENDBRANCH  70  73
ENDBRANCH  43  66
ENDBRANCH  17  18
ENDBRANCH  10  12
ENDBRANCH   7   8
ENDBRANCH   6   7
ENDBRANCH   5   6
ENDBRANCH   1   5
BRANCH   2  77
ATOM     77  C   UNL A   1      29.984  28.960  23.397  1.00  0.00     0.197 C 
BRANCH  77  78
ATOM     78  N   UNL A   1      28.921  27.988  23.582  1.00  0.00    -0.340 N 
ATOM     79  C   UNL A   1      28.863  26.658  23.827  1.00  0.00     0.243 C 
ATOM     80  H   UNL A   1      28.027  28.395  23.511  1.00  0.00     0.164 HD
ATOM     81  O   UNL A   1      27.746  26.300  24.213  1.00  0.00    -0.273 OA
BRANCH  79  82
ATOM     82  C   UNL A   1      29.996  25.632  23.496  1.00  0.00     0.175 C 
BRANCH  82  83
ATOM     83  N   UNL A   1      30.943  26.024  22.422  1.00  0.00    -0.342 N 
ATOM     84  C   UNL A   1      32.122  25.494  21.968  1.00  0.00     0.243 C 
ATOM     85  H   UNL A   1      30.666  26.834  21.936  1.00  0.00     0.164 HD
ATOM     86  O   UNL A   1      32.696  26.125  21.074  1.00  0.00    -0.273 OA
BRANCH  84  87
ATOM     87  C   UNL A   1      32.790  24.226  22.568  1.00  0.00     0.176 C 
BRANCH  87  88
ATOM     88  N   UNL A   1      32.179  22.977  22.117  1.00  0.00    -0.340 N 
ATOM     89  C   UNL A   1      32.203  21.724  22.677  1.00  0.00     0.251 C 
ATOM     90  H   UNL A   1      31.670  23.045  21.277  1.00  0.00     0.164 HD
ATOM     91  O   UNL A   1      31.809  20.779  21.997  1.00  0.00    -0.269 OA
BRANCH  89  92
ATOM     92  C   UNL A   1      32.699  21.478  24.062  1.00  0.00     0.040 A 
ATOM     93  C   UNL A   1      33.823  20.695  24.367  1.00  0.00     0.017 A 
ATOM     94  C   UNL A   1      32.034  22.139  25.103  1.00  0.00     0.017 A 
ATOM     95  C   UNL A   1      34.234  20.520  25.691  1.00  0.00     0.040 A 
ATOM     96  C   UNL A   1      32.460  21.988  26.424  1.00  0.00     0.040 A 
ATOM     97  C   UNL A   1      33.549  21.172  26.706  1.00  0.00     0.123 A 
ATOM     98  F   UNL A   1      33.966  21.038  27.971  1.00  0.00    -0.207 F 
ENDBRANCH  89  92
ENDBRANCH  87  88
BRANCH  87  99
ATOM     99  C   UNL A   1      34.332  24.232  22.340  1.00  0.00     0.070 C 
BRANCH  99 100
ATOM    100  C   UNL A   1      35.124  23.834  23.574  1.00  0.00    -0.045 A 
ATOM    101  C   UNL A   1      36.276  23.036  23.465  1.00  0.00     0.007 A 
ATOM    102  C   UNL A   1      34.792  24.377  24.822  1.00  0.00     0.007 A 
ATOM    103  C   UNL A   1      37.161  22.923  24.538  1.00  0.00     0.046 A 
ATOM    104  C   UNL A   1      35.657  24.229  25.907  1.00  0.00     0.046 A 
ATOM    105  C   UNL A   1      36.854  23.544  25.743  1.00  0.00     0.115 A 
BRANCH 105 106
ATOM    106  O   UNL A   1      37.729  23.525  26.788  1.00  0.00    -0.508 OA
ATOM    107  H   UNL A   1      37.991  22.707  27.166  1.00  0.00     0.293 HD
ENDBRANCH 105 106
ENDBRANCH  99 100
ENDBRANCH  87  99
ENDBRANCH  84  87
ENDBRANCH  82  83
BRANCH  82 108
ATOM    108  C   UNL A   1      30.786  25.157  24.752  1.00  0.00     0.072 C 
BRANCH 108 109
ATOM    109  C   UNL A   1      31.171  26.235  25.732  1.00  0.00    -0.020 A 
ATOM    110  C   UNL A   1      30.498  26.514  26.909  1.00  0.00     0.087 A 
ATOM    111  C   UNL A   1      32.281  27.148  25.686  1.00  0.00     0.003 A 
ATOM    112  N   UNL A   1      31.222  27.431  27.621  1.00  0.00    -0.361 N 
ATOM    113  C   UNL A   1      32.333  27.814  26.911  1.00  0.00     0.046 A 
ATOM    114  C   UNL A   1      33.269  27.465  24.736  1.00  0.00     0.010 A 
ATOM    115  H   UNL A   1      30.980  27.768  28.514  1.00  0.00     0.166 HD
ATOM    116  C   UNL A   1      33.364  28.697  27.260  1.00  0.00     0.026 A 
ATOM    117  C   UNL A   1      34.308  28.348  25.060  1.00  0.00     0.001 A 
ATOM    118  C   UNL A   1      34.364  28.940  26.316  1.00  0.00     0.002 A 
ENDBRANCH 108 109
ENDBRANCH  82 108
ENDBRANCH  79  82
ENDBRANCH  77  78
BRANCH  77 119
ATOM    119  C   UNL A   1      30.516  28.864  21.955  1.00  0.00     0.191 C 
BRANCH 119 120
ATOM    120  O   UNL A   1      31.105  30.094  21.530  1.00  0.00    -0.394 OA
ATOM    121  H   UNL A   1      31.872  30.295  22.089  1.00  0.00     0.210 HD
ENDBRANCH 119 120
ENDBRANCH  77 119
ENDBRANCH   2  77
TORSDOF 26
ENDMDL
MODEL 2
REMARK VINA RESULT:     -12.2      1.719      6.963
REMARK SMILES O=C(NCCCNC(=O)[C@H](CO)NC(=O)[C@H](Cc1c[nH]c2ccccc12)NC(=O)[C@H](Cc1ccc(O)cc1)NC(=O)c1ccc(F)cc1)c1ccc(-c2c3nc(c(-c4cccc(S(=O)(=O)[O-])c4F)c4ccc([nH]4)c(-c4cccc(S(=O)(=O)[O-])c4F)c4nc(c(-c5cccc(S(=O)(=O)[O-])c5F)c5ccc2[nH]5)C=C4)C=C3)cc1
REMARK SMILES IDX 7 1 8 2 9 3 6 5 5 6 4 7 3 8 1 9 2 10 49 12 50 13 111 14
REMARK SMILES IDX 51 15 110 16 52 17 53 18 54 19 104 20 55 21 109 22 103 23
REMARK SMILES IDX 105 24 56 25 108 26 102 27 101 28 57 30 89 31 69 32 88 33
REMARK SMILES IDX 70 34 73 35 87 36 106 37 71 38 72 39 86 41 107 42 74 43
REMARK SMILES IDX 58 44 59 45 67 46 60 47 62 48 68 49 61 50 63 51 64 52 65 53
REMARK SMILES IDX 66 54 90 55 91 56 99 57 92 58 94 59 100 60 93 61 95 62 96 63
REMARK SMILES IDX 97 64 98 65 75 66 76 67 84 68 77 69 79 70 85 71 78 72 80 73
REMARK SMILES IDX 81 74 82 75 83 76 10 77 13 78 14 79 15 81 16 82 27 83 28 84
REMARK SMILES IDX 29 86 30 87 39 88 40 89 41 91 42 92 43 93 48 94 44 95 47 96
REMARK SMILES IDX 45 97 46 98 31 99 32 100 33 101 38 102 34 103 37 104 35 105
REMARK SMILES IDX 36 106 17 108 18 109 19 110 26 111 20 112 21 113 25 114
REMARK SMILES IDX 22 116 24 117 23 118 11 119 12 120
REMARK H PARENT 7 4 3 11 105 29 73 40 13 80 27 85 39 90 36 107 20 115 12 121
REMARK Flexibility Score: inf
ROOT
ATOM      1  N   UNL A   1      30.249  31.322  24.830  1.00  0.00    -0.354 N 
ATOM      2  C   UNL A   1      29.751  30.610  23.784  1.00  0.00     0.244 C 
ATOM      3  O   UNL A   1      28.820  31.140  23.166  1.00  0.00    -0.273 OA
ATOM      4  H   UNL A   1      29.749  32.150  25.013  1.00  0.00     0.163 HD
ENDROOT
BRANCH   1   5
ATOM      5  C   UNL A   1      31.370  31.110  25.736  1.00  0.00     0.117 C 
BRANCH   5   6
ATOM      6  C   UNL A   1      31.367  32.134  26.868  1.00  0.00     0.042 C 
BRANCH   6   7
ATOM      7  C   UNL A   1      32.732  32.784  27.084  1.00  0.00     0.118 C 
BRANCH   7   8
ATOM      8  N   UNL A   1      32.628  34.096  27.714  1.00  0.00    -0.352 N 
ATOM      9  O   UNL A   1      32.819  35.636  29.337  1.00  0.00    -0.269 OA
ATOM     10  C   UNL A   1      33.240  34.594  28.837  1.00  0.00     0.251 C 
ATOM     11  H   UNL A   1      32.021  34.725  27.261  1.00  0.00     0.163 HD
BRANCH  10  12
ATOM     12  C   UNL A   1      34.382  33.880  29.445  1.00  0.00     0.039 A 
ATOM     13  C   UNL A   1      34.168  32.917  30.431  1.00  0.00     0.014 A 
ATOM     14  C   UNL A   1      35.681  34.152  29.005  1.00  0.00     0.014 A 
ATOM     15  C   UNL A   1      35.250  32.358  31.098  1.00  0.00     0.010 A 
ATOM     16  C   UNL A   1      36.766  33.509  29.607  1.00  0.00     0.010 A 
ATOM     17  C   UNL A   1      36.563  32.637  30.687  1.00  0.00    -0.014 A 
BRANCH  17  18
ATOM     18  C   UNL A   1      37.694  31.967  31.382  1.00  0.00     0.031 A 
ATOM     19  C   UNL A   1      38.455  30.845  30.727  1.00  0.00     0.074 A 
ATOM     20  C   UNL A   1      38.054  32.404  32.606  1.00  0.00     0.049 A 
ATOM     21  N   UNL A   1      39.488  30.185  31.182  1.00  0.00    -0.248 NA
ATOM     22  C   UNL A   1      38.002  30.400  29.399  1.00  0.00     0.031 C 
ATOM     23  C   UNL A   1      37.367  33.461  33.355  1.00  0.00     0.029 A 
ATOM     24  N   UNL A   1      39.081  32.029  33.434  1.00  0.00    -0.354 N 
ATOM     25  C   UNL A   1      39.784  29.226  30.221  1.00  0.00     0.074 A 
ATOM     26  C   UNL A   1      38.816  29.381  29.157  1.00  0.00     0.031 C 
ATOM     27  C   UNL A   1      38.012  33.675  34.509  1.00  0.00     0.029 A 
ATOM     28  C   UNL A   1      39.118  32.731  34.616  1.00  0.00     0.049 A 
ATOM     29  H   UNL A   1      39.730  31.325  33.204  1.00  0.00     0.167 HD
ATOM     30  C   UNL A   1      40.784  28.313  30.219  1.00  0.00     0.034 A 
ATOM     31  C   UNL A   1      39.936  32.618  35.681  1.00  0.00     0.034 A 
ATOM     32  C   UNL A   1      41.774  28.199  31.256  1.00  0.00     0.049 A 
ATOM     33  C   UNL A   1      41.041  31.601  35.643  1.00  0.00     0.074 A 
ATOM     34  C   UNL A   1      42.869  27.353  31.303  1.00  0.00     0.029 A 
ATOM     35  N   UNL A   1      41.789  28.940  32.426  1.00  0.00    -0.354 N 
ATOM     36  N   UNL A   1      41.379  30.792  34.668  1.00  0.00    -0.248 NA
ATOM     37  C   UNL A   1      41.890  31.492  36.837  1.00  0.00     0.031 C 
ATOM     38  C   UNL A   1      43.529  27.562  32.516  1.00  0.00     0.029 A 
ATOM     39  C   UNL A   1      42.863  28.558  33.211  1.00  0.00     0.049 A 
ATOM     40  H   UNL A   1      41.134  29.635  32.664  1.00  0.00     0.167 HD
ATOM     41  C   UNL A   1      42.485  30.088  35.125  1.00  0.00     0.074 A 
ATOM     42  C   UNL A   1      42.783  30.588  36.450  1.00  0.00     0.031 C 
ATOM     43  C   UNL A   1      43.176  29.097  34.509  1.00  0.00     0.034 A 
BRANCH  30  44
ATOM     44  C   UNL A   1      40.908  27.383  29.040  1.00  0.00     0.023 A 
ATOM     45  C   UNL A   1      40.017  26.300  28.912  1.00  0.00     0.012 A 
ATOM     46  C   UNL A   1      41.813  27.664  27.995  1.00  0.00     0.148 A 
ATOM     47  C   UNL A   1      40.029  25.504  27.768  1.00  0.00     0.002 A 
ATOM     48  C   UNL A   1      41.789  26.891  26.839  1.00  0.00     0.091 A 
ATOM     49  F   UNL A   1      42.661  28.691  28.144  1.00  0.00    -0.205 F 
ATOM     50  C   UNL A   1      40.903  25.807  26.727  1.00  0.00     0.022 A 
BRANCH  48  51
ATOM     51  S   UNL A   1      42.814  27.248  25.407  1.00  0.00     0.127 S 
ATOM     52  O   UNL A   1      42.667  26.019  24.627  1.00  0.00    -0.237 OA
ATOM     53  O   UNL A   1      42.146  28.416  24.837  1.00  0.00    -0.237 OA
ATOM     54  O   UNL A   1      44.154  27.496  25.920  1.00  0.00    -0.744 OA
ENDBRANCH  48  51
ENDBRANCH  30  44
BRANCH  31  55
ATOM     55  C   UNL A   1      39.747  33.516  36.855  1.00  0.00     0.023 A 
ATOM     56  C   UNL A   1      38.695  33.270  37.757  1.00  0.00     0.012 A 
ATOM     57  C   UNL A   1      40.639  34.577  37.113  1.00  0.00     0.148 A 
ATOM     58  C   UNL A   1      38.523  34.076  38.884  1.00  0.00     0.002 A 
ATOM     59  C   UNL A   1      40.501  35.334  38.269  1.00  0.00     0.091 A 
ATOM     60  F   UNL A   1      41.623  34.807  36.232  1.00  0.00    -0.205 F 
ATOM     61  C   UNL A   1      39.433  35.097  39.148  1.00  0.00     0.022 A 
BRANCH  59  62
ATOM     62  S   UNL A   1      41.714  36.563  38.762  1.00  0.00     0.127 S 
ATOM     63  O   UNL A   1      42.715  35.740  39.438  1.00  0.00    -0.237 OA
ATOM     64  O   UNL A   1      42.134  37.108  37.470  1.00  0.00    -0.237 OA
ATOM     65  O   UNL A   1      40.995  37.507  39.605  1.00  0.00    -0.744 OA
ENDBRANCH  59  62
ENDBRANCH  31  55
BRANCH  43  66
ATOM     66  C   UNL A   1      44.331  28.479  35.249  1.00  0.00     0.023 A 
ATOM     67  C   UNL A   1      45.621  29.024  35.100  1.00  0.00     0.012 A 
ATOM     68  C   UNL A   1      44.117  27.447  36.185  1.00  0.00     0.148 A 
ATOM     69  C   UNL A   1      46.685  28.543  35.861  1.00  0.00     0.002 A 
ATOM     70  C   UNL A   1      45.171  27.007  36.976  1.00  0.00     0.091 A 
ATOM     71  F   UNL A   1      42.883  26.935  36.299  1.00  0.00    -0.205 F 
ATOM     72  C   UNL A   1      46.457  27.547  36.808  1.00  0.00     0.022 A 
BRANCH  70  73
ATOM     73  S   UNL A   1      44.957  25.805  38.292  1.00  0.00     0.127 S 
ATOM     74  O   UNL A   1      44.336  24.689  37.580  1.00  0.00    -0.237 OA
ATOM     75  O   UNL A   1      46.337  25.565  38.717  1.00  0.00    -0.237 OA
ATOM     76  O   UNL A   1      44.116  26.445  39.293  1.00  0.00    -0.744 OA
ENDBRANCH  70  73
ENDBRANCH  43  66
ENDBRANCH  17  18
ENDBRANCH  10  12
ENDBRANCH   7   8
ENDBRANCH   6   7
ENDBRANCH   5   6
ENDBRANCH   1   5
BRANCH   2  77
ATOM     77  C   UNL A   1      30.131  29.150  23.466  1.00  0.00     0.197 C 
BRANCH  77  78
ATOM     78  N   UNL A   1      29.083  28.146  23.536  1.00  0.00    -0.340 N 
ATOM     79  C   UNL A   1      29.042  26.809  23.745  1.00  0.00     0.243 C 
ATOM     80  H   UNL A   1      28.188  28.531  23.395  1.00  0.00     0.164 HD
ATOM     81  O   UNL A   1      27.906  26.413  24.023  1.00  0.00    -0.273 OA
BRANCH  79  82
ATOM     82  C   UNL A   1      30.228  25.822  23.492  1.00  0.00     0.175 C 
BRANCH  82  83
ATOM     83  N   UNL A   1      31.252  26.263  22.512  1.00  0.00    -0.342 N 
ATOM     84  C   UNL A   1      32.446  25.734  22.096  1.00  0.00     0.243 C 
ATOM     85  H   UNL A   1      31.026  27.112  22.069  1.00  0.00     0.164 HD
ATOM     86  O   UNL A   1      33.090  26.411  21.288  1.00  0.00    -0.273 OA
BRANCH  84  87
ATOM     87  C   UNL A   1      33.044  24.410  22.644  1.00  0.00     0.176 C 
BRANCH  87  88
ATOM     88  N   UNL A   1      32.341  23.215  22.178  1.00  0.00    -0.340 N 
ATOM     89  C   UNL A   1      32.262  21.961  22.728  1.00  0.00     0.251 C 
ATOM     90  H   UNL A   1      31.848  23.330  21.334  1.00  0.00     0.164 HD
ATOM     91  O   UNL A   1      31.802  21.055  22.036  1.00  0.00    -0.269 OA
BRANCH  89  92
ATOM     92  C   UNL A   1      32.723  21.667  24.115  1.00  0.00     0.040 A 
ATOM     93  C   UNL A   1      33.718  20.728  24.431  1.00  0.00     0.017 A 
ATOM     94  C   UNL A   1      32.172  22.439  25.147  1.00  0.00     0.017 A 
ATOM     95  C   UNL A   1      34.105  20.515  25.756  1.00  0.00     0.040 A 
ATOM     96  C   UNL A   1      32.579  22.247  26.468  1.00  0.00     0.040 A 
ATOM     97  C   UNL A   1      33.533  21.280  26.761  1.00  0.00     0.123 A 
ATOM     98  F   UNL A   1      33.933  21.107  28.027  1.00  0.00    -0.207 F 
ENDBRANCH  89  92
ENDBRANCH  87  88
BRANCH  87  99
ATOM     99  C   UNL A   1      34.577  24.322  22.375  1.00  0.00     0.070 C 
BRANCH  99 100
ATOM    100  C   UNL A   1      35.359  23.731  23.535  1.00  0.00    -0.045 A 
ATOM    101  C   UNL A   1      36.327  22.734  23.319  1.00  0.00     0.007 A 
ATOM    102  C   UNL A   1      35.223  24.276  24.818  1.00  0.00     0.007 A 
ATOM    103  C   UNL A   1      37.244  22.411  24.320  1.00  0.00     0.046 A 
ATOM    104  C   UNL A   1      36.115  23.921  25.832  1.00  0.00     0.046 A 
ATOM    105  C   UNL A   1      37.144  23.030  25.561  1.00  0.00     0.115 A 
BRANCH 105 106
ATOM    106  O   UNL A   1      38.068  22.801  26.537  1.00  0.00    -0.508 OA
ATOM    107  H   UNL A   1      38.879  22.380  26.327  1.00  0.00     0.293 HD
ENDBRANCH 105 106
ENDBRANCH  99 100
ENDBRANCH  87  99
ENDBRANCH  84  87
ENDBRANCH  82  83
BRANCH  82 108
ATOM    108  C   UNL A   1      30.921  25.340  24.802  1.00  0.00     0.072 C 
BRANCH 108 109
ATOM    109  C   UNL A   1      31.278  26.420  25.791  1.00  0.00    -0.020 A 
ATOM    110  C   UNL A   1      30.539  26.739  26.917  1.00  0.00     0.087 A 
ATOM    111  C   UNL A   1      32.419  27.294  25.807  1.00  0.00     0.003 A 
ATOM    112  N   UNL A   1      31.246  27.642  27.663  1.00  0.00    -0.361 N 
ATOM    113  C   UNL A   1      32.414  27.976  27.024  1.00  0.00     0.046 A 
ATOM    114  C   UNL A   1      33.478  27.564  24.921  1.00  0.00     0.010 A 
ATOM    115  H   UNL A   1      30.957  28.001  28.534  1.00  0.00     0.166 HD
ATOM    116  C   UNL A   1      33.449  28.830  27.429  1.00  0.00     0.026 A 
ATOM    117  C   UNL A   1      34.523  28.416  25.301  1.00  0.00     0.001 A 
ATOM    118  C   UNL A   1      34.517  29.024  26.550  1.00  0.00     0.002 A 
ENDBRANCH 108 109
ENDBRANCH  82 108
ENDBRANCH  79  82
ENDBRANCH  77  78
BRANCH  77 119
ATOM    119  C   UNL A   1      30.769  29.124  22.065  1.00  0.00     0.191 C 
BRANCH 119 120
ATOM    120  O   UNL A   1      32.185  29.300  22.130  1.00  0.00    -0.394 OA
ATOM    121  H   UNL A   1      32.491  29.129  23.035  1.00  0.00     0.210 HD
ENDBRANCH 119 120
ENDBRANCH  77 119
ENDBRANCH   2  77
TORSDOF 26
ENDMDL
MODEL 3
REMARK VINA RESULT:     -12.0      0.448      6.779
REMARK SMILES O=C(NCCCNC(=O)[C@H](CO)NC(=O)[C@H](Cc1c[nH]c2ccccc12)NC(=O)[C@H](Cc1ccc(O)cc1)NC(=O)c1ccc(F)cc1)c1ccc(-c2c3nc(c(-c4cccc(S(=O)(=O)[O-])c4F)c4ccc([nH]4)c(-c4cccc(S(=O)(=O)[O-])c4F)c4nc(c(-c5cccc(S(=O)(=O)[O-])c5F)c5ccc2[nH]5)C=C4)C=C3)cc1
REMARK SMILES IDX 7 1 8 2 9 3 6 5 5 6 4 7 3 8 1 9 2 10 49 12 50 13 111 14
REMARK SMILES IDX 51 15 110 16 52 17 53 18 54 19 104 20 55 21 109 22 103 23
REMARK SMILES IDX 105 24 56 25 108 26 102 27 101 28 57 30 89 31 69 32 88 33
REMARK SMILES IDX 70 34 73 35 87 36 106 37 71 38 72 39 86 41 107 42 74 43
REMARK SMILES IDX 58 44 59 45 67 46 60 47 62 48 68 49 61 50 63 51 64 52 65 53
REMARK SMILES IDX 66 54 90 55 91 56 99 57 92 58 94 59 100 60 93 61 95 62 96 63
REMARK SMILES IDX 97 64 98 65 75 66 76 67 84 68 77 69 79 70 85 71 78 72 80 73
REMARK SMILES IDX 81 74 82 75 83 76 10 77 13 78 14 79 15 81 16 82 27 83 28 84
REMARK SMILES IDX 29 86 30 87 39 88 40 89 41 91 42 92 43 93 48 94 44 95 47 96
REMARK SMILES IDX 45 97 46 98 31 99 32 100 33 101 38 102 34 103 37 104 35 105
REMARK SMILES IDX 36 106 17 108 18 109 19 110 26 111 20 112 21 113 25 114
REMARK SMILES IDX 22 116 24 117 23 118 11 119 12 120
REMARK H PARENT 7 4 3 11 105 29 73 40 13 80 27 85 39 90 36 107 20 115 12 121
REMARK Flexibility Score: inf
ROOT
ATOM      1  N   UNL A   1      29.990  31.163  24.559  1.00  0.00    -0.354 N 
ATOM      2  C   UNL A   1      29.548  30.363  23.553  1.00  0.00     0.244 C 
ATOM      3  O   UNL A   1      28.630  30.822  22.863  1.00  0.00    -0.273 OA
ATOM      4  H   UNL A   1      29.465  31.990  24.660  1.00  0.00     0.163 HD
ENDROOT
BRANCH   1   5
ATOM      5  C   UNL A   1      31.080  31.049  25.519  1.00  0.00     0.117 C 
BRANCH   5   6
ATOM      6  C   UNL A   1      31.063  32.204  26.516  1.00  0.00     0.042 C 
BRANCH   6   7
ATOM      7  C   UNL A   1      32.456  32.577  27.017  1.00  0.00     0.118 C 
BRANCH   7   8
ATOM      8  N   UNL A   1      32.525  33.955  27.490  1.00  0.00    -0.352 N 
ATOM      9  O   UNL A   1      33.030  35.646  28.878  1.00  0.00    -0.269 OA
ATOM     10  C   UNL A   1      33.311  34.523  28.462  1.00  0.00     0.251 C 
ATOM     11  H   UNL A   1      31.908  34.577  27.041  1.00  0.00     0.163 HD
BRANCH  10  12
ATOM     12  C   UNL A   1      34.472  33.790  29.008  1.00  0.00     0.039 A 
ATOM     13  C   UNL A   1      34.285  32.616  29.737  1.00  0.00     0.014 A 
ATOM     14  C   UNL A   1      35.765  34.262  28.764  1.00  0.00     0.014 A 
ATOM     15  C   UNL A   1      35.366  32.014  30.368  1.00  0.00     0.010 A 
ATOM     16  C   UNL A   1      36.863  33.594  29.315  1.00  0.00     0.010 A 
ATOM     17  C   UNL A   1      36.670  32.488  30.156  1.00  0.00    -0.014 A 
BRANCH  17  18
ATOM     18  C   UNL A   1      37.808  31.777  30.794  1.00  0.00     0.031 A 
ATOM     19  C   UNL A   1      38.628  30.773  30.029  1.00  0.00     0.074 A 
ATOM     20  C   UNL A   1      38.121  32.071  32.074  1.00  0.00     0.049 A 
ATOM     21  N   UNL A   1      39.675  30.098  30.427  1.00  0.00    -0.248 NA
ATOM     22  C   UNL A   1      38.225  30.482  28.642  1.00  0.00     0.031 C 
ATOM     23  C   UNL A   1      37.376  33.000  32.927  1.00  0.00     0.029 A 
ATOM     24  N   UNL A   1      39.142  31.632  32.878  1.00  0.00    -0.354 N 
ATOM     25  C   UNL A   1      40.031  29.278  29.365  1.00  0.00     0.074 A 
ATOM     26  C   UNL A   1      39.084  29.530  28.300  1.00  0.00     0.031 C 
ATOM     27  C   UNL A   1      37.984  33.092  34.117  1.00  0.00     0.029 A 
ATOM     28  C   UNL A   1      39.122  32.181  34.139  1.00  0.00     0.049 A 
ATOM     29  H   UNL A   1      39.823  30.985  32.581  1.00  0.00     0.167 HD
ATOM     30  C   UNL A   1      41.065  28.408  29.278  1.00  0.00     0.034 A 
ATOM     31  C   UNL A   1      39.918  31.965  35.204  1.00  0.00     0.034 A 
ATOM     32  C   UNL A   1      42.033  28.201  30.321  1.00  0.00     0.049 A 
ATOM     33  C   UNL A   1      41.063  31.001  35.073  1.00  0.00     0.074 A 
ATOM     34  C   UNL A   1      43.158  27.395  30.295  1.00  0.00     0.029 A 
ATOM     35  N   UNL A   1      41.991  28.790  31.574  1.00  0.00    -0.354 N 
ATOM     36  N   UNL A   1      41.455  30.332  34.015  1.00  0.00    -0.248 NA
ATOM     37  C   UNL A   1      41.885  30.773  36.269  1.00  0.00     0.031 C 
ATOM     38  C   UNL A   1      43.781  27.475  31.543  1.00  0.00     0.029 A 
ATOM     39  C   UNL A   1      43.060  28.351  32.337  1.00  0.00     0.049 A 
ATOM     40  H   UNL A   1      41.304  29.426  31.878  1.00  0.00     0.167 HD
ATOM     41  C   UNL A   1      42.576  29.616  34.413  1.00  0.00     0.074 A 
ATOM     42  C   UNL A   1      42.822  29.957  35.799  1.00  0.00     0.031 C 
ATOM     43  C   UNL A   1      43.320  28.735  33.700  1.00  0.00     0.034 A 
BRANCH  30  44
ATOM     44  C   UNL A   1      41.254  27.638  27.997  1.00  0.00     0.023 A 
ATOM     45  C   UNL A   1      41.733  28.303  26.851  1.00  0.00     0.012 A 
ATOM     46  C   UNL A   1      41.089  26.238  27.969  1.00  0.00     0.148 A 
ATOM     47  C   UNL A   1      42.037  27.588  25.693  1.00  0.00     0.002 A 
ATOM     48  C   UNL A   1      41.435  25.528  26.824  1.00  0.00     0.091 A 
ATOM     49  F   UNL A   1      40.619  25.628  29.067  1.00  0.00    -0.205 F 
ATOM     50  C   UNL A   1      41.902  26.202  25.684  1.00  0.00     0.022 A 
BRANCH  48  51
ATOM     51  S   UNL A   1      41.379  23.734  26.736  1.00  0.00     0.127 S 
ATOM     52  O   UNL A   1      42.084  23.358  27.961  1.00  0.00    -0.237 OA
ATOM     53  O   UNL A   1      39.941  23.472  26.756  1.00  0.00    -0.237 OA
ATOM     54  O   UNL A   1      42.053  23.368  25.499  1.00  0.00    -0.744 OA
ENDBRANCH  48  51
ENDBRANCH  30  44
BRANCH  31  55
ATOM     55  C   UNL A   1      39.666  32.702  36.475  1.00  0.00     0.023 A 
ATOM     56  C   UNL A   1      40.308  33.933  36.704  1.00  0.00     0.012 A 
ATOM     57  C   UNL A   1      38.751  32.216  37.430  1.00  0.00     0.148 A 
ATOM     58  C   UNL A   1      40.057  34.659  37.871  1.00  0.00     0.002 A 
ATOM     59  C   UNL A   1      38.457  32.973  38.557  1.00  0.00     0.091 A 
ATOM     60  F   UNL A   1      38.164  31.033  37.203  1.00  0.00    -0.205 F 
ATOM     61  C   UNL A   1      39.122  34.187  38.789  1.00  0.00     0.022 A 
BRANCH  59  62
ATOM     62  S   UNL A   1      37.157  32.515  39.709  1.00  0.00     0.127 S 
ATOM     63  O   UNL A   1      37.233  33.595  40.690  1.00  0.00    -0.237 OA
ATOM     64  O   UNL A   1      35.971  32.543  38.851  1.00  0.00    -0.237 OA
ATOM     65  O   UNL A   1      37.513  31.190  40.194  1.00  0.00    -0.744 OA
ENDBRANCH  59  62
ENDBRANCH  31  55
BRANCH  43  66
ATOM     66  C   UNL A   1      44.480  28.070  34.391  1.00  0.00     0.023 A 
ATOM     67  C   UNL A   1      45.756  28.660  34.324  1.00  0.00     0.012 A 
ATOM     68  C   UNL A   1      44.279  26.939  35.207  1.00  0.00     0.148 A 
ATOM     69  C   UNL A   1      46.821  28.128  35.049  1.00  0.00     0.002 A 
ATOM     70  C   UNL A   1      45.332  26.444  35.967  1.00  0.00     0.091 A 
ATOM     71  F   UNL A   1      43.057  26.387  35.244  1.00  0.00    -0.205 F 
ATOM     72  C   UNL A   1      46.606  27.030  35.880  1.00  0.00     0.022 A 
BRANCH  70  73
ATOM     73  S   UNL A   1      45.130  25.103  37.143  1.00  0.00     0.127 S 
ATOM     74  O   UNL A   1      43.677  25.051  37.291  1.00  0.00    -0.237 OA
ATOM     75  O   UNL A   1      45.710  23.970  36.421  1.00  0.00    -0.237 OA
ATOM     76  O   UNL A   1      45.861  25.499  38.339  1.00  0.00    -0.744 OA
ENDBRANCH  70  73
ENDBRANCH  43  66
ENDBRANCH  17  18
ENDBRANCH  10  12
ENDBRANCH   7   8
ENDBRANCH   6   7
ENDBRANCH   5   6
ENDBRANCH   1   5
BRANCH   2  77
ATOM     77  C   UNL A   1      29.971  28.893  23.361  1.00  0.00     0.197 C 
BRANCH  77  78
ATOM     78  N   UNL A   1      28.971  27.864  23.584  1.00  0.00    -0.340 N 
ATOM     79  C   UNL A   1      28.996  26.542  23.876  1.00  0.00     0.243 C 
ATOM     80  H   UNL A   1      28.053  28.212  23.502  1.00  0.00     0.164 HD
ATOM     81  O   UNL A   1      27.903  26.130  24.279  1.00  0.00    -0.273 OA
BRANCH  79  82
ATOM     82  C   UNL A   1      30.189  25.577  23.578  1.00  0.00     0.175 C 
BRANCH  82  83
ATOM     83  N   UNL A   1      31.114  25.993  22.494  1.00  0.00    -0.342 N 
ATOM     84  C   UNL A   1      32.265  25.453  21.980  1.00  0.00     0.243 C 
ATOM     85  H   UNL A   1      30.845  26.830  22.053  1.00  0.00     0.164 HD
ATOM     86  O   UNL A   1      32.828  26.109  21.097  1.00  0.00    -0.273 OA
BRANCH  84  87
ATOM     87  C   UNL A   1      32.916  24.143  22.503  1.00  0.00     0.176 C 
BRANCH  87  88
ATOM     88  N   UNL A   1      32.175  22.937  22.134  1.00  0.00    -0.340 N 
ATOM     89  C   UNL A   1      32.132  21.704  22.734  1.00  0.00     0.251 C 
ATOM     90  H   UNL A   1      31.621  23.025  21.325  1.00  0.00     0.164 HD
ATOM     91  O   UNL A   1      31.618  20.777  22.112  1.00  0.00    -0.269 OA
BRANCH  89  92
ATOM     92  C   UNL A   1      32.695  21.458  24.093  1.00  0.00     0.040 A 
ATOM     93  C   UNL A   1      33.800  20.631  24.349  1.00  0.00     0.017 A 
ATOM     94  C   UNL A   1      32.118  22.162  25.158  1.00  0.00     0.017 A 
ATOM     95  C   UNL A   1      34.277  20.458  25.650  1.00  0.00     0.040 A 
ATOM     96  C   UNL A   1      32.611  22.012  26.455  1.00  0.00     0.040 A 
ATOM     97  C   UNL A   1      33.679  21.154  26.690  1.00  0.00     0.123 A 
ATOM     98  F   UNL A   1      34.160  21.020  27.932  1.00  0.00    -0.207 F 
ENDBRANCH  89  92
ENDBRANCH  87  88
BRANCH  87  99
ATOM     99  C   UNL A   1      34.417  24.049  22.093  1.00  0.00     0.070 C 
BRANCH  99 100
ATOM    100  C   UNL A   1      35.348  23.810  23.269  1.00  0.00    -0.045 A 
ATOM    101  C   UNL A   1      35.066  24.355  24.534  1.00  0.00     0.007 A 
ATOM    102  C   UNL A   1      36.424  22.923  23.139  1.00  0.00     0.007 A 
ATOM    103  C   UNL A   1      35.741  23.898  25.667  1.00  0.00     0.046 A 
ATOM    104  C   UNL A   1      37.126  22.496  24.267  1.00  0.00     0.046 A 
ATOM    105  C   UNL A   1      36.747  22.950  25.524  1.00  0.00     0.115 A 
BRANCH 105 106
ATOM    106  O   UNL A   1      37.374  22.419  26.612  1.00  0.00    -0.508 OA
ATOM    107  H   UNL A   1      37.425  22.909  27.410  1.00  0.00     0.293 HD
ENDBRANCH 105 106
ENDBRANCH  99 100
ENDBRANCH  87  99
ENDBRANCH  84  87
ENDBRANCH  82  83
BRANCH  82 108
ATOM    108  C   UNL A   1      31.003  25.190  24.850  1.00  0.00     0.072 C 
BRANCH 108 109
ATOM    109  C   UNL A   1      31.268  26.308  25.826  1.00  0.00    -0.020 A 
ATOM    110  C   UNL A   1      30.499  26.583  26.943  1.00  0.00     0.087 A 
ATOM    111  C   UNL A   1      32.337  27.269  25.836  1.00  0.00     0.003 A 
ATOM    112  N   UNL A   1      31.128  27.549  27.680  1.00  0.00    -0.361 N 
ATOM    113  C   UNL A   1      32.270  27.965  27.043  1.00  0.00     0.046 A 
ATOM    114  C   UNL A   1      33.376  27.610  24.951  1.00  0.00     0.010 A 
ATOM    115  H   UNL A   1      30.807  27.895  28.545  1.00  0.00     0.166 HD
ATOM    116  C   UNL A   1      33.233  28.903  27.441  1.00  0.00     0.026 A 
ATOM    117  C   UNL A   1      34.349  28.547  25.324  1.00  0.00     0.001 A 
ATOM    118  C   UNL A   1      34.287  29.169  26.565  1.00  0.00     0.002 A 
ENDBRANCH 108 109
ENDBRANCH  82 108
ENDBRANCH  79  82
ENDBRANCH  77  78
BRANCH  77 119
ATOM    119  C   UNL A   1      30.541  28.749  21.938  1.00  0.00     0.191 C 
BRANCH 119 120
ATOM    120  O   UNL A   1      31.968  28.687  21.947  1.00  0.00    -0.394 OA
ATOM    121  H   UNL A   1      32.261  27.919  21.432  1.00  0.00     0.210 HD
ENDBRANCH 119 120
ENDBRANCH  77 119
ENDBRANCH   2  77
TORSDOF 26
ENDMDL
