MODEL 1
REMARK VINA RESULT:     -12.6      0.000      0.000
REMARK SMILES C[C@@H](C(=O)NCCCNC(=O)c1ccc(-c2c3nc(c(-c4cccc(S(=O)(=O)[O-])c4F)c4ccc([nH]4)c(-c4cccc(S(=O)(=O)[O-])c4F)c4nc(c(-c5cccc(S(=O)(=O)[O-])c5F)c5ccc2[nH]5)C=C4)C=C3)cc1)c1ccc(C[C@H]2CCC[C@H]2O)cc1-c1ccc(O)cc1
REMARK SMILES IDX 6 1 5 2 3 3 4 4 2 6 1 7 75 8 76 9 87 10 77 11 86 12 78 13
REMARK SMILES IDX 88 14 89 15 94 16 90 17 93 18 91 19 92 20 79 22 80 23 81 24
REMARK SMILES IDX 84 25 82 26 83 27 85 28 7 30 8 31 9 32 10 33 11 35 12 36
REMARK SMILES IDX 13 37 74 38 14 39 73 40 15 41 16 42 17 43 67 44 18 45 72 46
REMARK SMILES IDX 66 47 68 48 19 49 71 50 65 51 64 52 20 54 52 55 32 56 51 57
REMARK SMILES IDX 33 58 36 59 50 60 69 61 34 62 35 63 49 65 70 66 37 67 21 68
REMARK SMILES IDX 22 69 30 70 23 71 25 72 31 73 24 74 26 75 27 76 28 77 29 78
REMARK SMILES IDX 53 79 54 80 62 81 55 82 57 83 63 84 56 85 58 86 59 87 60 88
REMARK SMILES IDX 61 89 38 90 39 91 47 92 40 93 42 94 48 95 41 96 43 97 44 98
REMARK SMILES IDX 45 99 46 100
REMARK H PARENT 5 5 92 21 85 29 9 34 68 53 36 64
REMARK Flexibility Score: inf
ROOT
ATOM      1  C   UNL A   1      33.627  26.280  25.243  1.00  0.00     0.117 C 
ENDROOT
BRANCH   1   2
ATOM      2  N   UNL A   1      34.751  25.367  25.271  1.00  0.00    -0.356 N 
ATOM      3  C   UNL A   1      34.778  24.019  25.458  1.00  0.00     0.227 C 
ATOM      4  O   UNL A   1      35.706  23.430  24.895  1.00  0.00    -0.274 OA
ATOM      5  H   UNL A   1      35.631  25.786  25.133  1.00  0.00     0.163 HD
BRANCH   3   6
ATOM      6  C   UNL A   1      33.644  23.276  26.175  1.00  0.00     0.106 C 
ATOM      7  C   UNL A   1      33.841  22.841  27.634  1.00  0.00     0.023 C 
BRANCH   6   8
ATOM      8  C   UNL A   1      33.109  22.048  25.418  1.00  0.00    -0.028 A 
ATOM      9  C   UNL A   1      33.179  20.826  26.119  1.00  0.00     0.005 A 
ATOM     10  C   UNL A   1      32.660  22.040  24.069  1.00  0.00    -0.014 A 
ATOM     11  C   UNL A   1      32.890  19.616  25.500  1.00  0.00     0.004 A 
ATOM     12  C   UNL A   1      32.439  20.788  23.452  1.00  0.00     0.012 A 
ATOM     13  C   UNL A   1      32.596  19.574  24.140  1.00  0.00    -0.047 A 
BRANCH  10  14
ATOM     14  C   UNL A   1      32.297  23.255  23.307  1.00  0.00    -0.018 A 
ATOM     15  C   UNL A   1      31.106  23.932  23.635  1.00  0.00     0.012 A 
ATOM     16  C   UNL A   1      33.091  23.797  22.285  1.00  0.00     0.012 A 
ATOM     17  C   UNL A   1      30.765  25.143  23.029  1.00  0.00     0.047 A 
ATOM     18  C   UNL A   1      32.766  25.025  21.690  1.00  0.00     0.047 A 
ATOM     19  C   UNL A   1      31.612  25.696  22.081  1.00  0.00     0.115 A 
BRANCH  19  20
ATOM     20  O   UNL A   1      31.276  26.907  21.557  1.00  0.00    -0.508 OA
ATOM     21  H   UNL A   1      30.704  26.956  20.816  1.00  0.00     0.293 HD
ENDBRANCH  19  20
ENDBRANCH  10  14
BRANCH  13  22
ATOM     22  C   UNL A   1      32.462  18.247  23.435  1.00  0.00     0.041 C 
BRANCH  22  23
ATOM     23  C   UNL A   1      33.492  17.155  23.780  1.00  0.00     0.022 C 
ATOM     24  C   UNL A   1      34.862  17.654  24.267  1.00  0.00     0.007 C 
ATOM     25  C   UNL A   1      33.100  16.059  24.785  1.00  0.00     0.117 C 
ATOM     26  C   UNL A   1      35.415  16.556  25.180  1.00  0.00     0.003 C 
ATOM     27  C   UNL A   1      34.436  15.388  25.082  1.00  0.00     0.032 C 
BRANCH  25  28
ATOM     28  O   UNL A   1      32.554  16.526  26.004  1.00  0.00    -0.393 OA
ATOM     29  H   UNL A   1      33.262  16.617  26.661  1.00  0.00     0.210 HD
ENDBRANCH  25  28
ENDBRANCH  22  23
ENDBRANCH  13  22
ENDBRANCH   6   8
ENDBRANCH   3   6
ENDBRANCH   1   2
BRANCH   1  30
ATOM     30  C   UNL A   1      34.021  27.718  25.564  1.00  0.00     0.042 C 
BRANCH  30  31
ATOM     31  C   UNL A   1      33.651  28.178  26.972  1.00  0.00     0.118 C 
BRANCH  31  32
ATOM     32  N   UNL A   1      33.564  29.626  27.092  1.00  0.00    -0.352 N 
ATOM     33  C   UNL A   1      34.414  30.529  27.678  1.00  0.00     0.251 C 
ATOM     34  H   UNL A   1      32.761  30.023  26.684  1.00  0.00     0.163 HD
ATOM     35  O   UNL A   1      34.041  31.692  27.820  1.00  0.00    -0.269 OA
BRANCH  33  36
ATOM     36  C   UNL A   1      35.756  30.123  28.150  1.00  0.00     0.039 A 
ATOM     37  C   UNL A   1      35.885  29.635  29.454  1.00  0.00     0.014 A 
ATOM     38  C   UNL A   1      36.890  30.262  27.345  1.00  0.00     0.014 A 
ATOM     39  C   UNL A   1      37.137  29.240  29.929  1.00  0.00     0.010 A 
ATOM     40  C   UNL A   1      38.125  29.794  27.793  1.00  0.00     0.010 A 
ATOM     41  C   UNL A   1      38.265  29.289  29.092  1.00  0.00    -0.014 A 
BRANCH  41  42
ATOM     42  C   UNL A   1      39.586  28.801  29.567  1.00  0.00     0.031 A 
ATOM     43  C   UNL A   1      40.315  29.512  30.676  1.00  0.00     0.074 A 
ATOM     44  C   UNL A   1      40.162  27.750  28.951  1.00  0.00     0.049 A 
ATOM     45  N   UNL A   1      41.474  29.227  31.214  1.00  0.00    -0.248 NA
ATOM     46  C   UNL A   1      39.676  30.714  31.237  1.00  0.00     0.031 C 
ATOM     47  C   UNL A   1      39.605  27.036  27.801  1.00  0.00     0.029 A 
ATOM     48  N   UNL A   1      41.354  27.112  29.191  1.00  0.00    -0.354 N 
ATOM     49  C   UNL A   1      41.714  30.224  32.152  1.00  0.00     0.074 A 
ATOM     50  C   UNL A   1      40.600  31.145  32.083  1.00  0.00     0.031 C 
ATOM     51  C   UNL A   1      40.446  26.053  27.442  1.00  0.00     0.029 A 
ATOM     52  C   UNL A   1      41.611  26.079  28.322  1.00  0.00     0.049 A 
ATOM     53  H   UNL A   1      41.966  27.370  29.917  1.00  0.00     0.167 HD
ATOM     54  C   UNL A   1      42.747  30.344  33.020  1.00  0.00     0.034 A 
ATOM     55  C   UNL A   1      42.663  25.240  28.243  1.00  0.00     0.034 A 
ATOM     56  C   UNL A   1      43.830  29.402  33.121  1.00  0.00     0.049 A 
ATOM     57  C   UNL A   1      43.762  25.351  29.263  1.00  0.00     0.074 A 
ATOM     58  C   UNL A   1      44.880  29.388  34.023  1.00  0.00     0.029 A 
ATOM     59  N   UNL A   1      44.004  28.305  32.291  1.00  0.00    -0.354 N 
ATOM     60  N   UNL A   1      43.885  26.201  30.254  1.00  0.00    -0.248 NA
ATOM     61  C   UNL A   1      44.845  24.361  29.184  1.00  0.00     0.031 C 
ATOM     62  C   UNL A   1      45.694  28.288  33.730  1.00  0.00     0.029 A 
ATOM     63  C   UNL A   1      45.143  27.608  32.657  1.00  0.00     0.049 A 
ATOM     64  H   UNL A   1      43.405  28.058  31.549  1.00  0.00     0.167 HD
ATOM     65  C   UNL A   1      45.040  25.830  30.933  1.00  0.00     0.074 A 
ATOM     66  C   UNL A   1      45.564  24.661  30.257  1.00  0.00     0.031 C 
ATOM     67  C   UNL A   1      45.625  26.417  32.007  1.00  0.00     0.034 A 
BRANCH  54  68
ATOM     68  C   UNL A   1      42.719  31.502  33.985  1.00  0.00     0.023 A 
ATOM     69  C   UNL A   1      43.305  32.728  33.606  1.00  0.00     0.012 A 
ATOM     70  C   UNL A   1      42.072  31.402  35.232  1.00  0.00     0.148 A 
ATOM     71  C   UNL A   1      43.278  33.825  34.466  1.00  0.00     0.002 A 
ATOM     72  C   UNL A   1      42.013  32.514  36.066  1.00  0.00     0.091 A 
ATOM     73  F   UNL A   1      41.541  30.224  35.585  1.00  0.00    -0.205 F 
ATOM     74  C   UNL A   1      42.624  33.721  35.690  1.00  0.00     0.022 A 
BRANCH  72  75
ATOM     75  S   UNL A   1      41.128  32.504  37.630  1.00  0.00     0.127 S 
ATOM     76  O   UNL A   1      41.962  31.613  38.436  1.00  0.00    -0.237 OA
ATOM     77  O   UNL A   1      41.183  33.912  38.026  1.00  0.00    -0.237 OA
ATOM     78  O   UNL A   1      39.792  32.011  37.331  1.00  0.00    -0.744 OA
ENDBRANCH  72  75
ENDBRANCH  54  68
BRANCH  55  79
ATOM     79  C   UNL A   1      42.679  24.168  27.208  1.00  0.00     0.023 A 
ATOM     80  C   UNL A   1      43.377  24.383  26.003  1.00  0.00     0.012 A 
ATOM     81  C   UNL A   1      42.048  22.930  27.425  1.00  0.00     0.148 A 
ATOM     82  C   UNL A   1      43.418  23.393  25.020  1.00  0.00     0.002 A 
ATOM     83  C   UNL A   1      42.140  21.928  26.466  1.00  0.00     0.091 A 
ATOM     84  F   UNL A   1      41.378  22.749  28.573  1.00  0.00    -0.205 F 
ATOM     85  C   UNL A   1      42.810  22.163  25.255  1.00  0.00     0.022 A 
BRANCH  83  86
ATOM     86  S   UNL A   1      41.508  20.270  26.748  1.00  0.00     0.127 S 
ATOM     87  O   UNL A   1      40.113  20.535  27.089  1.00  0.00    -0.237 OA
ATOM     88  O   UNL A   1      41.716  19.637  25.445  1.00  0.00    -0.237 OA
ATOM     89  O   UNL A   1      42.332  19.717  27.817  1.00  0.00    -0.744 OA
ENDBRANCH  83  86
ENDBRANCH  55  79
BRANCH  67  90
ATOM     90  C   UNL A   1      46.891  25.793  32.534  1.00  0.00     0.023 A 
ATOM     91  C   UNL A   1      48.140  26.243  32.062  1.00  0.00     0.012 A 
ATOM     92  C   UNL A   1      46.846  24.805  33.536  1.00  0.00     0.148 A 
ATOM     93  C   UNL A   1      49.324  25.695  32.552  1.00  0.00     0.002 A 
ATOM     94  C   UNL A   1      48.032  24.295  34.054  1.00  0.00     0.091 A 
ATOM     95  F   UNL A   1      45.650  24.373  33.960  1.00  0.00    -0.205 F 
ATOM     96  C   UNL A   1      49.270  24.730  33.556  1.00  0.00     0.022 A 
BRANCH  94  97
ATOM     97  S   UNL A   1      48.055  23.117  35.411  1.00  0.00     0.127 S 
ATOM     98  O   UNL A   1      47.328  23.845  36.449  1.00  0.00    -0.237 OA
ATOM     99  O   UNL A   1      47.334  21.975  34.848  1.00  0.00    -0.237 OA
ATOM    100  O   UNL A   1      49.462  22.860  35.689  1.00  0.00    -0.744 OA
ENDBRANCH  94  97
ENDBRANCH  67  90
ENDBRANCH  41  42
ENDBRANCH  33  36
ENDBRANCH  31  32
ENDBRANCH  30  31
ENDBRANCH   1  30
TORSDOF 19
ENDMDL
MODEL 2
REMARK VINA RESULT:     -12.6      5.371     10.343
REMARK SMILES C[C@@H](C(=O)NCCCNC(=O)c1ccc(-c2c3nc(c(-c4cccc(S(=O)(=O)[O-])c4F)c4ccc([nH]4)c(-c4cccc(S(=O)(=O)[O-])c4F)c4nc(c(-c5cccc(S(=O)(=O)[O-])c5F)c5ccc2[nH]5)C=C4)C=C3)cc1)c1ccc(C[C@H]2CCC[C@H]2O)cc1-c1ccc(O)cc1
REMARK SMILES IDX 6 1 5 2 3 3 4 4 2 6 1 7 75 8 76 9 87 10 77 11 86 12 78 13
REMARK SMILES IDX 88 14 89 15 94 16 90 17 93 18 91 19 92 20 79 22 80 23 81 24
REMARK SMILES IDX 84 25 82 26 83 27 85 28 7 30 8 31 9 32 10 33 11 35 12 36
REMARK SMILES IDX 13 37 74 38 14 39 73 40 15 41 16 42 17 43 67 44 18 45 72 46
REMARK SMILES IDX 66 47 68 48 19 49 71 50 65 51 64 52 20 54 52 55 32 56 51 57
REMARK SMILES IDX 33 58 36 59 50 60 69 61 34 62 35 63 49 65 70 66 37 67 21 68
REMARK SMILES IDX 22 69 30 70 23 71 25 72 31 73 24 74 26 75 27 76 28 77 29 78
REMARK SMILES IDX 53 79 54 80 62 81 55 82 57 83 63 84 56 85 58 86 59 87 60 88
REMARK SMILES IDX 61 89 38 90 39 91 47 92 40 93 42 94 48 95 41 96 43 97 44 98
REMARK SMILES IDX 45 99 46 100
REMARK H PARENT 5 5 92 21 85 29 9 34 68 53 36 64
REMARK Flexibility Score: inf
ROOT
ATOM      1  C   UNL A   1      33.817  23.245  26.771  1.00  0.00     0.117 C 
ENDROOT
BRANCH   1   2
ATOM      2  N   UNL A   1      33.402  23.528  25.412  1.00  0.00    -0.356 N 
ATOM      3  C   UNL A   1      32.533  24.464  24.940  1.00  0.00     0.227 C 
ATOM      4  O   UNL A   1      32.773  24.873  23.801  1.00  0.00    -0.274 OA
ATOM      5  H   UNL A   1      33.811  22.955  24.724  1.00  0.00     0.163 HD
BRANCH   3   6
ATOM      6  C   UNL A   1      31.442  25.079  25.825  1.00  0.00     0.106 C 
ATOM      7  C   UNL A   1      30.419  24.156  26.501  1.00  0.00     0.023 C 
BRANCH   6   8
ATOM      8  C   UNL A   1      30.642  26.209  25.156  1.00  0.00    -0.028 A 
ATOM      9  C   UNL A   1      29.400  25.828  24.607  1.00  0.00     0.005 A 
ATOM     10  C   UNL A   1      31.095  27.543  24.964  1.00  0.00    -0.014 A 
ATOM     11  C   UNL A   1      28.651  26.702  23.828  1.00  0.00     0.004 A 
ATOM     12  C   UNL A   1      30.343  28.384  24.113  1.00  0.00     0.012 A 
ATOM     13  C   UNL A   1      29.150  27.961  23.505  1.00  0.00    -0.047 A 
BRANCH  10  14
ATOM     14  C   UNL A   1      32.238  28.144  25.689  1.00  0.00    -0.018 A 
ATOM     15  C   UNL A   1      31.981  28.920  26.837  1.00  0.00     0.012 A 
ATOM     16  C   UNL A   1      33.577  27.962  25.315  1.00  0.00     0.012 A 
ATOM     17  C   UNL A   1      33.019  29.420  27.626  1.00  0.00     0.047 A 
ATOM     18  C   UNL A   1      34.623  28.442  26.116  1.00  0.00     0.047 A 
ATOM     19  C   UNL A   1      34.333  29.153  27.275  1.00  0.00     0.115 A 
BRANCH  19  20
ATOM     20  O   UNL A   1      35.316  29.607  28.102  1.00  0.00    -0.508 OA
ATOM     21  H   UNL A   1      35.233  29.504  29.030  1.00  0.00     0.293 HD
ENDBRANCH  19  20
ENDBRANCH  10  14
BRANCH  13  22
ATOM     22  C   UNL A   1      28.420  28.834  22.516  1.00  0.00     0.041 C 
BRANCH  22  23
ATOM     23  C   UNL A   1      28.817  30.321  22.455  1.00  0.00     0.022 C 
ATOM     24  C   UNL A   1      28.453  31.061  21.157  1.00  0.00     0.007 C 
ATOM     25  C   UNL A   1      28.348  31.259  23.580  1.00  0.00     0.117 C 
ATOM     26  C   UNL A   1      28.259  32.530  21.545  1.00  0.00     0.003 C 
ATOM     27  C   UNL A   1      28.662  32.639  23.013  1.00  0.00     0.032 C 
BRANCH  25  28
ATOM     28  O   UNL A   1      26.964  31.202  23.875  1.00  0.00    -0.393 OA
ATOM     29  H   UNL A   1      26.461  31.128  23.048  1.00  0.00     0.210 HD
ENDBRANCH  25  28
ENDBRANCH  22  23
ENDBRANCH  13  22
ENDBRANCH   6   8
ENDBRANCH   3   6
ENDBRANCH   1   2
BRANCH   1  30
ATOM     30  C   UNL A   1      35.194  22.594  26.848  1.00  0.00     0.042 C 
BRANCH  30  31
ATOM     31  C   UNL A   1      35.856  22.345  25.495  1.00  0.00     0.118 C 
BRANCH  31  32
ATOM     32  N   UNL A   1      36.863  21.295  25.540  1.00  0.00    -0.352 N 
ATOM     33  C   UNL A   1      38.216  21.362  25.751  1.00  0.00     0.251 C 
ATOM     34  H   UNL A   1      36.514  20.386  25.394  1.00  0.00     0.163 HD
ATOM     35  O   UNL A   1      38.898  20.357  25.560  1.00  0.00    -0.269 OA
BRANCH  33  36
ATOM     36  C   UNL A   1      38.863  22.618  26.189  1.00  0.00     0.039 A 
ATOM     37  C   UNL A   1      39.920  22.540  27.101  1.00  0.00     0.014 A 
ATOM     38  C   UNL A   1      38.412  23.867  25.754  1.00  0.00     0.014 A 
ATOM     39  C   UNL A   1      40.555  23.707  27.532  1.00  0.00     0.010 A 
ATOM     40  C   UNL A   1      39.097  25.023  26.124  1.00  0.00     0.010 A 
ATOM     41  C   UNL A   1      40.168  24.958  27.025  1.00  0.00    -0.014 A 
BRANCH  41  42
ATOM     42  C   UNL A   1      40.886  26.197  27.424  1.00  0.00     0.031 A 
ATOM     43  C   UNL A   1      42.324  26.413  27.030  1.00  0.00     0.074 A 
ATOM     44  C   UNL A   1      40.260  27.103  28.200  1.00  0.00     0.049 A 
ATOM     45  N   UNL A   1      43.105  27.430  27.292  1.00  0.00    -0.248 NA
ATOM     46  C   UNL A   1      42.980  25.337  26.268  1.00  0.00     0.031 C 
ATOM     47  C   UNL A   1      38.902  26.965  28.730  1.00  0.00     0.029 A 
ATOM     48  N   UNL A   1      40.689  28.308  28.697  1.00  0.00    -0.354 N 
ATOM     49  C   UNL A   1      44.344  27.107  26.753  1.00  0.00     0.074 A 
ATOM     50  C   UNL A   1      44.225  25.782  26.185  1.00  0.00     0.031 C 
ATOM     51  C   UNL A   1      38.605  28.047  29.469  1.00  0.00     0.029 A 
ATOM     52  C   UNL A   1      39.756  28.945  29.481  1.00  0.00     0.049 A 
ATOM     53  H   UNL A   1      41.580  28.681  28.510  1.00  0.00     0.167 HD
ATOM     54  C   UNL A   1      45.471  27.858  26.701  1.00  0.00     0.034 A 
ATOM     55  C   UNL A   1      39.816  30.123  30.133  1.00  0.00     0.034 A 
ATOM     56  C   UNL A   1      45.574  29.195  27.225  1.00  0.00     0.049 A 
ATOM     57  C   UNL A   1      41.053  30.968  30.000  1.00  0.00     0.074 A 
ATOM     58  C   UNL A   1      46.643  30.070  27.148  1.00  0.00     0.029 A 
ATOM     59  N   UNL A   1      44.572  29.850  27.923  1.00  0.00    -0.354 N 
ATOM     60  N   UNL A   1      42.157  30.716  29.340  1.00  0.00    -0.248 NA
ATOM     61  C   UNL A   1      41.035  32.279  30.663  1.00  0.00     0.031 C 
ATOM     62  C   UNL A   1      46.290  31.252  27.810  1.00  0.00     0.029 A 
ATOM     63  C   UNL A   1      44.997  31.118  28.285  1.00  0.00     0.049 A 
ATOM     64  H   UNL A   1      43.688  29.470  28.132  1.00  0.00     0.167 HD
ATOM     65  C   UNL A   1      42.953  31.847  29.483  1.00  0.00     0.074 A 
ATOM     66  C   UNL A   1      42.191  32.797  30.268  1.00  0.00     0.031 C 
ATOM     67  C   UNL A   1      44.209  32.072  29.023  1.00  0.00     0.034 A 
BRANCH  54  68
ATOM     68  C   UNL A   1      46.666  27.278  25.988  1.00  0.00     0.023 A 
ATOM     69  C   UNL A   1      47.426  26.274  26.623  1.00  0.00     0.012 A 
ATOM     70  C   UNL A   1      47.005  27.678  24.681  1.00  0.00     0.148 A 
ATOM     71  C   UNL A   1      48.524  25.702  25.984  1.00  0.00     0.002 A 
ATOM     72  C   UNL A   1      48.076  27.072  24.033  1.00  0.00     0.091 A 
ATOM     73  F   UNL A   1      46.286  28.648  24.101  1.00  0.00    -0.205 F 
ATOM     74  C   UNL A   1      48.843  26.093  24.687  1.00  0.00     0.022 A 
BRANCH  72  75
ATOM     75  S   UNL A   1      48.521  27.451  22.334  1.00  0.00     0.127 S 
ATOM     76  O   UNL A   1      48.653  26.113  21.758  1.00  0.00    -0.237 OA
ATOM     77  O   UNL A   1      47.354  28.202  21.869  1.00  0.00    -0.237 OA
ATOM     78  O   UNL A   1      49.751  28.226  22.406  1.00  0.00    -0.744 OA
ENDBRANCH  72  75
ENDBRANCH  54  68
BRANCH  55  79
ATOM     79  C   UNL A   1      38.633  30.605  30.901  1.00  0.00     0.023 A 
ATOM     80  C   UNL A   1      38.566  30.369  32.287  1.00  0.00     0.012 A 
ATOM     81  C   UNL A   1      37.600  31.328  30.276  1.00  0.00     0.148 A 
ATOM     82  C   UNL A   1      37.475  30.818  33.033  1.00  0.00     0.002 A 
ATOM     83  C   UNL A   1      36.544  31.821  31.034  1.00  0.00     0.091 A 
ATOM     84  F   UNL A   1      37.676  31.532  28.952  1.00  0.00    -0.205 F 
ATOM     85  C   UNL A   1      36.471  31.553  32.410  1.00  0.00     0.022 A 
BRANCH  83  86
ATOM     86  S   UNL A   1      35.284  32.895  30.337  1.00  0.00     0.127 S 
ATOM     87  O   UNL A   1      34.721  32.054  29.286  1.00  0.00    -0.237 OA
ATOM     88  O   UNL A   1      34.406  33.122  31.485  1.00  0.00    -0.237 OA
ATOM     89  O   UNL A   1      35.995  34.087  29.887  1.00  0.00    -0.744 OA
ENDBRANCH  83  86
ENDBRANCH  55  79
BRANCH  67  90
ATOM     90  C   UNL A   1      44.835  33.405  29.339  1.00  0.00     0.023 A 
ATOM     91  C   UNL A   1      45.560  33.569  30.535  1.00  0.00     0.012 A 
ATOM     92  C   UNL A   1      44.756  34.474  28.426  1.00  0.00     0.148 A 
ATOM     93  C   UNL A   1      46.167  34.788  30.836  1.00  0.00     0.002 A 
ATOM     94  C   UNL A   1      45.402  35.673  28.711  1.00  0.00     0.091 A 
ATOM     95  F   UNL A   1      44.045  34.308  27.301  1.00  0.00    -0.205 F 
ATOM     96  C   UNL A   1      46.097  35.835  29.920  1.00  0.00     0.022 A 
BRANCH  94  97
ATOM     97  S   UNL A   1      45.440  37.040  27.546  1.00  0.00     0.127 S 
ATOM     98  O   UNL A   1      44.015  37.314  27.362  1.00  0.00    -0.237 OA
ATOM     99  O   UNL A   1      46.168  38.068  28.291  1.00  0.00    -0.237 OA
ATOM    100  O   UNL A   1      46.142  36.539  26.371  1.00  0.00    -0.744 OA
ENDBRANCH  94  97
ENDBRANCH  67  90
ENDBRANCH  41  42
ENDBRANCH  33  36
ENDBRANCH  31  32
ENDBRANCH  30  31
ENDBRANCH   1  30
TORSDOF 19
ENDMDL
MODEL 3
REMARK VINA RESULT:     -12.6      4.960     10.381
REMARK SMILES C[C@@H](C(=O)NCCCNC(=O)c1ccc(-c2c3nc(c(-c4cccc(S(=O)(=O)[O-])c4F)c4ccc([nH]4)c(-c4cccc(S(=O)(=O)[O-])c4F)c4nc(c(-c5cccc(S(=O)(=O)[O-])c5F)c5ccc2[nH]5)C=C4)C=C3)cc1)c1ccc(C[C@H]2CCC[C@H]2O)cc1-c1ccc(O)cc1
REMARK SMILES IDX 6 1 5 2 3 3 4 4 2 6 1 7 75 8 76 9 87 10 77 11 86 12 78 13
REMARK SMILES IDX 88 14 89 15 94 16 90 17 93 18 91 19 92 20 79 22 80 23 81 24
REMARK SMILES IDX 84 25 82 26 83 27 85 28 7 30 8 31 9 32 10 33 11 35 12 36
REMARK SMILES IDX 13 37 74 38 14 39 73 40 15 41 16 42 17 43 67 44 18 45 72 46
REMARK SMILES IDX 66 47 68 48 19 49 71 50 65 51 64 52 20 54 52 55 32 56 51 57
REMARK SMILES IDX 33 58 36 59 50 60 69 61 34 62 35 63 49 65 70 66 37 67 21 68
REMARK SMILES IDX 22 69 30 70 23 71 25 72 31 73 24 74 26 75 27 76 28 77 29 78
REMARK SMILES IDX 53 79 54 80 62 81 55 82 57 83 63 84 56 85 58 86 59 87 60 88
REMARK SMILES IDX 61 89 38 90 39 91 47 92 40 93 42 94 48 95 41 96 43 97 44 98
REMARK SMILES IDX 45 99 46 100
REMARK H PARENT 5 5 92 21 85 29 9 34 68 53 36 64
REMARK Flexibility Score: inf
ROOT
ATOM      1  C   UNL A   1      34.315  23.954  26.101  1.00  0.00     0.117 C 
ENDROOT
BRANCH   1   2
ATOM      2  N   UNL A   1      33.686  24.072  24.801  1.00  0.00    -0.356 N 
ATOM      3  C   UNL A   1      32.646  24.853  24.401  1.00  0.00     0.227 C 
ATOM      4  O   UNL A   1      32.673  25.194  23.215  1.00  0.00    -0.274 OA
ATOM      5  H   UNL A   1      34.070  23.498  24.100  1.00  0.00     0.163 HD
BRANCH   3   6
ATOM      6  C   UNL A   1      31.613  25.402  25.393  1.00  0.00     0.106 C 
ATOM      7  C   UNL A   1      30.718  24.420  26.160  1.00  0.00     0.023 C 
BRANCH   6   8
ATOM      8  C   UNL A   1      30.685  26.484  24.813  1.00  0.00    -0.028 A 
ATOM      9  C   UNL A   1      29.502  26.007  24.212  1.00  0.00     0.005 A 
ATOM     10  C   UNL A   1      30.975  27.874  24.748  1.00  0.00    -0.014 A 
ATOM     11  C   UNL A   1      28.657  26.851  23.501  1.00  0.00     0.004 A 
ATOM     12  C   UNL A   1      30.131  28.692  23.962  1.00  0.00     0.012 A 
ATOM     13  C   UNL A   1      29.002  28.185  23.299  1.00  0.00    -0.047 A 
BRANCH  10  14
ATOM     14  C   UNL A   1      32.032  28.540  25.543  1.00  0.00    -0.018 A 
ATOM     15  C   UNL A   1      31.792  29.838  26.038  1.00  0.00     0.012 A 
ATOM     16  C   UNL A   1      33.259  27.941  25.860  1.00  0.00     0.012 A 
ATOM     17  C   UNL A   1      32.702  30.474  26.885  1.00  0.00     0.047 A 
ATOM     18  C   UNL A   1      34.166  28.566  26.729  1.00  0.00     0.047 A 
ATOM     19  C   UNL A   1      33.870  29.821  27.247  1.00  0.00     0.115 A 
BRANCH  19  20
ATOM     20  O   UNL A   1      34.704  30.449  28.122  1.00  0.00    -0.508 OA
ATOM     21  H   UNL A   1      35.208  29.948  28.733  1.00  0.00     0.293 HD
ENDBRANCH  19  20
ENDBRANCH  10  14
BRANCH  13  22
ATOM     22  C   UNL A   1      28.178  29.050  22.379  1.00  0.00     0.041 C 
BRANCH  22  23
ATOM     23  C   UNL A   1      28.606  30.520  22.216  1.00  0.00     0.022 C 
ATOM     24  C   UNL A   1      28.151  31.213  20.921  1.00  0.00     0.007 C 
ATOM     25  C   UNL A   1      28.258  31.520  23.332  1.00  0.00     0.117 C 
ATOM     26  C   UNL A   1      28.028  32.702  21.255  1.00  0.00     0.003 C 
ATOM     27  C   UNL A   1      28.558  32.864  22.677  1.00  0.00     0.032 C 
BRANCH  25  28
ATOM     28  O   UNL A   1      26.904  31.517  23.744  1.00  0.00    -0.393 OA
ATOM     29  H   UNL A   1      26.394  32.123  23.183  1.00  0.00     0.210 HD
ENDBRANCH  25  28
ENDBRANCH  22  23
ENDBRANCH  13  22
ENDBRANCH   6   8
ENDBRANCH   3   6
ENDBRANCH   1   2
BRANCH   1  30
ATOM     30  C   UNL A   1      35.379  22.863  26.150  1.00  0.00     0.042 C 
BRANCH  30  31
ATOM     31  C   UNL A   1      36.765  23.307  25.686  1.00  0.00     0.118 C 
BRANCH  31  32
ATOM     32  N   UNL A   1      37.824  22.411  26.126  1.00  0.00    -0.352 N 
ATOM     33  C   UNL A   1      39.070  22.679  26.632  1.00  0.00     0.251 C 
ATOM     34  H   UNL A   1      37.611  21.454  26.046  1.00  0.00     0.163 HD
ATOM     35  O   UNL A   1      39.870  21.755  26.763  1.00  0.00    -0.269 OA
BRANCH  33  36
ATOM     36  C   UNL A   1      39.466  24.054  27.008  1.00  0.00     0.039 A 
ATOM     37  C   UNL A   1      39.283  24.461  28.334  1.00  0.00     0.014 A 
ATOM     38  C   UNL A   1      39.964  24.958  26.067  1.00  0.00     0.014 A 
ATOM     39  C   UNL A   1      39.649  25.751  28.723  1.00  0.00     0.010 A 
ATOM     40  C   UNL A   1      40.402  26.218  26.473  1.00  0.00     0.010 A 
ATOM     41  C   UNL A   1      40.239  26.633  27.802  1.00  0.00    -0.014 A 
BRANCH  41  42
ATOM     42  C   UNL A   1      40.698  27.981  28.226  1.00  0.00     0.031 A 
ATOM     43  C   UNL A   1      42.158  28.347  28.181  1.00  0.00     0.074 A 
ATOM     44  C   UNL A   1      39.801  28.860  28.716  1.00  0.00     0.049 A 
ATOM     45  N   UNL A   1      42.735  29.474  28.513  1.00  0.00    -0.248 NA
ATOM     46  C   UNL A   1      43.097  27.306  27.730  1.00  0.00     0.031 C 
ATOM     47  C   UNL A   1      38.374  28.593  28.904  1.00  0.00     0.029 A 
ATOM     48  N   UNL A   1      39.960  30.146  29.167  1.00  0.00    -0.354 N 
ATOM     49  C   UNL A   1      44.098  29.270  28.339  1.00  0.00     0.074 A 
ATOM     50  C   UNL A   1      44.268  27.898  27.910  1.00  0.00     0.031 C 
ATOM     51  C   UNL A   1      37.785  29.684  29.420  1.00  0.00     0.029 A 
ATOM     52  C   UNL A   1      38.795  30.720  29.618  1.00  0.00     0.049 A 
ATOM     53  H   UNL A   1      40.825  30.614  29.166  1.00  0.00     0.167 HD
ATOM     54  C   UNL A   1      45.116  30.153  28.485  1.00  0.00     0.034 A 
ATOM     55  C   UNL A   1      38.561  31.945  30.129  1.00  0.00     0.034 A 
ATOM     56  C   UNL A   1      44.941  31.530  28.865  1.00  0.00     0.049 A 
ATOM     57  C   UNL A   1      39.695  32.929  30.215  1.00  0.00     0.074 A 
ATOM     58  C   UNL A   1      45.898  32.526  28.959  1.00  0.00     0.029 A 
ATOM     59  N   UNL A   1      43.730  32.106  29.215  1.00  0.00    -0.354 N 
ATOM     60  N   UNL A   1      40.953  32.768  29.882  1.00  0.00    -0.248 NA
ATOM     61  C   UNL A   1      39.371  34.276  30.702  1.00  0.00     0.031 C 
ATOM     62  C   UNL A   1      45.265  33.702  29.377  1.00  0.00     0.029 A 
ATOM     63  C   UNL A   1      43.913  33.443  29.528  1.00  0.00     0.049 A 
ATOM     64  H   UNL A   1      42.866  31.634  29.239  1.00  0.00     0.167 HD
ATOM     65  C   UNL A   1      41.564  33.999  30.091  1.00  0.00     0.074 A 
ATOM     66  C   UNL A   1      40.530  34.904  30.551  1.00  0.00     0.031 C 
ATOM     67  C   UNL A   1      42.866  34.344  29.936  1.00  0.00     0.034 A 
BRANCH  54  68
ATOM     68  C   UNL A   1      46.508  29.674  28.161  1.00  0.00     0.023 A 
ATOM     69  C   UNL A   1      46.972  29.754  26.831  1.00  0.00     0.012 A 
ATOM     70  C   UNL A   1      47.373  29.200  29.166  1.00  0.00     0.148 A 
ATOM     71  C   UNL A   1      48.261  29.339  26.501  1.00  0.00     0.002 A 
ATOM     72  C   UNL A   1      48.672  28.828  28.836  1.00  0.00     0.091 A 
ATOM     73  F   UNL A   1      46.909  29.110  30.420  1.00  0.00    -0.205 F 
ATOM     74  C   UNL A   1      49.114  28.887  27.504  1.00  0.00     0.022 A 
BRANCH  72  75
ATOM     75  S   UNL A   1      49.872  28.303  30.067  1.00  0.00     0.127 S 
ATOM     76  O   UNL A   1      49.930  29.475  30.940  1.00  0.00    -0.237 OA
ATOM     77  O   UNL A   1      49.217  27.135  30.659  1.00  0.00    -0.237 OA
ATOM     78  O   UNL A   1      51.093  28.006  29.333  1.00  0.00    -0.744 OA
ENDBRANCH  72  75
ENDBRANCH  54  68
BRANCH  55  79
ATOM     79  C   UNL A   1      37.176  32.333  30.520  1.00  0.00     0.023 A 
ATOM     80  C   UNL A   1      36.739  32.099  31.838  1.00  0.00     0.012 A 
ATOM     81  C   UNL A   1      36.309  32.966  29.610  1.00  0.00     0.148 A 
ATOM     82  C   UNL A   1      35.450  32.461  32.235  1.00  0.00     0.002 A 
ATOM     83  C   UNL A   1      35.047  33.374  30.027  1.00  0.00     0.091 A 
ATOM     84  F   UNL A   1      36.739  33.168  28.356  1.00  0.00    -0.205 F 
ATOM     85  C   UNL A   1      34.609  33.108  31.334  1.00  0.00     0.022 A 
BRANCH  83  86
ATOM     86  S   UNL A   1      33.956  34.338  28.974  1.00  0.00     0.127 S 
ATOM     87  O   UNL A   1      33.521  33.341  28.000  1.00  0.00    -0.237 OA
ATOM     88  O   UNL A   1      32.924  34.771  29.918  1.00  0.00    -0.237 OA
ATOM     89  O   UNL A   1      34.778  35.424  28.453  1.00  0.00    -0.744 OA
ENDBRANCH  83  86
ENDBRANCH  55  79
BRANCH  67  90
ATOM     90  C   UNL A   1      43.248  35.768  30.246  1.00  0.00     0.023 A 
ATOM     91  C   UNL A   1      43.777  36.088  31.512  1.00  0.00     0.012 A 
ATOM     92  C   UNL A   1      43.138  36.775  29.268  1.00  0.00     0.148 A 
ATOM     93  C   UNL A   1      44.158  37.395  31.813  1.00  0.00     0.002 A 
ATOM     94  C   UNL A   1      43.562  38.068  29.560  1.00  0.00     0.091 A 
ATOM     95  F   UNL A   1      42.613  36.458  28.076  1.00  0.00    -0.205 F 
ATOM     96  C   UNL A   1      44.061  38.381  30.834  1.00  0.00     0.022 A 
BRANCH  94  97
ATOM     97  S   UNL A   1      43.558  39.376  28.328  1.00  0.00     0.127 S 
ATOM     98  O   UNL A   1      44.504  38.858  27.340  1.00  0.00    -0.237 OA
ATOM     99  O   UNL A   1      42.162  39.389  27.888  1.00  0.00    -0.237 OA
ATOM    100  O   UNL A   1      43.977  40.582  29.030  1.00  0.00    -0.744 OA
ENDBRANCH  94  97
ENDBRANCH  67  90
ENDBRANCH  41  42
ENDBRANCH  33  36
ENDBRANCH  31  32
ENDBRANCH  30  31
ENDBRANCH   1  30
TORSDOF 19
ENDMDL
