MODEL 1
REMARK VINA RESULT:     -12.7      0.000      0.000
REMARK SMILES Cn1c(=O)[nH]c(=O)c2c1nc(NC1CCCC1)n2CC(=O)NCCCNC(=O)c1ccc(-c2c3nc(c(-c4cccc(S(=O)(=O)[O-])c4F)c4ccc([nH]4)c(-c4cccc(S(=O)(=O)[O-])c4F)c4nc(c(-c5cccc(S(=O)(=O)[O-])c5F)c5ccc2[nH]5)C=C4)C=C3)cc1
REMARK SMILES IDX 24 1 23 2 22 3 20 4 21 5 19 7 18 8 1 9 2 10 3 11 9 12 4 13
REMARK SMILES IDX 5 14 8 15 10 16 6 17 11 19 7 20 12 21 13 23 14 24 17 25
REMARK SMILES IDX 15 26 16 27 25 28 26 29 27 30 28 32 29 33 30 34 91 35 31 36
REMARK SMILES IDX 90 37 32 38 33 39 34 40 84 41 35 42 89 43 83 44 85 45 36 46
REMARK SMILES IDX 88 47 82 48 81 49 37 51 69 52 49 53 68 54 50 55 53 56 67 57
REMARK SMILES IDX 86 58 51 59 52 60 66 62 87 63 54 64 38 65 39 66 47 67 40 68
REMARK SMILES IDX 42 69 48 70 41 71 43 72 44 73 45 74 46 75 70 76 71 77 79 78
REMARK SMILES IDX 72 79 74 80 80 81 73 82 75 83 76 84 77 85 78 86 55 87 56 88
REMARK SMILES IDX 64 89 57 90 59 91 65 92 58 93 60 94 61 95 62 96 63 97
REMARK H PARENT 22 6 5 18 12 22 26 31 85 50 53 61
REMARK Flexibility Score: inf
ROOT
ATOM      1  C   UNL A   1      38.211  19.484  25.190  1.00  0.00     0.042 C 
ENDROOT
BRANCH   1   2
ATOM      2  C   UNL A   1      37.261  20.529  24.596  1.00  0.00     0.117 C 
BRANCH   2   3
ATOM      3  N   UNL A   1      37.157  21.731  25.405  1.00  0.00    -0.354 N 
ATOM      4  C   UNL A   1      36.239  22.739  25.332  1.00  0.00     0.240 C 
ATOM      5  O   UNL A   1      36.318  23.676  26.129  1.00  0.00    -0.273 OA
ATOM      6  H   UNL A   1      37.843  21.832  26.104  1.00  0.00     0.163 HD
BRANCH   4   7
ATOM      7  C   UNL A   1      35.123  22.698  24.313  1.00  0.00     0.226 C 
BRANCH   7   8
ATOM      8  N   UNL A   1      33.820  22.513  24.918  1.00  0.00    -0.295 N 
ATOM      9  C   UNL A   1      29.746  22.831  27.066  1.00  0.00     0.157 C 
ATOM     10  N   UNL A   1      30.796  23.518  26.344  1.00  0.00    -0.279 N 
ATOM     11  C   UNL A   1      30.729  24.896  26.186  1.00  0.00     0.329 A 
ATOM     12  C   UNL A   1      31.879  22.844  25.824  1.00  0.00     0.170 A 
ATOM     13  O   UNL A   1      29.812  25.595  26.619  1.00  0.00    -0.248 OA
ATOM     14  N   UNL A   1      31.762  25.501  25.495  1.00  0.00    -0.272 N 
ATOM     15  C   UNL A   1      32.887  23.489  25.166  1.00  0.00     0.154 A 
ATOM     16  N   UNL A   1      32.111  21.517  25.920  1.00  0.00    -0.194 NA
ATOM     17  C   UNL A   1      32.858  24.890  24.939  1.00  0.00     0.279 A 
ATOM     18  H   UNL A   1      31.705  26.479  25.391  1.00  0.00     0.175 HD
ATOM     19  C   UNL A   1      33.299  21.317  25.388  1.00  0.00     0.206 A 
ATOM     20  O   UNL A   1      33.716  25.536  24.334  1.00  0.00    -0.267 OA
BRANCH  19  21
ATOM     21  N   UNL A   1      33.978  20.155  25.304  1.00  0.00    -0.353 N 
ATOM     22  H   UNL A   1      34.884  20.112  25.684  1.00  0.00     0.163 HD
BRANCH  21  23
ATOM     23  C   UNL A   1      33.430  18.958  24.675  1.00  0.00     0.082 C 
ATOM     24  C   UNL A   1      32.647  19.212  23.391  1.00  0.00     0.025 C 
ATOM     25  C   UNL A   1      34.492  17.933  24.285  1.00  0.00     0.025 C 
ATOM     26  C   UNL A   1      32.596  17.841  22.728  1.00  0.00     0.002 C 
ATOM     27  C   UNL A   1      33.871  17.116  23.155  1.00  0.00     0.002 C 
ENDBRANCH  21  23
ENDBRANCH  19  21
ENDBRANCH   7   8
ENDBRANCH   4   7
ENDBRANCH   2   3
ENDBRANCH   1   2
BRANCH   1  28
ATOM     28  C   UNL A   1      39.441  20.120  25.812  1.00  0.00     0.118 C 
BRANCH  28  29
ATOM     29  N   UNL A   1      40.596  19.217  25.812  1.00  0.00    -0.352 N 
ATOM     30  C   UNL A   1      41.929  19.545  25.963  1.00  0.00     0.251 C 
ATOM     31  H   UNL A   1      40.398  18.259  25.690  1.00  0.00     0.163 HD
ATOM     32  O   UNL A   1      42.811  18.764  25.626  1.00  0.00    -0.269 OA
BRANCH  30  33
ATOM     33  C   UNL A   1      42.262  20.852  26.552  1.00  0.00     0.039 A 
ATOM     34  C   UNL A   1      42.608  21.947  25.757  1.00  0.00     0.014 A 
ATOM     35  C   UNL A   1      42.175  20.969  27.936  1.00  0.00     0.014 A 
ATOM     36  C   UNL A   1      42.790  23.184  26.370  1.00  0.00     0.010 A 
ATOM     37  C   UNL A   1      42.178  22.210  28.511  1.00  0.00     0.010 A 
ATOM     38  C   UNL A   1      42.552  23.307  27.748  1.00  0.00    -0.014 A 
BRANCH  38  39
ATOM     39  C   UNL A   1      42.565  24.604  28.406  1.00  0.00     0.031 A 
ATOM     40  C   UNL A   1      41.343  25.414  28.162  1.00  0.00     0.074 A 
ATOM     41  C   UNL A   1      43.494  24.928  29.333  1.00  0.00     0.049 A 
ATOM     42  N   UNL A   1      41.259  26.509  27.482  1.00  0.00    -0.248 NA
ATOM     43  C   UNL A   1      40.037  24.867  28.567  1.00  0.00     0.031 C 
ATOM     44  C   UNL A   1      44.562  24.080  29.883  1.00  0.00     0.029 A 
ATOM     45  N   UNL A   1      43.587  26.046  30.099  1.00  0.00    -0.354 N 
ATOM     46  C   UNL A   1      39.932  26.921  27.594  1.00  0.00     0.074 A 
ATOM     47  C   UNL A   1      39.199  25.778  28.065  1.00  0.00     0.031 C 
ATOM     48  C   UNL A   1      44.999  24.603  31.050  1.00  0.00     0.029 A 
ATOM     49  C   UNL A   1      44.376  25.898  31.239  1.00  0.00     0.049 A 
ATOM     50  H   UNL A   1      43.136  26.890  29.869  1.00  0.00     0.167 HD
ATOM     51  C   UNL A   1      39.606  28.243  27.546  1.00  0.00     0.034 A 
ATOM     52  C   UNL A   1      44.464  26.762  32.282  1.00  0.00     0.034 A 
ATOM     53  C   UNL A   1      40.712  29.028  27.055  1.00  0.00     0.049 A 
ATOM     54  C   UNL A   1      43.996  28.076  31.782  1.00  0.00     0.074 A 
ATOM     55  C   UNL A   1      41.460  29.036  25.895  1.00  0.00     0.029 A 
ATOM     56  N   UNL A   1      41.458  29.698  27.996  1.00  0.00    -0.354 N 
ATOM     57  N   UNL A   1      44.627  28.759  30.868  1.00  0.00    -0.248 NA
ATOM     58  C   UNL A   1      42.590  28.402  31.956  1.00  0.00     0.031 C 
ATOM     59  C   UNL A   1      42.797  29.272  26.328  1.00  0.00     0.029 A 
ATOM     60  C   UNL A   1      42.779  29.481  27.709  1.00  0.00     0.049 A 
ATOM     61  H   UNL A   1      41.106  30.235  28.741  1.00  0.00     0.167 HD
ATOM     62  C   UNL A   1      43.616  29.237  30.046  1.00  0.00     0.074 A 
ATOM     63  C   UNL A   1      42.385  29.078  30.822  1.00  0.00     0.031 C 
ATOM     64  C   UNL A   1      43.824  29.424  28.710  1.00  0.00     0.034 A 
BRANCH  51  65
ATOM     65  C   UNL A   1      38.457  28.898  28.279  1.00  0.00     0.023 A 
ATOM     66  C   UNL A   1      37.542  29.644  27.497  1.00  0.00     0.012 A 
ATOM     67  C   UNL A   1      38.372  29.059  29.681  1.00  0.00     0.148 A 
ATOM     68  C   UNL A   1      36.646  30.550  28.072  1.00  0.00     0.002 A 
ATOM     69  C   UNL A   1      37.424  29.901  30.253  1.00  0.00     0.091 A 
ATOM     70  F   UNL A   1      39.286  28.503  30.478  1.00  0.00    -0.205 F 
ATOM     71  C   UNL A   1      36.582  30.676  29.453  1.00  0.00     0.022 A 
BRANCH  69  72
ATOM     72  S   UNL A   1      37.258  30.065  32.037  1.00  0.00     0.127 S 
ATOM     73  O   UNL A   1      36.049  30.877  32.145  1.00  0.00    -0.237 OA
ATOM     74  O   UNL A   1      37.106  28.669  32.449  1.00  0.00    -0.237 OA
ATOM     75  O   UNL A   1      38.491  30.692  32.492  1.00  0.00    -0.744 OA
ENDBRANCH  69  72
ENDBRANCH  51  65
BRANCH  52  76
ATOM     76  C   UNL A   1      44.659  26.504  33.731  1.00  0.00     0.023 A 
ATOM     77  C   UNL A   1      45.898  26.813  34.331  1.00  0.00     0.012 A 
ATOM     78  C   UNL A   1      43.557  26.254  34.578  1.00  0.00     0.148 A 
ATOM     79  C   UNL A   1      46.024  26.917  35.724  1.00  0.00     0.002 A 
ATOM     80  C   UNL A   1      43.686  26.364  35.961  1.00  0.00     0.091 A 
ATOM     81  F   UNL A   1      42.362  26.004  34.026  1.00  0.00    -0.205 F 
ATOM     82  C   UNL A   1      44.915  26.707  36.537  1.00  0.00     0.022 A 
BRANCH  80  83
ATOM     83  S   UNL A   1      42.285  26.166  37.073  1.00  0.00     0.127 S 
ATOM     84  O   UNL A   1      41.890  24.782  36.819  1.00  0.00    -0.237 OA
ATOM     85  O   UNL A   1      42.902  26.399  38.377  1.00  0.00    -0.237 OA
ATOM     86  O   UNL A   1      41.303  27.158  36.657  1.00  0.00    -0.744 OA
ENDBRANCH  80  83
ENDBRANCH  52  76
BRANCH  64  87
ATOM     87  C   UNL A   1      45.231  29.311  28.170  1.00  0.00     0.023 A 
ATOM     88  C   UNL A   1      46.194  30.328  28.350  1.00  0.00     0.012 A 
ATOM     89  C   UNL A   1      45.649  28.055  27.702  1.00  0.00     0.148 A 
ATOM     90  C   UNL A   1      47.545  30.091  28.073  1.00  0.00     0.002 A 
ATOM     91  C   UNL A   1      46.999  27.807  27.486  1.00  0.00     0.091 A 
ATOM     92  F   UNL A   1      44.720  27.103  27.537  1.00  0.00    -0.205 F 
ATOM     93  C   UNL A   1      47.949  28.824  27.662  1.00  0.00     0.022 A 
BRANCH  91  94
ATOM     94  S   UNL A   1      47.601  26.157  27.116  1.00  0.00     0.127 S 
ATOM     95  O   UNL A   1      47.837  26.235  25.677  1.00  0.00    -0.237 OA
ATOM     96  O   UNL A   1      48.812  26.079  27.933  1.00  0.00    -0.237 OA
ATOM     97  O   UNL A   1      46.544  25.240  27.526  1.00  0.00    -0.744 OA
ENDBRANCH  91  94
ENDBRANCH  64  87
ENDBRANCH  38  39
ENDBRANCH  30  33
ENDBRANCH  28  29
ENDBRANCH   1  28
TORSDOF 16
ENDMDL
MODEL 2
REMARK VINA RESULT:     -12.1      3.058      7.936
REMARK SMILES Cn1c(=O)[nH]c(=O)c2c1nc(NC1CCCC1)n2CC(=O)NCCCNC(=O)c1ccc(-c2c3nc(c(-c4cccc(S(=O)(=O)[O-])c4F)c4ccc([nH]4)c(-c4cccc(S(=O)(=O)[O-])c4F)c4nc(c(-c5cccc(S(=O)(=O)[O-])c5F)c5ccc2[nH]5)C=C4)C=C3)cc1
REMARK SMILES IDX 24 1 23 2 22 3 20 4 21 5 19 7 18 8 1 9 2 10 3 11 9 12 4 13
REMARK SMILES IDX 5 14 8 15 10 16 6 17 11 19 7 20 12 21 13 23 14 24 17 25
REMARK SMILES IDX 15 26 16 27 25 28 26 29 27 30 28 32 29 33 30 34 91 35 31 36
REMARK SMILES IDX 90 37 32 38 33 39 34 40 84 41 35 42 89 43 83 44 85 45 36 46
REMARK SMILES IDX 88 47 82 48 81 49 37 51 69 52 49 53 68 54 50 55 53 56 67 57
REMARK SMILES IDX 86 58 51 59 52 60 66 62 87 63 54 64 38 65 39 66 47 67 40 68
REMARK SMILES IDX 42 69 48 70 41 71 43 72 44 73 45 74 46 75 70 76 71 77 79 78
REMARK SMILES IDX 72 79 74 80 80 81 73 82 75 83 76 84 77 85 78 86 55 87 56 88
REMARK SMILES IDX 64 89 57 90 59 91 65 92 58 93 60 94 61 95 62 96 63 97
REMARK H PARENT 22 6 5 18 12 22 26 31 85 50 53 61
REMARK Flexibility Score: inf
ROOT
ATOM      1  C   UNL A   1      34.029  29.214  27.463  1.00  0.00     0.042 C 
ENDROOT
BRANCH   1   2
ATOM      2  C   UNL A   1      33.187  28.893  26.223  1.00  0.00     0.117 C 
BRANCH   2   3
ATOM      3  N   UNL A   1      32.047  28.042  26.514  1.00  0.00    -0.354 N 
ATOM      4  C   UNL A   1      31.950  26.681  26.445  1.00  0.00     0.240 C 
ATOM      5  O   UNL A   1      30.885  26.143  26.749  1.00  0.00    -0.273 OA
ATOM      6  H   UNL A   1      31.230  28.510  26.802  1.00  0.00     0.163 HD
BRANCH   4   7
ATOM      7  C   UNL A   1      33.138  25.841  26.033  1.00  0.00     0.226 C 
BRANCH   7   8
ATOM      8  N   UNL A   1      32.800  24.846  25.036  1.00  0.00    -0.295 N 
ATOM      9  C   UNL A   1      32.023  21.062  22.507  1.00  0.00     0.157 C 
ATOM     10  N   UNL A   1      32.157  21.633  23.831  1.00  0.00    -0.279 N 
ATOM     11  C   UNL A   1      32.108  20.801  24.942  1.00  0.00     0.329 A 
ATOM     12  C   UNL A   1      32.353  22.983  24.022  1.00  0.00     0.170 A 
ATOM     13  O   UNL A   1      31.946  19.582  24.882  1.00  0.00    -0.248 OA
ATOM     14  N   UNL A   1      32.248  21.398  26.180  1.00  0.00    -0.272 N 
ATOM     15  C   UNL A   1      32.507  23.524  25.266  1.00  0.00     0.154 A 
ATOM     16  N   UNL A   1      32.458  23.917  23.052  1.00  0.00    -0.194 NA
ATOM     17  C   UNL A   1      32.430  22.733  26.443  1.00  0.00     0.279 A 
ATOM     18  H   UNL A   1      32.214  20.799  26.961  1.00  0.00     0.175 HD
ATOM     19  C   UNL A   1      32.750  25.045  23.665  1.00  0.00     0.206 A 
ATOM     20  O   UNL A   1      32.534  23.153  27.597  1.00  0.00    -0.267 OA
BRANCH  19  21
ATOM     21  N   UNL A   1      33.000  26.245  23.104  1.00  0.00    -0.353 N 
ATOM     22  H   UNL A   1      33.931  26.565  23.075  1.00  0.00     0.163 HD
BRANCH  21  23
ATOM     23  C   UNL A   1      31.956  27.093  22.539  1.00  0.00     0.082 C 
ATOM     24  C   UNL A   1      30.557  26.835  23.089  1.00  0.00     0.025 C 
ATOM     25  C   UNL A   1      32.191  28.585  22.764  1.00  0.00     0.025 C 
ATOM     26  C   UNL A   1      29.787  28.093  22.707  1.00  0.00     0.002 C 
ATOM     27  C   UNL A   1      30.809  29.228  22.694  1.00  0.00     0.002 C 
ENDBRANCH  21  23
ENDBRANCH  19  21
ENDBRANCH   7   8
ENDBRANCH   4   7
ENDBRANCH   2   3
ENDBRANCH   1   2
BRANCH   1  28
ATOM     28  C   UNL A   1      34.870  30.463  27.271  1.00  0.00     0.118 C 
BRANCH  28  29
ATOM     29  N   UNL A   1      34.596  31.481  28.290  1.00  0.00    -0.352 N 
ATOM     30  C   UNL A   1      35.193  31.624  29.527  1.00  0.00     0.251 C 
ATOM     31  H   UNL A   1      33.903  32.144  28.065  1.00  0.00     0.163 HD
ATOM     32  O   UNL A   1      34.665  32.297  30.406  1.00  0.00    -0.269 OA
BRANCH  30  33
ATOM     33  C   UNL A   1      36.484  30.959  29.760  1.00  0.00     0.039 A 
ATOM     34  C   UNL A   1      36.562  29.605  30.097  1.00  0.00     0.014 A 
ATOM     35  C   UNL A   1      37.636  31.722  29.586  1.00  0.00     0.014 A 
ATOM     36  C   UNL A   1      37.818  29.010  30.180  1.00  0.00     0.010 A 
ATOM     37  C   UNL A   1      38.850  31.101  29.493  1.00  0.00     0.010 A 
ATOM     38  C   UNL A   1      38.955  29.765  29.856  1.00  0.00    -0.014 A 
BRANCH  38  39
ATOM     39  C   UNL A   1      40.271  29.151  29.766  1.00  0.00     0.031 A 
ATOM     40  C   UNL A   1      40.923  28.930  31.083  1.00  0.00     0.074 A 
ATOM     41  C   UNL A   1      40.739  28.625  28.612  1.00  0.00     0.049 A 
ATOM     42  N   UNL A   1      41.971  29.527  31.542  1.00  0.00    -0.248 NA
ATOM     43  C   UNL A   1      40.245  28.079  32.076  1.00  0.00     0.031 C 
ATOM     44  C   UNL A   1      40.044  28.506  27.322  1.00  0.00     0.029 A 
ATOM     45  N   UNL A   1      41.891  27.941  28.386  1.00  0.00    -0.354 N 
ATOM     46  C   UNL A   1      42.231  28.938  32.778  1.00  0.00     0.074 A 
ATOM     47  C   UNL A   1      41.031  28.237  33.144  1.00  0.00     0.031 C 
ATOM     48  C   UNL A   1      40.662  27.576  26.560  1.00  0.00     0.029 A 
ATOM     49  C   UNL A   1      41.882  27.168  27.226  1.00  0.00     0.049 A 
ATOM     50  H   UNL A   1      42.666  27.987  28.991  1.00  0.00     0.167 HD
ATOM     51  C   UNL A   1      43.503  28.859  33.260  1.00  0.00     0.034 A 
ATOM     52  C   UNL A   1      42.792  26.225  26.874  1.00  0.00     0.034 A 
ATOM     53  C   UNL A   1      44.390  29.716  32.512  1.00  0.00     0.049 A 
ATOM     54  C   UNL A   1      44.021  26.514  27.649  1.00  0.00     0.074 A 
ATOM     55  C   UNL A   1      44.438  31.068  32.243  1.00  0.00     0.029 A 
ATOM     56  N   UNL A   1      45.180  29.108  31.565  1.00  0.00    -0.354 N 
ATOM     57  N   UNL A   1      44.735  27.593  27.481  1.00  0.00    -0.248 NA
ATOM     58  C   UNL A   1      44.189  25.838  28.925  1.00  0.00     0.031 C 
ATOM     59  C   UNL A   1      44.845  31.151  30.880  1.00  0.00     0.029 A 
ATOM     60  C   UNL A   1      45.107  29.857  30.422  1.00  0.00     0.049 A 
ATOM     61  H   UNL A   1      45.703  28.283  31.687  1.00  0.00     0.167 HD
ATOM     62  C   UNL A   1      45.058  27.987  28.772  1.00  0.00     0.074 A 
ATOM     63  C   UNL A   1      44.789  26.817  29.608  1.00  0.00     0.031 C 
ATOM     64  C   UNL A   1      45.214  29.307  29.087  1.00  0.00     0.034 A 
BRANCH  51  65
ATOM     65  C   UNL A   1      44.050  27.754  34.137  1.00  0.00     0.023 A 
ATOM     66  C   UNL A   1      44.644  26.651  33.479  1.00  0.00     0.012 A 
ATOM     67  C   UNL A   1      43.778  27.600  35.516  1.00  0.00     0.148 A 
ATOM     68  C   UNL A   1      44.888  25.442  34.137  1.00  0.00     0.002 A 
ATOM     69  C   UNL A   1      44.095  26.423  36.186  1.00  0.00     0.091 A 
ATOM     70  F   UNL A   1      43.092  28.536  36.175  1.00  0.00    -0.205 F 
ATOM     71  C   UNL A   1      44.617  25.328  35.494  1.00  0.00     0.022 A 
BRANCH  69  72
ATOM     72  S   UNL A   1      43.818  26.234  37.952  1.00  0.00     0.127 S 
ATOM     73  O   UNL A   1      42.361  26.290  38.028  1.00  0.00    -0.237 OA
ATOM     74  O   UNL A   1      44.403  24.916  38.205  1.00  0.00    -0.237 OA
ATOM     75  O   UNL A   1      44.533  27.335  38.584  1.00  0.00    -0.744 OA
ENDBRANCH  69  72
ENDBRANCH  51  65
BRANCH  52  76
ATOM     76  C   UNL A   1      42.619  24.948  26.137  1.00  0.00     0.023 A 
ATOM     77  C   UNL A   1      43.600  24.542  25.208  1.00  0.00     0.012 A 
ATOM     78  C   UNL A   1      41.671  23.990  26.559  1.00  0.00     0.148 A 
ATOM     79  C   UNL A   1      43.665  23.218  24.752  1.00  0.00     0.002 A 
ATOM     80  C   UNL A   1      41.742  22.673  26.108  1.00  0.00     0.091 A 
ATOM     81  F   UNL A   1      40.759  24.344  27.474  1.00  0.00    -0.205 F 
ATOM     82  C   UNL A   1      42.745  22.281  25.214  1.00  0.00     0.022 A 
BRANCH  80  83
ATOM     83  S   UNL A   1      40.627  21.393  26.704  1.00  0.00     0.127 S 
ATOM     84  O   UNL A   1      41.153  20.201  26.040  1.00  0.00    -0.237 OA
ATOM     85  O   UNL A   1      40.857  21.442  28.146  1.00  0.00    -0.237 OA
ATOM     86  O   UNL A   1      39.296  21.789  26.265  1.00  0.00    -0.744 OA
ENDBRANCH  80  83
ENDBRANCH  52  76
BRANCH  64  87
ATOM     87  C   UNL A   1      45.243  30.322  27.969  1.00  0.00     0.023 A 
ATOM     88  C   UNL A   1      44.067  30.811  27.360  1.00  0.00     0.012 A 
ATOM     89  C   UNL A   1      46.460  30.974  27.713  1.00  0.00     0.148 A 
ATOM     90  C   UNL A   1      44.106  31.928  26.519  1.00  0.00     0.002 A 
ATOM     91  C   UNL A   1      46.486  32.118  26.926  1.00  0.00     0.091 A 
ATOM     92  F   UNL A   1      47.567  30.495  28.300  1.00  0.00    -0.205 F 
ATOM     93  C   UNL A   1      45.313  32.594  26.320  1.00  0.00     0.022 A 
BRANCH  91  94
ATOM     94  S   UNL A   1      47.971  33.112  26.765  1.00  0.00     0.127 S 
ATOM     95  O   UNL A   1      48.967  32.112  26.389  1.00  0.00    -0.237 OA
ATOM     96  O   UNL A   1      47.606  34.045  25.698  1.00  0.00    -0.237 OA
ATOM     97  O   UNL A   1      48.178  33.742  28.063  1.00  0.00    -0.744 OA
ENDBRANCH  91  94
ENDBRANCH  64  87
ENDBRANCH  38  39
ENDBRANCH  30  33
ENDBRANCH  28  29
ENDBRANCH   1  28
TORSDOF 16
ENDMDL
MODEL 3
REMARK VINA RESULT:     -12.0      3.363      8.073
REMARK SMILES Cn1c(=O)[nH]c(=O)c2c1nc(NC1CCCC1)n2CC(=O)NCCCNC(=O)c1ccc(-c2c3nc(c(-c4cccc(S(=O)(=O)[O-])c4F)c4ccc([nH]4)c(-c4cccc(S(=O)(=O)[O-])c4F)c4nc(c(-c5cccc(S(=O)(=O)[O-])c5F)c5ccc2[nH]5)C=C4)C=C3)cc1
REMARK SMILES IDX 24 1 23 2 22 3 20 4 21 5 19 7 18 8 1 9 2 10 3 11 9 12 4 13
REMARK SMILES IDX 5 14 8 15 10 16 6 17 11 19 7 20 12 21 13 23 14 24 17 25
REMARK SMILES IDX 15 26 16 27 25 28 26 29 27 30 28 32 29 33 30 34 91 35 31 36
REMARK SMILES IDX 90 37 32 38 33 39 34 40 84 41 35 42 89 43 83 44 85 45 36 46
REMARK SMILES IDX 88 47 82 48 81 49 37 51 69 52 49 53 68 54 50 55 53 56 67 57
REMARK SMILES IDX 86 58 51 59 52 60 66 62 87 63 54 64 38 65 39 66 47 67 40 68
REMARK SMILES IDX 42 69 48 70 41 71 43 72 44 73 45 74 46 75 70 76 71 77 79 78
REMARK SMILES IDX 72 79 74 80 80 81 73 82 75 83 76 84 77 85 78 86 55 87 56 88
REMARK SMILES IDX 64 89 57 90 59 91 65 92 58 93 60 94 61 95 62 96 63 97
REMARK H PARENT 22 6 5 18 12 22 26 31 85 50 53 61
REMARK Flexibility Score: inf
ROOT
ATOM      1  C   UNL A   1      33.746  29.535  27.137  1.00  0.00     0.042 C 
ENDROOT
BRANCH   1   2
ATOM      2  C   UNL A   1      33.959  28.552  25.981  1.00  0.00     0.117 C 
BRANCH   2   3
ATOM      3  N   UNL A   1      33.512  29.074  24.701  1.00  0.00    -0.354 N 
ATOM      4  C   UNL A   1      33.271  28.402  23.536  1.00  0.00     0.240 C 
ATOM      5  O   UNL A   1      32.882  29.033  22.553  1.00  0.00    -0.273 OA
ATOM      6  H   UNL A   1      33.362  30.046  24.667  1.00  0.00     0.163 HD
BRANCH   4   7
ATOM      7  C   UNL A   1      33.448  26.902  23.457  1.00  0.00     0.226 C 
BRANCH   7   8
ATOM      8  N   UNL A   1      32.455  26.180  24.226  1.00  0.00    -0.295 N 
ATOM      9  C   UNL A   1      29.989  23.273  26.830  1.00  0.00     0.157 C 
ATOM     10  N   UNL A   1      31.298  23.793  26.495  1.00  0.00    -0.279 N 
ATOM     11  C   UNL A   1      32.425  23.244  27.094  1.00  0.00     0.329 A 
ATOM     12  C   UNL A   1      31.463  24.807  25.579  1.00  0.00     0.170 A 
ATOM     13  O   UNL A   1      32.391  22.329  27.917  1.00  0.00    -0.248 OA
ATOM     14  N   UNL A   1      33.649  23.772  26.732  1.00  0.00    -0.272 N 
ATOM     15  C   UNL A   1      32.696  25.283  25.237  1.00  0.00     0.154 A 
ATOM     16  N   UNL A   1      30.478  25.422  24.886  1.00  0.00    -0.194 NA
ATOM     17  C   UNL A   1      33.883  24.791  25.841  1.00  0.00     0.279 A 
ATOM     18  H   UNL A   1      34.442  23.375  27.160  1.00  0.00     0.175 HD
ATOM     19  C   UNL A   1      31.081  26.241  24.050  1.00  0.00     0.206 A 
ATOM     20  O   UNL A   1      35.027  25.187  25.603  1.00  0.00    -0.267 OA
BRANCH  19  21
ATOM     21  N   UNL A   1      30.511  27.031  23.118  1.00  0.00    -0.353 N 
ATOM     22  H   UNL A   1      30.783  26.920  22.178  1.00  0.00     0.163 HD
BRANCH  21  23
ATOM     23  C   UNL A   1      29.510  28.043  23.437  1.00  0.00     0.082 C 
ATOM     24  C   UNL A   1      29.457  29.218  22.467  1.00  0.00     0.025 C 
ATOM     25  C   UNL A   1      28.082  27.502  23.469  1.00  0.00     0.025 C 
ATOM     26  C   UNL A   1      28.097  29.847  22.743  1.00  0.00     0.002 C 
ATOM     27  C   UNL A   1      27.186  28.707  23.194  1.00  0.00     0.002 C 
ENDBRANCH  21  23
ENDBRANCH  19  21
ENDBRANCH   7   8
ENDBRANCH   4   7
ENDBRANCH   2   3
ENDBRANCH   1   2
BRANCH   1  28
ATOM     28  C   UNL A   1      34.816  30.612  27.174  1.00  0.00     0.118 C 
BRANCH  28  29
ATOM     29  N   UNL A   1      34.534  31.643  28.176  1.00  0.00    -0.352 N 
ATOM     30  C   UNL A   1      35.101  31.787  29.428  1.00  0.00     0.251 C 
ATOM     31  H   UNL A   1      33.859  32.316  27.928  1.00  0.00     0.163 HD
ATOM     32  O   UNL A   1      34.564  32.477  30.287  1.00  0.00    -0.269 OA
BRANCH  30  33
ATOM     33  C   UNL A   1      36.374  31.100  29.699  1.00  0.00     0.039 A 
ATOM     34  C   UNL A   1      36.420  29.743  30.027  1.00  0.00     0.014 A 
ATOM     35  C   UNL A   1      37.542  31.848  29.572  1.00  0.00     0.014 A 
ATOM     36  C   UNL A   1      37.664  29.129  30.148  1.00  0.00     0.010 A 
ATOM     37  C   UNL A   1      38.750  31.210  29.516  1.00  0.00     0.010 A 
ATOM     38  C   UNL A   1      38.823  29.870  29.871  1.00  0.00    -0.014 A 
BRANCH  38  39
ATOM     39  C   UNL A   1      40.132  29.238  29.820  1.00  0.00     0.031 A 
ATOM     40  C   UNL A   1      40.742  29.010  31.157  1.00  0.00     0.074 A 
ATOM     41  C   UNL A   1      40.626  28.702  28.682  1.00  0.00     0.049 A 
ATOM     42  N   UNL A   1      41.784  29.594  31.646  1.00  0.00    -0.248 NA
ATOM     43  C   UNL A   1      40.023  28.171  32.131  1.00  0.00     0.031 C 
ATOM     44  C   UNL A   1      39.968  28.590  27.372  1.00  0.00     0.029 A 
ATOM     45  N   UNL A   1      41.775  28.002  28.492  1.00  0.00    -0.354 N 
ATOM     46  C   UNL A   1      41.999  29.004  32.890  1.00  0.00     0.074 A 
ATOM     47  C   UNL A   1      40.779  28.321  33.222  1.00  0.00     0.031 C 
ATOM     48  C   UNL A   1      40.595  27.649  26.631  1.00  0.00     0.029 A 
ATOM     49  C   UNL A   1      41.790  27.226  27.333  1.00  0.00     0.049 A 
ATOM     50  H   UNL A   1      42.533  28.039  29.119  1.00  0.00     0.167 HD
ATOM     51  C   UNL A   1      43.255  28.909  33.409  1.00  0.00     0.034 A 
ATOM     52  C   UNL A   1      42.696  26.269  27.010  1.00  0.00     0.034 A 
ATOM     53  C   UNL A   1      44.176  29.752  32.686  1.00  0.00     0.049 A 
ATOM     54  C   UNL A   1      43.906  26.544  27.821  1.00  0.00     0.074 A 
ATOM     55  C   UNL A   1      44.251  31.103  32.415  1.00  0.00     0.029 A 
ATOM     56  N   UNL A   1      44.985  29.131  31.764  1.00  0.00    -0.354 N 
ATOM     57  N   UNL A   1      44.639  27.612  27.672  1.00  0.00    -0.248 NA
ATOM     58  C   UNL A   1      44.027  25.869  29.103  1.00  0.00     0.031 C 
ATOM     59  C   UNL A   1      44.699  31.177  31.065  1.00  0.00     0.029 A 
ATOM     60  C   UNL A   1      44.956  29.878  30.618  1.00  0.00     0.049 A 
ATOM     61  H   UNL A   1      45.493  28.299  31.903  1.00  0.00     0.167 HD
ATOM     62  C   UNL A   1      44.930  28.005  28.971  1.00  0.00     0.074 A 
ATOM     63  C   UNL A   1      44.620  26.841  29.802  1.00  0.00     0.031 C 
ATOM     64  C   UNL A   1      45.094  29.323  29.288  1.00  0.00     0.034 A 
BRANCH  51  65
ATOM     65  C   UNL A   1      43.760  27.799  34.305  1.00  0.00     0.023 A 
ATOM     66  C   UNL A   1      44.434  28.188  35.487  1.00  0.00     0.012 A 
ATOM     67  C   UNL A   1      43.861  26.438  33.935  1.00  0.00     0.148 A 
ATOM     68  C   UNL A   1      45.220  27.293  36.218  1.00  0.00     0.002 A 
ATOM     69  C   UNL A   1      44.578  25.533  34.711  1.00  0.00     0.091 A 
ATOM     70  F   UNL A   1      43.375  26.021  32.765  1.00  0.00    -0.205 F 
ATOM     71  C   UNL A   1      45.289  25.961  35.833  1.00  0.00     0.022 A 
BRANCH  69  72
ATOM     72  S   UNL A   1      44.660  23.785  34.292  1.00  0.00     0.127 S 
ATOM     73  O   UNL A   1      43.255  23.398  34.374  1.00  0.00    -0.237 OA
ATOM     74  O   UNL A   1      45.213  23.831  32.938  1.00  0.00    -0.237 OA
ATOM     75  O   UNL A   1      45.547  23.184  35.279  1.00  0.00    -0.744 OA
ENDBRANCH  69  72
ENDBRANCH  51  65
BRANCH  52  76
ATOM     76  C   UNL A   1      42.527  24.993  26.271  1.00  0.00     0.023 A 
ATOM     77  C   UNL A   1      43.498  24.603  25.325  1.00  0.00     0.012 A 
ATOM     78  C   UNL A   1      41.598  24.022  26.705  1.00  0.00     0.148 A 
ATOM     79  C   UNL A   1      43.572  23.281  24.863  1.00  0.00     0.002 A 
ATOM     80  C   UNL A   1      41.679  22.708  26.248  1.00  0.00     0.091 A 
ATOM     81  F   UNL A   1      40.697  24.361  27.636  1.00  0.00    -0.205 F 
ATOM     82  C   UNL A   1      42.672  22.331  25.336  1.00  0.00     0.022 A 
BRANCH  80  83
ATOM     83  S   UNL A   1      40.590  21.411  26.857  1.00  0.00     0.127 S 
ATOM     84  O   UNL A   1      39.277  21.896  26.434  1.00  0.00    -0.237 OA
ATOM     85  O   UNL A   1      41.077  20.243  26.126  1.00  0.00    -0.237 OA
ATOM     86  O   UNL A   1      40.783  21.375  28.300  1.00  0.00    -0.744 OA
ENDBRANCH  80  83
ENDBRANCH  52  76
BRANCH  64  87
ATOM     87  C   UNL A   1      45.171  30.335  28.169  1.00  0.00     0.023 A 
ATOM     88  C   UNL A   1      44.020  30.918  27.597  1.00  0.00     0.012 A 
ATOM     89  C   UNL A   1      46.428  30.887  27.874  1.00  0.00     0.148 A 
ATOM     90  C   UNL A   1      44.123  32.031  26.755  1.00  0.00     0.002 A 
ATOM     91  C   UNL A   1      46.522  32.027  27.087  1.00  0.00     0.091 A 
ATOM     92  F   UNL A   1      47.510  30.318  28.427  1.00  0.00    -0.205 F 
ATOM     93  C   UNL A   1      45.373  32.597  26.517  1.00  0.00     0.022 A 
BRANCH  91  94
ATOM     94  S   UNL A   1      48.076  32.898  26.879  1.00  0.00     0.127 S 
ATOM     95  O   UNL A   1      48.976  31.821  26.470  1.00  0.00    -0.237 OA
ATOM     96  O   UNL A   1      47.754  33.861  25.826  1.00  0.00    -0.237 OA
ATOM     97  O   UNL A   1      48.376  33.503  28.171  1.00  0.00    -0.744 OA
ENDBRANCH  91  94
ENDBRANCH  64  87
ENDBRANCH  38  39
ENDBRANCH  30  33
ENDBRANCH  28  29
ENDBRANCH   1  28
TORSDOF 16
ENDMDL
