MODEL 1
REMARK VINA RESULT:     -11.2      0.000      0.000
REMARK SMILES O=C(CSc1nc2cnccc2n1CCC(F)(F)F)NCCCNC(=O)c1ccc(-c2c3nc(c(-c4cccc(S(=O)(=O)[O-])c4F)c4ccc([nH]4)c(-c4cccc(S(=O)(=O)[O-])c4F)c4nc(c(-c5cccc(S(=O)(=O)[O-])c5F)c5ccc2[nH]5)C=C4)C=C3)cc1
REMARK SMILES IDX 21 1 20 2 1 3 2 4 3 6 4 7 5 8 6 9 13 10 7 11 12 12 8 13
REMARK SMILES IDX 11 14 9 15 10 16 14 17 15 18 16 19 17 20 18 21 19 22 22 23
REMARK SMILES IDX 23 24 24 25 25 26 26 28 27 29 28 30 89 31 29 32 88 33 30 34
REMARK SMILES IDX 31 35 32 36 82 37 33 38 87 39 81 40 83 41 34 42 86 43 80 44
REMARK SMILES IDX 79 45 35 47 67 48 47 49 66 50 48 51 51 52 65 53 84 54 49 55
REMARK SMILES IDX 50 56 64 58 85 59 52 60 36 61 37 62 45 63 38 64 40 65 46 66
REMARK SMILES IDX 39 67 41 68 42 69 43 70 44 71 68 72 69 73 77 74 70 75 72 76
REMARK SMILES IDX 78 77 71 78 73 79 74 80 75 81 76 82 53 83 54 84 62 85 55 86
REMARK SMILES IDX 57 87 63 88 56 89 58 90 59 91 60 92 61 93
REMARK H PARENT 20 5 24 27 83 46 51 57
REMARK Flexibility Score: inf
ROOT
ATOM      1  C   UNL A   1      32.304  29.928  25.693  1.00  0.00     0.117 C 
ENDROOT
BRANCH   1   2
ATOM      2  N   UNL A   1      33.175  29.188  24.807  1.00  0.00    -0.355 N 
ATOM      3  O   UNL A   1      31.664  28.984  23.101  1.00  0.00    -0.274 OA
ATOM      4  C   UNL A   1      32.747  28.693  23.606  1.00  0.00     0.230 C 
ATOM      5  H   UNL A   1      34.109  29.034  25.079  1.00  0.00     0.163 HD
BRANCH   4   6
ATOM      6  C   UNL A   1      33.625  27.632  22.990  1.00  0.00     0.178 C 
BRANCH   6   7
ATOM      7  S   UNL A   1      32.784  26.224  22.278  1.00  0.00    -0.078 SA
BRANCH   7   8
ATOM      8  C   UNL A   1      33.315  24.747  23.010  1.00  0.00     0.169 A 
ATOM      9  N   UNL A   1      34.608  24.508  23.072  1.00  0.00    -0.221 NA
ATOM     10  N   UNL A   1      32.601  23.785  23.692  1.00  0.00    -0.318 N 
ATOM     11  C   UNL A   1      34.749  23.302  23.701  1.00  0.00     0.108 A 
ATOM     12  C   UNL A   1      33.503  22.788  24.049  1.00  0.00     0.072 A 
ATOM     13  C   UNL A   1      35.901  22.570  24.003  1.00  0.00     0.141 A 
ATOM     14  C   UNL A   1      33.376  21.522  24.627  1.00  0.00     0.049 A 
ATOM     15  N   UNL A   1      35.804  21.345  24.583  1.00  0.00    -0.262 NA
ATOM     16  C   UNL A   1      34.574  20.852  24.848  1.00  0.00     0.113 A 
BRANCH  10  17
ATOM     17  C   UNL A   1      31.191  23.718  24.008  1.00  0.00     0.134 C 
BRANCH  17  18
ATOM     18  C   UNL A   1      30.757  24.279  25.360  1.00  0.00     0.137 C 
BRANCH  18  19
ATOM     19  C   UNL A   1      30.586  23.274  26.475  1.00  0.00     0.390 C 
ATOM     20  F   UNL A   1      31.654  23.250  27.295  1.00  0.00    -0.171 F 
ATOM     21  F   UNL A   1      29.516  23.607  27.233  1.00  0.00    -0.171 F 
ATOM     22  F   UNL A   1      30.374  22.031  26.010  1.00  0.00    -0.171 F 
ENDBRANCH  18  19
ENDBRANCH  17  18
ENDBRANCH  10  17
ENDBRANCH   7   8
ENDBRANCH   6   7
ENDBRANCH   4   6
ENDBRANCH   1   2
BRANCH   1  23
ATOM     23  C   UNL A   1      32.898  30.038  27.096  1.00  0.00     0.042 C 
BRANCH  23  24
ATOM     24  C   UNL A   1      33.865  31.213  27.283  1.00  0.00     0.118 C 
BRANCH  24  25
ATOM     25  N   UNL A   1      34.051  31.671  28.647  1.00  0.00    -0.352 N 
ATOM     26  C   UNL A   1      35.112  31.712  29.512  1.00  0.00     0.251 C 
ATOM     27  H   UNL A   1      33.227  32.036  29.041  1.00  0.00     0.163 HD
ATOM     28  O   UNL A   1      34.930  32.324  30.566  1.00  0.00    -0.269 OA
BRANCH  26  29
ATOM     29  C   UNL A   1      36.399  31.005  29.293  1.00  0.00     0.039 A 
ATOM     30  C   UNL A   1      36.518  29.645  29.015  1.00  0.00     0.014 A 
ATOM     31  C   UNL A   1      37.571  31.769  29.453  1.00  0.00     0.014 A 
ATOM     32  C   UNL A   1      37.754  29.025  29.074  1.00  0.00     0.010 A 
ATOM     33  C   UNL A   1      38.820  31.162  29.453  1.00  0.00     0.010 A 
ATOM     34  C   UNL A   1      38.899  29.778  29.334  1.00  0.00    -0.014 A 
BRANCH  34  35
ATOM     35  C   UNL A   1      40.155  29.048  29.410  1.00  0.00     0.031 A 
ATOM     36  C   UNL A   1      40.696  28.838  30.782  1.00  0.00     0.074 A 
ATOM     37  C   UNL A   1      40.781  28.549  28.329  1.00  0.00     0.049 A 
ATOM     38  N   UNL A   1      41.805  29.289  31.273  1.00  0.00    -0.248 NA
ATOM     39  C   UNL A   1      39.844  28.137  31.752  1.00  0.00     0.031 C 
ATOM     40  C   UNL A   1      40.279  28.446  26.958  1.00  0.00     0.029 A 
ATOM     41  N   UNL A   1      41.971  27.888  28.279  1.00  0.00    -0.354 N 
ATOM     42  C   UNL A   1      41.885  28.770  32.564  1.00  0.00     0.074 A 
ATOM     43  C   UNL A   1      40.601  28.181  32.850  1.00  0.00     0.031 C 
ATOM     44  C   UNL A   1      41.019  27.532  26.293  1.00  0.00     0.029 A 
ATOM     45  C   UNL A   1      42.105  27.091  27.150  1.00  0.00     0.049 A 
ATOM     46  H   UNL A   1      42.664  27.966  28.973  1.00  0.00     0.167 HD
ATOM     47  C   UNL A   1      43.055  28.696  33.255  1.00  0.00     0.034 A 
ATOM     48  C   UNL A   1      42.974  26.061  27.007  1.00  0.00     0.034 A 
ATOM     49  C   UNL A   1      44.094  29.499  32.678  1.00  0.00     0.049 A 
ATOM     50  C   UNL A   1      44.090  26.302  27.957  1.00  0.00     0.074 A 
ATOM     51  C   UNL A   1      44.253  30.845  32.417  1.00  0.00     0.029 A 
ATOM     52  N   UNL A   1      45.059  28.855  31.943  1.00  0.00    -0.354 N 
ATOM     53  N   UNL A   1      44.921  27.305  27.858  1.00  0.00    -0.248 NA
ATOM     54  C   UNL A   1      44.040  25.661  29.263  1.00  0.00     0.031 C 
ATOM     55  C   UNL A   1      44.958  30.894  31.180  1.00  0.00     0.029 A 
ATOM     56  C   UNL A   1      45.211  29.577  30.789  1.00  0.00     0.049 A 
ATOM     57  H   UNL A   1      45.545  28.036  32.195  1.00  0.00     0.167 HD
ATOM     58  C   UNL A   1      45.161  27.692  29.171  1.00  0.00     0.074 A 
ATOM     59  C   UNL A   1      44.683  26.580  29.989  1.00  0.00     0.031 C 
ATOM     60  C   UNL A   1      45.454  28.987  29.491  1.00  0.00     0.034 A 
BRANCH  47  61
ATOM     61  C   UNL A   1      43.356  27.659  34.299  1.00  0.00     0.023 A 
ATOM     62  C   UNL A   1      43.693  28.090  35.599  1.00  0.00     0.012 A 
ATOM     63  C   UNL A   1      43.573  26.299  33.985  1.00  0.00     0.148 A 
ATOM     64  C   UNL A   1      44.232  27.207  36.541  1.00  0.00     0.002 A 
ATOM     65  C   UNL A   1      44.040  25.411  34.946  1.00  0.00     0.091 A 
ATOM     66  F   UNL A   1      43.455  25.888  32.717  1.00  0.00    -0.205 F 
ATOM     67  C   UNL A   1      44.392  25.864  36.220  1.00  0.00     0.022 A 
BRANCH  65  68
ATOM     68  S   UNL A   1      44.219  23.664  34.580  1.00  0.00     0.127 S 
ATOM     69  O   UNL A   1      44.786  23.160  35.834  1.00  0.00    -0.237 OA
ATOM     70  O   UNL A   1      42.829  23.265  34.332  1.00  0.00    -0.237 OA
ATOM     71  O   UNL A   1      45.075  23.601  33.413  1.00  0.00    -0.744 OA
ENDBRANCH  65  68
ENDBRANCH  47  61
BRANCH  48  72
ATOM     72  C   UNL A   1      42.750  24.758  26.330  1.00  0.00     0.023 A 
ATOM     73  C   UNL A   1      43.684  24.303  25.378  1.00  0.00     0.012 A 
ATOM     74  C   UNL A   1      41.770  23.840  26.776  1.00  0.00     0.148 A 
ATOM     75  C   UNL A   1      43.660  22.980  24.913  1.00  0.00     0.002 A 
ATOM     76  C   UNL A   1      41.729  22.537  26.287  1.00  0.00     0.091 A 
ATOM     77  F   UNL A   1      40.932  24.195  27.758  1.00  0.00    -0.205 F 
ATOM     78  C   UNL A   1      42.683  22.098  25.365  1.00  0.00     0.022 A 
BRANCH  76  79
ATOM     79  S   UNL A   1      40.469  21.374  26.830  1.00  0.00     0.127 S 
ATOM     80  O   UNL A   1      40.823  20.163  26.089  1.00  0.00    -0.237 OA
ATOM     81  O   UNL A   1      40.713  21.308  28.267  1.00  0.00    -0.237 OA
ATOM     82  O   UNL A   1      39.199  21.965  26.423  1.00  0.00    -0.744 OA
ENDBRANCH  76  79
ENDBRANCH  48  72
BRANCH  60  83
ATOM     83  C   UNL A   1      45.727  29.966  28.378  1.00  0.00     0.023 A 
ATOM     84  C   UNL A   1      44.686  30.709  27.784  1.00  0.00     0.012 A 
ATOM     85  C   UNL A   1      47.060  30.325  28.110  1.00  0.00     0.148 A 
ATOM     86  C   UNL A   1      44.966  31.786  26.939  1.00  0.00     0.002 A 
ATOM     87  C   UNL A   1      47.334  31.423  27.301  1.00  0.00     0.091 A 
ATOM     88  F   UNL A   1      48.037  29.621  28.701  1.00  0.00    -0.205 F 
ATOM     89  C   UNL A   1      46.290  32.152  26.710  1.00  0.00     0.022 A 
BRANCH  87  90
ATOM     90  S   UNL A   1      49.004  32.038  27.065  1.00  0.00     0.127 S 
ATOM     91  O   UNL A   1      49.682  30.873  26.498  1.00  0.00    -0.237 OA
ATOM     92  O   UNL A   1      48.797  33.142  26.125  1.00  0.00    -0.237 OA
ATOM     93  O   UNL A   1      49.475  32.452  28.380  1.00  0.00    -0.744 OA
ENDBRANCH  87  90
ENDBRANCH  60  83
ENDBRANCH  34  35
ENDBRANCH  26  29
ENDBRANCH  24  25
ENDBRANCH  23  24
ENDBRANCH   1  23
TORSDOF 18
ENDMDL
MODEL 2
REMARK VINA RESULT:     -11.1      2.002      2.485
REMARK SMILES O=C(CSc1nc2cnccc2n1CCC(F)(F)F)NCCCNC(=O)c1ccc(-c2c3nc(c(-c4cccc(S(=O)(=O)[O-])c4F)c4ccc([nH]4)c(-c4cccc(S(=O)(=O)[O-])c4F)c4nc(c(-c5cccc(S(=O)(=O)[O-])c5F)c5ccc2[nH]5)C=C4)C=C3)cc1
REMARK SMILES IDX 21 1 20 2 1 3 2 4 3 6 4 7 5 8 6 9 13 10 7 11 12 12 8 13
REMARK SMILES IDX 11 14 9 15 10 16 14 17 15 18 16 19 17 20 18 21 19 22 22 23
REMARK SMILES IDX 23 24 24 25 25 26 26 28 27 29 28 30 89 31 29 32 88 33 30 34
REMARK SMILES IDX 31 35 32 36 82 37 33 38 87 39 81 40 83 41 34 42 86 43 80 44
REMARK SMILES IDX 79 45 35 47 67 48 47 49 66 50 48 51 51 52 65 53 84 54 49 55
REMARK SMILES IDX 50 56 64 58 85 59 52 60 36 61 37 62 45 63 38 64 40 65 46 66
REMARK SMILES IDX 39 67 41 68 42 69 43 70 44 71 68 72 69 73 77 74 70 75 72 76
REMARK SMILES IDX 78 77 71 78 73 79 74 80 75 81 76 82 53 83 54 84 62 85 55 86
REMARK SMILES IDX 57 87 63 88 56 89 58 90 59 91 60 92 61 93
REMARK H PARENT 20 5 24 27 83 46 51 57
REMARK Flexibility Score: inf
ROOT
ATOM      1  C   UNL A   1      31.814  29.113  24.525  1.00  0.00     0.117 C 
ENDROOT
BRANCH   1   2
ATOM      2  N   UNL A   1      31.504  27.729  24.805  1.00  0.00    -0.355 N 
ATOM      3  O   UNL A   1      33.565  26.904  24.248  1.00  0.00    -0.274 OA
ATOM      4  C   UNL A   1      32.389  26.716  24.554  1.00  0.00     0.230 C 
ATOM      5  H   UNL A   1      30.625  27.508  25.189  1.00  0.00     0.163 HD
BRANCH   4   6
ATOM      6  C   UNL A   1      31.796  25.328  24.523  1.00  0.00     0.178 C 
BRANCH   6   7
ATOM      7  S   UNL A   1      32.135  24.291  25.939  1.00  0.00    -0.078 SA
BRANCH   7   8
ATOM      8  C   UNL A   1      33.611  23.410  25.725  1.00  0.00     0.169 A 
ATOM      9  N   UNL A   1      34.748  24.025  25.970  1.00  0.00    -0.221 NA
ATOM     10  N   UNL A   1      33.818  22.074  25.457  1.00  0.00    -0.318 N 
ATOM     11  C   UNL A   1      35.739  23.110  25.740  1.00  0.00     0.108 A 
ATOM     12  C   UNL A   1      35.193  21.890  25.355  1.00  0.00     0.072 A 
ATOM     13  C   UNL A   1      37.129  23.243  25.825  1.00  0.00     0.141 A 
ATOM     14  C   UNL A   1      36.006  20.816  24.980  1.00  0.00     0.049 A 
ATOM     15  N   UNL A   1      37.939  22.207  25.484  1.00  0.00    -0.262 NA
ATOM     16  C   UNL A   1      37.373  21.058  25.053  1.00  0.00     0.113 A 
BRANCH  10  17
ATOM     17  C   UNL A   1      32.866  20.999  25.277  1.00  0.00     0.134 C 
BRANCH  17  18
ATOM     18  C   UNL A   1      32.663  20.485  23.854  1.00  0.00     0.137 C 
BRANCH  18  19
ATOM     19  C   UNL A   1      32.258  21.515  22.826  1.00  0.00     0.390 C 
ATOM     20  F   UNL A   1      31.774  20.941  21.708  1.00  0.00    -0.171 F 
ATOM     21  F   UNL A   1      31.272  22.298  23.324  1.00  0.00    -0.171 F 
ATOM     22  F   UNL A   1      33.276  22.323  22.487  1.00  0.00    -0.171 F 
ENDBRANCH  18  19
ENDBRANCH  17  18
ENDBRANCH  10  17
ENDBRANCH   7   8
ENDBRANCH   6   7
ENDBRANCH   4   6
ENDBRANCH   1   2
BRANCH   1  23
ATOM     23  C   UNL A   1      31.844  29.948  25.804  1.00  0.00     0.042 C 
BRANCH  23  24
ATOM     24  C   UNL A   1      33.241  30.134  26.405  1.00  0.00     0.118 C 
BRANCH  24  25
ATOM     25  N   UNL A   1      33.347  31.105  27.479  1.00  0.00    -0.352 N 
ATOM     26  C   UNL A   1      34.379  31.606  28.225  1.00  0.00     0.251 C 
ATOM     27  H   UNL A   1      32.477  31.491  27.728  1.00  0.00     0.163 HD
ATOM     28  O   UNL A   1      34.105  32.552  28.966  1.00  0.00    -0.269 OA
BRANCH  26  29
ATOM     29  C   UNL A   1      35.748  31.031  28.254  1.00  0.00     0.039 A 
ATOM     30  C   UNL A   1      36.045  29.685  28.056  1.00  0.00     0.014 A 
ATOM     31  C   UNL A   1      36.794  31.916  28.575  1.00  0.00     0.014 A 
ATOM     32  C   UNL A   1      37.308  29.198  28.346  1.00  0.00     0.010 A 
ATOM     33  C   UNL A   1      38.079  31.442  28.809  1.00  0.00     0.010 A 
ATOM     34  C   UNL A   1      38.312  30.071  28.762  1.00  0.00    -0.014 A 
BRANCH  34  35
ATOM     35  C   UNL A   1      39.603  29.478  29.077  1.00  0.00     0.031 A 
ATOM     36  C   UNL A   1      40.025  29.573  30.503  1.00  0.00     0.074 A 
ATOM     37  C   UNL A   1      40.360  28.841  28.166  1.00  0.00     0.049 A 
ATOM     38  N   UNL A   1      41.049  30.199  30.985  1.00  0.00    -0.248 NA
ATOM     39  C   UNL A   1      39.135  28.995  31.519  1.00  0.00     0.031 C 
ATOM     40  C   UNL A   1      39.998  28.443  26.805  1.00  0.00     0.029 A 
ATOM     41  N   UNL A   1      41.591  28.285  28.339  1.00  0.00    -0.354 N 
ATOM     42  C   UNL A   1      41.042  29.938  32.354  1.00  0.00     0.074 A 
ATOM     43  C   UNL A   1      39.780  29.306  32.644  1.00  0.00     0.031 C 
ATOM     44  C   UNL A   1      40.858  27.487  26.390  1.00  0.00     0.029 A 
ATOM     45  C   UNL A   1      41.886  27.308  27.399  1.00  0.00     0.049 A 
ATOM     46  H   UNL A   1      42.209  28.550  29.058  1.00  0.00     0.167 HD
ATOM     47  C   UNL A   1      42.144  30.094  33.137  1.00  0.00     0.034 A 
ATOM     48  C   UNL A   1      42.833  26.346  27.527  1.00  0.00     0.034 A 
ATOM     49  C   UNL A   1      43.176  30.860  32.500  1.00  0.00     0.049 A 
ATOM     50  C   UNL A   1      43.835  26.854  28.498  1.00  0.00     0.074 A 
ATOM     51  C   UNL A   1      43.267  32.143  31.999  1.00  0.00     0.029 A 
ATOM     52  N   UNL A   1      44.248  30.175  31.982  1.00  0.00    -0.354 N 
ATOM     53  N   UNL A   1      44.601  27.887  28.275  1.00  0.00    -0.248 NA
ATOM     54  C   UNL A   1      43.706  26.464  29.895  1.00  0.00     0.031 C 
ATOM     55  C   UNL A   1      44.080  32.021  30.835  1.00  0.00     0.029 A 
ATOM     56  C   UNL A   1      44.458  30.680  30.727  1.00  0.00     0.049 A 
ATOM     57  H   UNL A   1      44.762  29.462  32.425  1.00  0.00     0.167 HD
ATOM     58  C   UNL A   1      44.690  28.530  29.503  1.00  0.00     0.074 A 
ATOM     59  C   UNL A   1      44.214  27.553  30.479  1.00  0.00     0.031 C 
ATOM     60  C   UNL A   1      44.862  29.882  29.591  1.00  0.00     0.034 A 
BRANCH  47  61
ATOM     61  C   UNL A   1      42.415  29.298  34.381  1.00  0.00     0.023 A 
ATOM     62  C   UNL A   1      42.864  29.978  35.532  1.00  0.00     0.012 A 
ATOM     63  C   UNL A   1      42.496  27.888  34.385  1.00  0.00     0.148 A 
ATOM     64  C   UNL A   1      43.379  29.286  36.633  1.00  0.00     0.002 A 
ATOM     65  C   UNL A   1      42.940  27.201  35.508  1.00  0.00     0.091 A 
ATOM     66  F   UNL A   1      42.268  27.211  33.253  1.00  0.00    -0.205 F 
ATOM     67  C   UNL A   1      43.404  27.896  36.627  1.00  0.00     0.022 A 
BRANCH  65  68
ATOM     68  S   UNL A   1      42.946  25.407  35.552  1.00  0.00     0.127 S 
ATOM     69  O   UNL A   1      41.541  25.105  35.267  1.00  0.00    -0.237 OA
ATOM     70  O   UNL A   1      43.876  25.083  34.465  1.00  0.00    -0.237 OA
ATOM     71  O   UNL A   1      43.428  25.057  36.872  1.00  0.00    -0.744 OA
ENDBRANCH  65  68
ENDBRANCH  47  61
BRANCH  48  72
ATOM     72  C   UNL A   1      42.762  24.926  27.098  1.00  0.00     0.023 A 
ATOM     73  C   UNL A   1      41.540  24.232  27.200  1.00  0.00     0.012 A 
ATOM     74  C   UNL A   1      43.804  24.311  26.363  1.00  0.00     0.148 A 
ATOM     75  C   UNL A   1      41.355  22.992  26.572  1.00  0.00     0.002 A 
ATOM     76  C   UNL A   1      43.627  23.065  25.769  1.00  0.00     0.091 A 
ATOM     77  F   UNL A   1      44.943  24.981  26.149  1.00  0.00    -0.205 F 
ATOM     78  C   UNL A   1      42.397  22.408  25.857  1.00  0.00     0.022 A 
BRANCH  76  79
ATOM     79  S   UNL A   1      44.956  22.267  24.857  1.00  0.00     0.127 S 
ATOM     80  O   UNL A   1      44.368  20.970  24.520  1.00  0.00    -0.237 OA
ATOM     81  O   UNL A   1      45.136  23.171  23.726  1.00  0.00    -0.237 OA
ATOM     82  O   UNL A   1      46.071  22.185  25.794  1.00  0.00    -0.744 OA
ENDBRANCH  76  79
ENDBRANCH  48  72
BRANCH  60  83
ATOM     83  C   UNL A   1      45.172  30.657  28.335  1.00  0.00     0.023 A 
ATOM     84  C   UNL A   1      44.143  31.164  27.515  1.00  0.00     0.012 A 
ATOM     85  C   UNL A   1      46.491  31.094  28.123  1.00  0.00     0.148 A 
ATOM     86  C   UNL A   1      44.421  32.085  26.503  1.00  0.00     0.002 A 
ATOM     87  C   UNL A   1      46.759  32.042  27.141  1.00  0.00     0.091 A 
ATOM     88  F   UNL A   1      47.453  30.617  28.927  1.00  0.00    -0.205 F 
ATOM     89  C   UNL A   1      45.727  32.536  26.326  1.00  0.00     0.022 A 
BRANCH  87  90
ATOM     90  S   UNL A   1      48.387  32.769  26.939  1.00  0.00     0.127 S 
ATOM     91  O   UNL A   1      49.190  31.617  26.535  1.00  0.00    -0.237 OA
ATOM     92  O   UNL A   1      48.157  33.755  25.880  1.00  0.00    -0.237 OA
ATOM     93  O   UNL A   1      48.738  33.349  28.230  1.00  0.00    -0.744 OA
ENDBRANCH  87  90
ENDBRANCH  60  83
ENDBRANCH  34  35
ENDBRANCH  26  29
ENDBRANCH  24  25
ENDBRANCH  23  24
ENDBRANCH   1  23
TORSDOF 18
ENDMDL
MODEL 3
REMARK VINA RESULT:     -11.0      3.065      7.751
REMARK SMILES O=C(CSc1nc2cnccc2n1CCC(F)(F)F)NCCCNC(=O)c1ccc(-c2c3nc(c(-c4cccc(S(=O)(=O)[O-])c4F)c4ccc([nH]4)c(-c4cccc(S(=O)(=O)[O-])c4F)c4nc(c(-c5cccc(S(=O)(=O)[O-])c5F)c5ccc2[nH]5)C=C4)C=C3)cc1
REMARK SMILES IDX 21 1 20 2 1 3 2 4 3 6 4 7 5 8 6 9 13 10 7 11 12 12 8 13
REMARK SMILES IDX 11 14 9 15 10 16 14 17 15 18 16 19 17 20 18 21 19 22 22 23
REMARK SMILES IDX 23 24 24 25 25 26 26 28 27 29 28 30 89 31 29 32 88 33 30 34
REMARK SMILES IDX 31 35 32 36 82 37 33 38 87 39 81 40 83 41 34 42 86 43 80 44
REMARK SMILES IDX 79 45 35 47 67 48 47 49 66 50 48 51 51 52 65 53 84 54 49 55
REMARK SMILES IDX 50 56 64 58 85 59 52 60 36 61 37 62 45 63 38 64 40 65 46 66
REMARK SMILES IDX 39 67 41 68 42 69 43 70 44 71 68 72 69 73 77 74 70 75 72 76
REMARK SMILES IDX 78 77 71 78 73 79 74 80 75 81 76 82 53 83 54 84 62 85 55 86
REMARK SMILES IDX 57 87 63 88 56 89 58 90 59 91 60 92 61 93
REMARK H PARENT 20 5 24 27 83 46 51 57
REMARK Flexibility Score: inf
ROOT
ATOM      1  C   UNL A   1      37.354  22.086  25.045  1.00  0.00     0.117 C 
ENDROOT
BRANCH   1   2
ATOM      2  N   UNL A   1      36.453  22.476  26.108  1.00  0.00    -0.355 N 
ATOM      3  O   UNL A   1      34.568  21.595  25.157  1.00  0.00    -0.274 OA
ATOM      4  C   UNL A   1      35.102  22.274  26.032  1.00  0.00     0.230 C 
ATOM      5  H   UNL A   1      36.826  22.901  26.914  1.00  0.00     0.163 HD
BRANCH   4   6
ATOM      6  C   UNL A   1      34.270  23.068  27.008  1.00  0.00     0.178 C 
BRANCH   6   7
ATOM      7  S   UNL A   1      32.502  23.042  26.746  1.00  0.00    -0.078 SA
BRANCH   7   8
ATOM      8  C   UNL A   1      31.970  24.486  25.953  1.00  0.00     0.169 A 
ATOM      9  N   UNL A   1      32.320  25.647  26.464  1.00  0.00    -0.221 NA
ATOM     10  N   UNL A   1      31.322  24.651  24.747  1.00  0.00    -0.318 N 
ATOM     11  C   UNL A   1      31.789  26.606  25.646  1.00  0.00     0.108 A 
ATOM     12  C   UNL A   1      31.101  26.015  24.590  1.00  0.00     0.072 A 
ATOM     13  C   UNL A   1      31.835  28.000  25.739  1.00  0.00     0.141 A 
ATOM     14  C   UNL A   1      30.394  26.786  23.662  1.00  0.00     0.049 A 
ATOM     15  N   UNL A   1      31.172  28.771  24.838  1.00  0.00    -0.262 NA
ATOM     16  C   UNL A   1      30.462  28.160  23.863  1.00  0.00     0.113 A 
BRANCH  10  17
ATOM     17  C   UNL A   1      30.894  23.669  23.775  1.00  0.00     0.134 C 
BRANCH  17  18
ATOM     18  C   UNL A   1      31.987  22.877  23.063  1.00  0.00     0.137 C 
BRANCH  18  19
ATOM     19  C   UNL A   1      33.007  23.688  22.298  1.00  0.00     0.390 C 
ATOM     20  F   UNL A   1      34.066  24.011  23.065  1.00  0.00    -0.171 F 
ATOM     21  F   UNL A   1      33.482  22.966  21.257  1.00  0.00    -0.171 F 
ATOM     22  F   UNL A   1      32.483  24.818  21.793  1.00  0.00    -0.171 F 
ENDBRANCH  18  19
ENDBRANCH  17  18
ENDBRANCH  10  17
ENDBRANCH   7   8
ENDBRANCH   6   7
ENDBRANCH   4   6
ENDBRANCH   1   2
BRANCH   1  23
ATOM     23  C   UNL A   1      38.617  21.426  25.598  1.00  0.00     0.042 C 
BRANCH  23  24
ATOM     24  C   UNL A   1      38.579  19.894  25.599  1.00  0.00     0.118 C 
BRANCH  24  25
ATOM     25  N   UNL A   1      39.859  19.227  25.444  1.00  0.00    -0.352 N 
ATOM     26  C   UNL A   1      41.109  19.410  25.972  1.00  0.00     0.251 C 
ATOM     27  H   UNL A   1      39.820  18.472  24.816  1.00  0.00     0.163 HD
ATOM     28  O   UNL A   1      41.939  18.535  25.718  1.00  0.00    -0.269 OA
BRANCH  26  29
ATOM     29  C   UNL A   1      41.528  20.611  26.737  1.00  0.00     0.039 A 
ATOM     30  C   UNL A   1      41.243  20.831  28.083  1.00  0.00     0.014 A 
ATOM     31  C   UNL A   1      42.197  21.616  26.013  1.00  0.00     0.014 A 
ATOM     32  C   UNL A   1      41.451  22.078  28.647  1.00  0.00     0.010 A 
ATOM     33  C   UNL A   1      42.463  22.850  26.592  1.00  0.00     0.010 A 
ATOM     34  C   UNL A   1      42.024  23.098  27.888  1.00  0.00    -0.014 A 
BRANCH  34  35
ATOM     35  C   UNL A   1      42.181  24.388  28.543  1.00  0.00     0.031 A 
ATOM     36  C   UNL A   1      41.085  25.368  28.307  1.00  0.00     0.074 A 
ATOM     37  C   UNL A   1      43.218  24.680  29.349  1.00  0.00     0.049 A 
ATOM     38  N   UNL A   1      41.163  26.515  27.713  1.00  0.00    -0.248 NA
ATOM     39  C   UNL A   1      39.720  24.970  28.678  1.00  0.00     0.031 C 
ATOM     40  C   UNL A   1      44.236  23.773  29.881  1.00  0.00     0.029 A 
ATOM     41  N   UNL A   1      43.485  25.857  29.980  1.00  0.00    -0.354 N 
ATOM     42  C   UNL A   1      39.890  27.074  27.801  1.00  0.00     0.074 A 
ATOM     43  C   UNL A   1      39.017  26.034  28.285  1.00  0.00     0.031 C 
ATOM     44  C   UNL A   1      44.821  24.358  30.950  1.00  0.00     0.029 A 
ATOM     45  C   UNL A   1      44.307  25.709  31.088  1.00  0.00     0.049 A 
ATOM     46  H   UNL A   1      43.130  26.725  29.680  1.00  0.00     0.167 HD
ATOM     47  C   UNL A   1      39.660  28.406  27.642  1.00  0.00     0.034 A 
ATOM     48  C   UNL A   1      44.438  26.599  32.101  1.00  0.00     0.034 A 
ATOM     49  C   UNL A   1      40.768  29.096  27.049  1.00  0.00     0.049 A 
ATOM     50  C   UNL A   1      44.049  27.927  31.562  1.00  0.00     0.074 A 
ATOM     51  C   UNL A   1      41.446  29.000  25.851  1.00  0.00     0.029 A 
ATOM     52  N   UNL A   1      41.573  29.837  27.880  1.00  0.00    -0.354 N 
ATOM     53  N   UNL A   1      44.717  28.555  30.632  1.00  0.00    -0.248 NA
ATOM     54  C   UNL A   1      42.681  28.383  31.763  1.00  0.00     0.031 C 
ATOM     55  C   UNL A   1      42.809  29.249  26.184  1.00  0.00     0.029 A 
ATOM     56  C   UNL A   1      42.864  29.516  27.554  1.00  0.00     0.049 A 
ATOM     57  H   UNL A   1      41.279  30.472  28.573  1.00  0.00     0.167 HD
ATOM     58  C   UNL A   1      43.743  29.164  29.851  1.00  0.00     0.074 A 
ATOM     59  C   UNL A   1      42.525  29.115  30.656  1.00  0.00     0.031 C 
ATOM     60  C   UNL A   1      43.934  29.389  28.518  1.00  0.00     0.034 A 
BRANCH  47  61
ATOM     61  C   UNL A   1      38.533  29.152  28.297  1.00  0.00     0.023 A 
ATOM     62  C   UNL A   1      37.700  29.957  27.491  1.00  0.00     0.012 A 
ATOM     63  C   UNL A   1      38.424  29.299  29.697  1.00  0.00     0.148 A 
ATOM     64  C   UNL A   1      36.806  30.872  28.057  1.00  0.00     0.002 A 
ATOM     65  C   UNL A   1      37.484  30.157  30.254  1.00  0.00     0.091 A 
ATOM     66  F   UNL A   1      39.322  28.706  30.494  1.00  0.00    -0.205 F 
ATOM     67  C   UNL A   1      36.687  30.963  29.439  1.00  0.00     0.022 A 
BRANCH  65  68
ATOM     68  S   UNL A   1      37.274  30.267  32.033  1.00  0.00     0.127 S 
ATOM     69  O   UNL A   1      37.056  28.862  32.388  1.00  0.00    -0.237 OA
ATOM     70  O   UNL A   1      38.568  30.813  32.455  1.00  0.00    -0.237 OA
ATOM     71  O   UNL A   1      36.155  31.165  32.232  1.00  0.00    -0.744 OA
ENDBRANCH  65  68
ENDBRANCH  47  61
BRANCH  48  72
ATOM     72  C   UNL A   1      44.586  26.322  33.553  1.00  0.00     0.023 A 
ATOM     73  C   UNL A   1      45.870  26.336  34.133  1.00  0.00     0.012 A 
ATOM     74  C   UNL A   1      43.474  26.286  34.428  1.00  0.00     0.148 A 
ATOM     75  C   UNL A   1      46.037  26.344  35.525  1.00  0.00     0.002 A 
ATOM     76  C   UNL A   1      43.645  26.261  35.809  1.00  0.00     0.091 A 
ATOM     77  F   UNL A   1      42.237  26.382  33.924  1.00  0.00    -0.205 F 
ATOM     78  C   UNL A   1      44.927  26.306  36.363  1.00  0.00     0.022 A 
BRANCH  76  79
ATOM     79  S   UNL A   1      42.235  26.188  36.924  1.00  0.00     0.127 S 
ATOM     80  O   UNL A   1      41.685  24.861  36.644  1.00  0.00    -0.237 OA
ATOM     81  O   UNL A   1      42.872  26.325  38.230  1.00  0.00    -0.237 OA
ATOM     82  O   UNL A   1      41.365  27.286  36.518  1.00  0.00    -0.744 OA
ENDBRANCH  76  79
ENDBRANCH  48  72
BRANCH  60  83
ATOM     83  C   UNL A   1      45.306  29.165  27.933  1.00  0.00     0.023 A 
ATOM     84  C   UNL A   1      46.295  30.169  27.980  1.00  0.00     0.012 A 
ATOM     85  C   UNL A   1      45.677  27.858  27.572  1.00  0.00     0.148 A 
ATOM     86  C   UNL A   1      47.626  29.878  27.670  1.00  0.00     0.002 A 
ATOM     87  C   UNL A   1      47.009  27.563  27.305  1.00  0.00     0.091 A 
ATOM     88  F   UNL A   1      44.726  26.912  27.555  1.00  0.00    -0.205 F 
ATOM     89  C   UNL A   1      47.985  28.572  27.347  1.00  0.00     0.022 A 
BRANCH  87  90
ATOM     90  S   UNL A   1      47.573  25.884  27.012  1.00  0.00     0.127 S 
ATOM     91  O   UNL A   1      49.017  26.065  26.877  1.00  0.00    -0.237 OA
ATOM     92  O   UNL A   1      47.154  25.199  28.236  1.00  0.00    -0.237 OA
ATOM     93  O   UNL A   1      46.889  25.429  25.807  1.00  0.00    -0.744 OA
ENDBRANCH  87  90
ENDBRANCH  60  83
ENDBRANCH  34  35
ENDBRANCH  26  29
ENDBRANCH  24  25
ENDBRANCH  23  24
ENDBRANCH   1  23
TORSDOF 18
ENDMDL
