MODEL 1
REMARK VINA RESULT:     -13.3      0.000      0.000
REMARK SMILES O=C(NCCCNC(=O)c1ccc(-c2c3nc(c(-c4cccc(S(=O)(=O)[O-])c4F)c4ccc([nH]4)c(-c4cccc(S(=O)(=O)[O-])c4F)c4nc(c(-c5cccc(S(=O)(=O)[O-])c5F)c5ccc2[nH]5)C=C4)C=C3)cc1)C1=Cc2c(ccc(Cl)c2Sc2ccccc2)O[C@H]1C(F)(F)F
REMARK SMILES IDX 5 1 4 2 3 3 1 4 2 5 73 7 74 8 90 9 75 10 89 11 76 12 81 13
REMARK SMILES IDX 77 14 79 15 78 16 80 17 91 18 92 19 93 20 94 21 82 22 83 23
REMARK SMILES IDX 84 24 88 25 85 26 87 27 86 28 6 29 7 30 8 31 9 33 10 34
REMARK SMILES IDX 11 35 72 36 12 37 71 38 13 39 14 40 15 41 65 42 16 43 70 44
REMARK SMILES IDX 64 45 66 46 17 47 69 48 63 49 62 50 18 52 50 53 30 54 49 55
REMARK SMILES IDX 31 56 34 57 48 58 67 59 32 60 33 61 47 63 68 64 35 65 19 66
REMARK SMILES IDX 20 67 28 68 21 69 23 70 29 71 22 72 24 73 25 74 26 75 27 76
REMARK SMILES IDX 51 77 52 78 60 79 53 80 55 81 61 82 54 83 56 84 57 85 58 86
REMARK SMILES IDX 59 87 36 88 37 89 45 90 38 91 40 92 46 93 39 94 41 95 42 96
REMARK SMILES IDX 43 97 44 98
REMARK H PARENT 3 6 7 32 66 51 34 62
REMARK Flexibility Score: inf
ROOT
ATOM      1  C   UNL A   1      31.802  28.591  26.498  1.00  0.00     0.042 C 
ENDROOT
BRANCH   1   2
ATOM      2  C   UNL A   1      32.393  27.255  26.903  1.00  0.00     0.118 C 
BRANCH   2   3
ATOM      3  N   UNL A   1      31.441  26.162  26.900  1.00  0.00    -0.352 N 
ATOM      4  O   UNL A   1      30.608  24.109  26.549  1.00  0.00    -0.270 OA
ATOM      5  C   UNL A   1      31.569  24.871  26.488  1.00  0.00     0.251 C 
ATOM      6  H   UNL A   1      30.553  26.392  27.256  1.00  0.00     0.163 HD
BRANCH   5   7
ATOM      7  C   UNL A   1      32.840  24.373  25.933  1.00  0.00     0.067 C 
ATOM      8  C   UNL A   1      33.606  25.102  25.113  1.00  0.00     0.026 C 
ATOM      9  C   UNL A   1      33.182  22.931  26.089  1.00  0.00     0.314 C 
ATOM     10  C   UNL A   1      33.542  24.552  23.740  1.00  0.00     0.033 A 
ATOM     11  O   UNL A   1      33.451  22.315  24.784  1.00  0.00    -0.475 OA
ATOM     12  C   UNL A   1      33.408  23.138  23.672  1.00  0.00     0.129 A 
ATOM     13  C   UNL A   1      33.359  25.381  22.599  1.00  0.00     0.042 A 
ATOM     14  C   UNL A   1      33.080  22.528  22.471  1.00  0.00     0.049 A 
ATOM     15  C   UNL A   1      32.968  24.722  21.408  1.00  0.00     0.055 A 
ATOM     16  C   UNL A   1      32.829  23.321  21.353  1.00  0.00     0.025 A 
ATOM     17  Cl  UNL A   1      32.526  25.577  19.963  1.00  0.00    -0.083 Cl
BRANCH   9  18
ATOM     18  C   UNL A   1      34.383  22.760  27.038  1.00  0.00     0.429 C 
ATOM     19  F   UNL A   1      35.333  23.709  26.850  1.00  0.00    -0.167 F 
ATOM     20  F   UNL A   1      34.009  22.831  28.336  1.00  0.00    -0.167 F 
ATOM     21  F   UNL A   1      34.998  21.562  26.861  1.00  0.00    -0.167 F 
ENDBRANCH   9  18
BRANCH  13  22
ATOM     22  S   UNL A   1      33.388  27.208  22.610  1.00  0.00    -0.088 SA
BRANCH  22  23
ATOM     23  C   UNL A   1      31.735  27.752  22.983  1.00  0.00     0.012 A 
ATOM     24  C   UNL A   1      31.343  29.063  22.675  1.00  0.00     0.015 A 
ATOM     25  C   UNL A   1      30.780  26.840  23.451  1.00  0.00     0.015 A 
ATOM     26  C   UNL A   1      29.992  29.420  22.716  1.00  0.00     0.001 A 
ATOM     27  C   UNL A   1      29.431  27.202  23.496  1.00  0.00     0.001 A 
ATOM     28  C   UNL A   1      29.036  28.482  23.104  1.00  0.00     0.000 A 
ENDBRANCH  22  23
ENDBRANCH  13  22
ENDBRANCH   5   7
ENDBRANCH   2   3
ENDBRANCH   1   2
BRANCH   1  29
ATOM     29  C   UNL A   1      32.864  29.579  26.053  1.00  0.00     0.118 C 
BRANCH  29  30
ATOM     30  N   UNL A   1      32.675  30.938  26.554  1.00  0.00    -0.352 N 
ATOM     31  C   UNL A   1      33.491  31.726  27.343  1.00  0.00     0.251 C 
ATOM     32  H   UNL A   1      31.829  31.362  26.285  1.00  0.00     0.163 HD
ATOM     33  O   UNL A   1      33.121  32.841  27.663  1.00  0.00    -0.269 OA
BRANCH  31  34
ATOM     34  C   UNL A   1      34.786  31.200  27.841  1.00  0.00     0.039 A 
ATOM     35  C   UNL A   1      35.855  32.084  28.004  1.00  0.00     0.014 A 
ATOM     36  C   UNL A   1      34.943  29.859  28.183  1.00  0.00     0.014 A 
ATOM     37  C   UNL A   1      37.042  31.633  28.588  1.00  0.00     0.010 A 
ATOM     38  C   UNL A   1      36.053  29.456  28.909  1.00  0.00     0.010 A 
ATOM     39  C   UNL A   1      37.133  30.325  29.092  1.00  0.00    -0.014 A 
BRANCH  39  40
ATOM     40  C   UNL A   1      38.351  29.837  29.788  1.00  0.00     0.031 A 
ATOM     41  C   UNL A   1      38.695  30.356  31.163  1.00  0.00     0.074 A 
ATOM     42  C   UNL A   1      39.192  28.998  29.150  1.00  0.00     0.049 A 
ATOM     43  N   UNL A   1      39.733  30.084  31.911  1.00  0.00    -0.248 NA
ATOM     44  C   UNL A   1      37.784  31.351  31.759  1.00  0.00     0.031 C 
ATOM     45  C   UNL A   1      39.036  28.524  27.772  1.00  0.00     0.029 A 
ATOM     46  N   UNL A   1      40.357  28.408  29.569  1.00  0.00    -0.354 N 
ATOM     47  C   UNL A   1      39.624  30.908  33.026  1.00  0.00     0.074 A 
ATOM     48  C   UNL A   1      38.455  31.732  32.834  1.00  0.00     0.031 C 
ATOM     49  C   UNL A   1      40.047  27.693  27.472  1.00  0.00     0.029 A 
ATOM     50  C   UNL A   1      40.938  27.596  28.622  1.00  0.00     0.049 A 
ATOM     51  H   UNL A   1      40.742  28.551  30.465  1.00  0.00     0.167 HD
ATOM     52  C   UNL A   1      40.400  30.946  34.135  1.00  0.00     0.034 A 
ATOM     53  C   UNL A   1      42.059  26.852  28.680  1.00  0.00     0.034 A 
ATOM     54  C   UNL A   1      41.514  30.065  34.354  1.00  0.00     0.049 A 
ATOM     55  C   UNL A   1      42.837  26.823  29.967  1.00  0.00     0.074 A 
ATOM     56  C   UNL A   1      42.295  29.929  35.486  1.00  0.00     0.029 A 
ATOM     57  N   UNL A   1      41.999  29.163  33.419  1.00  0.00    -0.354 N 
ATOM     58  N   UNL A   1      42.615  27.479  31.081  1.00  0.00    -0.248 NA
ATOM     59  C   UNL A   1      43.992  25.917  30.023  1.00  0.00     0.031 C 
ATOM     60  C   UNL A   1      43.269  28.959  35.228  1.00  0.00     0.029 A 
ATOM     61  C   UNL A   1      43.073  28.470  33.945  1.00  0.00     0.049 A 
ATOM     62  H   UNL A   1      41.632  29.036  32.515  1.00  0.00     0.167 HD
ATOM     63  C   UNL A   1      43.583  27.045  31.979  1.00  0.00     0.074 A 
ATOM     64  C   UNL A   1      44.370  26.043  31.288  1.00  0.00     0.031 C 
ATOM     65  C   UNL A   1      43.814  27.448  33.253  1.00  0.00     0.034 A 
BRANCH  52  66
ATOM     66  C   UNL A   1      40.030  31.924  35.221  1.00  0.00     0.023 A 
ATOM     67  C   UNL A   1      40.644  33.195  35.258  1.00  0.00     0.012 A 
ATOM     68  C   UNL A   1      39.045  31.609  36.176  1.00  0.00     0.148 A 
ATOM     69  C   UNL A   1      40.314  34.118  36.249  1.00  0.00     0.002 A 
ATOM     70  C   UNL A   1      38.684  32.553  37.131  1.00  0.00     0.091 A 
ATOM     71  F   UNL A   1      38.488  30.390  36.141  1.00  0.00    -0.205 F 
ATOM     72  C   UNL A   1      39.327  33.801  37.177  1.00  0.00     0.022 A 
BRANCH  70  73
ATOM     73  S   UNL A   1      37.366  32.278  38.319  1.00  0.00     0.127 S 
ATOM     74  O   UNL A   1      37.952  32.827  39.541  1.00  0.00    -0.237 OA
ATOM     75  O   UNL A   1      36.275  33.074  37.755  1.00  0.00    -0.237 OA
ATOM     76  O   UNL A   1      37.128  30.842  38.333  1.00  0.00    -0.744 OA
ENDBRANCH  70  73
ENDBRANCH  52  66
BRANCH  53  77
ATOM     77  C   UNL A   1      42.458  26.008  27.517  1.00  0.00     0.023 A 
ATOM     78  C   UNL A   1      43.287  26.551  26.516  1.00  0.00     0.012 A 
ATOM     79  C   UNL A   1      42.050  24.665  27.412  1.00  0.00     0.148 A 
ATOM     80  C   UNL A   1      43.670  25.787  25.413  1.00  0.00     0.002 A 
ATOM     81  C   UNL A   1      42.483  23.890  26.341  1.00  0.00     0.091 A 
ATOM     82  F   UNL A   1      41.253  24.166  28.368  1.00  0.00    -0.205 F 
ATOM     83  C   UNL A   1      43.277  24.454  25.331  1.00  0.00     0.022 A 
BRANCH  81  84
ATOM     84  S   UNL A   1      42.143  22.129  26.231  1.00  0.00     0.127 S 
ATOM     85  O   UNL A   1      40.686  22.112  26.130  1.00  0.00    -0.237 OA
ATOM     86  O   UNL A   1      42.852  21.760  25.006  1.00  0.00    -0.237 OA
ATOM     87  O   UNL A   1      42.704  21.548  27.443  1.00  0.00    -0.744 OA
ENDBRANCH  81  84
ENDBRANCH  53  77
BRANCH  65  88
ATOM     88  C   UNL A   1      44.947  26.786  33.989  1.00  0.00     0.023 A 
ATOM     89  C   UNL A   1      46.246  27.327  33.909  1.00  0.00     0.012 A 
ATOM     90  C   UNL A   1      44.715  25.658  34.800  1.00  0.00     0.148 A 
ATOM     91  C   UNL A   1      47.305  26.725  34.585  1.00  0.00     0.002 A 
ATOM     92  C   UNL A   1      45.765  25.097  35.514  1.00  0.00     0.091 A 
ATOM     93  F   UNL A   1      43.475  25.149  34.849  1.00  0.00    -0.205 F 
ATOM     94  C   UNL A   1      47.063  25.618  35.395  1.00  0.00     0.022 A 
BRANCH  92  95
ATOM     95  S   UNL A   1      45.520  23.735  36.658  1.00  0.00     0.127 S 
ATOM     96  O   UNL A   1      44.643  24.340  37.659  1.00  0.00    -0.237 OA
ATOM     97  O   UNL A   1      44.876  22.728  35.812  1.00  0.00    -0.237 OA
ATOM     98  O   UNL A   1      46.849  23.366  37.125  1.00  0.00    -0.744 OA
ENDBRANCH  92  95
ENDBRANCH  65  88
ENDBRANCH  39  40
ENDBRANCH  31  34
ENDBRANCH  29  30
ENDBRANCH   1  29
TORSDOF 16
ENDMDL
MODEL 2
REMARK VINA RESULT:     -13.1      2.482      3.773
REMARK SMILES O=C(NCCCNC(=O)c1ccc(-c2c3nc(c(-c4cccc(S(=O)(=O)[O-])c4F)c4ccc([nH]4)c(-c4cccc(S(=O)(=O)[O-])c4F)c4nc(c(-c5cccc(S(=O)(=O)[O-])c5F)c5ccc2[nH]5)C=C4)C=C3)cc1)C1=Cc2c(ccc(Cl)c2Sc2ccccc2)O[C@H]1C(F)(F)F
REMARK SMILES IDX 5 1 4 2 3 3 1 4 2 5 73 7 74 8 90 9 75 10 89 11 76 12 81 13
REMARK SMILES IDX 77 14 79 15 78 16 80 17 91 18 92 19 93 20 94 21 82 22 83 23
REMARK SMILES IDX 84 24 88 25 85 26 87 27 86 28 6 29 7 30 8 31 9 33 10 34
REMARK SMILES IDX 11 35 72 36 12 37 71 38 13 39 14 40 15 41 65 42 16 43 70 44
REMARK SMILES IDX 64 45 66 46 17 47 69 48 63 49 62 50 18 52 50 53 30 54 49 55
REMARK SMILES IDX 31 56 34 57 48 58 67 59 32 60 33 61 47 63 68 64 35 65 19 66
REMARK SMILES IDX 20 67 28 68 21 69 23 70 29 71 22 72 24 73 25 74 26 75 27 76
REMARK SMILES IDX 51 77 52 78 60 79 53 80 55 81 61 82 54 83 56 84 57 85 58 86
REMARK SMILES IDX 59 87 36 88 37 89 45 90 38 91 40 92 46 93 39 94 41 95 42 96
REMARK SMILES IDX 43 97 44 98
REMARK H PARENT 3 6 7 32 66 51 34 62
REMARK Flexibility Score: inf
ROOT
ATOM      1  C   UNL A   1      31.729  28.589  26.845  1.00  0.00     0.042 C 
ENDROOT
BRANCH   1   2
ATOM      2  C   UNL A   1      31.511  27.311  26.058  1.00  0.00     0.118 C 
BRANCH   2   3
ATOM      3  N   UNL A   1      31.441  26.118  26.875  1.00  0.00    -0.352 N 
ATOM      4  O   UNL A   1      31.405  23.938  27.404  1.00  0.00    -0.270 OA
ATOM      5  C   UNL A   1      31.522  24.801  26.538  1.00  0.00     0.251 C 
ATOM      6  H   UNL A   1      31.315  26.287  27.837  1.00  0.00     0.163 HD
BRANCH   5   7
ATOM      7  C   UNL A   1      31.714  24.386  25.137  1.00  0.00     0.067 C 
ATOM      8  C   UNL A   1      31.870  23.106  24.778  1.00  0.00     0.026 C 
ATOM      9  C   UNL A   1      31.982  25.427  24.105  1.00  0.00     0.314 C 
ATOM     10  C   UNL A   1      33.271  22.867  24.360  1.00  0.00     0.033 A 
ATOM     11  O   UNL A   1      33.226  25.135  23.383  1.00  0.00    -0.475 OA
ATOM     12  C   UNL A   1      33.894  23.969  23.712  1.00  0.00     0.129 A 
ATOM     13  C   UNL A   1      34.012  21.738  24.805  1.00  0.00     0.042 A 
ATOM     14  C   UNL A   1      35.265  23.968  23.505  1.00  0.00     0.049 A 
ATOM     15  C   UNL A   1      35.415  21.806  24.627  1.00  0.00     0.055 A 
ATOM     16  C   UNL A   1      36.025  22.905  23.991  1.00  0.00     0.025 A 
ATOM     17  Cl  UNL A   1      36.502  20.611  25.263  1.00  0.00    -0.083 Cl
BRANCH   9  18
ATOM     18  C   UNL A   1      30.793  25.542  23.133  1.00  0.00     0.429 C 
ATOM     19  F   UNL A   1      30.923  26.584  22.275  1.00  0.00    -0.167 F 
ATOM     20  F   UNL A   1      30.655  24.428  22.378  1.00  0.00    -0.167 F 
ATOM     21  F   UNL A   1      29.621  25.731  23.791  1.00  0.00    -0.167 F 
ENDBRANCH   9  18
BRANCH  13  22
ATOM     22  S   UNL A   1      33.325  20.335  25.753  1.00  0.00    -0.088 SA
BRANCH  22  23
ATOM     23  C   UNL A   1      33.321  18.925  24.665  1.00  0.00     0.012 A 
ATOM     24  C   UNL A   1      32.516  18.930  23.517  1.00  0.00     0.015 A 
ATOM     25  C   UNL A   1      34.221  17.872  24.871  1.00  0.00     0.015 A 
ATOM     26  C   UNL A   1      32.698  17.959  22.528  1.00  0.00     0.001 A 
ATOM     27  C   UNL A   1      34.397  16.900  23.882  1.00  0.00     0.001 A 
ATOM     28  C   UNL A   1      33.655  16.960  22.702  1.00  0.00     0.000 A 
ENDBRANCH  22  23
ENDBRANCH  13  22
ENDBRANCH   5   7
ENDBRANCH   2   3
ENDBRANCH   1   2
BRANCH   1  29
ATOM     29  C   UNL A   1      32.609  29.578  26.105  1.00  0.00     0.118 C 
BRANCH  29  30
ATOM     30  N   UNL A   1      32.418  30.972  26.499  1.00  0.00    -0.352 N 
ATOM     31  C   UNL A   1      33.231  31.819  27.227  1.00  0.00     0.251 C 
ATOM     32  H   UNL A   1      31.572  31.374  26.196  1.00  0.00     0.163 HD
ATOM     33  O   UNL A   1      32.860  32.955  27.459  1.00  0.00    -0.269 OA
BRANCH  31  34
ATOM     34  C   UNL A   1      34.525  31.333  27.767  1.00  0.00     0.039 A 
ATOM     35  C   UNL A   1      35.548  32.256  28.000  1.00  0.00     0.014 A 
ATOM     36  C   UNL A   1      34.725  29.991  28.081  1.00  0.00     0.014 A 
ATOM     37  C   UNL A   1      36.727  31.839  28.624  1.00  0.00     0.010 A 
ATOM     38  C   UNL A   1      35.820  29.615  28.844  1.00  0.00     0.010 A 
ATOM     39  C   UNL A   1      36.852  30.523  29.097  1.00  0.00    -0.014 A 
BRANCH  39  40
ATOM     40  C   UNL A   1      38.059  30.067  29.833  1.00  0.00     0.031 A 
ATOM     41  C   UNL A   1      38.294  30.520  31.254  1.00  0.00     0.074 A 
ATOM     42  C   UNL A   1      38.985  29.321  29.197  1.00  0.00     0.049 A 
ATOM     43  N   UNL A   1      39.305  30.265  32.043  1.00  0.00    -0.248 NA
ATOM     44  C   UNL A   1      37.291  31.420  31.853  1.00  0.00     0.031 C 
ATOM     45  C   UNL A   1      38.934  28.924  27.787  1.00  0.00     0.029 A 
ATOM     46  N   UNL A   1      40.161  28.777  29.648  1.00  0.00    -0.354 N 
ATOM     47  C   UNL A   1      39.084  31.011  33.196  1.00  0.00     0.074 A 
ATOM     48  C   UNL A   1      37.877  31.774  32.985  1.00  0.00     0.031 C 
ATOM     49  C   UNL A   1      40.011  28.175  27.499  1.00  0.00     0.029 A 
ATOM     50  C   UNL A   1      40.843  28.062  28.691  1.00  0.00     0.049 A 
ATOM     51  H   UNL A   1      40.486  28.887  30.571  1.00  0.00     0.167 HD
ATOM     52  C   UNL A   1      39.794  31.027  34.348  1.00  0.00     0.034 A 
ATOM     53  C   UNL A   1      42.004  27.383  28.770  1.00  0.00     0.034 A 
ATOM     54  C   UNL A   1      40.948  30.202  34.580  1.00  0.00     0.049 A 
ATOM     55  C   UNL A   1      42.711  27.322  30.096  1.00  0.00     0.074 A 
ATOM     56  C   UNL A   1      41.674  30.044  35.745  1.00  0.00     0.029 A 
ATOM     57  N   UNL A   1      41.540  29.391  33.624  1.00  0.00    -0.354 N 
ATOM     58  N   UNL A   1      42.388  27.894  31.232  1.00  0.00    -0.248 NA
ATOM     59  C   UNL A   1      43.917  26.485  30.166  1.00  0.00     0.031 C 
ATOM     60  C   UNL A   1      42.720  29.152  35.488  1.00  0.00     0.029 A 
ATOM     61  C   UNL A   1      42.625  28.732  34.170  1.00  0.00     0.049 A 
ATOM     62  H   UNL A   1      41.231  29.298  32.694  1.00  0.00     0.167 HD
ATOM     63  C   UNL A   1      43.331  27.464  32.157  1.00  0.00     0.074 A 
ATOM     64  C   UNL A   1      44.216  26.556  31.456  1.00  0.00     0.031 C 
ATOM     65  C   UNL A   1      43.466  27.801  33.464  1.00  0.00     0.034 A 
BRANCH  52  66
ATOM     66  C   UNL A   1      39.305  31.912  35.466  1.00  0.00     0.023 A 
ATOM     67  C   UNL A   1      38.387  31.406  36.410  1.00  0.00     0.012 A 
ATOM     68  C   UNL A   1      39.787  33.228  35.612  1.00  0.00     0.148 A 
ATOM     69  C   UNL A   1      37.925  32.204  37.456  1.00  0.00     0.002 A 
ATOM     70  C   UNL A   1      39.361  34.001  36.687  1.00  0.00     0.091 A 
ATOM     71  F   UNL A   1      40.641  33.701  34.694  1.00  0.00    -0.205 F 
ATOM     72  C   UNL A   1      38.420  33.496  37.599  1.00  0.00     0.022 A 
BRANCH  70  73
ATOM     73  S   UNL A   1      40.001  35.647  37.012  1.00  0.00     0.127 S 
ATOM     74  O   UNL A   1      39.301  35.997  38.247  1.00  0.00    -0.237 OA
ATOM     75  O   UNL A   1      41.433  35.392  37.174  1.00  0.00    -0.237 OA
ATOM     76  O   UNL A   1      39.653  36.453  35.850  1.00  0.00    -0.744 OA
ENDBRANCH  70  73
ENDBRANCH  52  66
BRANCH  53  77
ATOM     77  C   UNL A   1      42.518  26.639  27.585  1.00  0.00     0.023 A 
ATOM     78  C   UNL A   1      43.379  27.286  26.677  1.00  0.00     0.012 A 
ATOM     79  C   UNL A   1      42.187  25.287  27.369  1.00  0.00     0.148 A 
ATOM     80  C   UNL A   1      43.869  26.615  25.555  1.00  0.00     0.002 A 
ATOM     81  C   UNL A   1      42.725  24.607  26.282  1.00  0.00     0.091 A 
ATOM     82  F   UNL A   1      41.359  24.689  28.237  1.00  0.00    -0.205 F 
ATOM     83  C   UNL A   1      43.552  25.273  25.364  1.00  0.00     0.022 A 
BRANCH  81  84
ATOM     84  S   UNL A   1      42.485  22.843  26.039  1.00  0.00     0.127 S 
ATOM     85  O   UNL A   1      43.220  22.283  27.169  1.00  0.00    -0.237 OA
ATOM     86  O   UNL A   1      41.029  22.721  26.128  1.00  0.00    -0.237 OA
ATOM     87  O   UNL A   1      43.028  22.553  24.719  1.00  0.00    -0.744 OA
ENDBRANCH  81  84
ENDBRANCH  53  77
BRANCH  65  88
ATOM     88  C   UNL A   1      44.597  27.164  34.225  1.00  0.00     0.023 A 
ATOM     89  C   UNL A   1      45.863  27.785  34.251  1.00  0.00     0.012 A 
ATOM     90  C   UNL A   1      44.393  25.978  34.955  1.00  0.00     0.148 A 
ATOM     91  C   UNL A   1      46.920  27.207  34.950  1.00  0.00     0.002 A 
ATOM     92  C   UNL A   1      45.436  25.437  35.695  1.00  0.00     0.091 A 
ATOM     93  F   UNL A   1      43.187  25.393  34.904  1.00  0.00    -0.205 F 
ATOM     94  C   UNL A   1      46.704  26.041  35.681  1.00  0.00     0.022 A 
BRANCH  92  95
ATOM     95  S   UNL A   1      45.216  23.996  36.744  1.00  0.00     0.127 S 
ATOM     96  O   UNL A   1      46.582  23.748  37.201  1.00  0.00    -0.237 OA
ATOM     97  O   UNL A   1      44.309  24.498  37.777  1.00  0.00    -0.237 OA
ATOM     98  O   UNL A   1      44.642  22.967  35.888  1.00  0.00    -0.744 OA
ENDBRANCH  92  95
ENDBRANCH  65  88
ENDBRANCH  39  40
ENDBRANCH  31  34
ENDBRANCH  29  30
ENDBRANCH   1  29
TORSDOF 16
ENDMDL
MODEL 3
REMARK VINA RESULT:     -13.0      5.053      9.744
REMARK SMILES O=C(NCCCNC(=O)c1ccc(-c2c3nc(c(-c4cccc(S(=O)(=O)[O-])c4F)c4ccc([nH]4)c(-c4cccc(S(=O)(=O)[O-])c4F)c4nc(c(-c5cccc(S(=O)(=O)[O-])c5F)c5ccc2[nH]5)C=C4)C=C3)cc1)C1=Cc2c(ccc(Cl)c2Sc2ccccc2)O[C@H]1C(F)(F)F
REMARK SMILES IDX 5 1 4 2 3 3 1 4 2 5 73 7 74 8 90 9 75 10 89 11 76 12 81 13
REMARK SMILES IDX 77 14 79 15 78 16 80 17 91 18 92 19 93 20 94 21 82 22 83 23
REMARK SMILES IDX 84 24 88 25 85 26 87 27 86 28 6 29 7 30 8 31 9 33 10 34
REMARK SMILES IDX 11 35 72 36 12 37 71 38 13 39 14 40 15 41 65 42 16 43 70 44
REMARK SMILES IDX 64 45 66 46 17 47 69 48 63 49 62 50 18 52 50 53 30 54 49 55
REMARK SMILES IDX 31 56 34 57 48 58 67 59 32 60 33 61 47 63 68 64 35 65 19 66
REMARK SMILES IDX 20 67 28 68 21 69 23 70 29 71 22 72 24 73 25 74 26 75 27 76
REMARK SMILES IDX 51 77 52 78 60 79 53 80 55 81 61 82 54 83 56 84 57 85 58 86
REMARK SMILES IDX 59 87 36 88 37 89 45 90 38 91 40 92 46 93 39 94 41 95 42 96
REMARK SMILES IDX 43 97 44 98
REMARK H PARENT 3 6 7 32 66 51 34 62
REMARK Flexibility Score: inf
ROOT
ATOM      1  C   UNL A   1      36.360  22.825  23.804  1.00  0.00     0.042 C 
ENDROOT
BRANCH   1   2
ATOM      2  C   UNL A   1      35.058  23.576  23.602  1.00  0.00     0.118 C 
BRANCH   2   3
ATOM      3  N   UNL A   1      33.995  22.774  23.033  1.00  0.00    -0.352 N 
ATOM      4  O   UNL A   1      31.941  21.921  22.736  1.00  0.00    -0.270 OA
ATOM      5  C   UNL A   1      32.669  22.707  23.336  1.00  0.00     0.251 C 
ATOM      6  H   UNL A   1      34.278  22.176  22.303  1.00  0.00     0.163 HD
BRANCH   5   7
ATOM      7  C   UNL A   1      32.091  23.544  24.402  1.00  0.00     0.067 C 
ATOM      8  C   UNL A   1      31.365  24.640  24.148  1.00  0.00     0.026 C 
ATOM      9  C   UNL A   1      32.514  23.314  25.812  1.00  0.00     0.314 C 
ATOM     10  C   UNL A   1      32.137  25.851  24.510  1.00  0.00     0.033 A 
ATOM     11  O   UNL A   1      33.033  24.551  26.409  1.00  0.00    -0.475 OA
ATOM     12  C   UNL A   1      32.995  25.695  25.632  1.00  0.00     0.129 A 
ATOM     13  C   UNL A   1      32.215  26.983  23.652  1.00  0.00     0.042 A 
ATOM     14  C   UNL A   1      33.952  26.659  25.913  1.00  0.00     0.049 A 
ATOM     15  C   UNL A   1      33.245  27.911  23.942  1.00  0.00     0.055 A 
ATOM     16  C   UNL A   1      34.097  27.745  25.052  1.00  0.00     0.025 A 
ATOM     17  Cl  UNL A   1      33.614  29.258  22.910  1.00  0.00    -0.083 Cl
BRANCH   9  18
ATOM     18  C   UNL A   1      31.347  22.748  26.642  1.00  0.00     0.429 C 
ATOM     19  F   UNL A   1      30.441  23.699  26.979  1.00  0.00    -0.167 F 
ATOM     20  F   UNL A   1      30.674  21.787  25.968  1.00  0.00    -0.167 F 
ATOM     21  F   UNL A   1      31.777  22.198  27.807  1.00  0.00    -0.167 F 
ENDBRANCH   9  18
BRANCH  13  22
ATOM     22  S   UNL A   1      31.245  27.214  22.121  1.00  0.00    -0.088 SA
BRANCH  22  23
ATOM     23  C   UNL A   1      29.927  28.346  22.508  1.00  0.00     0.012 A 
ATOM     24  C   UNL A   1      30.000  29.679  22.079  1.00  0.00     0.015 A 
ATOM     25  C   UNL A   1      28.753  27.882  23.115  1.00  0.00     0.015 A 
ATOM     26  C   UNL A   1      28.870  30.500  22.142  1.00  0.00     0.001 A 
ATOM     27  C   UNL A   1      27.626  28.707  23.181  1.00  0.00     0.001 A 
ATOM     28  C   UNL A   1      27.679  30.005  22.671  1.00  0.00     0.000 A 
ENDBRANCH  22  23
ENDBRANCH  13  22
ENDBRANCH   5   7
ENDBRANCH   2   3
ENDBRANCH   1   2
BRANCH   1  29
ATOM     29  C   UNL A   1      36.500  22.285  25.215  1.00  0.00     0.118 C 
BRANCH  29  30
ATOM     30  N   UNL A   1      37.518  21.249  25.370  1.00  0.00    -0.352 N 
ATOM     31  C   UNL A   1      38.775  21.303  25.939  1.00  0.00     0.251 C 
ATOM     32  H   UNL A   1      37.267  20.368  25.009  1.00  0.00     0.163 HD
ATOM     33  O   UNL A   1      39.476  20.307  25.942  1.00  0.00    -0.269 OA
BRANCH  31  34
ATOM     34  C   UNL A   1      39.290  22.577  26.498  1.00  0.00     0.039 A 
ATOM     35  C   UNL A   1      40.355  22.537  27.402  1.00  0.00     0.014 A 
ATOM     36  C   UNL A   1      38.762  23.807  26.111  1.00  0.00     0.014 A 
ATOM     37  C   UNL A   1      40.934  23.730  27.842  1.00  0.00     0.010 A 
ATOM     38  C   UNL A   1      39.439  24.977  26.417  1.00  0.00     0.010 A 
ATOM     39  C   UNL A   1      40.513  24.961  27.312  1.00  0.00    -0.014 A 
BRANCH  39  40
ATOM     40  C   UNL A   1      41.158  26.242  27.699  1.00  0.00     0.031 A 
ATOM     41  C   UNL A   1      42.574  26.535  27.266  1.00  0.00     0.074 A 
ATOM     42  C   UNL A   1      40.507  27.098  28.513  1.00  0.00     0.049 A 
ATOM     43  N   UNL A   1      43.321  27.573  27.538  1.00  0.00    -0.248 NA
ATOM     44  C   UNL A   1      43.264  25.508  26.464  1.00  0.00     0.031 C 
ATOM     45  C   UNL A   1      39.184  26.870  29.102  1.00  0.00     0.029 A 
ATOM     46  N   UNL A   1      40.875  28.326  28.999  1.00  0.00    -0.354 N 
ATOM     47  C   UNL A   1      44.570  27.298  26.992  1.00  0.00     0.074 A 
ATOM     48  C   UNL A   1      44.502  25.972  26.424  1.00  0.00     0.031 C 
ATOM     49  C   UNL A   1      38.840  27.935  29.843  1.00  0.00     0.029 A 
ATOM     50  C   UNL A   1      39.925  28.908  29.807  1.00  0.00     0.049 A 
ATOM     51  H   UNL A   1      41.738  28.752  28.790  1.00  0.00     0.167 HD
ATOM     52  C   UNL A   1      45.664  28.092  26.926  1.00  0.00     0.034 A 
ATOM     53  C   UNL A   1      39.927  30.098  30.439  1.00  0.00     0.034 A 
ATOM     54  C   UNL A   1      45.696  29.440  27.422  1.00  0.00     0.049 A 
ATOM     55  C   UNL A   1      41.109  31.009  30.251  1.00  0.00     0.074 A 
ATOM     56  C   UNL A   1      46.705  30.378  27.303  1.00  0.00     0.029 A 
ATOM     57  N   UNL A   1      44.666  30.044  28.127  1.00  0.00    -0.354 N 
ATOM     58  N   UNL A   1      42.215  30.799  29.577  1.00  0.00    -0.248 NA
ATOM     59  C   UNL A   1      41.025  32.339  30.869  1.00  0.00     0.031 C 
ATOM     60  C   UNL A   1      46.293  31.544  27.956  1.00  0.00     0.029 A 
ATOM     61  C   UNL A   1      45.014  31.341  28.454  1.00  0.00     0.049 A 
ATOM     62  H   UNL A   1      43.812  29.612  28.358  1.00  0.00     0.167 HD
ATOM     63  C   UNL A   1      42.945  31.978  29.666  1.00  0.00     0.074 A 
ATOM     64  C   UNL A   1      42.139  32.909  30.429  1.00  0.00     0.031 C 
ATOM     65  C   UNL A   1      44.178  32.262  29.178  1.00  0.00     0.034 A 
BRANCH  52  66
ATOM     66  C   UNL A   1      46.890  27.547  26.238  1.00  0.00     0.023 A 
ATOM     67  C   UNL A   1      47.770  26.698  26.942  1.00  0.00     0.012 A 
ATOM     68  C   UNL A   1      47.149  27.835  24.884  1.00  0.00     0.148 A 
ATOM     69  C   UNL A   1      48.907  26.178  26.325  1.00  0.00     0.002 A 
ATOM     70  C   UNL A   1      48.257  27.271  24.260  1.00  0.00     0.091 A 
ATOM     71  F   UNL A   1      46.316  28.661  24.236  1.00  0.00    -0.205 F 
ATOM     72  C   UNL A   1      49.142  26.456  24.983  1.00  0.00     0.022 A 
BRANCH  70  73
ATOM     73  S   UNL A   1      48.606  27.497  22.514  1.00  0.00     0.127 S 
ATOM     74  O   UNL A   1      49.885  28.203  22.558  1.00  0.00    -0.237 OA
ATOM     75  O   UNL A   1      48.689  26.115  22.038  1.00  0.00    -0.237 OA
ATOM     76  O   UNL A   1      47.490  28.261  21.973  1.00  0.00    -0.744 OA
ENDBRANCH  70  73
ENDBRANCH  52  66
BRANCH  53  77
ATOM     77  C   UNL A   1      38.738  30.528  31.229  1.00  0.00     0.023 A 
ATOM     78  C   UNL A   1      38.717  30.320  32.623  1.00  0.00     0.012 A 
ATOM     79  C   UNL A   1      37.643  31.168  30.617  1.00  0.00     0.148 A 
ATOM     80  C   UNL A   1      37.614  30.706  33.386  1.00  0.00     0.002 A 
ATOM     81  C   UNL A   1      36.573  31.603  31.391  1.00  0.00     0.091 A 
ATOM     82  F   UNL A   1      37.675  31.349  29.289  1.00  0.00    -0.205 F 
ATOM     83  C   UNL A   1      36.548  31.357  32.772  1.00  0.00     0.022 A 
BRANCH  81  84
ATOM     84  S   UNL A   1      35.226  32.574  30.706  1.00  0.00     0.127 S 
ATOM     85  O   UNL A   1      34.902  31.824  29.496  1.00  0.00    -0.237 OA
ATOM     86  O   UNL A   1      34.224  32.496  31.769  1.00  0.00    -0.237 OA
ATOM     87  O   UNL A   1      35.773  33.909  30.500  1.00  0.00    -0.744 OA
ENDBRANCH  81  84
ENDBRANCH  53  77
BRANCH  65  88
ATOM     88  C   UNL A   1      44.717  33.644  29.432  1.00  0.00     0.023 A 
ATOM     89  C   UNL A   1      45.375  33.927  30.647  1.00  0.00     0.012 A 
ATOM     90  C   UNL A   1      44.616  34.646  28.449  1.00  0.00     0.148 A 
ATOM     91  C   UNL A   1      45.879  35.202  30.897  1.00  0.00     0.002 A 
ATOM     92  C   UNL A   1      45.169  35.898  28.684  1.00  0.00     0.091 A 
ATOM     93  F   UNL A   1      43.972  34.362  27.308  1.00  0.00    -0.205 F 
ATOM     94  C   UNL A   1      45.786  36.183  29.913  1.00  0.00     0.022 A 
BRANCH  92  95
ATOM     95  S   UNL A   1      45.184  37.185  27.431  1.00  0.00     0.127 S 
ATOM     96  O   UNL A   1      45.973  36.560  26.371  1.00  0.00    -0.237 OA
ATOM     97  O   UNL A   1      43.761  37.337  27.123  1.00  0.00    -0.237 OA
ATOM     98  O   UNL A   1      45.789  38.348  28.065  1.00  0.00    -0.744 OA
ENDBRANCH  92  95
ENDBRANCH  65  88
ENDBRANCH  39  40
ENDBRANCH  31  34
ENDBRANCH  29  30
ENDBRANCH   1  29
TORSDOF 16
ENDMDL
