MODEL 1
REMARK VINA RESULT:     -13.3      0.000      0.000
REMARK SMILES O=C(NCCCNC(=O)c1ccc(-c2c3nc(c(-c4cccc(S(=O)(=O)[O-])c4F)c4ccc([nH]4)c(-c4cccc(S(=O)(=O)[O-])c4F)c4nc(c(-c5cccc(S(=O)(=O)[O-])c5F)c5ccc2[nH]5)C=C4)C=C3)cc1)C1=Nc2nc3ccccc3n2[C@@H](c2cccc([N+](=O)[O-])c2)C1
REMARK SMILES IDX 5 1 4 2 3 3 1 4 2 5 73 7 74 8 94 9 75 10 84 11 76 12 83 13
REMARK SMILES IDX 77 14 82 15 78 16 81 17 79 18 80 19 85 20 86 21 93 22 87 23
REMARK SMILES IDX 89 24 88 25 90 26 91 27 92 28 6 29 7 30 8 31 9 33 10 34
REMARK SMILES IDX 11 35 72 36 12 37 71 38 13 39 14 40 15 41 65 42 16 43 70 44
REMARK SMILES IDX 64 45 66 46 17 47 69 48 63 49 62 50 18 52 50 53 30 54 49 55
REMARK SMILES IDX 31 56 34 57 48 58 67 59 32 60 33 61 47 63 68 64 35 65 19 66
REMARK SMILES IDX 20 67 28 68 21 69 23 70 29 71 22 72 24 73 25 74 26 75 27 76
REMARK SMILES IDX 51 77 52 78 60 79 53 80 55 81 61 82 54 83 56 84 57 85 58 86
REMARK SMILES IDX 59 87 36 88 37 89 45 90 38 91 40 92 46 93 39 94 41 95 42 96
REMARK SMILES IDX 43 97 44 98
REMARK H PARENT 3 6 7 32 66 51 34 62
REMARK Flexibility Score: inf
ROOT
ATOM      1  C   UNL A   1      32.024  28.059  25.511  1.00  0.00     0.042 C 
ENDROOT
BRANCH   1   2
ATOM      2  C   UNL A   1      32.491  26.746  24.883  1.00  0.00     0.118 C 
BRANCH   2   3
ATOM      3  N   UNL A   1      32.906  26.918  23.500  1.00  0.00    -0.351 N 
ATOM      4  O   UNL A   1      33.644  26.340  21.453  1.00  0.00    -0.268 OA
ATOM      5  C   UNL A   1      33.362  25.994  22.592  1.00  0.00     0.265 C 
ATOM      6  H   UNL A   1      32.852  27.842  23.162  1.00  0.00     0.163 HD
BRANCH   5   7
ATOM      7  C   UNL A   1      33.507  24.518  22.951  1.00  0.00     0.111 C 
ATOM      8  N   UNL A   1      32.574  23.669  22.668  1.00  0.00    -0.212 NA
ATOM      9  C   UNL A   1      34.816  24.103  23.569  1.00  0.00     0.092 C 
ATOM     10  C   UNL A   1      32.781  22.365  22.955  1.00  0.00     0.231 A 
ATOM     11  C   UNL A   1      34.575  22.935  24.536  1.00  0.00     0.127 C 
ATOM     12  N   UNL A   1      32.141  21.338  22.452  1.00  0.00    -0.211 NA
ATOM     13  N   UNL A   1      33.717  21.942  23.888  1.00  0.00    -0.300 N 
ATOM     14  C   UNL A   1      32.529  20.259  23.193  1.00  0.00     0.091 A 
ATOM     15  C   UNL A   1      33.493  20.611  24.140  1.00  0.00     0.070 A 
ATOM     16  C   UNL A   1      32.057  18.941  23.121  1.00  0.00     0.031 A 
ATOM     17  C   UNL A   1      33.988  19.681  25.063  1.00  0.00     0.028 A 
ATOM     18  C   UNL A   1      32.552  18.000  24.026  1.00  0.00     0.002 A 
ATOM     19  C   UNL A   1      33.497  18.369  24.982  1.00  0.00     0.002 A 
BRANCH  11  20
ATOM     20  C   UNL A   1      35.947  22.488  25.029  1.00  0.00    -0.018 A 
ATOM     21  C   UNL A   1      36.549  21.273  24.664  1.00  0.00     0.006 A 
ATOM     22  C   UNL A   1      36.719  23.423  25.753  1.00  0.00     0.091 A 
ATOM     23  C   UNL A   1      37.865  20.979  25.043  1.00  0.00     0.007 A 
ATOM     24  C   UNL A   1      38.050  23.140  26.093  1.00  0.00     0.269 A 
ATOM     25  C   UNL A   1      38.623  21.911  25.751  1.00  0.00     0.085 A 
BRANCH  24  26
ATOM     26  N   UNL A   1      38.865  24.163  26.762  1.00  0.00     0.062 N 
ATOM     27  O   UNL A   1      39.509  24.945  26.049  1.00  0.00    -0.258 OA
ATOM     28  O   UNL A   1      38.846  24.193  28.001  1.00  0.00    -0.258 OA
ENDBRANCH  24  26
ENDBRANCH  11  20
ENDBRANCH   5   7
ENDBRANCH   2   3
ENDBRANCH   1   2
BRANCH   1  29
ATOM     29  C   UNL A   1      33.030  29.197  25.334  1.00  0.00     0.118 C 
BRANCH  29  30
ATOM     30  N   UNL A   1      32.510  30.469  25.831  1.00  0.00    -0.352 N 
ATOM     31  C   UNL A   1      32.929  31.253  26.874  1.00  0.00     0.251 C 
ATOM     32  H   UNL A   1      31.735  30.819  25.336  1.00  0.00     0.163 HD
ATOM     33  O   UNL A   1      32.220  32.183  27.249  1.00  0.00    -0.269 OA
BRANCH  31  34
ATOM     34  C   UNL A   1      34.218  30.992  27.547  1.00  0.00     0.039 A 
ATOM     35  C   UNL A   1      35.133  32.040  27.680  1.00  0.00     0.014 A 
ATOM     36  C   UNL A   1      34.545  29.713  28.003  1.00  0.00     0.014 A 
ATOM     37  C   UNL A   1      36.354  31.822  28.324  1.00  0.00     0.010 A 
ATOM     38  C   UNL A   1      35.736  29.509  28.696  1.00  0.00     0.010 A 
ATOM     39  C   UNL A   1      36.651  30.561  28.864  1.00  0.00    -0.014 A 
BRANCH  39  40
ATOM     40  C   UNL A   1      37.897  30.319  29.633  1.00  0.00     0.031 A 
ATOM     41  C   UNL A   1      38.974  29.434  29.071  1.00  0.00     0.074 A 
ATOM     42  C   UNL A   1      38.006  30.812  30.883  1.00  0.00     0.049 A 
ATOM     43  N   UNL A   1      40.075  29.013  29.638  1.00  0.00    -0.248 NA
ATOM     44  C   UNL A   1      38.780  28.938  27.698  1.00  0.00     0.031 C 
ATOM     45  C   UNL A   1      37.000  31.633  31.559  1.00  0.00     0.029 A 
ATOM     46  N   UNL A   1      38.999  30.666  31.819  1.00  0.00    -0.354 N 
ATOM     47  C   UNL A   1      40.686  28.178  28.711  1.00  0.00     0.074 A 
ATOM     48  C   UNL A   1      39.821  28.131  27.551  1.00  0.00     0.031 C 
ATOM     49  C   UNL A   1      37.424  31.913  32.803  1.00  0.00     0.029 A 
ATOM     50  C   UNL A   1      38.713  31.267  33.023  1.00  0.00     0.049 A 
ATOM     51  H   UNL A   1      39.836  30.178  31.646  1.00  0.00     0.167 HD
ATOM     52  C   UNL A   1      41.873  27.534  28.804  1.00  0.00     0.034 A 
ATOM     53  C   UNL A   1      39.405  31.282  34.180  1.00  0.00     0.034 A 
ATOM     54  C   UNL A   1      42.752  27.623  29.940  1.00  0.00     0.049 A 
ATOM     55  C   UNL A   1      40.729  30.571  34.248  1.00  0.00     0.074 A 
ATOM     56  C   UNL A   1      44.011  27.071  30.098  1.00  0.00     0.029 A 
ATOM     57  N   UNL A   1      42.464  28.307  31.109  1.00  0.00    -0.354 N 
ATOM     58  N   UNL A   1      41.357  29.906  33.310  1.00  0.00    -0.248 NA
ATOM     59  C   UNL A   1      41.452  30.635  35.526  1.00  0.00     0.031 C 
ATOM     60  C   UNL A   1      44.481  27.414  31.370  1.00  0.00     0.029 A 
ATOM     61  C   UNL A   1      43.519  28.188  31.998  1.00  0.00     0.049 A 
ATOM     62  H   UNL A   1      41.634  28.806  31.283  1.00  0.00     0.167 HD
ATOM     63  C   UNL A   1      42.562  29.501  33.871  1.00  0.00     0.074 A 
ATOM     64  C   UNL A   1      42.584  30.013  35.226  1.00  0.00     0.031 C 
ATOM     65  C   UNL A   1      43.553  28.755  33.322  1.00  0.00     0.034 A 
BRANCH  52  66
ATOM     66  C   UNL A   1      42.329  26.730  27.615  1.00  0.00     0.023 A 
ATOM     67  C   UNL A   1      42.836  27.402  26.484  1.00  0.00     0.012 A 
ATOM     68  C   UNL A   1      42.321  25.322  27.636  1.00  0.00     0.148 A 
ATOM     69  C   UNL A   1      43.301  26.688  25.382  1.00  0.00     0.002 A 
ATOM     70  C   UNL A   1      42.822  24.615  26.548  1.00  0.00     0.091 A 
ATOM     71  F   UNL A   1      41.815  24.700  28.712  1.00  0.00    -0.205 F 
ATOM     72  C   UNL A   1      43.304  25.296  25.418  1.00  0.00     0.022 A 
BRANCH  70  73
ATOM     73  S   UNL A   1      42.934  22.822  26.525  1.00  0.00     0.127 S 
ATOM     74  O   UNL A   1      43.023  22.550  25.092  1.00  0.00    -0.237 OA
ATOM     75  O   UNL A   1      44.170  22.579  27.269  1.00  0.00    -0.237 OA
ATOM     76  O   UNL A   1      41.727  22.337  27.181  1.00  0.00    -0.744 OA
ENDBRANCH  70  73
ENDBRANCH  52  66
BRANCH  53  77
ATOM     77  C   UNL A   1      38.889  32.053  35.345  1.00  0.00     0.023 A 
ATOM     78  C   UNL A   1      38.974  33.459  35.326  1.00  0.00     0.012 A 
ATOM     79  C   UNL A   1      38.298  31.416  36.453  1.00  0.00     0.148 A 
ATOM     80  C   UNL A   1      38.505  34.215  36.401  1.00  0.00     0.002 A 
ATOM     81  C   UNL A   1      37.785  32.178  37.497  1.00  0.00     0.091 A 
ATOM     82  F   UNL A   1      38.243  30.077  36.462  1.00  0.00    -0.205 F 
ATOM     83  C   UNL A   1      37.901  33.576  37.480  1.00  0.00     0.022 A 
BRANCH  81  84
ATOM     84  S   UNL A   1      36.883  31.440  38.865  1.00  0.00     0.127 S 
ATOM     85  O   UNL A   1      36.685  30.073  38.392  1.00  0.00    -0.237 OA
ATOM     86  O   UNL A   1      37.833  31.577  39.971  1.00  0.00    -0.237 OA
ATOM     87  O   UNL A   1      35.679  32.247  39.012  1.00  0.00    -0.744 OA
ENDBRANCH  81  84
ENDBRANCH  53  77
BRANCH  65  88
ATOM     88  C   UNL A   1      44.760  28.464  34.171  1.00  0.00     0.023 A 
ATOM     89  C   UNL A   1      45.845  29.363  34.164  1.00  0.00     0.012 A 
ATOM     90  C   UNL A   1      44.784  27.354  35.038  1.00  0.00     0.148 A 
ATOM     91  C   UNL A   1      46.947  29.149  34.991  1.00  0.00     0.002 A 
ATOM     92  C   UNL A   1      45.866  27.170  35.890  1.00  0.00     0.091 A 
ATOM     93  F   UNL A   1      43.748  26.503  35.014  1.00  0.00    -0.205 F 
ATOM     94  C   UNL A   1      46.952  28.061  35.862  1.00  0.00     0.022 A 
BRANCH  92  95
ATOM     95  S   UNL A   1      45.921  25.850  37.107  1.00  0.00     0.127 S 
ATOM     96  O   UNL A   1      47.198  26.110  37.771  1.00  0.00    -0.237 OA
ATOM     97  O   UNL A   1      44.741  26.131  37.924  1.00  0.00    -0.237 OA
ATOM     98  O   UNL A   1      45.852  24.605  36.353  1.00  0.00    -0.744 OA
ENDBRANCH  92  95
ENDBRANCH  65  88
ENDBRANCH  39  40
ENDBRANCH  31  34
ENDBRANCH  29  30
ENDBRANCH   1  29
TORSDOF 15
ENDMDL
MODEL 2
REMARK VINA RESULT:     -13.2      2.674      5.000
REMARK SMILES O=C(NCCCNC(=O)c1ccc(-c2c3nc(c(-c4cccc(S(=O)(=O)[O-])c4F)c4ccc([nH]4)c(-c4cccc(S(=O)(=O)[O-])c4F)c4nc(c(-c5cccc(S(=O)(=O)[O-])c5F)c5ccc2[nH]5)C=C4)C=C3)cc1)C1=Nc2nc3ccccc3n2[C@@H](c2cccc([N+](=O)[O-])c2)C1
REMARK SMILES IDX 5 1 4 2 3 3 1 4 2 5 73 7 74 8 94 9 75 10 84 11 76 12 83 13
REMARK SMILES IDX 77 14 82 15 78 16 81 17 79 18 80 19 85 20 86 21 93 22 87 23
REMARK SMILES IDX 89 24 88 25 90 26 91 27 92 28 6 29 7 30 8 31 9 33 10 34
REMARK SMILES IDX 11 35 72 36 12 37 71 38 13 39 14 40 15 41 65 42 16 43 70 44
REMARK SMILES IDX 64 45 66 46 17 47 69 48 63 49 62 50 18 52 50 53 30 54 49 55
REMARK SMILES IDX 31 56 34 57 48 58 67 59 32 60 33 61 47 63 68 64 35 65 19 66
REMARK SMILES IDX 20 67 28 68 21 69 23 70 29 71 22 72 24 73 25 74 26 75 27 76
REMARK SMILES IDX 51 77 52 78 60 79 53 80 55 81 61 82 54 83 56 84 57 85 58 86
REMARK SMILES IDX 59 87 36 88 37 89 45 90 38 91 40 92 46 93 39 94 41 95 42 96
REMARK SMILES IDX 43 97 44 98
REMARK H PARENT 3 6 7 32 66 51 34 62
REMARK Flexibility Score: inf
ROOT
ATOM      1  C   UNL A   1      31.545  32.413  26.953  1.00  0.00     0.042 C 
ENDROOT
BRANCH   1   2
ATOM      2  C   UNL A   1      31.800  30.906  26.929  1.00  0.00     0.118 C 
BRANCH   2   3
ATOM      3  N   UNL A   1      33.057  30.554  27.570  1.00  0.00    -0.351 N 
ATOM      4  O   UNL A   1      34.911  29.356  28.016  1.00  0.00    -0.268 OA
ATOM      5  C   UNL A   1      33.867  29.460  27.385  1.00  0.00     0.265 C 
ATOM      6  H   UNL A   1      33.377  31.199  28.241  1.00  0.00     0.163 HD
BRANCH   5   7
ATOM      7  C   UNL A   1      33.521  28.361  26.384  1.00  0.00     0.111 C 
ATOM      8  N   UNL A   1      34.333  27.380  26.165  1.00  0.00    -0.212 NA
ATOM      9  C   UNL A   1      32.163  28.444  25.740  1.00  0.00     0.092 C 
ATOM     10  C   UNL A   1      33.950  26.404  25.313  1.00  0.00     0.231 A 
ATOM     11  C   UNL A   1      32.236  27.861  24.321  1.00  0.00     0.127 C 
ATOM     12  N   UNL A   1      34.449  25.196  25.226  1.00  0.00    -0.211 NA
ATOM     13  N   UNL A   1      32.958  26.588  24.362  1.00  0.00    -0.300 N 
ATOM     14  C   UNL A   1      33.914  24.653  24.093  1.00  0.00     0.091 A 
ATOM     15  C   UNL A   1      32.998  25.522  23.496  1.00  0.00     0.070 A 
ATOM     16  C   UNL A   1      34.204  23.416  23.501  1.00  0.00     0.031 A 
ATOM     17  C   UNL A   1      32.374  25.209  22.282  1.00  0.00     0.028 A 
ATOM     18  C   UNL A   1      33.579  23.084  22.298  1.00  0.00     0.002 A 
ATOM     19  C   UNL A   1      32.684  23.970  21.699  1.00  0.00     0.002 A 
BRANCH  11  20
ATOM     20  C   UNL A   1      30.812  27.863  23.776  1.00  0.00    -0.018 A 
ATOM     21  C   UNL A   1      29.825  26.944  24.168  1.00  0.00     0.006 A 
ATOM     22  C   UNL A   1      30.424  28.951  22.964  1.00  0.00     0.091 A 
ATOM     23  C   UNL A   1      28.501  27.079  23.731  1.00  0.00     0.007 A 
ATOM     24  C   UNL A   1      29.088  29.104  22.565  1.00  0.00     0.269 A 
ATOM     25  C   UNL A   1      28.125  28.161  22.935  1.00  0.00     0.085 A 
BRANCH  24  26
ATOM     26  N   UNL A   1      28.687  30.293  21.800  1.00  0.00     0.062 N 
ATOM     27  O   UNL A   1      29.093  31.396  22.194  1.00  0.00    -0.258 OA
ATOM     28  O   UNL A   1      27.981  30.119  20.796  1.00  0.00    -0.258 OA
ENDBRANCH  24  26
ENDBRANCH  11  20
ENDBRANCH   5   7
ENDBRANCH   2   3
ENDBRANCH   1   2
BRANCH   1  29
ATOM     29  C   UNL A   1      32.822  33.232  27.148  1.00  0.00     0.118 C 
BRANCH  29  30
ATOM     30  N   UNL A   1      32.574  34.459  27.900  1.00  0.00    -0.352 N 
ATOM     31  C   UNL A   1      33.123  34.908  29.074  1.00  0.00     0.251 C 
ATOM     32  H   UNL A   1      31.907  35.061  27.500  1.00  0.00     0.163 HD
ATOM     33  O   UNL A   1      32.620  35.874  29.642  1.00  0.00    -0.269 OA
BRANCH  31  34
ATOM     34  C   UNL A   1      34.307  34.244  29.659  1.00  0.00     0.039 A 
ATOM     35  C   UNL A   1      35.573  34.565  29.161  1.00  0.00     0.014 A 
ATOM     36  C   UNL A   1      34.169  33.277  30.657  1.00  0.00     0.014 A 
ATOM     37  C   UNL A   1      36.708  33.960  29.706  1.00  0.00     0.010 A 
ATOM     38  C   UNL A   1      35.304  32.717  31.239  1.00  0.00     0.010 A 
ATOM     39  C   UNL A   1      36.584  33.054  30.771  1.00  0.00    -0.014 A 
BRANCH  39  40
ATOM     40  C   UNL A   1      37.774  32.463  31.432  1.00  0.00     0.031 A 
ATOM     41  C   UNL A   1      38.495  31.306  30.800  1.00  0.00     0.074 A 
ATOM     42  C   UNL A   1      38.135  32.904  32.654  1.00  0.00     0.049 A 
ATOM     43  N   UNL A   1      39.476  30.586  31.279  1.00  0.00    -0.248 NA
ATOM     44  C   UNL A   1      38.041  30.887  29.464  1.00  0.00     0.031 C 
ATOM     45  C   UNL A   1      37.473  33.979  33.395  1.00  0.00     0.029 A 
ATOM     46  N   UNL A   1      39.126  32.478  33.502  1.00  0.00    -0.354 N 
ATOM     47  C   UNL A   1      39.735  29.611  30.324  1.00  0.00     0.074 A 
ATOM     48  C   UNL A   1      38.789  29.814  29.247  1.00  0.00     0.031 C 
ATOM     49  C   UNL A   1      38.072  34.126  34.588  1.00  0.00     0.029 A 
ATOM     50  C   UNL A   1      39.136  33.136  34.710  1.00  0.00     0.049 A 
ATOM     51  H   UNL A   1      39.768  31.769  33.268  1.00  0.00     0.167 HD
ATOM     52  C   UNL A   1      40.690  28.652  30.328  1.00  0.00     0.034 A 
ATOM     53  C   UNL A   1      39.908  32.951  35.800  1.00  0.00     0.034 A 
ATOM     54  C   UNL A   1      41.659  28.484  31.379  1.00  0.00     0.049 A 
ATOM     55  C   UNL A   1      40.972  31.888  35.770  1.00  0.00     0.074 A 
ATOM     56  C   UNL A   1      42.715  27.593  31.440  1.00  0.00     0.029 A 
ATOM     57  N   UNL A   1      41.689  29.222  32.551  1.00  0.00    -0.354 N 
ATOM     58  N   UNL A   1      41.294  31.071  34.798  1.00  0.00    -0.248 NA
ATOM     59  C   UNL A   1      41.799  31.742  36.977  1.00  0.00     0.031 C 
ATOM     60  C   UNL A   1      43.379  27.786  32.656  1.00  0.00     0.029 A 
ATOM     61  C   UNL A   1      42.742  28.804  33.346  1.00  0.00     0.049 A 
ATOM     62  H   UNL A   1      41.055  29.938  32.784  1.00  0.00     0.167 HD
ATOM     63  C   UNL A   1      42.379  30.336  35.261  1.00  0.00     0.074 A 
ATOM     64  C   UNL A   1      42.672  30.820  36.594  1.00  0.00     0.031 C 
ATOM     65  C   UNL A   1      43.059  29.337  34.646  1.00  0.00     0.034 A 
BRANCH  52  66
ATOM     66  C   UNL A   1      40.785  27.750  29.125  1.00  0.00     0.023 A 
ATOM     67  C   UNL A   1      39.921  26.641  29.029  1.00  0.00     0.012 A 
ATOM     68  C   UNL A   1      41.671  28.030  28.068  1.00  0.00     0.148 A 
ATOM     69  C   UNL A   1      39.954  25.807  27.913  1.00  0.00     0.002 A 
ATOM     70  C   UNL A   1      41.673  27.215  26.939  1.00  0.00     0.091 A 
ATOM     71  F   UNL A   1      42.501  29.077  28.186  1.00  0.00    -0.205 F 
ATOM     72  C   UNL A   1      40.822  26.100  26.865  1.00  0.00     0.022 A 
BRANCH  70  73
ATOM     73  S   UNL A   1      42.704  27.548  25.506  1.00  0.00     0.127 S 
ATOM     74  O   UNL A   1      42.488  26.347  24.702  1.00  0.00    -0.237 OA
ATOM     75  O   UNL A   1      42.097  28.763  24.962  1.00  0.00    -0.237 OA
ATOM     76  O   UNL A   1      44.057  27.725  26.018  1.00  0.00    -0.744 OA
ENDBRANCH  70  73
ENDBRANCH  52  66
BRANCH  53  77
ATOM     77  C   UNL A   1      39.745  33.837  36.986  1.00  0.00     0.023 A 
ATOM     78  C   UNL A   1      40.213  35.164  36.917  1.00  0.00     0.012 A 
ATOM     79  C   UNL A   1      39.114  33.392  38.164  1.00  0.00     0.148 A 
ATOM     80  C   UNL A   1      40.081  36.023  38.009  1.00  0.00     0.002 A 
ATOM     81  C   UNL A   1      38.939  34.269  39.229  1.00  0.00     0.091 A 
ATOM     82  F   UNL A   1      38.691  32.122  38.218  1.00  0.00    -0.205 F 
ATOM     83  C   UNL A   1      39.435  35.580  39.159  1.00  0.00     0.022 A 
BRANCH  81  84
ATOM     84  S   UNL A   1      38.009  33.814  40.698  1.00  0.00     0.127 S 
ATOM     85  O   UNL A   1      37.913  35.090  41.400  1.00  0.00    -0.237 OA
ATOM     86  O   UNL A   1      36.751  33.328  40.128  1.00  0.00    -0.237 OA
ATOM     87  O   UNL A   1      38.803  32.782  41.352  1.00  0.00    -0.744 OA
ENDBRANCH  81  84
ENDBRANCH  53  77
BRANCH  65  88
ATOM     88  C   UNL A   1      44.206  28.711  35.392  1.00  0.00     0.023 A 
ATOM     89  C   UNL A   1      45.509  29.210  35.206  1.00  0.00     0.012 A 
ATOM     90  C   UNL A   1      43.981  27.692  36.338  1.00  0.00     0.148 A 
ATOM     91  C   UNL A   1      46.578  28.690  35.935  1.00  0.00     0.002 A 
ATOM     92  C   UNL A   1      45.044  27.206  37.092  1.00  0.00     0.091 A 
ATOM     93  F   UNL A   1      42.735  27.219  36.486  1.00  0.00    -0.205 F 
ATOM     94  C   UNL A   1      46.344  27.698  36.885  1.00  0.00     0.022 A 
BRANCH  92  95
ATOM     95  S   UNL A   1      44.825  25.994  38.399  1.00  0.00     0.127 S 
ATOM     96  O   UNL A   1      44.342  24.833  37.652  1.00  0.00    -0.237 OA
ATOM     97  O   UNL A   1      46.183  25.858  38.927  1.00  0.00    -0.237 OA
ATOM     98  O   UNL A   1      43.871  26.578  39.332  1.00  0.00    -0.744 OA
ENDBRANCH  92  95
ENDBRANCH  65  88
ENDBRANCH  39  40
ENDBRANCH  31  34
ENDBRANCH  29  30
ENDBRANCH   1  29
TORSDOF 15
ENDMDL
MODEL 3
REMARK VINA RESULT:     -13.2      2.722      8.846
REMARK SMILES O=C(NCCCNC(=O)c1ccc(-c2c3nc(c(-c4cccc(S(=O)(=O)[O-])c4F)c4ccc([nH]4)c(-c4cccc(S(=O)(=O)[O-])c4F)c4nc(c(-c5cccc(S(=O)(=O)[O-])c5F)c5ccc2[nH]5)C=C4)C=C3)cc1)C1=Nc2nc3ccccc3n2[C@@H](c2cccc([N+](=O)[O-])c2)C1
REMARK SMILES IDX 5 1 4 2 3 3 1 4 2 5 73 7 74 8 94 9 75 10 84 11 76 12 83 13
REMARK SMILES IDX 77 14 82 15 78 16 81 17 79 18 80 19 85 20 86 21 93 22 87 23
REMARK SMILES IDX 89 24 88 25 90 26 91 27 92 28 6 29 7 30 8 31 9 33 10 34
REMARK SMILES IDX 11 35 72 36 12 37 71 38 13 39 14 40 15 41 65 42 16 43 70 44
REMARK SMILES IDX 64 45 66 46 17 47 69 48 63 49 62 50 18 52 50 53 30 54 49 55
REMARK SMILES IDX 31 56 34 57 48 58 67 59 32 60 33 61 47 63 68 64 35 65 19 66
REMARK SMILES IDX 20 67 28 68 21 69 23 70 29 71 22 72 24 73 25 74 26 75 27 76
REMARK SMILES IDX 51 77 52 78 60 79 53 80 55 81 61 82 54 83 56 84 57 85 58 86
REMARK SMILES IDX 59 87 36 88 37 89 45 90 38 91 40 92 46 93 39 94 41 95 42 96
REMARK SMILES IDX 43 97 44 98
REMARK H PARENT 3 6 7 32 66 51 34 62
REMARK Flexibility Score: inf
ROOT
ATOM      1  C   UNL A   1      31.634  32.451  26.859  1.00  0.00     0.042 C 
ENDROOT
BRANCH   1   2
ATOM      2  C   UNL A   1      31.897  30.948  26.764  1.00  0.00     0.118 C 
BRANCH   2   3
ATOM      3  N   UNL A   1      33.081  30.552  27.510  1.00  0.00    -0.351 N 
ATOM      4  O   UNL A   1      34.827  29.274  28.133  1.00  0.00    -0.268 OA
ATOM      5  C   UNL A   1      33.841  29.411  27.421  1.00  0.00     0.265 C 
ATOM      6  H   UNL A   1      33.386  31.203  28.183  1.00  0.00     0.163 HD
BRANCH   5   7
ATOM      7  C   UNL A   1      33.510  28.298  26.431  1.00  0.00     0.111 C 
ATOM      8  N   UNL A   1      34.375  27.380  26.148  1.00  0.00    -0.212 NA
ATOM      9  C   UNL A   1      32.110  28.287  25.877  1.00  0.00     0.092 C 
ATOM     10  C   UNL A   1      34.007  26.385  25.311  1.00  0.00     0.231 A 
ATOM     11  C   UNL A   1      32.133  27.722  24.450  1.00  0.00     0.127 C 
ATOM     12  N   UNL A   1      34.586  25.217  25.176  1.00  0.00    -0.211 NA
ATOM     13  N   UNL A   1      32.945  26.504  24.427  1.00  0.00    -0.300 N 
ATOM     14  C   UNL A   1      34.018  24.647  24.074  1.00  0.00     0.091 A 
ATOM     15  C   UNL A   1      33.005  25.451  23.548  1.00  0.00     0.070 A 
ATOM     16  C   UNL A   1      34.357  23.438  23.448  1.00  0.00     0.031 A 
ATOM     17  C   UNL A   1      32.327  25.103  22.373  1.00  0.00     0.028 A 
ATOM     18  C   UNL A   1      33.680  23.071  22.284  1.00  0.00     0.002 A 
ATOM     19  C   UNL A   1      32.686  23.895  21.756  1.00  0.00     0.002 A 
BRANCH  11  20
ATOM     20  C   UNL A   1      30.679  27.625  23.997  1.00  0.00    -0.018 A 
ATOM     21  C   UNL A   1      29.793  26.624  24.428  1.00  0.00     0.006 A 
ATOM     22  C   UNL A   1      30.156  28.696  23.240  1.00  0.00     0.091 A 
ATOM     23  C   UNL A   1      28.437  26.666  24.081  1.00  0.00     0.007 A 
ATOM     24  C   UNL A   1      28.789  28.754  22.933  1.00  0.00     0.269 A 
ATOM     25  C   UNL A   1      27.927  27.732  23.340  1.00  0.00     0.085 A 
BRANCH  24  26
ATOM     26  N   UNL A   1      28.249  29.924  22.226  1.00  0.00     0.062 N 
ATOM     27  O   UNL A   1      28.811  30.275  21.179  1.00  0.00    -0.258 OA
ATOM     28  O   UNL A   1      27.253  30.478  22.711  1.00  0.00    -0.258 OA
ENDBRANCH  24  26
ENDBRANCH  11  20
ENDBRANCH   5   7
ENDBRANCH   2   3
ENDBRANCH   1   2
BRANCH   1  29
ATOM     29  C   UNL A   1      32.895  33.261  27.163  1.00  0.00     0.118 C 
BRANCH  29  30
ATOM     30  N   UNL A   1      32.587  34.523  27.829  1.00  0.00    -0.352 N 
ATOM     31  C   UNL A   1      33.032  35.030  29.023  1.00  0.00     0.251 C 
ATOM     32  H   UNL A   1      31.959  35.103  27.343  1.00  0.00     0.163 HD
ATOM     33  O   UNL A   1      32.484  36.023  29.496  1.00  0.00    -0.269 OA
BRANCH  31  34
ATOM     34  C   UNL A   1      34.158  34.397  29.741  1.00  0.00     0.039 A 
ATOM     35  C   UNL A   1      33.896  33.707  30.928  1.00  0.00     0.014 A 
ATOM     36  C   UNL A   1      35.469  34.521  29.276  1.00  0.00     0.014 A 
ATOM     37  C   UNL A   1      34.942  33.090  31.619  1.00  0.00     0.010 A 
ATOM     38  C   UNL A   1      36.502  33.857  29.933  1.00  0.00     0.010 A 
ATOM     39  C   UNL A   1      36.248  33.134  31.109  1.00  0.00    -0.014 A 
BRANCH  39  40
ATOM     40  C   UNL A   1      37.366  32.413  31.769  1.00  0.00     0.031 A 
ATOM     41  C   UNL A   1      37.895  32.885  33.093  1.00  0.00     0.074 A 
ATOM     42  C   UNL A   1      37.969  31.398  31.119  1.00  0.00     0.049 A 
ATOM     43  N   UNL A   1      38.933  32.460  33.766  1.00  0.00    -0.248 NA
ATOM     44  C   UNL A   1      37.178  33.998  33.739  1.00  0.00     0.031 C 
ATOM     45  C   UNL A   1      37.583  30.889  29.801  1.00  0.00     0.029 A 
ATOM     46  N   UNL A   1      39.056  30.634  31.463  1.00  0.00    -0.354 N 
ATOM     47  C   UNL A   1      39.017  33.269  34.891  1.00  0.00     0.074 A 
ATOM     48  C   UNL A   1      37.938  34.231  34.800  1.00  0.00     0.031 C 
ATOM     49  C   UNL A   1      38.424  29.903  29.446  1.00  0.00     0.029 A 
ATOM     50  C   UNL A   1      39.424  29.731  30.493  1.00  0.00     0.049 A 
ATOM     51  H   UNL A   1      39.527  30.725  32.323  1.00  0.00     0.167 HD
ATOM     52  C   UNL A   1      39.891  33.201  35.922  1.00  0.00     0.034 A 
ATOM     53  C   UNL A   1      40.462  28.872  30.447  1.00  0.00     0.034 A 
ATOM     54  C   UNL A   1      40.932  32.213  36.031  1.00  0.00     0.049 A 
ATOM     55  C   UNL A   1      41.409  28.806  31.614  1.00  0.00     0.074 A 
ATOM     56  C   UNL A   1      41.820  32.012  37.073  1.00  0.00     0.029 A 
ATOM     57  N   UNL A   1      41.224  31.263  35.066  1.00  0.00    -0.354 N 
ATOM     58  N   UNL A   1      41.384  29.484  32.735  1.00  0.00    -0.248 NA
ATOM     59  C   UNL A   1      42.511  27.838  31.522  1.00  0.00     0.031 C 
ATOM     60  C   UNL A   1      42.657  30.944  36.733  1.00  0.00     0.029 A 
ATOM     61  C   UNL A   1      42.283  30.475  35.484  1.00  0.00     0.049 A 
ATOM     62  H   UNL A   1      40.749  31.162  34.210  1.00  0.00     0.167 HD
ATOM     63  C   UNL A   1      42.443  29.003  33.495  1.00  0.00     0.074 A 
ATOM     64  C   UNL A   1      43.079  27.962  32.714  1.00  0.00     0.031 C 
ATOM     65  C   UNL A   1      42.865  29.401  34.721  1.00  0.00     0.034 A 
BRANCH  52  66
ATOM     66  C   UNL A   1      39.720  34.179  37.054  1.00  0.00     0.023 A 
ATOM     67  C   UNL A   1      40.045  35.534  36.846  1.00  0.00     0.012 A 
ATOM     68  C   UNL A   1      39.181  33.779  38.292  1.00  0.00     0.148 A 
ATOM     69  C   UNL A   1      39.863  36.473  37.860  1.00  0.00     0.002 A 
ATOM     70  C   UNL A   1      38.966  34.729  39.286  1.00  0.00     0.091 A 
ATOM     71  F   UNL A   1      38.898  32.482  38.479  1.00  0.00    -0.205 F 
ATOM     72  C   UNL A   1      39.314  36.073  39.075  1.00  0.00     0.022 A 
BRANCH  70  73
ATOM     73  S   UNL A   1      38.200  34.326  40.861  1.00  0.00     0.127 S 
ATOM     74  O   UNL A   1      39.284  33.623  41.545  1.00  0.00    -0.237 OA
ATOM     75  O   UNL A   1      37.894  35.650  41.405  1.00  0.00    -0.237 OA
ATOM     76  O   UNL A   1      37.031  33.518  40.543  1.00  0.00    -0.744 OA
ENDBRANCH  70  73
ENDBRANCH  52  66
BRANCH  53  77
ATOM     77  C   UNL A   1      40.618  27.956  29.282  1.00  0.00     0.023 A 
ATOM     78  C   UNL A   1      39.854  26.774  29.235  1.00  0.00     0.012 A 
ATOM     79  C   UNL A   1      41.490  28.254  28.217  1.00  0.00     0.148 A 
ATOM     80  C   UNL A   1      39.975  25.891  28.161  1.00  0.00     0.002 A 
ATOM     81  C   UNL A   1      41.567  27.395  27.126  1.00  0.00     0.091 A 
ATOM     82  F   UNL A   1      42.223  29.374  28.288  1.00  0.00    -0.205 F 
ATOM     83  C   UNL A   1      40.823  26.206  27.103  1.00  0.00     0.022 A 
BRANCH  81  84
ATOM     84  S   UNL A   1      42.541  27.789  25.668  1.00  0.00     0.127 S 
ATOM     85  O   UNL A   1      43.885  27.900  26.225  1.00  0.00    -0.237 OA
ATOM     86  O   UNL A   1      42.320  26.614  24.823  1.00  0.00    -0.237 OA
ATOM     87  O   UNL A   1      41.963  29.018  25.140  1.00  0.00    -0.744 OA
ENDBRANCH  81  84
ENDBRANCH  53  77
BRANCH  65  88
ATOM     88  C   UNL A   1      44.056  28.696  35.312  1.00  0.00     0.023 A 
ATOM     89  C   UNL A   1      45.351  29.180  35.046  1.00  0.00     0.012 A 
ATOM     90  C   UNL A   1      43.888  27.613  36.198  1.00  0.00     0.148 A 
ATOM     91  C   UNL A   1      46.466  28.584  35.634  1.00  0.00     0.002 A 
ATOM     92  C   UNL A   1      44.999  27.050  36.814  1.00  0.00     0.091 A 
ATOM     93  F   UNL A   1      42.647  27.157  36.423  1.00  0.00    -0.205 F 
ATOM     94  C   UNL A   1      46.289  27.528  36.527  1.00  0.00     0.022 A 
BRANCH  92  95
ATOM     95  S   UNL A   1      44.864  25.748  38.044  1.00  0.00     0.127 S 
ATOM     96  O   UNL A   1      46.269  25.421  38.287  1.00  0.00    -0.237 OA
ATOM     97  O   UNL A   1      44.197  26.434  39.151  1.00  0.00    -0.237 OA
ATOM     98  O   UNL A   1      44.075  24.692  37.425  1.00  0.00    -0.744 OA
ENDBRANCH  92  95
ENDBRANCH  65  88
ENDBRANCH  39  40
ENDBRANCH  31  34
ENDBRANCH  29  30
ENDBRANCH   1  29
TORSDOF 15
ENDMDL
