MODEL 1
REMARK VINA RESULT:     -10.9      0.000      0.000
REMARK SMILES CSc1ncccc1C(=O)NCCCC(=O)NCCCNC(=O)c1ccc(-c2c3nc(c(-c4cccc(S(=O)(=O)[O-])c4F)c4ccc([nH]4)c(-c4cccc(S(=O)(=O)[O-])c4F)c4nc(c(-c5cccc(S(=O)(=O)[O-])c5F)c5ccc2[nH]5)C=C4)C=C3)cc1
REMARK SMILES IDX 18 1 17 2 15 3 16 4 14 6 13 7 12 8 11 9 9 10 10 11 8 13 3 14
REMARK SMILES IDX 4 15 5 16 7 17 6 18 2 19 1 20 19 21 20 22 21 23 22 24 23 26
REMARK SMILES IDX 24 27 25 28 86 29 26 30 85 31 27 32 28 33 29 34 79 35 30 36
REMARK SMILES IDX 84 37 78 38 80 39 31 40 83 41 77 42 76 43 32 45 64 46 44 47
REMARK SMILES IDX 63 48 45 49 48 50 62 51 81 52 46 53 47 54 61 56 82 57 49 58
REMARK SMILES IDX 33 59 34 60 42 61 35 62 37 63 43 64 36 65 38 66 39 67 40 68
REMARK SMILES IDX 41 69 65 70 66 71 74 72 67 73 69 74 75 75 68 76 70 77 71 78
REMARK SMILES IDX 72 79 73 80 50 81 51 82 59 83 52 84 54 85 60 86 53 87 55 88
REMARK SMILES IDX 56 89 57 90 58 91
REMARK H PARENT 17 5 11 12 21 25 80 44 48 55
REMARK Flexibility Score: inf
ROOT
ATOM      1  C   UNL A   1      36.427  20.713  24.784  1.00  0.00     0.117 C 
ENDROOT
BRANCH   1   2
ATOM      2  N   UNL A   1      35.119  20.125  25.032  1.00  0.00    -0.356 N 
ATOM      3  C   UNL A   1      34.012  20.637  25.634  1.00  0.00     0.220 C 
ATOM      4  O   UNL A   1      33.036  19.901  25.785  1.00  0.00    -0.275 OA
ATOM      5  H   UNL A   1      35.019  19.200  24.710  1.00  0.00     0.163 HD
BRANCH   3   6
ATOM      6  C   UNL A   1      33.962  22.082  26.078  1.00  0.00     0.102 C 
BRANCH   6   7
ATOM      7  C   UNL A   1      33.299  23.027  25.068  1.00  0.00     0.031 C 
BRANCH   7   8
ATOM      8  C   UNL A   1      33.014  24.451  25.556  1.00  0.00     0.116 C 
BRANCH   8   9
ATOM      9  N   UNL A   1      31.695  24.582  26.146  1.00  0.00    -0.352 N 
ATOM     10  C   UNL A   1      30.811  25.624  26.273  1.00  0.00     0.254 C 
ATOM     11  O   UNL A   1      29.654  25.276  26.506  1.00  0.00    -0.269 OA
ATOM     12  H   UNL A   1      31.363  23.745  26.541  1.00  0.00     0.163 HD
BRANCH  10  13
ATOM     13  C   UNL A   1      31.195  27.062  26.173  1.00  0.00     0.072 A 
ATOM     14  C   UNL A   1      31.119  27.749  24.946  1.00  0.00     0.108 A 
ATOM     15  N   UNL A   1      31.420  29.071  24.827  1.00  0.00    -0.249 NA
ATOM     16  C   UNL A   1      31.829  29.740  25.928  1.00  0.00     0.112 A 
ATOM     17  C   UNL A   1      31.655  27.785  27.281  1.00  0.00     0.018 A 
ATOM     18  C   UNL A   1      31.969  29.139  27.161  1.00  0.00     0.021 A 
BRANCH  14  19
ATOM     19  S   UNL A   1      30.681  26.989  23.379  1.00  0.00    -0.109 SA
ATOM     20  C   UNL A   1      30.287  28.457  22.406  1.00  0.00     0.092 C 
ENDBRANCH  14  19
ENDBRANCH  10  13
ENDBRANCH   8   9
ENDBRANCH   7   8
ENDBRANCH   6   7
ENDBRANCH   3   6
ENDBRANCH   1   2
BRANCH   1  21
ATOM     21  C   UNL A   1      37.550  19.704  25.018  1.00  0.00     0.042 C 
BRANCH  21  22
ATOM     22  C   UNL A   1      38.785  20.298  25.686  1.00  0.00     0.118 C 
BRANCH  22  23
ATOM     23  N   UNL A   1      39.837  19.312  25.881  1.00  0.00    -0.352 N 
ATOM     24  C   UNL A   1      41.176  19.487  26.140  1.00  0.00     0.251 C 
ATOM     25  H   UNL A   1      39.544  18.374  25.818  1.00  0.00     0.163 HD
ATOM     26  O   UNL A   1      41.928  18.518  26.084  1.00  0.00    -0.269 OA
BRANCH  24  27
ATOM     27  C   UNL A   1      41.721  20.824  26.471  1.00  0.00     0.039 A 
ATOM     28  C   UNL A   1      41.947  21.732  25.432  1.00  0.00     0.014 A 
ATOM     29  C   UNL A   1      42.048  21.178  27.783  1.00  0.00     0.014 A 
ATOM     30  C   UNL A   1      42.439  23.012  25.714  1.00  0.00     0.010 A 
ATOM     31  C   UNL A   1      42.472  22.476  28.072  1.00  0.00     0.010 A 
ATOM     32  C   UNL A   1      42.673  23.407  27.042  1.00  0.00    -0.014 A 
BRANCH  32  33
ATOM     33  C   UNL A   1      43.083  24.799  27.370  1.00  0.00     0.031 A 
ATOM     34  C   UNL A   1      42.104  25.767  27.983  1.00  0.00     0.074 A 
ATOM     35  C   UNL A   1      44.315  25.224  27.022  1.00  0.00     0.049 A 
ATOM     36  N   UNL A   1      42.272  27.030  28.276  1.00  0.00    -0.248 NA
ATOM     37  C   UNL A   1      40.757  25.257  28.287  1.00  0.00     0.031 C 
ATOM     38  C   UNL A   1      45.327  24.411  26.345  1.00  0.00     0.029 A 
ATOM     39  N   UNL A   1      44.913  26.452  27.158  1.00  0.00    -0.354 N 
ATOM     40  C   UNL A   1      41.049  27.477  28.761  1.00  0.00     0.074 A 
ATOM     41  C   UNL A   1      40.139  26.353  28.706  1.00  0.00     0.031 C 
ATOM     42  C   UNL A   1      46.414  25.163  26.115  1.00  0.00     0.029 A 
ATOM     43  C   UNL A   1      46.169  26.518  26.601  1.00  0.00     0.049 A 
ATOM     44  H   UNL A   1      44.484  27.213  27.611  1.00  0.00     0.167 HD
ATOM     45  C   UNL A   1      40.719  28.703  29.234  1.00  0.00     0.034 A 
ATOM     46  C   UNL A   1      47.024  27.553  26.479  1.00  0.00     0.034 A 
ATOM     47  C   UNL A   1      41.640  29.803  29.343  1.00  0.00     0.049 A 
ATOM     48  C   UNL A   1      46.650  28.889  27.061  1.00  0.00     0.074 A 
ATOM     49  C   UNL A   1      41.429  31.045  29.919  1.00  0.00     0.029 A 
ATOM     50  N   UNL A   1      42.937  29.804  28.857  1.00  0.00    -0.354 N 
ATOM     51  N   UNL A   1      45.552  29.234  27.689  1.00  0.00    -0.248 NA
ATOM     52  C   UNL A   1      47.643  29.968  26.951  1.00  0.00     0.031 C 
ATOM     53  C   UNL A   1      42.593  31.805  29.762  1.00  0.00     0.029 A 
ATOM     54  C   UNL A   1      43.533  31.030  29.103  1.00  0.00     0.049 A 
ATOM     55  H   UNL A   1      43.371  29.045  28.406  1.00  0.00     0.167 HD
ATOM     56  C   UNL A   1      45.732  30.559  28.069  1.00  0.00     0.074 A 
ATOM     57  C   UNL A   1      47.057  30.945  27.630  1.00  0.00     0.031 C 
ATOM     58  C   UNL A   1      44.869  31.390  28.704  1.00  0.00     0.034 A 
BRANCH  45  59
ATOM     59  C   UNL A   1      39.315  28.917  29.735  1.00  0.00     0.023 A 
ATOM     60  C   UNL A   1      38.975  28.503  31.039  1.00  0.00     0.012 A 
ATOM     61  C   UNL A   1      38.368  29.614  28.960  1.00  0.00     0.148 A 
ATOM     62  C   UNL A   1      37.707  28.762  31.558  1.00  0.00     0.002 A 
ATOM     63  C   UNL A   1      37.119  29.903  29.499  1.00  0.00     0.091 A 
ATOM     64  F   UNL A   1      38.706  29.984  27.717  1.00  0.00    -0.205 F 
ATOM     65  C   UNL A   1      36.785  29.472  30.793  1.00  0.00     0.022 A 
BRANCH  63  66
ATOM     66  S   UNL A   1      35.885  30.878  28.628  1.00  0.00     0.127 S 
ATOM     67  O   UNL A   1      35.261  29.867  27.775  1.00  0.00    -0.237 OA
ATOM     68  O   UNL A   1      35.042  31.357  29.723  1.00  0.00    -0.237 OA
ATOM     69  O   UNL A   1      36.620  31.920  27.922  1.00  0.00    -0.744 OA
ENDBRANCH  63  66
ENDBRANCH  45  59
BRANCH  46  70
ATOM     70  C   UNL A   1      48.343  27.350  25.813  1.00  0.00     0.023 A 
ATOM     71  C   UNL A   1      49.447  26.914  26.571  1.00  0.00     0.012 A 
ATOM     72  C   UNL A   1      48.502  27.553  24.428  1.00  0.00     0.148 A 
ATOM     73  C   UNL A   1      50.691  26.719  25.968  1.00  0.00     0.002 A 
ATOM     74  C   UNL A   1      49.726  27.294  23.823  1.00  0.00     0.091 A 
ATOM     75  F   UNL A   1      47.450  27.989  23.718  1.00  0.00    -0.205 F 
ATOM     76  C   UNL A   1      50.828  26.897  24.593  1.00  0.00     0.022 A 
BRANCH  74  77
ATOM     77  S   UNL A   1      49.908  27.345  22.037  1.00  0.00     0.127 S 
ATOM     78  O   UNL A   1      49.832  28.775  21.760  1.00  0.00    -0.237 OA
ATOM     79  O   UNL A   1      51.228  26.746  21.835  1.00  0.00    -0.237 OA
ATOM     80  O   UNL A   1      48.817  26.526  21.519  1.00  0.00    -0.744 OA
ENDBRANCH  74  77
ENDBRANCH  46  70
BRANCH  58  81
ATOM     81  C   UNL A   1      45.325  32.800  28.973  1.00  0.00     0.023 A 
ATOM     82  C   UNL A   1      45.942  33.106  30.202  1.00  0.00     0.012 A 
ATOM     83  C   UNL A   1      45.212  33.800  27.987  1.00  0.00     0.148 A 
ATOM     84  C   UNL A   1      46.412  34.393  30.459  1.00  0.00     0.002 A 
ATOM     85  C   UNL A   1      45.724  35.069  28.233  1.00  0.00     0.091 A 
ATOM     86  F   UNL A   1      44.606  33.494  26.831  1.00  0.00    -0.205 F 
ATOM     87  C   UNL A   1      46.313  35.371  29.472  1.00  0.00     0.022 A 
BRANCH  85  88
ATOM     88  S   UNL A   1      45.723  36.365  26.989  1.00  0.00     0.127 S 
ATOM     89  O   UNL A   1      44.308  36.724  26.933  1.00  0.00    -0.237 OA
ATOM     90  O   UNL A   1      46.586  37.380  27.596  1.00  0.00    -0.237 OA
ATOM     91  O   UNL A   1      46.264  35.759  25.780  1.00  0.00    -0.744 OA
ENDBRANCH  85  88
ENDBRANCH  58  81
ENDBRANCH  32  33
ENDBRANCH  24  27
ENDBRANCH  22  23
ENDBRANCH  21  22
ENDBRANCH   1  21
TORSDOF 18
ENDMDL
MODEL 2
REMARK VINA RESULT:     -10.9      1.754      2.117
REMARK SMILES CSc1ncccc1C(=O)NCCCC(=O)NCCCNC(=O)c1ccc(-c2c3nc(c(-c4cccc(S(=O)(=O)[O-])c4F)c4ccc([nH]4)c(-c4cccc(S(=O)(=O)[O-])c4F)c4nc(c(-c5cccc(S(=O)(=O)[O-])c5F)c5ccc2[nH]5)C=C4)C=C3)cc1
REMARK SMILES IDX 18 1 17 2 15 3 16 4 14 6 13 7 12 8 11 9 9 10 10 11 8 13 3 14
REMARK SMILES IDX 4 15 5 16 7 17 6 18 2 19 1 20 19 21 20 22 21 23 22 24 23 26
REMARK SMILES IDX 24 27 25 28 86 29 26 30 85 31 27 32 28 33 29 34 79 35 30 36
REMARK SMILES IDX 84 37 78 38 80 39 31 40 83 41 77 42 76 43 32 45 64 46 44 47
REMARK SMILES IDX 63 48 45 49 48 50 62 51 81 52 46 53 47 54 61 56 82 57 49 58
REMARK SMILES IDX 33 59 34 60 42 61 35 62 37 63 43 64 36 65 38 66 39 67 40 68
REMARK SMILES IDX 41 69 65 70 66 71 74 72 67 73 69 74 75 75 68 76 70 77 71 78
REMARK SMILES IDX 72 79 73 80 50 81 51 82 59 83 52 84 54 85 60 86 53 87 55 88
REMARK SMILES IDX 56 89 57 90 58 91
REMARK H PARENT 17 5 11 12 21 25 80 44 48 55
REMARK Flexibility Score: inf
ROOT
ATOM      1  C   UNL A   1      37.402  21.227  24.679  1.00  0.00     0.117 C 
ENDROOT
BRANCH   1   2
ATOM      2  N   UNL A   1      37.983  22.437  25.242  1.00  0.00    -0.356 N 
ATOM      3  C   UNL A   1      37.401  23.496  25.867  1.00  0.00     0.220 C 
ATOM      4  O   UNL A   1      38.115  24.445  26.195  1.00  0.00    -0.275 OA
ATOM      5  H   UNL A   1      38.962  22.500  25.155  1.00  0.00     0.163 HD
BRANCH   3   6
ATOM      6  C   UNL A   1      35.923  23.500  26.185  1.00  0.00     0.102 C 
BRANCH   6   7
ATOM      7  C   UNL A   1      35.040  24.068  25.067  1.00  0.00     0.031 C 
BRANCH   7   8
ATOM      8  C   UNL A   1      34.296  25.369  25.383  1.00  0.00     0.116 C 
BRANCH   8   9
ATOM      9  N   UNL A   1      33.051  25.139  26.090  1.00  0.00    -0.352 N 
ATOM     10  C   UNL A   1      31.929  25.898  26.310  1.00  0.00     0.254 C 
ATOM     11  O   UNL A   1      30.939  25.247  26.640  1.00  0.00    -0.269 OA
ATOM     12  H   UNL A   1      32.999  24.246  26.501  1.00  0.00     0.163 HD
BRANCH  10  13
ATOM     13  C   UNL A   1      31.892  27.384  26.197  1.00  0.00     0.072 A 
ATOM     14  C   UNL A   1      31.553  28.011  24.982  1.00  0.00     0.108 A 
ATOM     15  N   UNL A   1      31.468  29.364  24.854  1.00  0.00    -0.249 NA
ATOM     16  C   UNL A   1      31.741  30.131  25.932  1.00  0.00     0.112 A 
ATOM     17  C   UNL A   1      32.200  28.218  27.280  1.00  0.00     0.018 A 
ATOM     18  C   UNL A   1      32.117  29.605  27.151  1.00  0.00     0.021 A 
BRANCH  14  19
ATOM     19  S   UNL A   1      31.249  27.143  23.440  1.00  0.00    -0.109 SA
ATOM     20  C   UNL A   1      29.797  28.037  22.847  1.00  0.00     0.092 C 
ENDBRANCH  14  19
ENDBRANCH  10  13
ENDBRANCH   8   9
ENDBRANCH   7   8
ENDBRANCH   6   7
ENDBRANCH   3   6
ENDBRANCH   1   2
BRANCH   1  21
ATOM     21  C   UNL A   1      38.310  20.017  24.894  1.00  0.00     0.042 C 
BRANCH  21  22
ATOM     22  C   UNL A   1      39.296  20.182  26.044  1.00  0.00     0.118 C 
BRANCH  22  23
ATOM     23  N   UNL A   1      40.362  19.193  26.006  1.00  0.00    -0.352 N 
ATOM     24  C   UNL A   1      41.726  19.359  26.060  1.00  0.00     0.251 C 
ATOM     25  H   UNL A   1      40.060  18.259  25.930  1.00  0.00     0.163 HD
ATOM     26  O   UNL A   1      42.456  18.400  25.823  1.00  0.00    -0.269 OA
BRANCH  24  27
ATOM     27  C   UNL A   1      42.322  20.676  26.386  1.00  0.00     0.039 A 
ATOM     28  C   UNL A   1      42.698  21.520  25.336  1.00  0.00     0.014 A 
ATOM     29  C   UNL A   1      42.551  21.069  27.707  1.00  0.00     0.014 A 
ATOM     30  C   UNL A   1      43.241  22.780  25.612  1.00  0.00     0.010 A 
ATOM     31  C   UNL A   1      43.028  22.351  27.982  1.00  0.00     0.010 A 
ATOM     32  C   UNL A   1      43.379  23.221  26.938  1.00  0.00    -0.014 A 
BRANCH  32  33
ATOM     33  C   UNL A   1      43.844  24.600  27.247  1.00  0.00     0.031 A 
ATOM     34  C   UNL A   1      42.879  25.649  27.734  1.00  0.00     0.074 A 
ATOM     35  C   UNL A   1      45.125  24.937  26.992  1.00  0.00     0.049 A 
ATOM     36  N   UNL A   1      43.099  26.912  27.991  1.00  0.00    -0.248 NA
ATOM     37  C   UNL A   1      41.482  25.232  27.939  1.00  0.00     0.031 C 
ATOM     38  C   UNL A   1      46.140  24.038  26.438  1.00  0.00     0.029 A 
ATOM     39  N   UNL A   1      45.785  26.134  27.132  1.00  0.00    -0.354 N 
ATOM     40  C   UNL A   1      41.868  27.450  28.350  1.00  0.00     0.074 A 
ATOM     41  C   UNL A   1      40.899  26.379  28.259  1.00  0.00     0.031 C 
ATOM     42  C   UNL A   1      47.287  24.715  26.275  1.00  0.00     0.029 A 
ATOM     43  C   UNL A   1      47.085  26.102  26.685  1.00  0.00     0.049 A 
ATOM     44  H   UNL A   1      45.366  26.937  27.516  1.00  0.00     0.167 HD
ATOM     45  C   UNL A   1      41.576  28.713  28.744  1.00  0.00     0.034 A 
ATOM     46  C   UNL A   1      48.009  27.079  26.598  1.00  0.00     0.034 A 
ATOM     47  C   UNL A   1      42.549  29.762  28.891  1.00  0.00     0.049 A 
ATOM     48  C   UNL A   1      47.670  28.459  27.093  1.00  0.00     0.074 A 
ATOM     49  C   UNL A   1      42.367  31.037  29.397  1.00  0.00     0.029 A 
ATOM     50  N   UNL A   1      43.880  29.666  28.520  1.00  0.00    -0.354 N 
ATOM     51  N   UNL A   1      46.546  28.894  27.608  1.00  0.00    -0.248 NA
ATOM     52  C   UNL A   1      48.733  29.473  27.029  1.00  0.00     0.031 C 
ATOM     53  C   UNL A   1      43.585  31.721  29.313  1.00  0.00     0.029 A 
ATOM     54  C   UNL A   1      44.528  30.865  28.770  1.00  0.00     0.049 A 
ATOM     55  H   UNL A   1      44.305  28.864  28.139  1.00  0.00     0.167 HD
ATOM     56  C   UNL A   1      46.774  30.222  27.951  1.00  0.00     0.074 A 
ATOM     57  C   UNL A   1      48.153  30.511  27.615  1.00  0.00     0.031 C 
ATOM     58  C   UNL A   1      45.913  31.128  28.476  1.00  0.00     0.034 A 
BRANCH  45  59
ATOM     59  C   UNL A   1      40.150  29.029  29.111  1.00  0.00     0.023 A 
ATOM     60  C   UNL A   1      39.196  29.210  28.089  1.00  0.00     0.012 A 
ATOM     61  C   UNL A   1      39.734  29.046  30.457  1.00  0.00     0.148 A 
ATOM     62  C   UNL A   1      37.854  29.424  28.399  1.00  0.00     0.002 A 
ATOM     63  C   UNL A   1      38.388  29.219  30.758  1.00  0.00     0.091 A 
ATOM     64  F   UNL A   1      40.660  28.888  31.413  1.00  0.00    -0.205 F 
ATOM     65  C   UNL A   1      37.449  29.415  29.732  1.00  0.00     0.022 A 
BRANCH  63  66
ATOM     66  S   UNL A   1      37.749  29.150  32.436  1.00  0.00     0.127 S 
ATOM     67  O   UNL A   1      38.687  30.020  33.144  1.00  0.00    -0.237 OA
ATOM     68  O   UNL A   1      36.405  29.704  32.277  1.00  0.00    -0.237 OA
ATOM     69  O   UNL A   1      37.789  27.746  32.824  1.00  0.00    -0.744 OA
ENDBRANCH  63  66
ENDBRANCH  45  59
BRANCH  46  70
ATOM     70  C   UNL A   1      49.365  26.771  26.058  1.00  0.00     0.023 A 
ATOM     71  C   UNL A   1      50.270  26.022  26.834  1.00  0.00     0.012 A 
ATOM     72  C   UNL A   1      49.750  27.186  24.769  1.00  0.00     0.148 A 
ATOM     73  C   UNL A   1      51.545  25.723  26.349  1.00  0.00     0.002 A 
ATOM     74  C   UNL A   1      50.997  26.830  24.266  1.00  0.00     0.091 A 
ATOM     75  F   UNL A   1      48.889  27.918  24.046  1.00  0.00    -0.205 F 
ATOM     76  C   UNL A   1      51.904  26.116  25.062  1.00  0.00     0.022 A 
BRANCH  74  77
ATOM     77  S   UNL A   1      51.440  27.164  22.558  1.00  0.00     0.127 S 
ATOM     78  O   UNL A   1      52.617  26.323  22.375  1.00  0.00    -0.237 OA
ATOM     79  O   UNL A   1      50.248  26.729  21.829  1.00  0.00    -0.237 OA
ATOM     80  O   UNL A   1      51.658  28.606  22.497  1.00  0.00    -0.744 OA
ENDBRANCH  74  77
ENDBRANCH  46  70
BRANCH  58  81
ATOM     81  C   UNL A   1      46.430  32.520  28.729  1.00  0.00     0.023 A 
ATOM     82  C   UNL A   1      46.846  32.880  30.025  1.00  0.00     0.012 A 
ATOM     83  C   UNL A   1      46.574  33.444  27.674  1.00  0.00     0.148 A 
ATOM     84  C   UNL A   1      47.369  34.147  30.277  1.00  0.00     0.002 A 
ATOM     85  C   UNL A   1      47.139  34.690  27.925  1.00  0.00     0.091 A 
ATOM     86  F   UNL A   1      46.156  33.090  26.451  1.00  0.00    -0.205 F 
ATOM     87  C   UNL A   1      47.526  35.047  29.226  1.00  0.00     0.022 A 
BRANCH  85  88
ATOM     88  S   UNL A   1      47.462  35.879  26.617  1.00  0.00     0.127 S 
ATOM     89  O   UNL A   1      48.250  35.083  25.678  1.00  0.00    -0.237 OA
ATOM     90  O   UNL A   1      46.113  36.208  26.155  1.00  0.00    -0.237 OA
ATOM     91  O   UNL A   1      48.170  36.985  27.248  1.00  0.00    -0.744 OA
ENDBRANCH  85  88
ENDBRANCH  58  81
ENDBRANCH  32  33
ENDBRANCH  24  27
ENDBRANCH  22  23
ENDBRANCH  21  22
ENDBRANCH   1  21
TORSDOF 18
ENDMDL
MODEL 3
REMARK VINA RESULT:     -10.8      6.288     11.686
REMARK SMILES CSc1ncccc1C(=O)NCCCC(=O)NCCCNC(=O)c1ccc(-c2c3nc(c(-c4cccc(S(=O)(=O)[O-])c4F)c4ccc([nH]4)c(-c4cccc(S(=O)(=O)[O-])c4F)c4nc(c(-c5cccc(S(=O)(=O)[O-])c5F)c5ccc2[nH]5)C=C4)C=C3)cc1
REMARK SMILES IDX 18 1 17 2 15 3 16 4 14 6 13 7 12 8 11 9 9 10 10 11 8 13 3 14
REMARK SMILES IDX 4 15 5 16 7 17 6 18 2 19 1 20 19 21 20 22 21 23 22 24 23 26
REMARK SMILES IDX 24 27 25 28 86 29 26 30 85 31 27 32 28 33 29 34 79 35 30 36
REMARK SMILES IDX 84 37 78 38 80 39 31 40 83 41 77 42 76 43 32 45 64 46 44 47
REMARK SMILES IDX 63 48 45 49 48 50 62 51 81 52 46 53 47 54 61 56 82 57 49 58
REMARK SMILES IDX 33 59 34 60 42 61 35 62 37 63 43 64 36 65 38 66 39 67 40 68
REMARK SMILES IDX 41 69 65 70 66 71 74 72 67 73 69 74 75 75 68 76 70 77 71 78
REMARK SMILES IDX 72 79 73 80 50 81 51 82 59 83 52 84 54 85 60 86 53 87 55 88
REMARK SMILES IDX 56 89 57 90 58 91
REMARK H PARENT 17 5 11 12 21 25 80 44 48 55
REMARK Flexibility Score: inf
ROOT
ATOM      1  C   UNL A   1      31.697  30.397  25.710  1.00  0.00     0.117 C 
ENDROOT
BRANCH   1   2
ATOM      2  N   UNL A   1      30.769  30.453  24.590  1.00  0.00    -0.356 N 
ATOM      3  C   UNL A   1      30.393  29.499  23.697  1.00  0.00     0.220 C 
ATOM      4  O   UNL A   1      29.631  29.821  22.784  1.00  0.00    -0.275 OA
ATOM      5  H   UNL A   1      30.342  31.330  24.456  1.00  0.00     0.163 HD
BRANCH   3   6
ATOM      6  C   UNL A   1      30.865  28.068  23.836  1.00  0.00     0.102 C 
BRANCH   6   7
ATOM      7  C   UNL A   1      31.932  27.657  22.813  1.00  0.00     0.031 C 
BRANCH   7   8
ATOM      8  C   UNL A   1      33.390  27.843  23.241  1.00  0.00     0.116 C 
BRANCH   8   9
ATOM      9  N   UNL A   1      33.683  27.202  24.509  1.00  0.00    -0.352 N 
ATOM     10  C   UNL A   1      33.849  25.897  24.898  1.00  0.00     0.254 C 
ATOM     11  O   UNL A   1      34.440  25.762  25.969  1.00  0.00    -0.269 OA
ATOM     12  H   UNL A   1      33.785  27.841  25.250  1.00  0.00     0.163 HD
BRANCH  10  13
ATOM     13  C   UNL A   1      33.341  24.725  24.127  1.00  0.00     0.072 A 
ATOM     14  C   UNL A   1      32.074  24.174  24.397  1.00  0.00     0.108 A 
ATOM     15  N   UNL A   1      31.562  23.132  23.685  1.00  0.00    -0.249 NA
ATOM     16  C   UNL A   1      32.312  22.596  22.698  1.00  0.00     0.112 A 
ATOM     17  C   UNL A   1      34.099  24.118  23.117  1.00  0.00     0.018 A 
ATOM     18  C   UNL A   1      33.578  23.048  22.389  1.00  0.00     0.021 A 
BRANCH  14  19
ATOM     19  S   UNL A   1      30.994  24.710  25.727  1.00  0.00    -0.109 SA
ATOM     20  C   UNL A   1      31.249  23.370  26.910  1.00  0.00     0.092 C 
ENDBRANCH  14  19
ENDBRANCH  10  13
ENDBRANCH   8   9
ENDBRANCH   7   8
ENDBRANCH   6   7
ENDBRANCH   3   6
ENDBRANCH   1   2
BRANCH   1  21
ATOM     21  C   UNL A   1      31.467  31.548  26.687  1.00  0.00     0.042 C 
BRANCH  21  22
ATOM     22  C   UNL A   1      32.751  32.221  27.161  1.00  0.00     0.118 C 
BRANCH  22  23
ATOM     23  N   UNL A   1      32.558  33.630  27.465  1.00  0.00    -0.352 N 
ATOM     24  C   UNL A   1      33.170  34.424  28.405  1.00  0.00     0.251 C 
ATOM     25  H   UNL A   1      31.884  34.086  26.911  1.00  0.00     0.163 HD
ATOM     26  O   UNL A   1      32.725  35.548  28.623  1.00  0.00    -0.269 OA
BRANCH  24  27
ATOM     27  C   UNL A   1      34.348  33.940  29.164  1.00  0.00     0.039 A 
ATOM     28  C   UNL A   1      34.140  33.074  30.242  1.00  0.00     0.014 A 
ATOM     29  C   UNL A   1      35.644  34.358  28.852  1.00  0.00     0.014 A 
ATOM     30  C   UNL A   1      35.232  32.579  30.963  1.00  0.00     0.010 A 
ATOM     31  C   UNL A   1      36.736  33.811  29.526  1.00  0.00     0.010 A 
ATOM     32  C   UNL A   1      36.544  32.916  30.589  1.00  0.00    -0.014 A 
BRANCH  32  33
ATOM     33  C   UNL A   1      37.719  32.308  31.269  1.00  0.00     0.031 A 
ATOM     34  C   UNL A   1      38.463  31.159  30.642  1.00  0.00     0.074 A 
ATOM     35  C   UNL A   1      38.057  32.729  32.505  1.00  0.00     0.049 A 
ATOM     36  N   UNL A   1      39.467  30.471  31.121  1.00  0.00    -0.248 NA
ATOM     37  C   UNL A   1      38.009  30.709  29.315  1.00  0.00     0.031 C 
ATOM     38  C   UNL A   1      37.363  33.776  33.259  1.00  0.00     0.029 A 
ATOM     39  N   UNL A   1      39.046  32.306  33.359  1.00  0.00    -0.354 N 
ATOM     40  C   UNL A   1      39.741  29.486  30.178  1.00  0.00     0.074 A 
ATOM     41  C   UNL A   1      38.784  29.654  29.106  1.00  0.00     0.031 C 
ATOM     42  C   UNL A   1      37.940  33.906  34.464  1.00  0.00     0.029 A 
ATOM     43  C   UNL A   1      39.024  32.935  34.582  1.00  0.00     0.049 A 
ATOM     44  H   UNL A   1      39.708  31.619  33.118  1.00  0.00     0.167 HD
ATOM     45  C   UNL A   1      40.717  28.546  30.191  1.00  0.00     0.034 A 
ATOM     46  C   UNL A   1      39.778  32.745  35.683  1.00  0.00     0.034 A 
ATOM     47  C   UNL A   1      41.704  28.418  31.229  1.00  0.00     0.049 A 
ATOM     48  C   UNL A   1      40.888  31.729  35.648  1.00  0.00     0.074 A 
ATOM     49  C   UNL A   1      42.801  27.574  31.271  1.00  0.00     0.029 A 
ATOM     50  N   UNL A   1      41.710  29.138  32.412  1.00  0.00    -0.354 N 
ATOM     51  N   UNL A   1      41.248  30.938  34.666  1.00  0.00    -0.248 NA
ATOM     52  C   UNL A   1      41.717  31.602  36.855  1.00  0.00     0.031 C 
ATOM     53  C   UNL A   1      43.459  27.769  32.490  1.00  0.00     0.029 A 
ATOM     54  C   UNL A   1      42.780  28.747  33.199  1.00  0.00     0.049 A 
ATOM     55  H   UNL A   1      41.053  29.829  32.657  1.00  0.00     0.167 HD
ATOM     56  C   UNL A   1      42.358  30.239  35.128  1.00  0.00     0.074 A 
ATOM     57  C   UNL A   1      42.630  30.723  36.465  1.00  0.00     0.031 C 
ATOM     58  C   UNL A   1      43.072  29.267  34.509  1.00  0.00     0.034 A 
BRANCH  45  59
ATOM     59  C   UNL A   1      40.815  27.609  29.016  1.00  0.00     0.023 A 
ATOM     60  C   UNL A   1      39.902  26.540  28.905  1.00  0.00     0.012 A 
ATOM     61  C   UNL A   1      41.736  27.843  27.977  1.00  0.00     0.148 A 
ATOM     62  C   UNL A   1      39.917  25.707  27.789  1.00  0.00     0.002 A 
ATOM     63  C   UNL A   1      41.719  27.032  26.848  1.00  0.00     0.091 A 
ATOM     64  F   UNL A   1      42.606  28.855  28.110  1.00  0.00    -0.205 F 
ATOM     65  C   UNL A   1      40.816  25.960  26.755  1.00  0.00     0.022 A 
BRANCH  63  66
ATOM     66  S   UNL A   1      42.783  27.318  25.428  1.00  0.00     0.127 S 
ATOM     67  O   UNL A   1      42.630  26.065  24.689  1.00  0.00    -0.237 OA
ATOM     68  O   UNL A   1      42.151  28.477  24.799  1.00  0.00    -0.237 OA
ATOM     69  O   UNL A   1      44.114  27.566  25.965  1.00  0.00    -0.744 OA
ENDBRANCH  63  66
ENDBRANCH  45  59
BRANCH  46  70
ATOM     70  C   UNL A   1      39.536  33.571  36.900  1.00  0.00     0.023 A 
ATOM     71  C   UNL A   1      39.969  34.911  36.931  1.00  0.00     0.012 A 
ATOM     72  C   UNL A   1      38.849  33.049  38.013  1.00  0.00     0.148 A 
ATOM     73  C   UNL A   1      39.754  35.702  38.060  1.00  0.00     0.002 A 
ATOM     74  C   UNL A   1      38.579  33.862  39.109  1.00  0.00     0.091 A 
ATOM     75  F   UNL A   1      38.458  31.766  37.983  1.00  0.00    -0.205 F 
ATOM     76  C   UNL A   1      39.049  35.183  39.144  1.00  0.00     0.022 A 
BRANCH  74  77
ATOM     77  S   UNL A   1      37.532  33.294  40.452  1.00  0.00     0.127 S 
ATOM     78  O   UNL A   1      38.320  32.203  41.015  1.00  0.00    -0.237 OA
ATOM     79  O   UNL A   1      37.429  34.482  41.300  1.00  0.00    -0.237 OA
ATOM     80  O   UNL A   1      36.270  32.923  39.821  1.00  0.00    -0.744 OA
ENDBRANCH  74  77
ENDBRANCH  46  70
BRANCH  58  81
ATOM     81  C   UNL A   1      44.227  28.661  35.264  1.00  0.00     0.023 A 
ATOM     82  C   UNL A   1      45.521  29.189  35.092  1.00  0.00     0.012 A 
ATOM     83  C   UNL A   1      44.021  27.622  36.194  1.00  0.00     0.148 A 
ATOM     84  C   UNL A   1      46.599  28.674  35.810  1.00  0.00     0.002 A 
ATOM     85  C   UNL A   1      45.093  27.146  36.940  1.00  0.00     0.091 A 
ATOM     86  F   UNL A   1      42.785  27.121  36.331  1.00  0.00    -0.205 F 
ATOM     87  C   UNL A   1      46.384  27.661  36.741  1.00  0.00     0.022 A 
BRANCH  85  88
ATOM     88  S   UNL A   1      44.894  25.906  38.225  1.00  0.00     0.127 S 
ATOM     89  O   UNL A   1      43.929  26.550  39.114  1.00  0.00    -0.237 OA
ATOM     90  O   UNL A   1      44.367  24.763  37.477  1.00  0.00    -0.237 OA
ATOM     91  O   UNL A   1      46.221  25.697  38.788  1.00  0.00    -0.744 OA
ENDBRANCH  85  88
ENDBRANCH  58  81
ENDBRANCH  32  33
ENDBRANCH  24  27
ENDBRANCH  22  23
ENDBRANCH  21  22
ENDBRANCH   1  21
TORSDOF 18
ENDMDL
