MODEL 1
REMARK VINA RESULT:     -12.0      0.000      0.000
REMARK SMILES CO[C@H]1CN(C(=O)c2cn(C(C)C)cc(C(=O)NCCCNC(=O)c3ccc(-c4c5nc(c(-c6cccc(S(=O)(=O)[O-])c6F)c6ccc([nH]6)c(-c6cccc(S(=O)(=O)[O-])c6F)c6nc(c(-c7cccc(S(=O)(=O)[O-])c7F)c7ccc4[nH]7)C=C6)C=C5)cc3)c2=O)CC[C@H]1[NH3+]
REMARK SMILES IDX 20 1 19 2 18 3 16 4 17 5 15 7 8 8 9 9 88 10 10 11 89 12
REMARK SMILES IDX 14 13 6 14 7 15 5 16 3 17 4 18 92 19 91 20 90 21 2 22 1 23
REMARK SMILES IDX 93 24 11 28 12 29 13 30 21 31 22 32 23 33 24 35 25 36 26 37
REMARK SMILES IDX 87 38 27 39 86 40 28 41 29 42 30 43 80 44 31 45 85 46 79 47
REMARK SMILES IDX 81 48 32 49 84 50 78 51 77 52 33 54 65 55 45 56 64 57 46 58
REMARK SMILES IDX 49 59 63 60 82 61 47 62 48 63 62 65 83 66 50 67 34 68 35 69
REMARK SMILES IDX 43 70 36 71 38 72 44 73 37 74 39 75 40 76 41 77 42 78 66 79
REMARK SMILES IDX 67 80 75 81 68 82 70 83 76 84 69 85 71 86 72 87 73 88 74 89
REMARK SMILES IDX 51 90 52 91 60 92 53 93 55 94 61 95 54 96 56 97 57 98 58 99
REMARK SMILES IDX 59 100
REMARK H PARENT 18 6 93 25 93 26 93 27 22 34 81 53 49 64
REMARK Flexibility Score: inf
ROOT
ATOM      1  C   UNL A   1      36.260  21.758  25.608  1.00  0.00     0.042 C 
ENDROOT
BRANCH   1   2
ATOM      2  C   UNL A   1      35.746  23.041  26.254  1.00  0.00     0.118 C 
BRANCH   2   3
ATOM      3  N   UNL A   1      34.785  22.757  27.307  1.00  0.00    -0.352 N 
ATOM      4  C   UNL A   1      33.428  22.810  27.349  1.00  0.00     0.256 C 
ATOM      5  O   UNL A   1      32.905  22.480  28.420  1.00  0.00    -0.269 OA
ATOM      6  H   UNL A   1      35.197  22.471  28.154  1.00  0.00     0.163 HD
BRANCH   4   7
ATOM      7  C   UNL A   1      32.574  23.150  26.179  1.00  0.00     0.104 A 
ATOM      8  C   UNL A   1      31.130  24.573  24.642  1.00  0.00     0.104 A 
ATOM      9  C   UNL A   1      31.200  23.580  23.747  1.00  0.00     0.103 A 
ATOM     10  C   UNL A   1      31.664  24.315  26.001  1.00  0.00     0.207 A 
ATOM     11  N   UNL A   1      31.843  22.369  23.981  1.00  0.00    -0.350 N 
ATOM     12  O   UNL A   1      31.313  25.037  26.928  1.00  0.00    -0.288 OA
ATOM     13  C   UNL A   1      32.559  22.252  25.173  1.00  0.00     0.103 A 
BRANCH   8  14
ATOM     14  C   UNL A   1      30.438  25.831  24.294  1.00  0.00     0.259 C 
ATOM     15  O   UNL A   1      29.211  25.855  24.235  1.00  0.00    -0.269 OA
BRANCH  14  16
ATOM     16  N   UNL A   1      31.234  26.931  24.006  1.00  0.00    -0.335 N 
ATOM     17  C   UNL A   1      32.960  28.106  25.326  1.00  0.00     0.195 C 
ATOM     18  C   UNL A   1      31.476  28.063  24.905  1.00  0.00     0.158 C 
ATOM     19  C   UNL A   1      33.896  28.104  24.075  1.00  0.00     0.213 C 
ATOM     20  C   UNL A   1      33.521  26.947  23.133  1.00  0.00     0.089 C 
ATOM     21  C   UNL A   1      32.035  26.933  22.789  1.00  0.00     0.126 C 
BRANCH  17  22
ATOM     22  O   UNL A   1      33.144  29.228  26.200  1.00  0.00    -0.373 OA
ATOM     23  C   UNL A   1      32.063  29.433  27.100  1.00  0.00     0.195 C 
ENDBRANCH  17  22
BRANCH  19  24
ATOM     24  N   UNL A   1      33.927  29.391  23.363  1.00  0.00    -0.353 N 
ATOM     25  H   UNL A   1      33.004  29.590  22.979  1.00  0.00     0.344 HD
ATOM     26  H   UNL A   1      34.609  29.346  22.606  1.00  0.00     0.344 HD
ATOM     27  H   UNL A   1      34.191  30.133  24.012  1.00  0.00     0.344 HD
ENDBRANCH  19  24
ENDBRANCH  14  16
ENDBRANCH   8  14
BRANCH  11  28
ATOM     28  C   UNL A   1      31.747  21.223  23.045  1.00  0.00     0.080 C 
ATOM     29  C   UNL A   1      32.224  21.633  21.651  1.00  0.00     0.031 C 
ATOM     30  C   UNL A   1      32.510  20.010  23.575  1.00  0.00     0.031 C 
ENDBRANCH  11  28
ENDBRANCH   4   7
ENDBRANCH   2   3
ENDBRANCH   1   2
BRANCH   1  31
ATOM     31  C   UNL A   1      37.673  21.874  25.056  1.00  0.00     0.118 C 
BRANCH  31  32
ATOM     32  N   UNL A   1      38.568  20.858  25.595  1.00  0.00    -0.352 N 
ATOM     33  C   UNL A   1      39.730  21.006  26.316  1.00  0.00     0.251 C 
ATOM     34  H   UNL A   1      38.302  19.928  25.415  1.00  0.00     0.163 HD
ATOM     35  O   UNL A   1      40.445  20.028  26.514  1.00  0.00    -0.269 OA
BRANCH  33  36
ATOM     36  C   UNL A   1      40.128  22.338  26.824  1.00  0.00     0.039 A 
ATOM     37  C   UNL A   1      39.573  23.503  26.292  1.00  0.00     0.014 A 
ATOM     38  C   UNL A   1      41.077  22.424  27.847  1.00  0.00     0.014 A 
ATOM     39  C   UNL A   1      40.089  24.743  26.654  1.00  0.00     0.010 A 
ATOM     40  C   UNL A   1      41.530  23.675  28.275  1.00  0.00     0.010 A 
ATOM     41  C   UNL A   1      41.076  24.846  27.647  1.00  0.00    -0.014 A 
BRANCH  41  42
ATOM     42  C   UNL A   1      41.611  26.183  28.015  1.00  0.00     0.031 A 
ATOM     43  C   UNL A   1      43.012  26.585  27.636  1.00  0.00     0.074 A 
ATOM     44  C   UNL A   1      40.813  27.055  28.662  1.00  0.00     0.049 A 
ATOM     45  N   UNL A   1      43.634  27.711  27.875  1.00  0.00    -0.248 NA
ATOM     46  C   UNL A   1      43.823  25.601  26.900  1.00  0.00     0.031 C 
ATOM     47  C   UNL A   1      39.440  26.780  29.093  1.00  0.00     0.029 A 
ATOM     48  N   UNL A   1      41.032  28.350  29.057  1.00  0.00    -0.354 N 
ATOM     49  C   UNL A   1      44.916  27.558  27.359  1.00  0.00     0.074 A 
ATOM     50  C   UNL A   1      44.988  26.228  26.795  1.00  0.00     0.031 C 
ATOM     51  C   UNL A   1      38.925  27.885  29.651  1.00  0.00     0.029 A 
ATOM     52  C   UNL A   1      39.945  28.928  29.668  1.00  0.00     0.049 A 
ATOM     53  H   UNL A   1      41.885  28.820  28.916  1.00  0.00     0.167 HD
ATOM     54  C   UNL A   1      45.932  28.452  27.337  1.00  0.00     0.034 A 
ATOM     55  C   UNL A   1      39.783  30.158  30.194  1.00  0.00     0.034 A 
ATOM     56  C   UNL A   1      45.842  29.795  27.844  1.00  0.00     0.049 A 
ATOM     57  C   UNL A   1      40.921  31.133  30.145  1.00  0.00     0.074 A 
ATOM     58  C   UNL A   1      46.810  30.783  27.825  1.00  0.00     0.029 A 
ATOM     59  N   UNL A   1      44.720  30.341  28.445  1.00  0.00    -0.354 N 
ATOM     60  N   UNL A   1      42.103  30.985  29.601  1.00  0.00    -0.248 NA
ATOM     61  C   UNL A   1      40.703  32.445  30.769  1.00  0.00     0.031 C 
ATOM     62  C   UNL A   1      46.274  31.930  28.420  1.00  0.00     0.029 A 
ATOM     63  C   UNL A   1      44.971  31.654  28.801  1.00  0.00     0.049 A 
ATOM     64  H   UNL A   1      43.872  29.866  28.597  1.00  0.00     0.167 HD
ATOM     65  C   UNL A   1      42.768  32.188  29.805  1.00  0.00     0.074 A 
ATOM     66  C   UNL A   1      41.850  33.061  30.506  1.00  0.00     0.031 C 
ATOM     67  C   UNL A   1      44.033  32.527  29.459  1.00  0.00     0.034 A 
BRANCH  54  68
ATOM     68  C   UNL A   1      47.228  28.036  26.695  1.00  0.00     0.023 A 
ATOM     69  C   UNL A   1      48.285  27.586  27.510  1.00  0.00     0.012 A 
ATOM     70  C   UNL A   1      47.362  27.992  25.293  1.00  0.00     0.148 A 
ATOM     71  C   UNL A   1      49.463  27.107  26.940  1.00  0.00     0.002 A 
ATOM     72  C   UNL A   1      48.529  27.487  24.731  1.00  0.00     0.091 A 
ATOM     73  F   UNL A   1      46.346  28.438  24.541  1.00  0.00    -0.205 F 
ATOM     74  C   UNL A   1      49.580  27.047  25.553  1.00  0.00     0.022 A 
BRANCH  72  75
ATOM     75  S   UNL A   1      48.762  27.314  22.959  1.00  0.00     0.127 S 
ATOM     76  O   UNL A   1      50.215  27.437  22.839  1.00  0.00    -0.237 OA
ATOM     77  O   UNL A   1      48.243  25.970  22.709  1.00  0.00    -0.237 OA
ATOM     78  O   UNL A   1      47.998  28.389  22.342  1.00  0.00    -0.744 OA
ENDBRANCH  72  75
ENDBRANCH  54  68
BRANCH  55  79
ATOM     79  C   UNL A   1      38.460  30.533  30.763  1.00  0.00     0.023 A 
ATOM     80  C   UNL A   1      38.198  30.271  32.120  1.00  0.00     0.012 A 
ATOM     81  C   UNL A   1      37.506  31.226  29.994  1.00  0.00     0.148 A 
ATOM     82  C   UNL A   1      37.004  30.694  32.704  1.00  0.00     0.002 A 
ATOM     83  C   UNL A   1      36.339  31.684  30.593  1.00  0.00     0.091 A 
ATOM     84  F   UNL A   1      37.781  31.458  28.702  1.00  0.00    -0.205 F 
ATOM     85  C   UNL A   1      36.082  31.410  31.946  1.00  0.00     0.022 A 
BRANCH  83  86
ATOM     86  S   UNL A   1      35.146  32.714  29.731  1.00  0.00     0.127 S 
ATOM     87  O   UNL A   1      36.007  33.742  29.149  1.00  0.00    -0.237 OA
ATOM     88  O   UNL A   1      34.578  31.769  28.770  1.00  0.00    -0.237 OA
ATOM     89  O   UNL A   1      34.214  33.180  30.749  1.00  0.00    -0.744 OA
ENDBRANCH  83  86
ENDBRANCH  55  79
BRANCH  67  90
ATOM     90  C   UNL A   1      44.516  33.903  29.820  1.00  0.00     0.023 A 
ATOM     91  C   UNL A   1      45.241  34.085  31.012  1.00  0.00     0.012 A 
ATOM     92  C   UNL A   1      44.357  34.981  28.927  1.00  0.00     0.148 A 
ATOM     93  C   UNL A   1      45.797  35.326  31.316  1.00  0.00     0.002 A 
ATOM     94  C   UNL A   1      44.943  36.205  29.222  1.00  0.00     0.091 A 
ATOM     95  F   UNL A   1      43.654  34.780  27.804  1.00  0.00    -0.205 F 
ATOM     96  C   UNL A   1      45.659  36.381  30.417  1.00  0.00     0.022 A 
BRANCH  94  97
ATOM     97  S   UNL A   1      44.883  37.603  28.094  1.00  0.00     0.127 S 
ATOM     98  O   UNL A   1      45.893  37.231  27.105  1.00  0.00    -0.237 OA
ATOM     99  O   UNL A   1      43.504  37.547  27.609  1.00  0.00    -0.237 OA
ATOM    100  O   UNL A   1      45.200  38.780  28.891  1.00  0.00    -0.744 OA
ENDBRANCH  94  97
ENDBRANCH  67  90
ENDBRANCH  41  42
ENDBRANCH  33  36
ENDBRANCH  31  32
ENDBRANCH   1  31
TORSDOF 18
ENDMDL
MODEL 2
REMARK VINA RESULT:     -11.9      4.965      9.986
REMARK SMILES CO[C@H]1CN(C(=O)c2cn(C(C)C)cc(C(=O)NCCCNC(=O)c3ccc(-c4c5nc(c(-c6cccc(S(=O)(=O)[O-])c6F)c6ccc([nH]6)c(-c6cccc(S(=O)(=O)[O-])c6F)c6nc(c(-c7cccc(S(=O)(=O)[O-])c7F)c7ccc4[nH]7)C=C6)C=C5)cc3)c2=O)CC[C@H]1[NH3+]
REMARK SMILES IDX 20 1 19 2 18 3 16 4 17 5 15 7 8 8 9 9 88 10 10 11 89 12
REMARK SMILES IDX 14 13 6 14 7 15 5 16 3 17 4 18 92 19 91 20 90 21 2 22 1 23
REMARK SMILES IDX 93 24 11 28 12 29 13 30 21 31 22 32 23 33 24 35 25 36 26 37
REMARK SMILES IDX 87 38 27 39 86 40 28 41 29 42 30 43 80 44 31 45 85 46 79 47
REMARK SMILES IDX 81 48 32 49 84 50 78 51 77 52 33 54 65 55 45 56 64 57 46 58
REMARK SMILES IDX 49 59 63 60 82 61 47 62 48 63 62 65 83 66 50 67 34 68 35 69
REMARK SMILES IDX 43 70 36 71 38 72 44 73 37 74 39 75 40 76 41 77 42 78 66 79
REMARK SMILES IDX 67 80 75 81 68 82 70 83 76 84 69 85 71 86 72 87 73 88 74 89
REMARK SMILES IDX 51 90 52 91 60 92 53 93 55 94 61 95 54 96 56 97 57 98 58 99
REMARK SMILES IDX 59 100
REMARK H PARENT 18 6 93 25 93 26 93 27 22 34 81 53 49 64
REMARK Flexibility Score: inf
ROOT
ATOM      1  C   UNL A   1      31.475  28.629  25.438  1.00  0.00     0.042 C 
ENDROOT
BRANCH   1   2
ATOM      2  C   UNL A   1      31.968  27.307  24.854  1.00  0.00     0.118 C 
BRANCH   2   3
ATOM      3  N   UNL A   1      32.551  27.494  23.536  1.00  0.00    -0.352 N 
ATOM      4  C   UNL A   1      33.241  26.662  22.712  1.00  0.00     0.256 C 
ATOM      5  O   UNL A   1      33.588  27.141  21.626  1.00  0.00    -0.269 OA
ATOM      6  H   UNL A   1      32.420  28.398  23.168  1.00  0.00     0.163 HD
BRANCH   4   7
ATOM      7  C   UNL A   1      33.509  25.230  23.014  1.00  0.00     0.104 A 
ATOM      8  C   UNL A   1      33.137  22.713  23.050  1.00  0.00     0.104 A 
ATOM      9  C   UNL A   1      34.389  22.589  23.507  1.00  0.00     0.103 A 
ATOM     10  C   UNL A   1      32.565  24.079  22.966  1.00  0.00     0.207 A 
ATOM     11  N   UNL A   1      35.219  23.668  23.796  1.00  0.00    -0.350 N 
ATOM     12  O   UNL A   1      31.348  24.215  22.901  1.00  0.00    -0.288 OA
ATOM     13  C   UNL A   1      34.746  24.938  23.464  1.00  0.00     0.103 A 
BRANCH   8  14
ATOM     14  C   UNL A   1      32.338  21.507  22.755  1.00  0.00     0.259 C 
ATOM     15  O   UNL A   1      31.735  21.421  21.687  1.00  0.00    -0.269 OA
BRANCH  14  16
ATOM     16  N   UNL A   1      32.278  20.532  23.740  1.00  0.00    -0.335 N 
ATOM     17  C   UNL A   1      33.920  18.846  24.491  1.00  0.00     0.195 C 
ATOM     18  C   UNL A   1      32.706  19.139  23.585  1.00  0.00     0.158 C 
ATOM     19  C   UNL A   1      33.617  19.233  25.974  1.00  0.00     0.213 C 
ATOM     20  C   UNL A   1      33.084  20.675  26.048  1.00  0.00     0.089 C 
ATOM     21  C   UNL A   1      31.913  20.913  25.099  1.00  0.00     0.126 C 
BRANCH  17  22
ATOM     22  O   UNL A   1      34.297  17.475  24.304  1.00  0.00    -0.373 OA
ATOM     23  C   UNL A   1      33.414  16.752  23.457  1.00  0.00     0.195 C 
ENDBRANCH  17  22
BRANCH  19  24
ATOM     24  N   UNL A   1      32.718  18.289  26.656  1.00  0.00    -0.353 N 
ATOM     25  H   UNL A   1      32.691  17.411  26.138  1.00  0.00     0.344 HD
ATOM     26  H   UNL A   1      31.779  18.685  26.702  1.00  0.00     0.344 HD
ATOM     27  H   UNL A   1      33.060  18.115  27.601  1.00  0.00     0.344 HD
ENDBRANCH  19  24
ENDBRANCH  14  16
ENDBRANCH   8  14
BRANCH  11  28
ATOM     28  C   UNL A   1      36.529  23.505  24.471  1.00  0.00     0.080 C 
ATOM     29  C   UNL A   1      36.387  23.757  25.974  1.00  0.00     0.031 C 
ATOM     30  C   UNL A   1      37.136  22.134  24.178  1.00  0.00     0.031 C 
ENDBRANCH  11  28
ENDBRANCH   4   7
ENDBRANCH   2   3
ENDBRANCH   1   2
BRANCH   1  31
ATOM     31  C   UNL A   1      32.428  29.242  26.452  1.00  0.00     0.118 C 
BRANCH  31  32
ATOM     32  N   UNL A   1      32.263  30.685  26.573  1.00  0.00    -0.352 N 
ATOM     33  C   UNL A   1      33.056  31.608  27.214  1.00  0.00     0.251 C 
ATOM     34  H   UNL A   1      31.465  31.053  26.129  1.00  0.00     0.163 HD
ATOM     35  O   UNL A   1      32.643  32.755  27.366  1.00  0.00    -0.269 OA
BRANCH  33  36
ATOM     36  C   UNL A   1      34.381  31.214  27.742  1.00  0.00     0.039 A 
ATOM     37  C   UNL A   1      34.658  29.885  28.065  1.00  0.00     0.014 A 
ATOM     38  C   UNL A   1      35.363  32.193  27.921  1.00  0.00     0.014 A 
ATOM     39  C   UNL A   1      35.840  29.565  28.725  1.00  0.00     0.010 A 
ATOM     40  C   UNL A   1      36.588  31.853  28.503  1.00  0.00     0.010 A 
ATOM     41  C   UNL A   1      36.818  30.545  28.956  1.00  0.00    -0.014 A 
BRANCH  41  42
ATOM     42  C   UNL A   1      38.072  30.177  29.665  1.00  0.00     0.031 A 
ATOM     43  C   UNL A   1      38.346  30.675  31.059  1.00  0.00     0.074 A 
ATOM     44  C   UNL A   1      38.953  29.356  29.060  1.00  0.00     0.049 A 
ATOM     45  N   UNL A   1      39.386  30.448  31.821  1.00  0.00    -0.248 NA
ATOM     46  C   UNL A   1      37.331  31.542  31.680  1.00  0.00     0.031 C 
ATOM     47  C   UNL A   1      38.806  28.815  27.706  1.00  0.00     0.029 A 
ATOM     48  N   UNL A   1      40.134  28.820  29.504  1.00  0.00    -0.354 N 
ATOM     49  C   UNL A   1      39.171  31.172  32.988  1.00  0.00     0.074 A 
ATOM     50  C   UNL A   1      37.903  31.851  32.837  1.00  0.00     0.031 C 
ATOM     51  C   UNL A   1      39.832  27.991  27.448  1.00  0.00     0.029 A 
ATOM     52  C   UNL A   1      40.737  27.986  28.592  1.00  0.00     0.049 A 
ATOM     53  H   UNL A   1      40.514  29.014  30.391  1.00  0.00     0.167 HD
ATOM     54  C   UNL A   1      39.949  31.246  34.093  1.00  0.00     0.034 A 
ATOM     55  C   UNL A   1      41.893  27.298  28.660  1.00  0.00     0.034 A 
ATOM     56  C   UNL A   1      41.180  30.524  34.269  1.00  0.00     0.049 A 
ATOM     57  C   UNL A   1      42.730  27.388  29.902  1.00  0.00     0.074 A 
ATOM     58  C   UNL A   1      42.013  30.507  35.374  1.00  0.00     0.029 A 
ATOM     59  N   UNL A   1      41.748  29.684  33.325  1.00  0.00    -0.354 N 
ATOM     60  N   UNL A   1      42.478  28.033  31.014  1.00  0.00    -0.248 NA
ATOM     61  C   UNL A   1      44.000  26.650  29.906  1.00  0.00     0.031 C 
ATOM     62  C   UNL A   1      43.088  29.658  35.097  1.00  0.00     0.029 A 
ATOM     63  C   UNL A   1      42.920  29.143  33.822  1.00  0.00     0.049 A 
ATOM     64  H   UNL A   1      41.373  29.501  32.433  1.00  0.00     0.167 HD
ATOM     65  C   UNL A   1      43.551  27.771  31.856  1.00  0.00     0.074 A 
ATOM     66  C   UNL A   1      44.447  26.892  31.133  1.00  0.00     0.031 C 
ATOM     67  C   UNL A   1      43.779  28.234  33.108  1.00  0.00     0.034 A 
BRANCH  54  68
ATOM     68  C   UNL A   1      39.473  32.098  35.239  1.00  0.00     0.023 A 
ATOM     69  C   UNL A   1      38.641  31.527  36.221  1.00  0.00     0.012 A 
ATOM     70  C   UNL A   1      39.929  33.422  35.397  1.00  0.00     0.148 A 
ATOM     71  C   UNL A   1      38.260  32.264  37.341  1.00  0.00     0.002 A 
ATOM     72  C   UNL A   1      39.569  34.142  36.530  1.00  0.00     0.091 A 
ATOM     73  F   UNL A   1      40.710  33.947  34.441  1.00  0.00    -0.205 F 
ATOM     74  C   UNL A   1      38.732  33.565  37.501  1.00  0.00     0.022 A 
BRANCH  72  75
ATOM     75  S   UNL A   1      40.165  35.803  36.862  1.00  0.00     0.127 S 
ATOM     76  O   UNL A   1      41.614  35.598  36.881  1.00  0.00    -0.237 OA
ATOM     77  O   UNL A   1      39.670  36.544  35.702  1.00  0.00    -0.237 OA
ATOM     78  O   UNL A   1      39.579  36.197  38.135  1.00  0.00    -0.744 OA
ENDBRANCH  72  75
ENDBRANCH  54  68
BRANCH  55  79
ATOM     79  C   UNL A   1      42.283  26.426  27.520  1.00  0.00     0.023 A 
ATOM     80  C   UNL A   1      43.138  26.937  26.526  1.00  0.00     0.012 A 
ATOM     81  C   UNL A   1      41.890  25.075  27.468  1.00  0.00     0.148 A 
ATOM     82  C   UNL A   1      43.596  26.116  25.496  1.00  0.00     0.002 A 
ATOM     83  C   UNL A   1      42.385  24.251  26.465  1.00  0.00     0.091 A 
ATOM     84  F   UNL A   1      41.072  24.616  28.426  1.00  0.00    -0.205 F 
ATOM     85  C   UNL A   1      43.230  24.773  25.472  1.00  0.00     0.022 A 
BRANCH  83  86
ATOM     86  S   UNL A   1      42.066  22.484  26.416  1.00  0.00     0.127 S 
ATOM     87  O   UNL A   1      40.612  22.448  26.271  1.00  0.00    -0.237 OA
ATOM     88  O   UNL A   1      42.815  22.080  25.226  1.00  0.00    -0.237 OA
ATOM     89  O   UNL A   1      42.584  21.952  27.668  1.00  0.00    -0.744 OA
ENDBRANCH  83  86
ENDBRANCH  55  79
BRANCH  67  90
ATOM     90  C   UNL A   1      45.043  27.805  33.797  1.00  0.00     0.023 A 
ATOM     91  C   UNL A   1      46.179  28.632  33.726  1.00  0.00     0.012 A 
ATOM     92  C   UNL A   1      45.068  26.653  34.607  1.00  0.00     0.148 A 
ATOM     93  C   UNL A   1      47.328  28.315  34.448  1.00  0.00     0.002 A 
ATOM     94  C   UNL A   1      46.205  26.362  35.349  1.00  0.00     0.091 A 
ATOM     95  F   UNL A   1      43.974  25.878  34.648  1.00  0.00    -0.205 F 
ATOM     96  C   UNL A   1      47.338  27.189  35.267  1.00  0.00     0.022 A 
BRANCH  94  97
ATOM     97  S   UNL A   1      46.289  24.975  36.488  1.00  0.00     0.127 S 
ATOM     98  O   UNL A   1      46.096  23.839  35.589  1.00  0.00    -0.237 OA
ATOM     99  O   UNL A   1      47.642  25.102  37.029  1.00  0.00    -0.237 OA
ATOM    100  O   UNL A   1      45.224  25.184  37.459  1.00  0.00    -0.744 OA
ENDBRANCH  94  97
ENDBRANCH  67  90
ENDBRANCH  41  42
ENDBRANCH  33  36
ENDBRANCH  31  32
ENDBRANCH   1  31
TORSDOF 18
ENDMDL
MODEL 3
REMARK VINA RESULT:     -11.9      5.130     10.427
REMARK SMILES CO[C@H]1CN(C(=O)c2cn(C(C)C)cc(C(=O)NCCCNC(=O)c3ccc(-c4c5nc(c(-c6cccc(S(=O)(=O)[O-])c6F)c6ccc([nH]6)c(-c6cccc(S(=O)(=O)[O-])c6F)c6nc(c(-c7cccc(S(=O)(=O)[O-])c7F)c7ccc4[nH]7)C=C6)C=C5)cc3)c2=O)CC[C@H]1[NH3+]
REMARK SMILES IDX 20 1 19 2 18 3 16 4 17 5 15 7 8 8 9 9 88 10 10 11 89 12
REMARK SMILES IDX 14 13 6 14 7 15 5 16 3 17 4 18 92 19 91 20 90 21 2 22 1 23
REMARK SMILES IDX 93 24 11 28 12 29 13 30 21 31 22 32 23 33 24 35 25 36 26 37
REMARK SMILES IDX 87 38 27 39 86 40 28 41 29 42 30 43 80 44 31 45 85 46 79 47
REMARK SMILES IDX 81 48 32 49 84 50 78 51 77 52 33 54 65 55 45 56 64 57 46 58
REMARK SMILES IDX 49 59 63 60 82 61 47 62 48 63 62 65 83 66 50 67 34 68 35 69
REMARK SMILES IDX 43 70 36 71 38 72 44 73 37 74 39 75 40 76 41 77 42 78 66 79
REMARK SMILES IDX 67 80 75 81 68 82 70 83 76 84 69 85 71 86 72 87 73 88 74 89
REMARK SMILES IDX 51 90 52 91 60 92 53 93 55 94 61 95 54 96 56 97 57 98 58 99
REMARK SMILES IDX 59 100
REMARK H PARENT 18 6 93 25 93 26 93 27 22 34 81 53 49 64
REMARK Flexibility Score: inf
ROOT
ATOM      1  C   UNL A   1      31.497  31.247  26.365  1.00  0.00     0.042 C 
ENDROOT
BRANCH   1   2
ATOM      2  C   UNL A   1      31.766  30.016  25.503  1.00  0.00     0.118 C 
BRANCH   2   3
ATOM      3  N   UNL A   1      30.756  29.861  24.470  1.00  0.00    -0.352 N 
ATOM      4  C   UNL A   1      30.361  28.794  23.726  1.00  0.00     0.256 C 
ATOM      5  O   UNL A   1      29.439  29.002  22.928  1.00  0.00    -0.269 OA
ATOM      6  H   UNL A   1      30.262  30.689  24.269  1.00  0.00     0.163 HD
BRANCH   4   7
ATOM      7  C   UNL A   1      30.908  27.420  23.890  1.00  0.00     0.104 A 
ATOM      8  C   UNL A   1      31.280  25.135  24.945  1.00  0.00     0.104 A 
ATOM      9  C   UNL A   1      31.904  24.776  23.817  1.00  0.00     0.103 A 
ATOM     10  C   UNL A   1      30.918  26.564  25.109  1.00  0.00     0.207 A 
ATOM     11  N   UNL A   1      32.128  25.637  22.747  1.00  0.00    -0.350 N 
ATOM     12  O   UNL A   1      30.680  26.996  26.231  1.00  0.00    -0.288 OA
ATOM     13  C   UNL A   1      31.549  26.905  22.821  1.00  0.00     0.103 A 
BRANCH   8  14
ATOM     14  C   UNL A   1      31.074  24.144  26.020  1.00  0.00     0.259 C 
ATOM     15  O   UNL A   1      30.013  24.129  26.640  1.00  0.00    -0.269 OA
BRANCH  14  16
ATOM     16  N   UNL A   1      32.130  23.290  26.303  1.00  0.00    -0.335 N 
ATOM     17  C   UNL A   1      33.477  21.802  24.862  1.00  0.00     0.195 C 
ATOM     18  C   UNL A   1      32.267  21.916  25.813  1.00  0.00     0.158 C 
ATOM     19  C   UNL A   1      34.775  22.343  25.543  1.00  0.00     0.213 C 
ATOM     20  C   UNL A   1      34.528  23.750  26.115  1.00  0.00     0.089 C 
ATOM     21  C   UNL A   1      33.295  23.806  27.011  1.00  0.00     0.126 C 
BRANCH  17  22
ATOM     22  O   UNL A   1      33.568  20.443  24.414  1.00  0.00    -0.373 OA
ATOM     23  C   UNL A   1      32.306  19.849  24.137  1.00  0.00     0.195 C 
ENDBRANCH  17  22
BRANCH  19  24
ATOM     24  N   UNL A   1      35.327  21.435  26.560  1.00  0.00    -0.353 N 
ATOM     25  H   UNL A   1      35.336  20.482  26.197  1.00  0.00     0.344 HD
ATOM     26  H   UNL A   1      34.749  21.473  27.400  1.00  0.00     0.344 HD
ATOM     27  H   UNL A   1      36.279  21.720  26.791  1.00  0.00     0.344 HD
ENDBRANCH  19  24
ENDBRANCH  14  16
ENDBRANCH   8  14
BRANCH  11  28
ATOM     28  C   UNL A   1      32.980  25.265  21.591  1.00  0.00     0.080 C 
ATOM     29  C   UNL A   1      33.365  23.787  21.668  1.00  0.00     0.031 C 
ATOM     30  C   UNL A   1      32.298  25.609  20.268  1.00  0.00     0.031 C 
ENDBRANCH  11  28
ENDBRANCH   4   7
ENDBRANCH   2   3
ENDBRANCH   1   2
BRANCH   1  31
ATOM     31  C   UNL A   1      32.759  31.913  26.892  1.00  0.00     0.118 C 
BRANCH  31  32
ATOM     32  N   UNL A   1      32.553  33.316  27.224  1.00  0.00    -0.352 N 
ATOM     33  C   UNL A   1      33.164  34.089  28.184  1.00  0.00     0.251 C 
ATOM     34  H   UNL A   1      31.876  33.780  26.680  1.00  0.00     0.163 HD
ATOM     35  O   UNL A   1      32.713  35.204  28.436  1.00  0.00    -0.269 OA
BRANCH  33  36
ATOM     36  C   UNL A   1      34.335  33.570  28.926  1.00  0.00     0.039 A 
ATOM     37  C   UNL A   1      35.624  34.023  28.638  1.00  0.00     0.014 A 
ATOM     38  C   UNL A   1      34.140  32.610  29.924  1.00  0.00     0.014 A 
ATOM     39  C   UNL A   1      36.722  33.395  29.217  1.00  0.00     0.010 A 
ATOM     40  C   UNL A   1      35.243  32.044  30.570  1.00  0.00     0.010 A 
ATOM     41  C   UNL A   1      36.547  32.396  30.186  1.00  0.00    -0.014 A 
BRANCH  41  42
ATOM     42  C   UNL A   1      37.738  31.741  30.789  1.00  0.00     0.031 A 
ATOM     43  C   UNL A   1      38.137  32.024  32.213  1.00  0.00     0.074 A 
ATOM     44  C   UNL A   1      38.441  30.854  30.057  1.00  0.00     0.049 A 
ATOM     45  N   UNL A   1      39.143  31.538  32.894  1.00  0.00    -0.248 NA
ATOM     46  C   UNL A   1      37.309  32.977  32.972  1.00  0.00     0.031 C 
ATOM     47  C   UNL A   1      38.160  30.503  28.663  1.00  0.00     0.029 A 
ATOM     48  N   UNL A   1      39.522  30.077  30.384  1.00  0.00    -0.354 N 
ATOM     49  C   UNL A   1      39.095  32.151  34.141  1.00  0.00     0.074 A 
ATOM     50  C   UNL A   1      37.962  33.051  34.125  1.00  0.00     0.031 C 
ATOM     51  C   UNL A   1      39.017  29.549  28.269  1.00  0.00     0.029 A 
ATOM     52  C   UNL A   1      39.941  29.260  29.360  1.00  0.00     0.049 A 
ATOM     53  H   UNL A   1      39.958  30.101  31.267  1.00  0.00     0.167 HD
ATOM     54  C   UNL A   1      39.906  31.965  35.207  1.00  0.00     0.034 A 
ATOM     55  C   UNL A   1      40.960  28.381  29.298  1.00  0.00     0.034 A 
ATOM     56  C   UNL A   1      40.996  31.028  35.245  1.00  0.00     0.049 A 
ATOM     57  C   UNL A   1      41.836  28.185  30.499  1.00  0.00     0.074 A 
ATOM     58  C   UNL A   1      41.845  30.743  36.299  1.00  0.00     0.029 A 
ATOM     59  N   UNL A   1      41.378  30.215  34.190  1.00  0.00    -0.354 N 
ATOM     60  N   UNL A   1      41.735  28.734  31.684  1.00  0.00    -0.248 NA
ATOM     61  C   UNL A   1      42.956  27.244  30.362  1.00  0.00     0.031 C 
ATOM     62  C   UNL A   1      42.746  29.759  35.881  1.00  0.00     0.029 A 
ATOM     63  C   UNL A   1      42.450  29.427  34.568  1.00  0.00     0.049 A 
ATOM     64  H   UNL A   1      40.950  30.200  33.303  1.00  0.00     0.167 HD
ATOM     65  C   UNL A   1      42.771  28.198  32.440  1.00  0.00     0.074 A 
ATOM     66  C   UNL A   1      43.475  27.265  31.584  1.00  0.00     0.031 C 
ATOM     67  C   UNL A   1      43.114  28.471  33.721  1.00  0.00     0.034 A 
BRANCH  54  68
ATOM     68  C   UNL A   1      39.623  32.752  36.459  1.00  0.00     0.023 A 
ATOM     69  C   UNL A   1      40.234  34.009  36.633  1.00  0.00     0.012 A 
ATOM     70  C   UNL A   1      38.681  32.299  37.403  1.00  0.00     0.148 A 
ATOM     71  C   UNL A   1      39.919  34.801  37.736  1.00  0.00     0.002 A 
ATOM     72  C   UNL A   1      38.351  33.106  38.486  1.00  0.00     0.091 A 
ATOM     73  F   UNL A   1      38.123  31.093  37.221  1.00  0.00    -0.205 F 
ATOM     74  C   UNL A   1      38.972  34.356  38.655  1.00  0.00     0.022 A 
BRANCH  72  75
ATOM     75  S   UNL A   1      37.105  32.653  39.697  1.00  0.00     0.127 S 
ATOM     76  O   UNL A   1      37.581  31.340  40.133  1.00  0.00    -0.237 OA
ATOM     77  O   UNL A   1      37.245  33.714  40.694  1.00  0.00    -0.237 OA
ATOM     78  O   UNL A   1      35.833  32.646  38.987  1.00  0.00    -0.744 OA
ENDBRANCH  72  75
ENDBRANCH  54  68
BRANCH  55  79
ATOM     79  C   UNL A   1      41.155  27.588  28.054  1.00  0.00     0.023 A 
ATOM     80  C   UNL A   1      41.773  28.194  26.945  1.00  0.00     0.012 A 
ATOM     81  C   UNL A   1      40.819  26.222  27.999  1.00  0.00     0.148 A 
ATOM     82  C   UNL A   1      42.055  27.452  25.798  1.00  0.00     0.002 A 
ATOM     83  C   UNL A   1      41.142  25.477  26.872  1.00  0.00     0.091 A 
ATOM     84  F   UNL A   1      40.228  25.672  29.069  1.00  0.00    -0.205 F 
ATOM     85  C   UNL A   1      41.751  26.093  25.766  1.00  0.00     0.022 A 
BRANCH  83  86
ATOM     86  S   UNL A   1      40.899  23.701  26.781  1.00  0.00     0.127 S 
ATOM     87  O   UNL A   1      41.705  23.349  25.613  1.00  0.00    -0.237 OA
ATOM     88  O   UNL A   1      41.447  23.259  28.064  1.00  0.00    -0.237 OA
ATOM     89  O   UNL A   1      39.463  23.503  26.634  1.00  0.00    -0.744 OA
ENDBRANCH  83  86
ENDBRANCH  55  79
BRANCH  67  90
ATOM     90  C   UNL A   1      44.304  27.756  34.297  1.00  0.00     0.023 A 
ATOM     91  C   UNL A   1      45.571  28.362  34.225  1.00  0.00     0.012 A 
ATOM     92  C   UNL A   1      44.145  26.551  35.010  1.00  0.00     0.148 A 
ATOM     93  C   UNL A   1      46.670  27.776  34.849  1.00  0.00     0.002 A 
ATOM     94  C   UNL A   1      45.238  25.991  35.658  1.00  0.00     0.091 A 
ATOM     95  F   UNL A   1      42.928  25.992  35.054  1.00  0.00    -0.205 F 
ATOM     96  C   UNL A   1      46.502  26.599  35.575  1.00  0.00     0.022 A 
BRANCH  94  97
ATOM     97  S   UNL A   1      45.108  24.516  36.676  1.00  0.00     0.127 S 
ATOM     98  O   UNL A   1      44.272  24.988  37.778  1.00  0.00    -0.237 OA
ATOM     99  O   UNL A   1      44.450  23.574  35.771  1.00  0.00    -0.237 OA
ATOM    100  O   UNL A   1      46.471  24.156  37.043  1.00  0.00    -0.744 OA
ENDBRANCH  94  97
ENDBRANCH  67  90
ENDBRANCH  41  42
ENDBRANCH  33  36
ENDBRANCH  31  32
ENDBRANCH   1  31
TORSDOF 18
ENDMDL
