MODEL 1
REMARK VINA RESULT:     -12.0      0.000      0.000
REMARK SMILES Cc1cc(NCc2ccco2)cc(C(=O)NCCCNC(=O)c2ccc(-c3c4nc(c(-c5cccc(S(=O)(=O)[O-])c5F)c5ccc([nH]5)c(-c5cccc(S(=O)(=O)[O-])c5F)c5nc(c(-c6cccc(S(=O)(=O)[O-])c6F)c6ccc3[nH]6)C=C5)C=C4)cc2)c1N
REMARK SMILES IDX 18 1 17 2 16 3 14 4 15 5 13 7 1 8 2 9 3 10 86 11 4 12 12 13
REMARK SMILES IDX 87 14 5 17 6 19 7 20 8 21 11 22 9 23 10 24 19 25 20 26 21 27
REMARK SMILES IDX 22 29 23 30 24 31 85 32 25 33 84 34 26 35 27 36 28 37 78 38
REMARK SMILES IDX 29 39 83 40 77 41 79 42 30 43 82 44 76 45 75 46 31 48 63 49
REMARK SMILES IDX 43 50 62 51 44 52 47 53 61 54 80 55 45 56 46 57 60 59 81 60
REMARK SMILES IDX 48 61 32 62 33 63 41 64 34 65 36 66 42 67 35 68 37 69 38 70
REMARK SMILES IDX 39 71 40 72 64 73 65 74 73 75 66 76 68 77 74 78 67 79 69 80
REMARK SMILES IDX 70 81 71 82 72 83 49 84 50 85 58 86 51 87 53 88 59 89 52 90
REMARK SMILES IDX 54 91 55 92 56 93 57 94
REMARK H PARENT 16 6 87 15 87 16 5 18 20 28 79 47 47 58
REMARK Flexibility Score: inf
ROOT
ATOM      1  C   UNL A   1      31.500  32.043  26.516  1.00  0.00     0.042 C 
ENDROOT
BRANCH   1   2
ATOM      2  C   UNL A   1      31.526  30.520  26.383  1.00  0.00     0.118 C 
BRANCH   2   3
ATOM      3  N   UNL A   1      32.504  30.102  25.395  1.00  0.00    -0.352 N 
ATOM      4  C   UNL A   1      32.554  29.066  24.494  1.00  0.00     0.253 C 
ATOM      5  O   UNL A   1      33.564  29.021  23.784  1.00  0.00    -0.269 OA
ATOM      6  H   UNL A   1      33.298  30.683  25.365  1.00  0.00     0.163 HD
BRANCH   4   7
ATOM      7  C   UNL A   1      31.457  28.056  24.304  1.00  0.00     0.065 A 
ATOM      8  C   UNL A   1      30.810  24.328  24.893  1.00  0.00     0.046 C 
ATOM      9  C   UNL A   1      30.652  25.765  24.477  1.00  0.00    -0.025 A 
ATOM     10  C   UNL A   1      29.448  26.168  23.871  1.00  0.00     0.031 A 
ATOM     11  C   UNL A   1      31.674  26.711  24.698  1.00  0.00     0.047 A 
ATOM     12  C   UNL A   1      29.205  27.493  23.500  1.00  0.00     0.036 A 
ATOM     13  C   UNL A   1      30.196  28.423  23.807  1.00  0.00     0.041 A 
BRANCH  11  14
ATOM     14  N   UNL A   1      32.925  26.276  25.161  1.00  0.00    -0.398 N 
ATOM     15  H   UNL A   1      33.611  26.934  25.414  1.00  0.00     0.156 HD
ATOM     16  H   UNL A   1      33.115  25.314  25.234  1.00  0.00     0.156 HD
ENDBRANCH  11  14
BRANCH  12  17
ATOM     17  N   UNL A   1      27.998  27.820  22.922  1.00  0.00    -0.378 N 
ATOM     18  H   UNL A   1      27.643  27.187  22.256  1.00  0.00     0.161 HD
BRANCH  17  19
ATOM     19  C   UNL A   1      27.188  29.003  23.189  1.00  0.00     0.188 C 
BRANCH  19  20
ATOM     20  C   UNL A   1      27.706  30.270  22.588  1.00  0.00     0.122 A 
ATOM     21  C   UNL A   1      27.907  31.546  23.079  1.00  0.00     0.047 A 
ATOM     22  O   UNL A   1      28.018  30.233  21.257  1.00  0.00    -0.467 OA
ATOM     23  C   UNL A   1      28.349  32.332  21.986  1.00  0.00     0.042 A 
ATOM     24  C   UNL A   1      28.403  31.486  20.904  1.00  0.00     0.195 A 
ENDBRANCH  19  20
ENDBRANCH  17  19
ENDBRANCH  12  17
ENDBRANCH   4   7
ENDBRANCH   2   3
ENDBRANCH   1   2
BRANCH   1  25
ATOM     25  C   UNL A   1      32.727  32.603  27.231  1.00  0.00     0.118 C 
BRANCH  25  26
ATOM     26  N   UNL A   1      32.521  33.984  27.648  1.00  0.00    -0.352 N 
ATOM     27  C   UNL A   1      33.072  34.678  28.695  1.00  0.00     0.251 C 
ATOM     28  H   UNL A   1      31.889  34.497  27.094  1.00  0.00     0.163 HD
ATOM     29  O   UNL A   1      32.579  35.752  29.030  1.00  0.00    -0.269 OA
BRANCH  27  30
ATOM     30  C   UNL A   1      34.246  34.142  29.419  1.00  0.00     0.039 A 
ATOM     31  C   UNL A   1      34.036  33.341  30.547  1.00  0.00     0.014 A 
ATOM     32  C   UNL A   1      35.546  34.461  29.020  1.00  0.00     0.014 A 
ATOM     33  C   UNL A   1      35.131  32.820  31.243  1.00  0.00     0.010 A 
ATOM     34  C   UNL A   1      36.633  33.885  29.672  1.00  0.00     0.010 A 
ATOM     35  C   UNL A   1      36.438  33.066  30.794  1.00  0.00    -0.014 A 
BRANCH  35  36
ATOM     36  C   UNL A   1      37.616  32.471  31.476  1.00  0.00     0.031 A 
ATOM     37  C   UNL A   1      38.367  31.334  30.837  1.00  0.00     0.074 A 
ATOM     38  C   UNL A   1      37.944  32.887  32.715  1.00  0.00     0.049 A 
ATOM     39  N   UNL A   1      39.360  30.629  31.316  1.00  0.00    -0.248 NA
ATOM     40  C   UNL A   1      37.929  30.916  29.494  1.00  0.00     0.031 C 
ATOM     41  C   UNL A   1      37.241  33.927  33.471  1.00  0.00     0.029 A 
ATOM     42  N   UNL A   1      38.927  32.461  33.572  1.00  0.00    -0.354 N 
ATOM     43  C   UNL A   1      39.636  29.661  30.358  1.00  0.00     0.074 A 
ATOM     44  C   UNL A   1      38.689  29.850  29.281  1.00  0.00     0.031 C 
ATOM     45  C   UNL A   1      37.814  34.054  34.678  1.00  0.00     0.029 A 
ATOM     46  C   UNL A   1      38.898  33.086  34.797  1.00  0.00     0.049 A 
ATOM     47  H   UNL A   1      39.591  31.774  33.333  1.00  0.00     0.167 HD
ATOM     48  C   UNL A   1      40.605  28.715  30.364  1.00  0.00     0.034 A 
ATOM     49  C   UNL A   1      39.650  32.892  35.899  1.00  0.00     0.034 A 
ATOM     50  C   UNL A   1      41.572  28.562  31.417  1.00  0.00     0.049 A 
ATOM     51  C   UNL A   1      40.750  31.866  35.859  1.00  0.00     0.074 A 
ATOM     52  C   UNL A   1      42.652  27.699  31.472  1.00  0.00     0.029 A 
ATOM     53  N   UNL A   1      41.573  29.280  32.602  1.00  0.00    -0.354 N 
ATOM     54  N   UNL A   1      41.098  31.069  34.880  1.00  0.00    -0.248 NA
ATOM     55  C   UNL A   1      41.585  31.739  37.063  1.00  0.00     0.031 C 
ATOM     56  C   UNL A   1      43.293  27.880  32.702  1.00  0.00     0.029 A 
ATOM     57  C   UNL A   1      42.628  28.876  33.400  1.00  0.00     0.049 A 
ATOM     58  H   UNL A   1      40.919  29.976  32.840  1.00  0.00     0.167 HD
ATOM     59  C   UNL A   1      42.211  30.370  35.333  1.00  0.00     0.074 A 
ATOM     60  C   UNL A   1      42.491  30.854  36.670  1.00  0.00     0.031 C 
ATOM     61  C   UNL A   1      42.928  29.405  34.706  1.00  0.00     0.034 A 
BRANCH  48  62
ATOM     62  C   UNL A   1      40.703  27.801  29.169  1.00  0.00     0.023 A 
ATOM     63  C   UNL A   1      39.854  26.679  29.080  1.00  0.00     0.012 A 
ATOM     64  C   UNL A   1      41.585  28.086  28.108  1.00  0.00     0.148 A 
ATOM     65  C   UNL A   1      39.904  25.836  27.970  1.00  0.00     0.002 A 
ATOM     66  C   UNL A   1      41.597  27.267  26.985  1.00  0.00     0.091 A 
ATOM     67  F   UNL A   1      42.398  29.146  28.218  1.00  0.00    -0.205 F 
ATOM     68  C   UNL A   1      40.766  26.136  26.919  1.00  0.00     0.022 A 
BRANCH  66  69
ATOM     69  S   UNL A   1      42.612  27.611  25.543  1.00  0.00     0.127 S 
ATOM     70  O   UNL A   1      43.953  27.647  26.127  1.00  0.00    -0.237 OA
ATOM     71  O   UNL A   1      42.348  26.447  24.696  1.00  0.00    -0.237 OA
ATOM     72  O   UNL A   1      42.131  28.876  25.005  1.00  0.00    -0.744 OA
ENDBRANCH  66  69
ENDBRANCH  48  62
BRANCH  49  73
ATOM     73  C   UNL A   1      39.425  33.732  37.109  1.00  0.00     0.023 A 
ATOM     74  C   UNL A   1      39.853  35.074  37.109  1.00  0.00     0.012 A 
ATOM     75  C   UNL A   1      38.759  33.223  38.241  1.00  0.00     0.148 A 
ATOM     76  C   UNL A   1      39.652  35.885  38.227  1.00  0.00     0.002 A 
ATOM     77  C   UNL A   1      38.511  34.053  39.328  1.00  0.00     0.091 A 
ATOM     78  F   UNL A   1      38.368  31.941  38.225  1.00  0.00    -0.205 F 
ATOM     79  C   UNL A   1      38.972  35.378  39.331  1.00  0.00     0.022 A 
BRANCH  77  80
ATOM     80  S   UNL A   1      37.524  33.528  40.735  1.00  0.00     0.127 S 
ATOM     81  O   UNL A   1      37.404  34.767  41.496  1.00  0.00    -0.237 OA
ATOM     82  O   UNL A   1      36.291  33.078  40.087  1.00  0.00    -0.237 OA
ATOM     83  O   UNL A   1      38.286  32.462  41.372  1.00  0.00    -0.744 OA
ENDBRANCH  77  80
ENDBRANCH  49  73
BRANCH  61  84
ATOM     84  C   UNL A   1      44.113  28.828  35.434  1.00  0.00     0.023 A 
ATOM     85  C   UNL A   1      45.383  29.418  35.285  1.00  0.00     0.012 A 
ATOM     86  C   UNL A   1      43.948  27.755  36.333  1.00  0.00     0.148 A 
ATOM     87  C   UNL A   1      46.478  28.931  35.998  1.00  0.00     0.002 A 
ATOM     88  C   UNL A   1      45.033  27.307  37.078  1.00  0.00     0.091 A 
ATOM     89  F   UNL A   1      42.735  27.196  36.446  1.00  0.00    -0.205 F 
ATOM     90  C   UNL A   1      46.300  27.886  36.902  1.00  0.00     0.022 A 
BRANCH  88  91
ATOM     91  S   UNL A   1      44.878  26.035  38.336  1.00  0.00     0.127 S 
ATOM     92  O   UNL A   1      46.273  25.825  38.720  1.00  0.00    -0.237 OA
ATOM     93  O   UNL A   1      44.059  26.700  39.349  1.00  0.00    -0.237 OA
ATOM     94  O   UNL A   1      44.232  24.902  37.687  1.00  0.00    -0.744 OA
ENDBRANCH  88  91
ENDBRANCH  61  84
ENDBRANCH  35  36
ENDBRANCH  27  30
ENDBRANCH  25  26
ENDBRANCH   1  25
TORSDOF 17
ENDMDL
MODEL 2
REMARK VINA RESULT:     -11.8      1.176      2.926
REMARK SMILES Cc1cc(NCc2ccco2)cc(C(=O)NCCCNC(=O)c2ccc(-c3c4nc(c(-c5cccc(S(=O)(=O)[O-])c5F)c5ccc([nH]5)c(-c5cccc(S(=O)(=O)[O-])c5F)c5nc(c(-c6cccc(S(=O)(=O)[O-])c6F)c6ccc3[nH]6)C=C5)C=C4)cc2)c1N
REMARK SMILES IDX 18 1 17 2 16 3 14 4 15 5 13 7 1 8 2 9 3 10 86 11 4 12 12 13
REMARK SMILES IDX 87 14 5 17 6 19 7 20 8 21 11 22 9 23 10 24 19 25 20 26 21 27
REMARK SMILES IDX 22 29 23 30 24 31 85 32 25 33 84 34 26 35 27 36 28 37 78 38
REMARK SMILES IDX 29 39 83 40 77 41 79 42 30 43 82 44 76 45 75 46 31 48 63 49
REMARK SMILES IDX 43 50 62 51 44 52 47 53 61 54 80 55 45 56 46 57 60 59 81 60
REMARK SMILES IDX 48 61 32 62 33 63 41 64 34 65 36 66 42 67 35 68 37 69 38 70
REMARK SMILES IDX 39 71 40 72 64 73 65 74 73 75 66 76 68 77 74 78 67 79 69 80
REMARK SMILES IDX 70 81 71 82 72 83 49 84 50 85 58 86 51 87 53 88 59 89 52 90
REMARK SMILES IDX 54 91 55 92 56 93 57 94
REMARK H PARENT 16 6 87 15 87 16 5 18 20 28 79 47 47 58
REMARK Flexibility Score: inf
ROOT
ATOM      1  C   UNL A   1      31.624  31.946  26.760  1.00  0.00     0.042 C 
ENDROOT
BRANCH   1   2
ATOM      2  C   UNL A   1      31.789  30.436  26.582  1.00  0.00     0.118 C 
BRANCH   2   3
ATOM      3  N   UNL A   1      32.577  30.136  25.401  1.00  0.00    -0.352 N 
ATOM      4  C   UNL A   1      32.402  29.280  24.340  1.00  0.00     0.253 C 
ATOM      5  O   UNL A   1      33.295  29.292  23.487  1.00  0.00    -0.269 OA
ATOM      6  H   UNL A   1      33.412  30.655  25.348  1.00  0.00     0.163 HD
BRANCH   4   7
ATOM      7  C   UNL A   1      31.196  28.401  24.152  1.00  0.00     0.065 A 
ATOM      8  C   UNL A   1      27.676  28.584  22.658  1.00  0.00     0.046 C 
ATOM      9  C   UNL A   1      28.913  28.101  23.363  1.00  0.00    -0.025 A 
ATOM     10  C   UNL A   1      28.932  26.793  23.882  1.00  0.00     0.031 A 
ATOM     11  C   UNL A   1      30.052  28.922  23.496  1.00  0.00     0.047 A 
ATOM     12  C   UNL A   1      30.058  26.254  24.508  1.00  0.00     0.036 A 
ATOM     13  C   UNL A   1      31.197  27.055  24.551  1.00  0.00     0.041 A 
BRANCH  11  14
ATOM     14  N   UNL A   1      29.976  30.269  23.114  1.00  0.00    -0.398 N 
ATOM     15  H   UNL A   1      30.281  30.973  23.729  1.00  0.00     0.156 HD
ATOM     16  H   UNL A   1      29.618  30.510  22.229  1.00  0.00     0.156 HD
ENDBRANCH  11  14
BRANCH  12  17
ATOM     17  N   UNL A   1      30.011  24.961  24.983  1.00  0.00    -0.378 N 
ATOM     18  H   UNL A   1      29.816  24.257  24.323  1.00  0.00     0.161 HD
BRANCH  17  19
ATOM     19  C   UNL A   1      30.217  24.523  26.358  1.00  0.00     0.188 C 
BRANCH  19  20
ATOM     20  C   UNL A   1      31.574  23.964  26.645  1.00  0.00     0.122 A 
ATOM     21  C   UNL A   1      32.838  24.231  26.156  1.00  0.00     0.047 A 
ATOM     22  O   UNL A   1      31.633  22.930  27.538  1.00  0.00    -0.467 OA
ATOM     23  C   UNL A   1      33.711  23.301  26.772  1.00  0.00     0.042 A 
ATOM     24  C   UNL A   1      32.930  22.536  27.605  1.00  0.00     0.195 A 
ENDBRANCH  19  20
ENDBRANCH  17  19
ENDBRANCH  12  17
ENDBRANCH   4   7
ENDBRANCH   2   3
ENDBRANCH   1   2
BRANCH   1  25
ATOM     25  C   UNL A   1      32.914  32.645  27.177  1.00  0.00     0.118 C 
BRANCH  25  26
ATOM     26  N   UNL A   1      32.661  34.001  27.648  1.00  0.00    -0.352 N 
ATOM     27  C   UNL A   1      33.173  34.664  28.735  1.00  0.00     0.251 C 
ATOM     28  H   UNL A   1      32.026  34.520  27.103  1.00  0.00     0.163 HD
ATOM     29  O   UNL A   1      32.643  35.708  29.105  1.00  0.00    -0.269 OA
BRANCH  27  30
ATOM     30  C   UNL A   1      34.347  34.129  29.458  1.00  0.00     0.039 A 
ATOM     31  C   UNL A   1      34.138  33.288  30.556  1.00  0.00     0.014 A 
ATOM     32  C   UNL A   1      35.646  34.489  29.089  1.00  0.00     0.014 A 
ATOM     33  C   UNL A   1      35.234  32.769  31.252  1.00  0.00     0.010 A 
ATOM     34  C   UNL A   1      36.735  33.914  29.738  1.00  0.00     0.010 A 
ATOM     35  C   UNL A   1      36.542  33.056  30.831  1.00  0.00    -0.014 A 
BRANCH  35  36
ATOM     36  C   UNL A   1      37.723  32.464  31.511  1.00  0.00     0.031 A 
ATOM     37  C   UNL A   1      38.474  31.327  30.871  1.00  0.00     0.074 A 
ATOM     38  C   UNL A   1      38.053  32.882  32.749  1.00  0.00     0.049 A 
ATOM     39  N   UNL A   1      39.469  30.625  31.349  1.00  0.00    -0.248 NA
ATOM     40  C   UNL A   1      38.034  30.906  29.531  1.00  0.00     0.031 C 
ATOM     41  C   UNL A   1      37.351  33.922  33.504  1.00  0.00     0.029 A 
ATOM     42  N   UNL A   1      39.039  32.460  33.604  1.00  0.00    -0.354 N 
ATOM     43  C   UNL A   1      39.744  29.655  30.393  1.00  0.00     0.074 A 
ATOM     44  C   UNL A   1      38.795  29.841  29.317  1.00  0.00     0.031 C 
ATOM     45  C   UNL A   1      37.926  34.053  34.710  1.00  0.00     0.029 A 
ATOM     46  C   UNL A   1      39.012  33.087  34.828  1.00  0.00     0.049 A 
ATOM     47  H   UNL A   1      39.704  31.774  33.364  1.00  0.00     0.167 HD
ATOM     48  C   UNL A   1      40.715  28.711  30.397  1.00  0.00     0.034 A 
ATOM     49  C   UNL A   1      39.767  32.896  35.927  1.00  0.00     0.034 A 
ATOM     50  C   UNL A   1      41.685  28.561  31.448  1.00  0.00     0.049 A 
ATOM     51  C   UNL A   1      40.869  31.872  35.887  1.00  0.00     0.074 A 
ATOM     52  C   UNL A   1      42.767  27.701  31.502  1.00  0.00     0.029 A 
ATOM     53  N   UNL A   1      41.688  29.282  32.632  1.00  0.00    -0.354 N 
ATOM     54  N   UNL A   1      41.216  31.073  34.908  1.00  0.00    -0.248 NA
ATOM     55  C   UNL A   1      41.707  31.748  37.089  1.00  0.00     0.031 C 
ATOM     56  C   UNL A   1      43.411  27.885  32.730  1.00  0.00     0.029 A 
ATOM     57  C   UNL A   1      42.745  28.880  33.428  1.00  0.00     0.049 A 
ATOM     58  H   UNL A   1      41.034  29.977  32.871  1.00  0.00     0.167 HD
ATOM     59  C   UNL A   1      42.331  30.377  35.360  1.00  0.00     0.074 A 
ATOM     60  C   UNL A   1      42.614  30.864  36.695  1.00  0.00     0.031 C 
ATOM     61  C   UNL A   1      43.048  29.412  34.733  1.00  0.00     0.034 A 
BRANCH  48  62
ATOM     62  C   UNL A   1      40.812  27.796  29.204  1.00  0.00     0.023 A 
ATOM     63  C   UNL A   1      39.997  26.647  29.141  1.00  0.00     0.012 A 
ATOM     64  C   UNL A   1      41.657  28.103  28.119  1.00  0.00     0.148 A 
ATOM     65  C   UNL A   1      40.045  25.801  28.033  1.00  0.00     0.002 A 
ATOM     66  C   UNL A   1      41.666  27.280  26.999  1.00  0.00     0.091 A 
ATOM     67  F   UNL A   1      42.439  29.189  28.205  1.00  0.00    -0.205 F 
ATOM     68  C   UNL A   1      40.871  26.123  26.959  1.00  0.00     0.022 A 
BRANCH  66  69
ATOM     69  S   UNL A   1      42.633  27.649  25.531  1.00  0.00     0.127 S 
ATOM     70  O   UNL A   1      41.971  28.856  25.036  1.00  0.00    -0.237 OA
ATOM     71  O   UNL A   1      43.967  27.872  26.089  1.00  0.00    -0.237 OA
ATOM     72  O   UNL A   1      42.522  26.478  24.672  1.00  0.00    -0.744 OA
ENDBRANCH  66  69
ENDBRANCH  48  62
BRANCH  49  73
ATOM     73  C   UNL A   1      39.544  33.738  37.137  1.00  0.00     0.023 A 
ATOM     74  C   UNL A   1      40.017  35.064  37.154  1.00  0.00     0.012 A 
ATOM     75  C   UNL A   1      38.836  33.246  38.251  1.00  0.00     0.148 A 
ATOM     76  C   UNL A   1      39.818  35.877  38.271  1.00  0.00     0.002 A 
ATOM     77  C   UNL A   1      38.592  34.079  39.337  1.00  0.00     0.091 A 
ATOM     78  F   UNL A   1      38.403  31.979  38.220  1.00  0.00    -0.205 F 
ATOM     79  C   UNL A   1      39.097  35.388  39.357  1.00  0.00     0.022 A 
BRANCH  77  80
ATOM     80  S   UNL A   1      37.557  33.581  40.719  1.00  0.00     0.127 S 
ATOM     81  O   UNL A   1      38.373  32.545  41.346  1.00  0.00    -0.237 OA
ATOM     82  O   UNL A   1      37.449  34.827  41.479  1.00  0.00    -0.237 OA
ATOM     83  O   UNL A   1      36.304  33.132  40.128  1.00  0.00    -0.744 OA
ENDBRANCH  77  80
ENDBRANCH  49  73
BRANCH  61  84
ATOM     84  C   UNL A   1      44.235  28.838  35.458  1.00  0.00     0.023 A 
ATOM     85  C   UNL A   1      45.510  29.408  35.277  1.00  0.00     0.012 A 
ATOM     86  C   UNL A   1      44.070  27.790  36.386  1.00  0.00     0.148 A 
ATOM     87  C   UNL A   1      46.609  28.925  35.988  1.00  0.00     0.002 A 
ATOM     88  C   UNL A   1      45.159  27.347  37.127  1.00  0.00     0.091 A 
ATOM     89  F   UNL A   1      42.851  27.250  36.530  1.00  0.00    -0.205 F 
ATOM     90  C   UNL A   1      46.432  27.905  36.920  1.00  0.00     0.022 A 
BRANCH  88  91
ATOM     91  S   UNL A   1      45.006  26.109  38.418  1.00  0.00     0.127 S 
ATOM     92  O   UNL A   1      44.051  26.743  39.327  1.00  0.00    -0.237 OA
ATOM     93  O   UNL A   1      44.479  24.959  37.684  1.00  0.00    -0.237 OA
ATOM     94  O   UNL A   1      46.346  25.919  38.956  1.00  0.00    -0.744 OA
ENDBRANCH  88  91
ENDBRANCH  61  84
ENDBRANCH  35  36
ENDBRANCH  27  30
ENDBRANCH  25  26
ENDBRANCH   1  25
TORSDOF 17
ENDMDL
MODEL 3
REMARK VINA RESULT:     -11.7      0.539      7.856
REMARK SMILES Cc1cc(NCc2ccco2)cc(C(=O)NCCCNC(=O)c2ccc(-c3c4nc(c(-c5cccc(S(=O)(=O)[O-])c5F)c5ccc([nH]5)c(-c5cccc(S(=O)(=O)[O-])c5F)c5nc(c(-c6cccc(S(=O)(=O)[O-])c6F)c6ccc3[nH]6)C=C5)C=C4)cc2)c1N
REMARK SMILES IDX 18 1 17 2 16 3 14 4 15 5 13 7 1 8 2 9 3 10 86 11 4 12 12 13
REMARK SMILES IDX 87 14 5 17 6 19 7 20 8 21 11 22 9 23 10 24 19 25 20 26 21 27
REMARK SMILES IDX 22 29 23 30 24 31 85 32 25 33 84 34 26 35 27 36 28 37 78 38
REMARK SMILES IDX 29 39 83 40 77 41 79 42 30 43 82 44 76 45 75 46 31 48 63 49
REMARK SMILES IDX 43 50 62 51 44 52 47 53 61 54 80 55 45 56 46 57 60 59 81 60
REMARK SMILES IDX 48 61 32 62 33 63 41 64 34 65 36 66 42 67 35 68 37 69 38 70
REMARK SMILES IDX 39 71 40 72 64 73 65 74 73 75 66 76 68 77 74 78 67 79 69 80
REMARK SMILES IDX 70 81 71 82 72 83 49 84 50 85 58 86 51 87 53 88 59 89 52 90
REMARK SMILES IDX 54 91 55 92 56 93 57 94
REMARK H PARENT 16 6 87 15 87 16 5 18 20 28 79 47 47 58
REMARK Flexibility Score: inf
ROOT
ATOM      1  C   UNL A   1      31.583  32.046  26.884  1.00  0.00     0.042 C 
ENDROOT
BRANCH   1   2
ATOM      2  C   UNL A   1      31.715  30.524  26.804  1.00  0.00     0.118 C 
BRANCH   2   3
ATOM      3  N   UNL A   1      32.591  30.137  25.713  1.00  0.00    -0.352 N 
ATOM      4  C   UNL A   1      32.546  29.135  24.774  1.00  0.00     0.253 C 
ATOM      5  O   UNL A   1      33.483  29.109  23.970  1.00  0.00    -0.269 OA
ATOM      6  H   UNL A   1      33.384  30.714  25.627  1.00  0.00     0.163 HD
BRANCH   4   7
ATOM      7  C   UNL A   1      31.427  28.138  24.654  1.00  0.00     0.065 A 
ATOM      8  C   UNL A   1      30.529  24.621  25.873  1.00  0.00     0.046 C 
ATOM      9  C   UNL A   1      30.492  25.951  25.171  1.00  0.00    -0.025 A 
ATOM     10  C   UNL A   1      29.385  26.259  24.359  1.00  0.00     0.031 A 
ATOM     11  C   UNL A   1      31.530  26.893  25.324  1.00  0.00     0.047 A 
ATOM     12  C   UNL A   1      29.253  27.490  23.712  1.00  0.00     0.036 A 
ATOM     13  C   UNL A   1      30.250  28.434  23.949  1.00  0.00     0.041 A 
BRANCH  11  14
ATOM     14  N   UNL A   1      32.697  26.523  26.008  1.00  0.00    -0.398 N 
ATOM     15  H   UNL A   1      33.335  27.213  26.300  1.00  0.00     0.156 HD
ATOM     16  H   UNL A   1      32.877  25.575  26.198  1.00  0.00     0.156 HD
ENDBRANCH  11  14
BRANCH  12  17
ATOM     17  N   UNL A   1      28.136  27.730  22.941  1.00  0.00    -0.378 N 
ATOM     18  H   UNL A   1      27.977  27.110  22.192  1.00  0.00     0.161 HD
BRANCH  17  19
ATOM     19  C   UNL A   1      27.163  28.803  23.113  1.00  0.00     0.188 C 
BRANCH  19  20
ATOM     20  C   UNL A   1      27.629  30.152  22.669  1.00  0.00     0.122 A 
ATOM     21  C   UNL A   1      27.840  31.351  23.322  1.00  0.00     0.047 A 
ATOM     22  O   UNL A   1      27.862  30.308  21.331  1.00  0.00    -0.467 OA
ATOM     23  C   UNL A   1      28.208  32.291  22.328  1.00  0.00     0.042 A 
ATOM     24  C   UNL A   1      28.208  31.606  21.136  1.00  0.00     0.195 A 
ENDBRANCH  19  20
ENDBRANCH  17  19
ENDBRANCH  12  17
ENDBRANCH   4   7
ENDBRANCH   2   3
ENDBRANCH   1   2
BRANCH   1  25
ATOM     25  C   UNL A   1      32.912  32.750  27.140  1.00  0.00     0.118 C 
BRANCH  25  26
ATOM     26  N   UNL A   1      32.714  34.090  27.676  1.00  0.00    -0.352 N 
ATOM     27  C   UNL A   1      33.237  34.673  28.803  1.00  0.00     0.251 C 
ATOM     28  H   UNL A   1      32.113  34.666  27.149  1.00  0.00     0.163 HD
ATOM     29  O   UNL A   1      32.750  35.721  29.218  1.00  0.00    -0.269 OA
BRANCH  27  30
ATOM     30  C   UNL A   1      34.372  34.048  29.516  1.00  0.00     0.039 A 
ATOM     31  C   UNL A   1      34.105  33.123  30.531  1.00  0.00     0.014 A 
ATOM     32  C   UNL A   1      35.691  34.402  29.221  1.00  0.00     0.014 A 
ATOM     33  C   UNL A   1      35.163  32.517  31.214  1.00  0.00     0.010 A 
ATOM     34  C   UNL A   1      36.744  33.745  29.854  1.00  0.00     0.010 A 
ATOM     35  C   UNL A   1      36.492  32.804  30.863  1.00  0.00    -0.014 A 
BRANCH  35  36
ATOM     36  C   UNL A   1      37.633  32.124  31.527  1.00  0.00     0.031 A 
ATOM     37  C   UNL A   1      38.156  32.634  32.843  1.00  0.00     0.074 A 
ATOM     38  C   UNL A   1      38.261  31.113  30.895  1.00  0.00     0.049 A 
ATOM     39  N   UNL A   1      39.194  32.229  33.529  1.00  0.00    -0.248 NA
ATOM     40  C   UNL A   1      37.436  33.762  33.457  1.00  0.00     0.031 C 
ATOM     41  C   UNL A   1      37.895  30.583  29.580  1.00  0.00     0.029 A 
ATOM     42  N   UNL A   1      39.359  30.375  31.256  1.00  0.00    -0.354 N 
ATOM     43  C   UNL A   1      39.278  33.077  34.627  1.00  0.00     0.074 A 
ATOM     44  C   UNL A   1      38.202  34.036  34.504  1.00  0.00     0.031 C 
ATOM     45  C   UNL A   1      38.756  29.609  29.244  1.00  0.00     0.029 A 
ATOM     46  C   UNL A   1      39.752  29.468  30.300  1.00  0.00     0.049 A 
ATOM     47  H   UNL A   1      39.823  30.483  32.118  1.00  0.00     0.167 HD
ATOM     48  C   UNL A   1      40.156  33.046  35.658  1.00  0.00     0.034 A 
ATOM     49  C   UNL A   1      40.805  28.627  30.268  1.00  0.00     0.034 A 
ATOM     50  C   UNL A   1      41.196  32.061  35.798  1.00  0.00     0.049 A 
ATOM     51  C   UNL A   1      41.737  28.581  31.448  1.00  0.00     0.074 A 
ATOM     52  C   UNL A   1      42.074  31.884  36.852  1.00  0.00     0.029 A 
ATOM     53  N   UNL A   1      41.502  31.094  34.855  1.00  0.00    -0.354 N 
ATOM     54  N   UNL A   1      41.703  29.285  32.553  1.00  0.00    -0.248 NA
ATOM     55  C   UNL A   1      42.832  27.601  31.393  1.00  0.00     0.031 C 
ATOM     56  C   UNL A   1      42.928  30.823  36.535  1.00  0.00     0.029 A 
ATOM     57  C   UNL A   1      42.563  30.322  35.296  1.00  0.00     0.049 A 
ATOM     58  H   UNL A   1      41.035  30.973  33.997  1.00  0.00     0.167 HD
ATOM     59  C   UNL A   1      42.746  28.810  33.340  1.00  0.00     0.074 A 
ATOM     60  C   UNL A   1      43.382  27.744  32.592  1.00  0.00     0.031 C 
ATOM     61  C   UNL A   1      43.150  29.229  34.565  1.00  0.00     0.034 A 
BRANCH  48  62
ATOM     62  C   UNL A   1      40.001  34.076  36.746  1.00  0.00     0.023 A 
ATOM     63  C   UNL A   1      40.332  35.421  36.483  1.00  0.00     0.012 A 
ATOM     64  C   UNL A   1      39.468  33.730  38.004  1.00  0.00     0.148 A 
ATOM     65  C   UNL A   1      40.168  36.399  37.464  1.00  0.00     0.002 A 
ATOM     66  C   UNL A   1      39.264  34.717  38.960  1.00  0.00     0.091 A 
ATOM     67  F   UNL A   1      39.176  32.443  38.243  1.00  0.00    -0.205 F 
ATOM     68  C   UNL A   1      39.624  36.049  38.697  1.00  0.00     0.022 A 
BRANCH  66  69
ATOM     69  S   UNL A   1      38.496  34.385  40.551  1.00  0.00     0.127 S 
ATOM     70  O   UNL A   1      39.557  33.655  41.244  1.00  0.00    -0.237 OA
ATOM     71  O   UNL A   1      38.251  35.734  41.061  1.00  0.00    -0.237 OA
ATOM     72  O   UNL A   1      37.293  33.617  40.263  1.00  0.00    -0.744 OA
ENDBRANCH  66  69
ENDBRANCH  48  62
BRANCH  49  73
ATOM     73  C   UNL A   1      40.994  27.718  29.103  1.00  0.00     0.023 A 
ATOM     74  C   UNL A   1      40.311  26.487  29.067  1.00  0.00     0.012 A 
ATOM     75  C   UNL A   1      41.814  28.080  28.016  1.00  0.00     0.148 A 
ATOM     76  C   UNL A   1      40.466  25.617  27.987  1.00  0.00     0.002 A 
ATOM     77  C   UNL A   1      41.919  27.235  26.917  1.00  0.00     0.091 A 
ATOM     78  F   UNL A   1      42.463  29.251  28.072  1.00  0.00    -0.205 F 
ATOM     79  C   UNL A   1      41.261  25.996  26.908  1.00  0.00     0.022 A 
BRANCH  77  80
ATOM     80  S   UNL A   1      42.808  27.699  25.427  1.00  0.00     0.127 S 
ATOM     81  O   UNL A   1      42.677  26.494  24.612  1.00  0.00    -0.237 OA
ATOM     82  O   UNL A   1      42.032  28.848  24.958  1.00  0.00    -0.237 OA
ATOM     83  O   UNL A   1      44.158  28.028  25.862  1.00  0.00    -0.744 OA
ENDBRANCH  77  80
ENDBRANCH  49  73
BRANCH  61  84
ATOM     84  C   UNL A   1      44.311  28.513  35.202  1.00  0.00     0.023 A 
ATOM     85  C   UNL A   1      45.630  28.886  34.877  1.00  0.00     0.012 A 
ATOM     86  C   UNL A   1      44.093  27.529  36.187  1.00  0.00     0.148 A 
ATOM     87  C   UNL A   1      46.715  28.272  35.503  1.00  0.00     0.002 A 
ATOM     88  C   UNL A   1      45.176  26.957  36.843  1.00  0.00     0.091 A 
ATOM     89  F   UNL A   1      42.830  27.176  36.469  1.00  0.00    -0.205 F 
ATOM     90  C   UNL A   1      46.488  27.318  36.493  1.00  0.00     0.022 A 
BRANCH  88  91
ATOM     91  S   UNL A   1      44.978  25.795  38.197  1.00  0.00     0.127 S 
ATOM     92  O   UNL A   1      46.332  25.748  38.749  1.00  0.00    -0.237 OA
ATOM     93  O   UNL A   1      43.997  26.472  39.045  1.00  0.00    -0.237 OA
ATOM     94  O   UNL A   1      44.505  24.554  37.599  1.00  0.00    -0.744 OA
ENDBRANCH  88  91
ENDBRANCH  61  84
ENDBRANCH  35  36
ENDBRANCH  27  30
ENDBRANCH  25  26
ENDBRANCH   1  25
TORSDOF 17
ENDMDL
