MODEL 1
REMARK VINA RESULT:     -12.0      0.000      0.000
REMARK SMILES COc1ccc(C(=O)c2ccccc2)cc1[C@@H](C)C(=O)NCCCNC(=O)c1ccc(-c2c3nc(c(-c4cccc(S(=O)(=O)[O-])c4F)c4ccc([nH]4)c(-c4cccc(S(=O)(=O)[O-])c4F)c4nc(c(-c5cccc(S(=O)(=O)[O-])c5F)c5ccc2[nH]5)C=C4)C=C3)cc1
REMARK SMILES IDX 23 1 22 2 21 3 19 4 20 5 17 7 18 8 16 9 3 10 4 11 5 12 15 13
REMARK SMILES IDX 6 14 2 15 1 16 7 17 8 18 9 19 10 20 14 21 11 22 13 23 12 24
REMARK SMILES IDX 24 25 25 26 26 27 27 29 28 30 29 31 90 32 30 33 89 34 31 35
REMARK SMILES IDX 32 36 33 37 83 38 34 39 88 40 82 41 84 42 35 43 87 44 81 45
REMARK SMILES IDX 80 46 36 48 68 49 48 50 67 51 49 52 52 53 66 54 85 55 50 56
REMARK SMILES IDX 51 57 65 59 86 60 53 61 37 62 38 63 46 64 39 65 41 66 47 67
REMARK SMILES IDX 40 68 42 69 43 70 44 71 45 72 69 73 70 74 78 75 71 76 73 77
REMARK SMILES IDX 79 78 72 79 74 80 75 81 76 82 77 83 54 84 55 85 63 86 56 87
REMARK SMILES IDX 58 88 64 89 57 90 59 91 60 92 61 93 62 94
REMARK H PARENT 21 6 25 28 84 47 52 58
REMARK Flexibility Score: inf
ROOT
ATOM      1  C   UNL A   1      31.926  28.889  26.651  1.00  0.00     0.042 C 
ENDROOT
BRANCH   1   2
ATOM      2  C   UNL A   1      32.369  27.433  26.539  1.00  0.00     0.117 C 
BRANCH   2   3
ATOM      3  N   UNL A   1      31.278  26.509  26.778  1.00  0.00    -0.356 N 
ATOM      4  C   UNL A   1      30.229  26.092  26.018  1.00  0.00     0.227 C 
ATOM      5  O   UNL A   1      29.439  25.321  26.579  1.00  0.00    -0.274 OA
ATOM      6  H   UNL A   1      31.299  26.099  27.673  1.00  0.00     0.163 HD
BRANCH   4   7
ATOM      7  C   UNL A   1      29.972  26.509  24.557  1.00  0.00     0.109 C 
ATOM      8  C   UNL A   1      28.525  26.440  24.078  1.00  0.00     0.023 C 
BRANCH   7   9
ATOM      9  C   UNL A   1      30.987  25.941  23.574  1.00  0.00     0.007 A 
ATOM     10  C   UNL A   1      31.362  26.608  22.394  1.00  0.00     0.122 A 
ATOM     11  C   UNL A   1      32.325  26.060  21.540  1.00  0.00     0.047 A 
ATOM     12  C   UNL A   1      32.919  24.831  21.834  1.00  0.00     0.016 A 
ATOM     13  C   UNL A   1      31.576  24.684  23.822  1.00  0.00     0.020 A 
ATOM     14  C   UNL A   1      32.528  24.114  22.967  1.00  0.00     0.023 A 
BRANCH  10  15
ATOM     15  O   UNL A   1      30.690  27.698  21.906  1.00  0.00    -0.496 OA
ATOM     16  C   UNL A   1      31.179  28.950  22.383  1.00  0.00     0.278 C 
ENDBRANCH  10  15
BRANCH  14  17
ATOM     17  C   UNL A   1      33.172  22.789  23.221  1.00  0.00     0.193 C 
ATOM     18  O   UNL A   1      32.653  21.774  22.768  1.00  0.00    -0.289 OA
BRANCH  17  19
ATOM     19  C   UNL A   1      34.453  22.641  23.951  1.00  0.00     0.022 A 
ATOM     20  C   UNL A   1      34.796  21.368  24.418  1.00  0.00     0.012 A 
ATOM     21  C   UNL A   1      35.301  23.727  24.205  1.00  0.00     0.012 A 
ATOM     22  C   UNL A   1      36.007  21.173  25.080  1.00  0.00     0.001 A 
ATOM     23  C   UNL A   1      36.522  23.521  24.855  1.00  0.00     0.001 A 
ATOM     24  C   UNL A   1      36.879  22.241  25.281  1.00  0.00     0.000 A 
ENDBRANCH  17  19
ENDBRANCH  14  17
ENDBRANCH   7   9
ENDBRANCH   4   7
ENDBRANCH   2   3
ENDBRANCH   1   2
BRANCH   1  25
ATOM     25  C   UNL A   1      32.700  29.879  25.795  1.00  0.00     0.118 C 
BRANCH  25  26
ATOM     26  N   UNL A   1      32.547  31.253  26.254  1.00  0.00    -0.352 N 
ATOM     27  C   UNL A   1      33.218  31.991  27.201  1.00  0.00     0.251 C 
ATOM     28  H   UNL A   1      31.827  31.746  25.800  1.00  0.00     0.163 HD
ATOM     29  O   UNL A   1      32.740  33.079  27.522  1.00  0.00    -0.269 OA
BRANCH  27  30
ATOM     30  C   UNL A   1      34.472  31.527  27.855  1.00  0.00     0.039 A 
ATOM     31  C   UNL A   1      34.524  30.208  28.334  1.00  0.00     0.014 A 
ATOM     32  C   UNL A   1      35.568  32.363  28.070  1.00  0.00     0.014 A 
ATOM     33  C   UNL A   1      35.678  29.721  28.961  1.00  0.00     0.010 A 
ATOM     34  C   UNL A   1      36.749  31.855  28.615  1.00  0.00     0.010 A 
ATOM     35  C   UNL A   1      36.809  30.538  29.090  1.00  0.00    -0.014 A 
BRANCH  35  36
ATOM     36  C   UNL A   1      38.035  30.067  29.785  1.00  0.00     0.031 A 
ATOM     37  C   UNL A   1      38.335  30.553  31.180  1.00  0.00     0.074 A 
ATOM     38  C   UNL A   1      38.916  29.270  29.151  1.00  0.00     0.049 A 
ATOM     39  N   UNL A   1      39.352  30.273  31.953  1.00  0.00    -0.248 NA
ATOM     40  C   UNL A   1      37.373  31.497  31.773  1.00  0.00     0.031 C 
ATOM     41  C   UNL A   1      38.782  28.782  27.778  1.00  0.00     0.029 A 
ATOM     42  N   UNL A   1      40.114  28.748  29.572  1.00  0.00    -0.354 N 
ATOM     43  C   UNL A   1      39.170  31.027  33.107  1.00  0.00     0.074 A 
ATOM     44  C   UNL A   1      37.971  31.812  32.912  1.00  0.00     0.031 C 
ATOM     45  C   UNL A   1      39.850  28.027  27.472  1.00  0.00     0.029 A 
ATOM     46  C   UNL A   1      40.751  27.987  28.620  1.00  0.00     0.049 A 
ATOM     47  H   UNL A   1      40.483  28.906  30.472  1.00  0.00     0.167 HD
ATOM     48  C   UNL A   1      39.908  31.042  34.243  1.00  0.00     0.034 A 
ATOM     49  C   UNL A   1      41.922  27.322  28.674  1.00  0.00     0.034 A 
ATOM     50  C   UNL A   1      41.081  30.237  34.450  1.00  0.00     0.049 A 
ATOM     51  C   UNL A   1      42.719  27.340  29.951  1.00  0.00     0.074 A 
ATOM     52  C   UNL A   1      41.850  30.111  35.593  1.00  0.00     0.029 A 
ATOM     53  N   UNL A   1      41.661  29.428  33.485  1.00  0.00    -0.354 N 
ATOM     54  N   UNL A   1      42.438  27.919  31.094  1.00  0.00    -0.248 NA
ATOM     55  C   UNL A   1      43.976  26.578  29.958  1.00  0.00     0.031 C 
ATOM     56  C   UNL A   1      42.910  29.240  35.311  1.00  0.00     0.029 A 
ATOM     57  C   UNL A   1      42.787  28.809  33.999  1.00  0.00     0.049 A 
ATOM     58  H   UNL A   1      41.322  29.311  32.567  1.00  0.00     0.167 HD
ATOM     59  C   UNL A   1      43.458  27.555  31.968  1.00  0.00     0.074 A 
ATOM     60  C   UNL A   1      44.355  26.692  31.224  1.00  0.00     0.031 C 
ATOM     61  C   UNL A   1      43.643  27.911  33.264  1.00  0.00     0.034 A 
BRANCH  48  62
ATOM     62  C   UNL A   1      39.424  31.925  35.363  1.00  0.00     0.023 A 
ATOM     63  C   UNL A   1      38.467  31.429  36.274  1.00  0.00     0.012 A 
ATOM     64  C   UNL A   1      39.908  33.238  35.522  1.00  0.00     0.148 A 
ATOM     65  C   UNL A   1      37.960  32.239  37.289  1.00  0.00     0.002 A 
ATOM     66  C   UNL A   1      39.432  34.026  36.565  1.00  0.00     0.091 A 
ATOM     67  F   UNL A   1      40.797  33.706  34.635  1.00  0.00    -0.205 F 
ATOM     68  C   UNL A   1      38.448  33.534  37.439  1.00  0.00     0.022 A 
BRANCH  66  69
ATOM     69  S   UNL A   1      40.056  35.680  36.881  1.00  0.00     0.127 S 
ATOM     70  O   UNL A   1      39.381  36.016  38.134  1.00  0.00    -0.237 OA
ATOM     71  O   UNL A   1      41.496  35.451  37.008  1.00  0.00    -0.237 OA
ATOM     72  O   UNL A   1      39.672  36.474  35.723  1.00  0.00    -0.744 OA
ENDBRANCH  66  69
ENDBRANCH  48  62
BRANCH  49  73
ATOM     73  C   UNL A   1      42.361  26.488  27.519  1.00  0.00     0.023 A 
ATOM     74  C   UNL A   1      43.153  27.084  26.515  1.00  0.00     0.012 A 
ATOM     75  C   UNL A   1      42.025  25.125  27.411  1.00  0.00     0.148 A 
ATOM     76  C   UNL A   1      43.576  26.345  25.411  1.00  0.00     0.002 A 
ATOM     77  C   UNL A   1      42.486  24.386  26.327  1.00  0.00     0.091 A 
ATOM     78  F   UNL A   1      41.268  24.581  28.375  1.00  0.00    -0.205 F 
ATOM     79  C   UNL A   1      43.250  24.996  25.320  1.00  0.00     0.022 A 
BRANCH  77  80
ATOM     80  S   UNL A   1      42.200  22.620  26.156  1.00  0.00     0.127 S 
ATOM     81  O   UNL A   1      42.838  22.337  24.874  1.00  0.00    -0.237 OA
ATOM     82  O   UNL A   1      42.900  22.091  27.325  1.00  0.00    -0.237 OA
ATOM     83  O   UNL A   1      40.750  22.451  26.183  1.00  0.00    -0.744 OA
ENDBRANCH  77  80
ENDBRANCH  49  73
BRANCH  61  84
ATOM     84  C   UNL A   1      44.842  27.342  33.980  1.00  0.00     0.023 A 
ATOM     85  C   UNL A   1      46.061  28.049  33.975  1.00  0.00     0.012 A 
ATOM     86  C   UNL A   1      44.743  26.140  34.709  1.00  0.00     0.148 A 
ATOM     87  C   UNL A   1      47.173  27.550  34.655  1.00  0.00     0.002 A 
ATOM     88  C   UNL A   1      45.840  25.676  35.426  1.00  0.00     0.091 A 
ATOM     89  F   UNL A   1      43.582  25.469  34.686  1.00  0.00    -0.205 F 
ATOM     90  C   UNL A   1      47.059  26.371  35.389  1.00  0.00     0.022 A 
BRANCH  88  91
ATOM     91  S   UNL A   1      45.749  24.223  36.479  1.00  0.00     0.127 S 
ATOM     92  O   UNL A   1      44.731  24.619  37.449  1.00  0.00    -0.237 OA
ATOM     93  O   UNL A   1      45.323  23.182  35.540  1.00  0.00    -0.237 OA
ATOM     94  O   UNL A   1      47.090  24.036  37.014  1.00  0.00    -0.744 OA
ENDBRANCH  88  91
ENDBRANCH  61  84
ENDBRANCH  35  36
ENDBRANCH  27  30
ENDBRANCH  25  26
ENDBRANCH   1  25
TORSDOF 17
ENDMDL
MODEL 2
REMARK VINA RESULT:     -11.7      2.386      8.677
REMARK SMILES COc1ccc(C(=O)c2ccccc2)cc1[C@@H](C)C(=O)NCCCNC(=O)c1ccc(-c2c3nc(c(-c4cccc(S(=O)(=O)[O-])c4F)c4ccc([nH]4)c(-c4cccc(S(=O)(=O)[O-])c4F)c4nc(c(-c5cccc(S(=O)(=O)[O-])c5F)c5ccc2[nH]5)C=C4)C=C3)cc1
REMARK SMILES IDX 23 1 22 2 21 3 19 4 20 5 17 7 18 8 16 9 3 10 4 11 5 12 15 13
REMARK SMILES IDX 6 14 2 15 1 16 7 17 8 18 9 19 10 20 14 21 11 22 13 23 12 24
REMARK SMILES IDX 24 25 25 26 26 27 27 29 28 30 29 31 90 32 30 33 89 34 31 35
REMARK SMILES IDX 32 36 33 37 83 38 34 39 88 40 82 41 84 42 35 43 87 44 81 45
REMARK SMILES IDX 80 46 36 48 68 49 48 50 67 51 49 52 52 53 66 54 85 55 50 56
REMARK SMILES IDX 51 57 65 59 86 60 53 61 37 62 38 63 46 64 39 65 41 66 47 67
REMARK SMILES IDX 40 68 42 69 43 70 44 71 45 72 69 73 70 74 78 75 71 76 73 77
REMARK SMILES IDX 79 78 72 79 74 80 75 81 76 82 77 83 54 84 55 85 63 86 56 87
REMARK SMILES IDX 58 88 64 89 57 90 59 91 60 92 61 93 62 94
REMARK H PARENT 21 6 25 28 84 47 52 58
REMARK Flexibility Score: inf
ROOT
ATOM      1  C   UNL A   1      31.287  32.009  26.462  1.00  0.00     0.042 C 
ENDROOT
BRANCH   1   2
ATOM      2  C   UNL A   1      31.418  30.790  25.554  1.00  0.00     0.117 C 
BRANCH   2   3
ATOM      3  N   UNL A   1      32.428  29.862  26.025  1.00  0.00    -0.356 N 
ATOM      4  C   UNL A   1      32.971  28.732  25.498  1.00  0.00     0.227 C 
ATOM      5  O   UNL A   1      33.787  28.146  26.222  1.00  0.00    -0.274 OA
ATOM      6  H   UNL A   1      32.796  30.098  26.907  1.00  0.00     0.163 HD
BRANCH   4   7
ATOM      7  C   UNL A   1      32.642  28.156  24.107  1.00  0.00     0.109 C 
ATOM      8  C   UNL A   1      33.079  28.992  22.907  1.00  0.00     0.023 C 
BRANCH   7   9
ATOM      9  C   UNL A   1      31.232  27.592  23.999  1.00  0.00     0.007 A 
ATOM     10  C   UNL A   1      30.927  26.244  24.258  1.00  0.00     0.122 A 
ATOM     11  C   UNL A   1      29.608  25.782  24.178  1.00  0.00     0.047 A 
ATOM     12  C   UNL A   1      28.573  26.648  23.821  1.00  0.00     0.016 A 
ATOM     13  C   UNL A   1      30.169  28.431  23.603  1.00  0.00     0.020 A 
ATOM     14  C   UNL A   1      28.848  27.979  23.501  1.00  0.00     0.023 A 
BRANCH  10  15
ATOM     15  O   UNL A   1      31.886  25.275  24.399  1.00  0.00    -0.496 OA
ATOM     16  C   UNL A   1      32.082  24.835  25.741  1.00  0.00     0.278 C 
ENDBRANCH  10  15
BRANCH  14  17
ATOM     17  C   UNL A   1      27.707  28.857  23.096  1.00  0.00     0.193 C 
ATOM     18  O   UNL A   1      26.558  28.456  23.250  1.00  0.00    -0.289 OA
BRANCH  17  19
ATOM     19  C   UNL A   1      27.893  30.229  22.566  1.00  0.00     0.022 A 
ATOM     20  C   UNL A   1      27.985  31.278  23.486  1.00  0.00     0.012 A 
ATOM     21  C   UNL A   1      27.948  30.500  21.192  1.00  0.00     0.012 A 
ATOM     22  C   UNL A   1      28.194  32.581  23.036  1.00  0.00     0.001 A 
ATOM     23  C   UNL A   1      28.174  31.807  20.749  1.00  0.00     0.001 A 
ATOM     24  C   UNL A   1      28.309  32.844  21.673  1.00  0.00     0.000 A 
ENDBRANCH  17  19
ENDBRANCH  14  17
ENDBRANCH   7   9
ENDBRANCH   4   7
ENDBRANCH   2   3
ENDBRANCH   1   2
BRANCH   1  25
ATOM     25  C   UNL A   1      32.495  32.310  27.336  1.00  0.00     0.118 C 
BRANCH  25  26
ATOM     26  N   UNL A   1      32.659  33.735  27.589  1.00  0.00    -0.352 N 
ATOM     27  C   UNL A   1      33.510  34.435  28.413  1.00  0.00     0.251 C 
ATOM     28  H   UNL A   1      32.045  34.304  27.073  1.00  0.00     0.163 HD
ATOM     29  O   UNL A   1      33.290  35.635  28.574  1.00  0.00    -0.269 OA
BRANCH  27  30
ATOM     30  C   UNL A   1      34.659  33.806  29.119  1.00  0.00     0.039 A 
ATOM     31  C   UNL A   1      34.392  32.787  30.048  1.00  0.00     0.014 A 
ATOM     32  C   UNL A   1      35.978  34.227  28.947  1.00  0.00     0.014 A 
ATOM     33  C   UNL A   1      35.436  32.163  30.744  1.00  0.00     0.010 A 
ATOM     34  C   UNL A   1      37.025  33.549  29.572  1.00  0.00     0.010 A 
ATOM     35  C   UNL A   1      36.765  32.527  30.496  1.00  0.00    -0.014 A 
BRANCH  35  36
ATOM     36  C   UNL A   1      37.893  31.915  31.244  1.00  0.00     0.031 A 
ATOM     37  C   UNL A   1      38.654  30.763  30.638  1.00  0.00     0.074 A 
ATOM     38  C   UNL A   1      38.193  32.333  32.489  1.00  0.00     0.049 A 
ATOM     39  N   UNL A   1      39.658  30.085  31.130  1.00  0.00    -0.248 NA
ATOM     40  C   UNL A   1      38.208  30.300  29.314  1.00  0.00     0.031 C 
ATOM     41  C   UNL A   1      37.494  33.391  33.219  1.00  0.00     0.029 A 
ATOM     42  N   UNL A   1      39.151  31.899  33.371  1.00  0.00    -0.354 N 
ATOM     43  C   UNL A   1      39.944  29.099  30.193  1.00  0.00     0.074 A 
ATOM     44  C   UNL A   1      38.976  29.237  29.126  1.00  0.00     0.031 C 
ATOM     45  C   UNL A   1      38.050  33.530  34.434  1.00  0.00     0.029 A 
ATOM     46  C   UNL A   1      39.136  32.564  34.576  1.00  0.00     0.049 A 
ATOM     47  H   UNL A   1      39.789  31.179  33.161  1.00  0.00     0.167 HD
ATOM     48  C   UNL A   1      40.941  28.182  30.194  1.00  0.00     0.034 A 
ATOM     49  C   UNL A   1      39.917  32.418  35.664  1.00  0.00     0.034 A 
ATOM     50  C   UNL A   1      41.924  28.066  31.237  1.00  0.00     0.049 A 
ATOM     51  C   UNL A   1      41.029  31.404  35.638  1.00  0.00     0.074 A 
ATOM     52  C   UNL A   1      43.026  27.232  31.294  1.00  0.00     0.029 A 
ATOM     53  N   UNL A   1      41.915  28.800  32.414  1.00  0.00    -0.354 N 
ATOM     54  N   UNL A   1      41.395  30.599  34.669  1.00  0.00    -0.248 NA
ATOM     55  C   UNL A   1      41.864  31.306  36.845  1.00  0.00     0.031 C 
ATOM     56  C   UNL A   1      43.672  27.447  32.519  1.00  0.00     0.029 A 
ATOM     57  C   UNL A   1      42.984  28.431  33.212  1.00  0.00     0.049 A 
ATOM     58  H   UNL A   1      41.246  29.483  32.647  1.00  0.00     0.167 HD
ATOM     59  C   UNL A   1      42.526  29.934  35.130  1.00  0.00     0.074 A 
ATOM     60  C   UNL A   1      42.794  30.442  36.461  1.00  0.00     0.031 C 
ATOM     61  C   UNL A   1      43.269  28.981  34.514  1.00  0.00     0.034 A 
BRANCH  48  62
ATOM     62  C   UNL A   1      41.039  27.273  28.997  1.00  0.00     0.023 A 
ATOM     63  C   UNL A   1      40.270  26.090  28.959  1.00  0.00     0.012 A 
ATOM     64  C   UNL A   1      41.883  27.580  27.912  1.00  0.00     0.148 A 
ATOM     65  C   UNL A   1      40.379  25.202  27.890  1.00  0.00     0.002 A 
ATOM     66  C   UNL A   1      41.951  26.712  26.826  1.00  0.00     0.091 A 
ATOM     67  F   UNL A   1      42.626  28.693  27.971  1.00  0.00    -0.205 F 
ATOM     68  C   UNL A   1      41.213  25.517  26.821  1.00  0.00     0.022 A 
BRANCH  66  69
ATOM     69  S   UNL A   1      42.941  27.070  25.372  1.00  0.00     0.127 S 
ATOM     70  O   UNL A   1      44.260  27.297  25.960  1.00  0.00    -0.237 OA
ATOM     71  O   UNL A   1      42.824  25.831  24.602  1.00  0.00    -0.237 OA
ATOM     72  O   UNL A   1      42.319  28.229  24.747  1.00  0.00    -0.744 OA
ENDBRANCH  66  69
ENDBRANCH  48  62
BRANCH  49  73
ATOM     73  C   UNL A   1      39.751  33.331  36.831  1.00  0.00     0.023 A 
ATOM     74  C   UNL A   1      38.671  33.115  37.711  1.00  0.00     0.012 A 
ATOM     75  C   UNL A   1      40.647  34.386  37.087  1.00  0.00     0.148 A 
ATOM     76  C   UNL A   1      38.470  33.951  38.809  1.00  0.00     0.002 A 
ATOM     77  C   UNL A   1      40.463  35.190  38.207  1.00  0.00     0.091 A 
ATOM     78  F   UNL A   1      41.664  34.575  36.234  1.00  0.00    -0.205 F 
ATOM     79  C   UNL A   1      39.368  34.982  39.061  1.00  0.00     0.022 A 
BRANCH  77  80
ATOM     80  S   UNL A   1      41.610  36.491  38.677  1.00  0.00     0.127 S 
ATOM     81  O   UNL A   1      42.739  35.722  39.191  1.00  0.00    -0.237 OA
ATOM     82  O   UNL A   1      41.846  37.155  37.396  1.00  0.00    -0.237 OA
ATOM     83  O   UNL A   1      40.903  37.300  39.665  1.00  0.00    -0.744 OA
ENDBRANCH  77  80
ENDBRANCH  49  73
BRANCH  61  84
ATOM     84  C   UNL A   1      44.469  28.444  35.253  1.00  0.00     0.023 A 
ATOM     85  C   UNL A   1      45.748  28.976  34.993  1.00  0.00     0.012 A 
ATOM     86  C   UNL A   1      44.319  27.460  36.250  1.00  0.00     0.148 A 
ATOM     87  C   UNL A   1      46.864  28.509  35.688  1.00  0.00     0.002 A 
ATOM     88  C   UNL A   1      45.429  27.037  36.974  1.00  0.00     0.091 A 
ATOM     89  F   UNL A   1      43.099  26.949  36.471  1.00  0.00    -0.205 F 
ATOM     90  C   UNL A   1      46.703  27.549  36.685  1.00  0.00     0.022 A 
BRANCH  88  91
ATOM     91  S   UNL A   1      45.293  25.881  38.343  1.00  0.00     0.127 S 
ATOM     92  O   UNL A   1      44.828  24.671  37.668  1.00  0.00    -0.237 OA
ATOM     93  O   UNL A   1      46.671  25.813  38.833  1.00  0.00    -0.237 OA
ATOM     94  O   UNL A   1      44.352  26.482  39.278  1.00  0.00    -0.744 OA
ENDBRANCH  88  91
ENDBRANCH  61  84
ENDBRANCH  35  36
ENDBRANCH  27  30
ENDBRANCH  25  26
ENDBRANCH   1  25
TORSDOF 17
ENDMDL
MODEL 3
REMARK VINA RESULT:     -11.7      2.486      8.037
REMARK SMILES COc1ccc(C(=O)c2ccccc2)cc1[C@@H](C)C(=O)NCCCNC(=O)c1ccc(-c2c3nc(c(-c4cccc(S(=O)(=O)[O-])c4F)c4ccc([nH]4)c(-c4cccc(S(=O)(=O)[O-])c4F)c4nc(c(-c5cccc(S(=O)(=O)[O-])c5F)c5ccc2[nH]5)C=C4)C=C3)cc1
REMARK SMILES IDX 23 1 22 2 21 3 19 4 20 5 17 7 18 8 16 9 3 10 4 11 5 12 15 13
REMARK SMILES IDX 6 14 2 15 1 16 7 17 8 18 9 19 10 20 14 21 11 22 13 23 12 24
REMARK SMILES IDX 24 25 25 26 26 27 27 29 28 30 29 31 90 32 30 33 89 34 31 35
REMARK SMILES IDX 32 36 33 37 83 38 34 39 88 40 82 41 84 42 35 43 87 44 81 45
REMARK SMILES IDX 80 46 36 48 68 49 48 50 67 51 49 52 52 53 66 54 85 55 50 56
REMARK SMILES IDX 51 57 65 59 86 60 53 61 37 62 38 63 46 64 39 65 41 66 47 67
REMARK SMILES IDX 40 68 42 69 43 70 44 71 45 72 69 73 70 74 78 75 71 76 73 77
REMARK SMILES IDX 79 78 72 79 74 80 75 81 76 82 77 83 54 84 55 85 63 86 56 87
REMARK SMILES IDX 58 88 64 89 57 90 59 91 60 92 61 93 62 94
REMARK H PARENT 21 6 25 28 84 47 52 58
REMARK Flexibility Score: inf
ROOT
ATOM      1  C   UNL A   1      31.181  32.307  26.495  1.00  0.00     0.042 C 
ENDROOT
BRANCH   1   2
ATOM      2  C   UNL A   1      31.246  30.978  25.749  1.00  0.00     0.117 C 
BRANCH   2   3
ATOM      3  N   UNL A   1      32.547  30.347  25.869  1.00  0.00    -0.356 N 
ATOM      4  C   UNL A   1      32.954  29.049  25.866  1.00  0.00     0.227 C 
ATOM      5  O   UNL A   1      34.165  28.871  26.055  1.00  0.00    -0.274 OA
ATOM      6  H   UNL A   1      33.286  30.989  25.973  1.00  0.00     0.163 HD
BRANCH   4   7
ATOM      7  C   UNL A   1      32.033  27.832  25.653  1.00  0.00     0.109 C 
ATOM      8  C   UNL A   1      31.790  26.946  26.872  1.00  0.00     0.023 C 
BRANCH   7   9
ATOM      9  C   UNL A   1      32.320  27.067  24.368  1.00  0.00     0.007 A 
ATOM     10  C   UNL A   1      31.819  27.463  23.116  1.00  0.00     0.122 A 
ATOM     11  C   UNL A   1      32.140  26.745  21.959  1.00  0.00     0.047 A 
ATOM     12  C   UNL A   1      32.950  25.610  22.029  1.00  0.00     0.016 A 
ATOM     13  C   UNL A   1      33.102  25.894  24.411  1.00  0.00     0.020 A 
ATOM     14  C   UNL A   1      33.417  25.154  23.264  1.00  0.00     0.023 A 
BRANCH  10  15
ATOM     15  O   UNL A   1      30.850  28.421  22.968  1.00  0.00    -0.496 OA
ATOM     16  C   UNL A   1      29.517  27.930  23.079  1.00  0.00     0.278 C 
ENDBRANCH  10  15
BRANCH  14  17
ATOM     17  C   UNL A   1      34.255  23.917  23.288  1.00  0.00     0.193 C 
ATOM     18  O   UNL A   1      35.471  24.014  23.155  1.00  0.00    -0.289 OA
BRANCH  17  19
ATOM     19  C   UNL A   1      33.694  22.566  23.526  1.00  0.00     0.022 A 
ATOM     20  C   UNL A   1      34.274  21.785  24.532  1.00  0.00     0.012 A 
ATOM     21  C   UNL A   1      32.637  22.049  22.765  1.00  0.00     0.012 A 
ATOM     22  C   UNL A   1      33.758  20.522  24.815  1.00  0.00     0.001 A 
ATOM     23  C   UNL A   1      32.115  20.787  23.065  1.00  0.00     0.001 A 
ATOM     24  C   UNL A   1      32.668  20.030  24.099  1.00  0.00     0.000 A 
ENDBRANCH  17  19
ENDBRANCH  14  17
ENDBRANCH   7   9
ENDBRANCH   4   7
ENDBRANCH   2   3
ENDBRANCH   1   2
BRANCH   1  25
ATOM     25  C   UNL A   1      32.456  32.721  27.212  1.00  0.00     0.118 C 
BRANCH  25  26
ATOM     26  N   UNL A   1      32.443  34.123  27.609  1.00  0.00    -0.352 N 
ATOM     27  C   UNL A   1      33.121  34.813  28.587  1.00  0.00     0.251 C 
ATOM     28  H   UNL A   1      31.833  34.682  27.077  1.00  0.00     0.163 HD
ATOM     29  O   UNL A   1      32.762  35.965  28.827  1.00  0.00    -0.269 OA
BRANCH  27  30
ATOM     30  C   UNL A   1      34.245  34.225  29.366  1.00  0.00     0.039 A 
ATOM     31  C   UNL A   1      35.558  34.477  28.934  1.00  0.00     0.014 A 
ATOM     32  C   UNL A   1      34.049  33.386  30.463  1.00  0.00     0.014 A 
ATOM     33  C   UNL A   1      36.653  33.944  29.629  1.00  0.00     0.010 A 
ATOM     34  C   UNL A   1      35.137  32.927  31.207  1.00  0.00     0.010 A 
ATOM     35  C   UNL A   1      36.450  33.180  30.785  1.00  0.00    -0.014 A 
BRANCH  35  36
ATOM     36  C   UNL A   1      37.585  32.567  31.522  1.00  0.00     0.031 A 
ATOM     37  C   UNL A   1      38.333  31.409  30.912  1.00  0.00     0.074 A 
ATOM     38  C   UNL A   1      37.901  32.989  32.761  1.00  0.00     0.049 A 
ATOM     39  N   UNL A   1      39.341  30.729  31.394  1.00  0.00    -0.248 NA
ATOM     40  C   UNL A   1      37.870  30.941  29.595  1.00  0.00     0.031 C 
ATOM     41  C   UNL A   1      37.216  34.053  33.495  1.00  0.00     0.029 A 
ATOM     42  N   UNL A   1      38.869  32.556  33.633  1.00  0.00    -0.354 N 
ATOM     43  C   UNL A   1      39.611  29.738  30.458  1.00  0.00     0.074 A 
ATOM     44  C   UNL A   1      38.631  29.876  29.403  1.00  0.00     0.031 C 
ATOM     45  C   UNL A   1      37.787  34.196  34.702  1.00  0.00     0.029 A 
ATOM     46  C   UNL A   1      38.871  33.225  34.835  1.00  0.00     0.049 A 
ATOM     47  H   UNL A   1      39.502  31.832  33.419  1.00  0.00     0.167 HD
ATOM     48  C   UNL A   1      40.606  28.817  30.451  1.00  0.00     0.034 A 
ATOM     49  C   UNL A   1      39.665  33.082  35.914  1.00  0.00     0.034 A 
ATOM     50  C   UNL A   1      41.601  28.702  31.483  1.00  0.00     0.049 A 
ATOM     51  C   UNL A   1      40.773  32.063  35.879  1.00  0.00     0.074 A 
ATOM     52  C   UNL A   1      42.700  27.864  31.530  1.00  0.00     0.029 A 
ATOM     53  N   UNL A   1      41.609  29.441  32.655  1.00  0.00    -0.354 N 
ATOM     54  N   UNL A   1      41.123  31.253  34.909  1.00  0.00    -0.248 NA
ATOM     55  C   UNL A   1      41.622  31.967  37.076  1.00  0.00     0.031 C 
ATOM     56  C   UNL A   1      43.362  28.082  32.745  1.00  0.00     0.029 A 
ATOM     57  C   UNL A   1      42.686  29.072  33.442  1.00  0.00     0.049 A 
ATOM     58  H   UNL A   1      40.945  30.129  32.894  1.00  0.00     0.167 HD
ATOM     59  C   UNL A   1      42.258  30.585  35.359  1.00  0.00     0.074 A 
ATOM     60  C   UNL A   1      42.544  31.098  36.684  1.00  0.00     0.031 C 
ATOM     61  C   UNL A   1      42.990  29.627  34.738  1.00  0.00     0.034 A 
BRANCH  48  62
ATOM     62  C   UNL A   1      40.685  27.903  29.257  1.00  0.00     0.023 A 
ATOM     63  C   UNL A   1      39.905  26.727  29.230  1.00  0.00     0.012 A 
ATOM     64  C   UNL A   1      41.523  28.197  28.164  1.00  0.00     0.148 A 
ATOM     65  C   UNL A   1      39.996  25.834  28.163  1.00  0.00     0.002 A 
ATOM     66  C   UNL A   1      41.574  27.324  27.081  1.00  0.00     0.091 A 
ATOM     67  F   UNL A   1      42.277  29.304  28.212  1.00  0.00    -0.205 F 
ATOM     68  C   UNL A   1      40.824  26.137  27.087  1.00  0.00     0.022 A 
BRANCH  66  69
ATOM     69  S   UNL A   1      42.555  27.668  25.617  1.00  0.00     0.127 S 
ATOM     70  O   UNL A   1      43.904  27.737  26.176  1.00  0.00    -0.237 OA
ATOM     71  O   UNL A   1      42.301  26.489  24.787  1.00  0.00    -0.237 OA
ATOM     72  O   UNL A   1      42.030  28.912  25.073  1.00  0.00    -0.744 OA
ENDBRANCH  66  69
ENDBRANCH  48  62
BRANCH  49  73
ATOM     73  C   UNL A   1      39.517  34.001  37.078  1.00  0.00     0.023 A 
ATOM     74  C   UNL A   1      39.946  35.337  36.945  1.00  0.00     0.012 A 
ATOM     75  C   UNL A   1      38.948  33.579  38.295  1.00  0.00     0.148 A 
ATOM     76  C   UNL A   1      39.838  36.229  38.011  1.00  0.00     0.002 A 
ATOM     77  C   UNL A   1      38.806  34.485  39.340  1.00  0.00     0.091 A 
ATOM     78  F   UNL A   1      38.552  32.303  38.400  1.00  0.00    -0.205 F 
ATOM     79  C   UNL A   1      39.262  35.806  39.205  1.00  0.00     0.022 A 
BRANCH  77  80
ATOM     80  S   UNL A   1      37.998  34.072  40.890  1.00  0.00     0.127 S 
ATOM     81  O   UNL A   1      39.025  33.282  41.562  1.00  0.00    -0.237 OA
ATOM     82  O   UNL A   1      37.763  35.396  41.465  1.00  0.00    -0.237 OA
ATOM     83  O   UNL A   1      36.789  33.343  40.522  1.00  0.00    -0.744 OA
ENDBRANCH  77  80
ENDBRANCH  49  73
BRANCH  61  84
ATOM     84  C   UNL A   1      44.196  29.089  35.465  1.00  0.00     0.023 A 
ATOM     85  C   UNL A   1      45.439  29.741  35.339  1.00  0.00     0.012 A 
ATOM     86  C   UNL A   1      44.084  27.976  36.322  1.00  0.00     0.148 A 
ATOM     87  C   UNL A   1      46.559  29.273  36.027  1.00  0.00     0.002 A 
ATOM     88  C   UNL A   1      45.192  27.546  37.043  1.00  0.00     0.091 A 
ATOM     89  F   UNL A   1      42.900  27.353  36.414  1.00  0.00    -0.205 F 
ATOM     90  C   UNL A   1      46.433  28.183  36.886  1.00  0.00     0.022 A 
BRANCH  88  91
ATOM     91  S   UNL A   1      45.092  26.216  38.247  1.00  0.00     0.127 S 
ATOM     92  O   UNL A   1      44.276  26.823  39.297  1.00  0.00    -0.237 OA
ATOM     93  O   UNL A   1      44.423  25.157  37.490  1.00  0.00    -0.237 OA
ATOM     94  O   UNL A   1      46.468  25.912  38.617  1.00  0.00    -0.744 OA
ENDBRANCH  88  91
ENDBRANCH  61  84
ENDBRANCH  35  36
ENDBRANCH  27  30
ENDBRANCH  25  26
ENDBRANCH   1  25
TORSDOF 17
ENDMDL
