MODEL 1
REMARK VINA RESULT:     -10.9      0.000      0.000
REMARK SMILES CC(C)CN(CC(N)=O)C(=O)N1CC[C@H](C(=O)NCCCNC(=O)c2ccc(-c3c4nc(c(-c5cccc(S(=O)(=O)[O-])c5F)c5ccc([nH]5)c(-c5cccc(S(=O)(=O)[O-])c5F)c5nc(c(-c6cccc(S(=O)(=O)[O-])c6F)c6ccc3[nH]6)C=C5)C=C4)cc2)[C@@H]1C
REMARK SMILES IDX 19 1 18 2 16 3 17 4 15 6 12 7 13 8 88 9 14 10 89 11 10 12
REMARK SMILES IDX 11 13 5 14 4 15 2 16 1 17 3 18 6 19 7 20 8 21 9 22 20 25
REMARK SMILES IDX 21 26 22 27 23 28 24 30 25 31 26 32 87 33 27 34 86 35 28 36
REMARK SMILES IDX 29 37 30 38 80 39 31 40 85 41 79 42 81 43 32 44 84 45 78 46
REMARK SMILES IDX 77 47 33 49 65 50 45 51 64 52 46 53 49 54 63 55 82 56 47 57
REMARK SMILES IDX 48 58 62 60 83 61 50 62 34 63 35 64 43 65 36 66 38 67 44 68
REMARK SMILES IDX 37 69 39 70 40 71 41 72 42 73 66 74 67 75 75 76 68 77 70 78
REMARK SMILES IDX 76 79 69 80 71 81 72 82 73 83 74 84 51 85 52 86 60 87 53 88
REMARK SMILES IDX 55 89 61 90 54 91 56 92 57 93 58 94 59 95
REMARK H PARENT 18 5 8 23 8 24 22 29 81 48 49 59
REMARK Flexibility Score: inf
ROOT
ATOM      1  C   UNL A   1      36.795  20.513  24.691  1.00  0.00     0.117 C 
ENDROOT
BRANCH   1   2
ATOM      2  N   UNL A   1      35.509  20.000  25.138  1.00  0.00    -0.356 N 
ATOM      3  C   UNL A   1      34.246  20.502  25.038  1.00  0.00     0.225 C 
ATOM      4  O   UNL A   1      33.346  19.843  25.563  1.00  0.00    -0.275 OA
ATOM      5  H   UNL A   1      35.561  19.131  25.597  1.00  0.00     0.163 HD
BRANCH   3   6
ATOM      6  C   UNL A   1      33.963  21.752  24.217  1.00  0.00     0.102 C 
ATOM      7  N   UNL A   1      32.700  23.757  24.554  1.00  0.00    -0.321 N 
ATOM      8  C   UNL A   1      31.747  22.720  24.240  1.00  0.00     0.122 C 
ATOM      9  C   UNL A   1      33.962  23.128  24.929  1.00  0.00     0.096 C 
ATOM     10  C   UNL A   1      32.585  21.689  23.516  1.00  0.00     0.037 C 
ATOM     11  C   UNL A   1      34.144  23.149  26.445  1.00  0.00     0.032 C 
BRANCH   7  12
ATOM     12  C   UNL A   1      32.246  24.900  25.178  1.00  0.00     0.320 C 
ATOM     13  O   UNL A   1      31.446  24.786  26.104  1.00  0.00    -0.248 OA
BRANCH  12  14
ATOM     14  N   UNL A   1      32.742  26.117  24.750  1.00  0.00    -0.315 N 
BRANCH  14  15
ATOM     15  C   UNL A   1      33.752  26.785  25.587  1.00  0.00     0.125 C 
BRANCH  15  16
ATOM     16  C   UNL A   1      33.308  28.159  26.149  1.00  0.00     0.002 C 
ATOM     17  C   UNL A   1      32.213  28.056  27.216  1.00  0.00     0.009 C 
ATOM     18  C   UNL A   1      34.510  28.880  26.767  1.00  0.00     0.009 C 
ENDBRANCH  15  16
ENDBRANCH  14  15
BRANCH  14  19
ATOM     19  C   UNL A   1      32.326  26.820  23.533  1.00  0.00     0.221 C 
BRANCH  19  20
ATOM     20  C   UNL A   1      33.398  26.887  22.429  1.00  0.00     0.237 C 
ATOM     21  N   UNL A   1      33.860  28.145  22.128  1.00  0.00    -0.368 N 
ATOM     22  O   UNL A   1      33.865  25.923  21.835  1.00  0.00    -0.273 OA
ATOM     23  H   UNL A   1      33.493  28.928  22.597  1.00  0.00     0.159 HD
ATOM     24  H   UNL A   1      34.557  28.262  21.444  1.00  0.00     0.159 HD
ENDBRANCH  19  20
ENDBRANCH  14  19
ENDBRANCH  12  14
ENDBRANCH   7  12
ENDBRANCH   3   6
ENDBRANCH   1   2
BRANCH   1  25
ATOM     25  C   UNL A   1      37.935  19.536  24.985  1.00  0.00     0.042 C 
BRANCH  25  26
ATOM     26  C   UNL A   1      39.053  20.101  25.847  1.00  0.00     0.118 C 
BRANCH  26  27
ATOM     27  N   UNL A   1      40.175  19.191  25.948  1.00  0.00    -0.352 N 
ATOM     28  C   UNL A   1      41.519  19.457  26.076  1.00  0.00     0.251 C 
ATOM     29  H   UNL A   1      39.941  18.234  25.922  1.00  0.00     0.163 HD
ATOM     30  O   UNL A   1      42.318  18.539  25.899  1.00  0.00    -0.269 OA
BRANCH  28  31
ATOM     31  C   UNL A   1      42.018  20.819  26.403  1.00  0.00     0.039 A 
ATOM     32  C   UNL A   1      42.225  21.728  25.359  1.00  0.00     0.014 A 
ATOM     33  C   UNL A   1      42.355  21.193  27.706  1.00  0.00     0.014 A 
ATOM     34  C   UNL A   1      42.733  23.007  25.626  1.00  0.00     0.010 A 
ATOM     35  C   UNL A   1      42.762  22.498  27.983  1.00  0.00     0.010 A 
ATOM     36  C   UNL A   1      42.990  23.413  26.944  1.00  0.00    -0.014 A 
BRANCH  36  37
ATOM     37  C   UNL A   1      43.560  24.752  27.261  1.00  0.00     0.031 A 
ATOM     38  C   UNL A   1      42.656  25.848  27.776  1.00  0.00     0.074 A 
ATOM     39  C   UNL A   1      44.863  25.016  27.025  1.00  0.00     0.049 A 
ATOM     40  N   UNL A   1      42.923  27.109  27.998  1.00  0.00    -0.248 NA
ATOM     41  C   UNL A   1      41.254  25.483  28.051  1.00  0.00     0.031 C 
ATOM     42  C   UNL A   1      45.836  24.068  26.480  1.00  0.00     0.029 A 
ATOM     43  N   UNL A   1      45.585  26.173  27.189  1.00  0.00    -0.354 N 
ATOM     44  C   UNL A   1      41.723  27.692  28.393  1.00  0.00     0.074 A 
ATOM     45  C   UNL A   1      40.716  26.656  28.345  1.00  0.00     0.031 C 
ATOM     46  C   UNL A   1      47.026  24.680  26.355  1.00  0.00     0.029 A 
ATOM     47  C   UNL A   1      46.896  26.071  26.777  1.00  0.00     0.049 A 
ATOM     48  H   UNL A   1      45.202  26.998  27.566  1.00  0.00     0.167 HD
ATOM     49  C   UNL A   1      41.483  28.962  28.798  1.00  0.00     0.034 A 
ATOM     50  C   UNL A   1      47.876  26.996  26.735  1.00  0.00     0.034 A 
ATOM     51  C   UNL A   1      42.496  29.975  28.910  1.00  0.00     0.049 A 
ATOM     52  C   UNL A   1      47.587  28.393  27.224  1.00  0.00     0.074 A 
ATOM     53  C   UNL A   1      42.364  31.276  29.365  1.00  0.00     0.029 A 
ATOM     54  N   UNL A   1      43.830  29.798  28.582  1.00  0.00    -0.354 N 
ATOM     55  N   UNL A   1      46.473  28.886  27.707  1.00  0.00    -0.248 NA
ATOM     56  C   UNL A   1      48.703  29.352  27.198  1.00  0.00     0.031 C 
ATOM     57  C   UNL A   1      43.620  31.887  29.306  1.00  0.00     0.029 A 
ATOM     58  C   UNL A   1      44.536  30.960  28.834  1.00  0.00     0.049 A 
ATOM     59  H   UNL A   1      44.218  28.968  28.221  1.00  0.00     0.167 HD
ATOM     60  C   UNL A   1      46.767  30.191  28.088  1.00  0.00     0.074 A 
ATOM     61  C   UNL A   1      48.168  30.408  27.795  1.00  0.00     0.031 C 
ATOM     62  C   UNL A   1      45.948  31.131  28.619  1.00  0.00     0.034 A 
BRANCH  49  63
ATOM     63  C   UNL A   1      40.082  29.312  29.230  1.00  0.00     0.023 A 
ATOM     64  C   UNL A   1      39.129  29.669  28.254  1.00  0.00     0.012 A 
ATOM     65  C   UNL A   1      39.685  29.209  30.578  1.00  0.00     0.148 A 
ATOM     66  C   UNL A   1      37.813  29.948  28.614  1.00  0.00     0.002 A 
ATOM     67  C   UNL A   1      38.359  29.446  30.923  1.00  0.00     0.091 A 
ATOM     68  F   UNL A   1      40.607  28.880  31.493  1.00  0.00    -0.205 F 
ATOM     69  C   UNL A   1      37.425  29.825  29.944  1.00  0.00     0.022 A 
BRANCH  67  70
ATOM     70  S   UNL A   1      37.734  29.238  32.594  1.00  0.00     0.127 S 
ATOM     71  O   UNL A   1      38.686  30.037  33.366  1.00  0.00    -0.237 OA
ATOM     72  O   UNL A   1      36.393  29.816  32.495  1.00  0.00    -0.237 OA
ATOM     73  O   UNL A   1      37.764  27.808  32.864  1.00  0.00    -0.744 OA
ENDBRANCH  67  70
ENDBRANCH  49  63
BRANCH  50  74
ATOM     74  C   UNL A   1      49.247  26.629  26.272  1.00  0.00     0.023 A 
ATOM     75  C   UNL A   1      50.067  25.845  27.108  1.00  0.00     0.012 A 
ATOM     76  C   UNL A   1      49.750  27.061  25.030  1.00  0.00     0.148 A 
ATOM     77  C   UNL A   1      51.377  25.539  26.738  1.00  0.00     0.002 A 
ATOM     78  C   UNL A   1      51.038  26.706  24.644  1.00  0.00     0.091 A 
ATOM     79  F   UNL A   1      48.964  27.820  24.253  1.00  0.00    -0.205 F 
ATOM     80  C   UNL A   1      51.861  25.962  25.504  1.00  0.00     0.022 A 
BRANCH  78  81
ATOM     81  S   UNL A   1      51.692  27.107  23.019  1.00  0.00     0.127 S 
ATOM     82  O   UNL A   1      50.564  26.767  22.152  1.00  0.00    -0.237 OA
ATOM     83  O   UNL A   1      51.961  28.541  23.141  1.00  0.00    -0.237 OA
ATOM     84  O   UNL A   1      52.883  26.287  22.870  1.00  0.00    -0.744 OA
ENDBRANCH  78  81
ENDBRANCH  50  74
BRANCH  62  85
ATOM     85  C   UNL A   1      46.547  32.461  28.991  1.00  0.00     0.023 A 
ATOM     86  C   UNL A   1      47.119  32.644  30.265  1.00  0.00     0.012 A 
ATOM     87  C   UNL A   1      46.624  33.499  28.041  1.00  0.00     0.148 A 
ATOM     88  C   UNL A   1      47.735  33.850  30.596  1.00  0.00     0.002 A 
ATOM     89  C   UNL A   1      47.281  34.679  28.361  1.00  0.00     0.091 A 
ATOM     90  F   UNL A   1      46.057  33.309  26.840  1.00  0.00    -0.205 F 
ATOM     91  C   UNL A   1      47.828  34.861  29.642  1.00  0.00     0.022 A 
BRANCH  89  92
ATOM     92  S   UNL A   1      47.534  35.997  27.167  1.00  0.00     0.127 S 
ATOM     93  O   UNL A   1      47.890  35.246  25.965  1.00  0.00    -0.237 OA
ATOM     94  O   UNL A   1      46.216  36.632  27.121  1.00  0.00    -0.237 OA
ATOM     95  O   UNL A   1      48.591  36.838  27.714  1.00  0.00    -0.744 OA
ENDBRANCH  89  92
ENDBRANCH  62  85
ENDBRANCH  36  37
ENDBRANCH  28  31
ENDBRANCH  26  27
ENDBRANCH  25  26
ENDBRANCH   1  25
TORSDOF 19
ENDMDL
MODEL 2
REMARK VINA RESULT:     -10.9      1.565      2.226
REMARK SMILES CC(C)CN(CC(N)=O)C(=O)N1CC[C@H](C(=O)NCCCNC(=O)c2ccc(-c3c4nc(c(-c5cccc(S(=O)(=O)[O-])c5F)c5ccc([nH]5)c(-c5cccc(S(=O)(=O)[O-])c5F)c5nc(c(-c6cccc(S(=O)(=O)[O-])c6F)c6ccc3[nH]6)C=C5)C=C4)cc2)[C@@H]1C
REMARK SMILES IDX 19 1 18 2 16 3 17 4 15 6 12 7 13 8 88 9 14 10 89 11 10 12
REMARK SMILES IDX 11 13 5 14 4 15 2 16 1 17 3 18 6 19 7 20 8 21 9 22 20 25
REMARK SMILES IDX 21 26 22 27 23 28 24 30 25 31 26 32 87 33 27 34 86 35 28 36
REMARK SMILES IDX 29 37 30 38 80 39 31 40 85 41 79 42 81 43 32 44 84 45 78 46
REMARK SMILES IDX 77 47 33 49 65 50 45 51 64 52 46 53 49 54 63 55 82 56 47 57
REMARK SMILES IDX 48 58 62 60 83 61 50 62 34 63 35 64 43 65 36 66 38 67 44 68
REMARK SMILES IDX 37 69 39 70 40 71 41 72 42 73 66 74 67 75 75 76 68 77 70 78
REMARK SMILES IDX 76 79 69 80 71 81 72 82 73 83 74 84 51 85 52 86 60 87 53 88
REMARK SMILES IDX 55 89 61 90 54 91 56 92 57 93 58 94 59 95
REMARK H PARENT 18 5 8 23 8 24 22 29 81 48 49 59
REMARK Flexibility Score: inf
ROOT
ATOM      1  C   UNL A   1      36.783  20.848  24.819  1.00  0.00     0.117 C 
ENDROOT
BRANCH   1   2
ATOM      2  N   UNL A   1      35.545  20.163  25.159  1.00  0.00    -0.356 N 
ATOM      3  C   UNL A   1      34.243  20.557  25.101  1.00  0.00     0.225 C 
ATOM      4  O   UNL A   1      33.403  19.752  25.507  1.00  0.00    -0.275 OA
ATOM      5  H   UNL A   1      35.674  19.246  25.493  1.00  0.00     0.163 HD
BRANCH   3   6
ATOM      6  C   UNL A   1      33.853  21.880  24.456  1.00  0.00     0.102 C 
ATOM      7  N   UNL A   1      32.550  23.775  25.118  1.00  0.00    -0.321 N 
ATOM      8  C   UNL A   1      31.612  22.739  24.753  1.00  0.00     0.122 C 
ATOM      9  C   UNL A   1      33.858  23.163  25.324  1.00  0.00     0.096 C 
ATOM     10  C   UNL A   1      32.429  21.838  23.853  1.00  0.00     0.037 C 
ATOM     11  C   UNL A   1      34.154  23.017  26.815  1.00  0.00     0.032 C 
BRANCH   7  12
ATOM     12  C   UNL A   1      32.104  24.817  25.903  1.00  0.00     0.320 C 
ATOM     13  O   UNL A   1      31.444  24.556  26.907  1.00  0.00    -0.248 OA
BRANCH  12  14
ATOM     14  N   UNL A   1      32.453  26.104  25.538  1.00  0.00    -0.315 N 
BRANCH  14  15
ATOM     15  C   UNL A   1      32.033  26.584  24.212  1.00  0.00     0.125 C 
BRANCH  15  16
ATOM     16  C   UNL A   1      33.202  26.984  23.277  1.00  0.00     0.002 C 
ATOM     17  C   UNL A   1      33.270  26.144  21.996  1.00  0.00     0.009 C 
ATOM     18  C   UNL A   1      33.066  28.455  22.876  1.00  0.00     0.009 C 
ENDBRANCH  15  16
ENDBRANCH  14  15
BRANCH  14  19
ATOM     19  C   UNL A   1      33.237  27.033  26.358  1.00  0.00     0.221 C 
BRANCH  19  20
ATOM     20  C   UNL A   1      32.403  27.925  27.296  1.00  0.00     0.237 C 
ATOM     21  N   UNL A   1      33.083  28.960  27.888  1.00  0.00    -0.368 N 
ATOM     22  O   UNL A   1      31.208  27.788  27.527  1.00  0.00    -0.273 OA
ATOM     23  H   UNL A   1      34.044  29.081  27.712  1.00  0.00     0.159 HD
ATOM     24  H   UNL A   1      32.610  29.580  28.487  1.00  0.00     0.159 HD
ENDBRANCH  19  20
ENDBRANCH  14  19
ENDBRANCH  12  14
ENDBRANCH   7  12
ENDBRANCH   3   6
ENDBRANCH   1   2
BRANCH   1  25
ATOM     25  C   UNL A   1      37.990  19.909  24.866  1.00  0.00     0.042 C 
BRANCH  25  26
ATOM     26  C   UNL A   1      38.931  20.139  26.037  1.00  0.00     0.118 C 
BRANCH  26  27
ATOM     27  N   UNL A   1      40.056  19.226  26.019  1.00  0.00    -0.352 N 
ATOM     28  C   UNL A   1      41.406  19.487  26.049  1.00  0.00     0.251 C 
ATOM     29  H   UNL A   1      39.817  18.271  25.979  1.00  0.00     0.163 HD
ATOM     30  O   UNL A   1      42.187  18.576  25.780  1.00  0.00    -0.269 OA
BRANCH  28  31
ATOM     31  C   UNL A   1      41.933  20.837  26.381  1.00  0.00     0.039 A 
ATOM     32  C   UNL A   1      42.198  21.146  27.721  1.00  0.00     0.014 A 
ATOM     33  C   UNL A   1      42.101  21.828  25.411  1.00  0.00     0.014 A 
ATOM     34  C   UNL A   1      42.657  22.421  28.075  1.00  0.00     0.010 A 
ATOM     35  C   UNL A   1      42.656  23.062  25.750  1.00  0.00     0.010 A 
ATOM     36  C   UNL A   1      42.909  23.389  27.090  1.00  0.00    -0.014 A 
BRANCH  36  37
ATOM     37  C   UNL A   1      43.366  24.765  27.434  1.00  0.00     0.031 A 
ATOM     38  C   UNL A   1      42.382  25.758  28.008  1.00  0.00     0.074 A 
ATOM     39  C   UNL A   1      44.631  25.153  27.171  1.00  0.00     0.049 A 
ATOM     40  N   UNL A   1      42.541  27.032  28.263  1.00  0.00    -0.248 NA
ATOM     41  C   UNL A   1      41.028  25.259  28.309  1.00  0.00     0.031 C 
ATOM     42  C   UNL A   1      45.669  24.314  26.569  1.00  0.00     0.029 A 
ATOM     43  N   UNL A   1      45.251  26.366  27.352  1.00  0.00    -0.354 N 
ATOM     44  C   UNL A   1      41.306  27.490  28.709  1.00  0.00     0.074 A 
ATOM     45  C   UNL A   1      40.395  26.370  28.655  1.00  0.00     0.031 C 
ATOM     46  C   UNL A   1      46.795  25.035  26.432  1.00  0.00     0.029 A 
ATOM     47  C   UNL A   1      46.553  26.396  26.901  1.00  0.00     0.049 A 
ATOM     48  H   UNL A   1      44.807  27.141  27.765  1.00  0.00     0.167 HD
ATOM     49  C   UNL A   1      40.965  28.721  29.161  1.00  0.00     0.034 A 
ATOM     50  C   UNL A   1      47.444  27.407  26.862  1.00  0.00     0.034 A 
ATOM     51  C   UNL A   1      41.885  29.819  29.278  1.00  0.00     0.049 A 
ATOM     52  C   UNL A   1      47.044  28.757  27.403  1.00  0.00     0.074 A 
ATOM     53  C   UNL A   1      41.650  31.088  29.777  1.00  0.00     0.029 A 
ATOM     54  N   UNL A   1      43.219  29.773  28.907  1.00  0.00    -0.354 N 
ATOM     55  N   UNL A   1      45.906  29.132  27.932  1.00  0.00    -0.248 NA
ATOM     56  C   UNL A   1      48.068  29.814  27.377  1.00  0.00     0.031 C 
ATOM     57  C   UNL A   1      42.844  31.812  29.703  1.00  0.00     0.029 A 
ATOM     58  C   UNL A   1      43.824  30.987  29.177  1.00  0.00     0.049 A 
ATOM     59  H   UNL A   1      43.670  28.993  28.510  1.00  0.00     0.167 HD
ATOM     60  C   UNL A   1      46.093  30.446  28.347  1.00  0.00     0.074 A 
ATOM     61  C   UNL A   1      47.459  30.798  28.022  1.00  0.00     0.031 C 
ATOM     62  C   UNL A   1      45.209  31.292  28.930  1.00  0.00     0.034 A 
BRANCH  49  63
ATOM     63  C   UNL A   1      39.551  28.930  29.642  1.00  0.00     0.023 A 
ATOM     64  C   UNL A   1      39.195  28.505  30.938  1.00  0.00     0.012 A 
ATOM     65  C   UNL A   1      38.605  29.615  28.854  1.00  0.00     0.148 A 
ATOM     66  C   UNL A   1      37.912  28.730  31.433  1.00  0.00     0.002 A 
ATOM     67  C   UNL A   1      37.340  29.875  29.372  1.00  0.00     0.091 A 
ATOM     68  F   UNL A   1      38.958  30.001  27.620  1.00  0.00    -0.205 F 
ATOM     69  C   UNL A   1      36.990  29.424  30.656  1.00  0.00     0.022 A 
BRANCH  67  70
ATOM     70  S   UNL A   1      36.102  30.830  28.489  1.00  0.00     0.127 S 
ATOM     71  O   UNL A   1      36.830  32.067  28.206  1.00  0.00    -0.237 OA
ATOM     72  O   UNL A   1      35.846  29.992  27.317  1.00  0.00    -0.237 OA
ATOM     73  O   UNL A   1      34.974  30.969  29.397  1.00  0.00    -0.744 OA
ENDBRANCH  67  70
ENDBRANCH  49  63
BRANCH  50  74
ATOM     74  C   UNL A   1      48.827  27.180  26.350  1.00  0.00     0.023 A 
ATOM     75  C   UNL A   1      49.809  26.676  27.226  1.00  0.00     0.012 A 
ATOM     76  C   UNL A   1      49.183  27.474  25.020  1.00  0.00     0.148 A 
ATOM     77  C   UNL A   1      51.129  26.514  26.802  1.00  0.00     0.002 A 
ATOM     78  C   UNL A   1      50.488  27.259  24.589  1.00  0.00     0.091 A 
ATOM     79  F   UNL A   1      48.243  27.969  24.204  1.00  0.00    -0.205 F 
ATOM     80  C   UNL A   1      51.467  26.798  25.483  1.00  0.00     0.022 A 
BRANCH  78  81
ATOM     81  S   UNL A   1      50.976  27.483  22.874  1.00  0.00     0.127 S 
ATOM     82  O   UNL A   1      52.327  26.922  22.874  1.00  0.00    -0.237 OA
ATOM     83  O   UNL A   1      49.979  26.680  22.164  1.00  0.00    -0.237 OA
ATOM     84  O   UNL A   1      50.877  28.911  22.629  1.00  0.00    -0.744 OA
ENDBRANCH  78  81
ENDBRANCH  50  74
BRANCH  62  85
ATOM     85  C   UNL A   1      45.696  32.660  29.327  1.00  0.00     0.023 A 
ATOM     86  C   UNL A   1      46.387  32.835  30.541  1.00  0.00     0.012 A 
ATOM     87  C   UNL A   1      45.548  33.753  28.449  1.00  0.00     0.148 A 
ATOM     88  C   UNL A   1      46.900  34.084  30.888  1.00  0.00     0.002 A 
ATOM     89  C   UNL A   1      46.104  34.981  28.779  1.00  0.00     0.091 A 
ATOM     90  F   UNL A   1      44.871  33.567  27.306  1.00  0.00    -0.205 F 
ATOM     91  C   UNL A   1      46.771  35.152  30.003  1.00  0.00     0.022 A 
BRANCH  89  92
ATOM     92  S   UNL A   1      46.071  36.386  27.660  1.00  0.00     0.127 S 
ATOM     93  O   UNL A   1      46.636  37.445  28.493  1.00  0.00    -0.237 OA
ATOM     94  O   UNL A   1      46.941  35.936  26.572  1.00  0.00    -0.237 OA
ATOM     95  O   UNL A   1      44.675  36.565  27.282  1.00  0.00    -0.744 OA
ENDBRANCH  89  92
ENDBRANCH  62  85
ENDBRANCH  36  37
ENDBRANCH  28  31
ENDBRANCH  26  27
ENDBRANCH  25  26
ENDBRANCH   1  25
TORSDOF 19
ENDMDL
MODEL 3
REMARK VINA RESULT:     -10.8      5.741     11.802
REMARK SMILES CC(C)CN(CC(N)=O)C(=O)N1CC[C@H](C(=O)NCCCNC(=O)c2ccc(-c3c4nc(c(-c5cccc(S(=O)(=O)[O-])c5F)c5ccc([nH]5)c(-c5cccc(S(=O)(=O)[O-])c5F)c5nc(c(-c6cccc(S(=O)(=O)[O-])c6F)c6ccc3[nH]6)C=C5)C=C4)cc2)[C@@H]1C
REMARK SMILES IDX 19 1 18 2 16 3 17 4 15 6 12 7 13 8 88 9 14 10 89 11 10 12
REMARK SMILES IDX 11 13 5 14 4 15 2 16 1 17 3 18 6 19 7 20 8 21 9 22 20 25
REMARK SMILES IDX 21 26 22 27 23 28 24 30 25 31 26 32 87 33 27 34 86 35 28 36
REMARK SMILES IDX 29 37 30 38 80 39 31 40 85 41 79 42 81 43 32 44 84 45 78 46
REMARK SMILES IDX 77 47 33 49 65 50 45 51 64 52 46 53 49 54 63 55 82 56 47 57
REMARK SMILES IDX 48 58 62 60 83 61 50 62 34 63 35 64 43 65 36 66 38 67 44 68
REMARK SMILES IDX 37 69 39 70 40 71 41 72 42 73 66 74 67 75 75 76 68 77 70 78
REMARK SMILES IDX 76 79 69 80 71 81 72 82 73 83 74 84 51 85 52 86 60 87 53 88
REMARK SMILES IDX 55 89 61 90 54 91 56 92 57 93 58 94 59 95
REMARK H PARENT 18 5 8 23 8 24 22 29 81 48 49 59
REMARK Flexibility Score: inf
ROOT
ATOM      1  C   UNL A   1      31.436  30.766  26.049  1.00  0.00     0.117 C 
ENDROOT
BRANCH   1   2
ATOM      2  N   UNL A   1      30.830  30.573  24.740  1.00  0.00    -0.356 N 
ATOM      3  C   UNL A   1      30.735  29.479  23.935  1.00  0.00     0.225 C 
ATOM      4  O   UNL A   1      30.189  29.641  22.842  1.00  0.00    -0.275 OA
ATOM      5  H   UNL A   1      30.412  31.384  24.368  1.00  0.00     0.163 HD
BRANCH   3   6
ATOM      6  C   UNL A   1      31.179  28.106  24.423  1.00  0.00     0.102 C 
ATOM      7  N   UNL A   1      32.415  26.286  23.483  1.00  0.00    -0.321 N 
ATOM      8  C   UNL A   1      31.088  26.216  22.918  1.00  0.00     0.122 C 
ATOM      9  C   UNL A   1      32.602  27.611  24.062  1.00  0.00     0.096 C 
ATOM     10  C   UNL A   1      30.248  26.978  23.920  1.00  0.00     0.037 C 
ATOM     11  C   UNL A   1      33.452  28.485  23.143  1.00  0.00     0.032 C 
BRANCH   7  12
ATOM     12  C   UNL A   1      33.439  25.626  22.837  1.00  0.00     0.320 C 
ATOM     13  O   UNL A   1      33.830  26.061  21.755  1.00  0.00    -0.248 OA
BRANCH  12  14
ATOM     14  N   UNL A   1      33.998  24.524  23.457  1.00  0.00    -0.315 N 
BRANCH  14  15
ATOM     15  C   UNL A   1      34.688  24.728  24.740  1.00  0.00     0.125 C 
BRANCH  15  16
ATOM     16  C   UNL A   1      35.473  23.493  25.247  1.00  0.00     0.002 C 
ATOM     17  C   UNL A   1      36.971  23.761  25.438  1.00  0.00     0.009 C 
ATOM     18  C   UNL A   1      34.898  23.027  26.588  1.00  0.00     0.009 C 
ENDBRANCH  15  16
ENDBRANCH  14  15
BRANCH  14  19
ATOM     19  C   UNL A   1      33.984  23.157  22.926  1.00  0.00     0.221 C 
BRANCH  19  20
ATOM     20  C   UNL A   1      32.635  22.426  23.065  1.00  0.00     0.237 C 
ATOM     21  N   UNL A   1      31.881  22.779  24.156  1.00  0.00    -0.368 N 
ATOM     22  O   UNL A   1      32.198  21.593  22.281  1.00  0.00    -0.273 OA
ATOM     23  H   UNL A   1      32.221  23.446  24.794  1.00  0.00     0.159 HD
ATOM     24  H   UNL A   1      31.000  22.363  24.299  1.00  0.00     0.159 HD
ENDBRANCH  19  20
ENDBRANCH  14  19
ENDBRANCH  12  14
ENDBRANCH   7  12
ENDBRANCH   3   6
ENDBRANCH   1   2
BRANCH   1  25
ATOM     25  C   UNL A   1      31.383  32.229  26.494  1.00  0.00     0.042 C 
BRANCH  25  26
ATOM     26  C   UNL A   1      32.674  32.758  27.100  1.00  0.00     0.118 C 
BRANCH  26  27
ATOM     27  N   UNL A   1      32.530  34.115  27.586  1.00  0.00    -0.352 N 
ATOM     28  C   UNL A   1      33.145  34.742  28.645  1.00  0.00     0.251 C 
ATOM     29  H   UNL A   1      31.895  34.674  27.082  1.00  0.00     0.163 HD
ATOM     30  O   UNL A   1      32.696  35.821  29.029  1.00  0.00    -0.269 OA
BRANCH  28  31
ATOM     31  C   UNL A   1      34.317  34.142  29.336  1.00  0.00     0.039 A 
ATOM     32  C   UNL A   1      34.093  33.268  30.405  1.00  0.00     0.014 A 
ATOM     33  C   UNL A   1      35.630  34.480  28.999  1.00  0.00     0.014 A 
ATOM     34  C   UNL A   1      35.174  32.715  31.105  1.00  0.00     0.010 A 
ATOM     35  C   UNL A   1      36.704  33.850  29.628  1.00  0.00     0.010 A 
ATOM     36  C   UNL A   1      36.493  32.986  30.712  1.00  0.00    -0.014 A 
BRANCH  36  37
ATOM     37  C   UNL A   1      37.665  32.442  31.454  1.00  0.00     0.031 A 
ATOM     38  C   UNL A   1      38.454  31.294  30.867  1.00  0.00     0.074 A 
ATOM     39  C   UNL A   1      37.986  32.918  32.675  1.00  0.00     0.049 A 
ATOM     40  N   UNL A   1      39.428  30.599  31.398  1.00  0.00    -0.248 NA
ATOM     41  C   UNL A   1      38.079  30.849  29.512  1.00  0.00     0.031 C 
ATOM     42  C   UNL A   1      37.277  33.987  33.382  1.00  0.00     0.029 A 
ATOM     43  N   UNL A   1      38.975  32.542  33.551  1.00  0.00    -0.354 N 
ATOM     44  C   UNL A   1      39.747  29.615  30.467  1.00  0.00     0.074 A 
ATOM     45  C   UNL A   1      38.841  29.777  29.353  1.00  0.00     0.031 C 
ATOM     46  C   UNL A   1      37.855  34.180  34.581  1.00  0.00     0.029 A 
ATOM     47  C   UNL A   1      38.950  33.230  34.744  1.00  0.00     0.049 A 
ATOM     48  H   UNL A   1      39.640  31.846  33.345  1.00  0.00     0.167 HD
ATOM     49  C   UNL A   1      40.730  28.684  30.513  1.00  0.00     0.034 A 
ATOM     50  C   UNL A   1      39.716  33.101  35.846  1.00  0.00     0.034 A 
ATOM     51  C   UNL A   1      41.675  28.564  31.589  1.00  0.00     0.049 A 
ATOM     52  C   UNL A   1      40.823  32.078  35.854  1.00  0.00     0.074 A 
ATOM     53  C   UNL A   1      42.743  27.691  31.703  1.00  0.00     0.029 A 
ATOM     54  N   UNL A   1      41.676  29.350  32.730  1.00  0.00    -0.354 N 
ATOM     55  N   UNL A   1      41.183  31.242  34.911  1.00  0.00    -0.248 NA
ATOM     56  C   UNL A   1      41.657  32.009  37.064  1.00  0.00     0.031 C 
ATOM     57  C   UNL A   1      43.387  27.947  32.916  1.00  0.00     0.029 A 
ATOM     58  C   UNL A   1      42.733  28.992  33.547  1.00  0.00     0.049 A 
ATOM     59  H   UNL A   1      41.022  30.059  32.929  1.00  0.00     0.167 HD
ATOM     60  C   UNL A   1      42.310  30.586  35.394  1.00  0.00     0.074 A 
ATOM     61  C   UNL A   1      42.585  31.133  36.705  1.00  0.00     0.031 C 
ATOM     62  C   UNL A   1      43.045  29.608  34.810  1.00  0.00     0.034 A 
BRANCH  49  63
ATOM     63  C   UNL A   1      40.891  27.768  29.327  1.00  0.00     0.023 A 
ATOM     64  C   UNL A   1      40.174  26.555  29.292  1.00  0.00     0.012 A 
ATOM     65  C   UNL A   1      41.676  28.140  28.217  1.00  0.00     0.148 A 
ATOM     66  C   UNL A   1      40.259  25.710  28.187  1.00  0.00     0.002 A 
ATOM     67  C   UNL A   1      41.720  27.312  27.100  1.00  0.00     0.091 A 
ATOM     68  F   UNL A   1      42.359  29.291  28.273  1.00  0.00    -0.205 F 
ATOM     69  C   UNL A   1      41.021  26.093  27.088  1.00  0.00     0.022 A 
BRANCH  67  70
ATOM     70  S   UNL A   1      42.606  27.747  25.599  1.00  0.00     0.127 S 
ATOM     71  O   UNL A   1      43.995  27.709  26.055  1.00  0.00    -0.237 OA
ATOM     72  O   UNL A   1      42.232  26.659  24.695  1.00  0.00    -0.237 OA
ATOM     73  O   UNL A   1      42.119  29.061  25.207  1.00  0.00    -0.744 OA
ENDBRANCH  67  70
ENDBRANCH  49  63
BRANCH  50  74
ATOM     74  C   UNL A   1      39.514  34.001  37.020  1.00  0.00     0.023 A 
ATOM     75  C   UNL A   1      39.933  35.344  36.936  1.00  0.00     0.012 A 
ATOM     76  C   UNL A   1      38.932  33.540  38.217  1.00  0.00     0.148 A 
ATOM     77  C   UNL A   1      39.822  36.197  38.036  1.00  0.00     0.002 A 
ATOM     78  C   UNL A   1      38.775  34.410  39.291  1.00  0.00     0.091 A 
ATOM     79  F   UNL A   1      38.554  32.256  38.287  1.00  0.00    -0.205 F 
ATOM     80  C   UNL A   1      39.236  35.733  39.210  1.00  0.00     0.022 A 
BRANCH  78  81
ATOM     81  S   UNL A   1      37.920  33.925  40.795  1.00  0.00     0.127 S 
ATOM     82  O   UNL A   1      36.778  33.181  40.261  1.00  0.00    -0.237 OA
ATOM     83  O   UNL A   1      38.926  33.102  41.469  1.00  0.00    -0.237 OA
ATOM     84  O   UNL A   1      37.609  35.168  41.479  1.00  0.00    -0.744 OA
ENDBRANCH  78  81
ENDBRANCH  50  74
BRANCH  62  85
ATOM     85  C   UNL A   1      44.262  29.106  35.541  1.00  0.00     0.023 A 
ATOM     86  C   UNL A   1      45.514  29.710  35.319  1.00  0.00     0.012 A 
ATOM     87  C   UNL A   1      44.141  28.096  36.517  1.00  0.00     0.148 A 
ATOM     88  C   UNL A   1      46.635  29.298  36.039  1.00  0.00     0.002 A 
ATOM     89  C   UNL A   1      45.251  27.725  37.263  1.00  0.00     0.091 A 
ATOM     90  F   UNL A   1      42.942  27.523  36.699  1.00  0.00    -0.205 F 
ATOM     91  C   UNL A   1      46.501  28.316  37.019  1.00  0.00     0.022 A 
BRANCH  89  92
ATOM     92  S   UNL A   1      45.154  26.540  38.610  1.00  0.00     0.127 S 
ATOM     93  O   UNL A   1      46.561  26.195  38.807  1.00  0.00    -0.237 OA
ATOM     94  O   UNL A   1      44.566  27.341  39.685  1.00  0.00    -0.237 OA
ATOM     95  O   UNL A   1      44.306  25.456  38.132  1.00  0.00    -0.744 OA
ENDBRANCH  89  92
ENDBRANCH  62  85
ENDBRANCH  36  37
ENDBRANCH  28  31
ENDBRANCH  26  27
ENDBRANCH  25  26
ENDBRANCH   1  25
TORSDOF 19
ENDMDL
