MODEL 1
REMARK VINA RESULT:     -13.3      0.000      0.000
REMARK SMILES CC1=C([C@H](NC(=O)[C@@H]2[C@H](C)c3cc(F)ccc3N2C)C(=O)NCCCNC(=O)c2ccc(-c3c4nc(c(-c5cccc(S(=O)(=O)[O-])c5F)c5ccc([nH]5)c(-c5cccc(S(=O)(=O)[O-])c5F)c5nc(c(-c6cccc(S(=O)(=O)[O-])c6F)c6ccc3[nH]6)C=C5)C=C4)cc2)[C@@H](C)N=N1
REMARK SMILES IDX 24 1 23 2 22 3 20 4 21 5 4 7 3 8 1 9 2 10 95 11 92 12 94 13
REMARK SMILES IDX 93 14 5 15 6 16 7 18 8 19 9 20 18 21 11 22 10 23 17 24 19 25
REMARK SMILES IDX 12 26 16 27 13 28 15 29 14 30 25 31 26 32 27 33 28 35 29 36
REMARK SMILES IDX 30 37 91 38 31 39 90 40 32 41 33 42 34 43 84 44 35 45 89 46
REMARK SMILES IDX 83 47 85 48 36 49 88 50 82 51 81 52 37 54 69 55 49 56 68 57
REMARK SMILES IDX 50 58 53 59 67 60 86 61 51 62 52 63 66 65 87 66 54 67 38 68
REMARK SMILES IDX 39 69 47 70 40 71 42 72 48 73 41 74 43 75 44 76 45 77 46 78
REMARK SMILES IDX 70 79 71 80 79 81 72 82 74 83 80 84 73 85 75 86 76 87 77 88
REMARK SMILES IDX 78 89 55 90 56 91 64 92 57 93 59 94 65 95 58 96 60 97 61 98
REMARK SMILES IDX 62 99 63 100
REMARK H PARENT 22 6 5 17 26 34 85 53 53 64
REMARK Flexibility Score: inf
ROOT
ATOM      1  C   UNL A   1      33.236  28.135  26.826  1.00  0.00     0.042 C 
ENDROOT
BRANCH   1   2
ATOM      2  C   UNL A   1      31.760  27.849  26.553  1.00  0.00     0.117 C 
BRANCH   2   3
ATOM      3  N   UNL A   1      31.413  26.441  26.443  1.00  0.00    -0.354 N 
ATOM      4  C   UNL A   1      32.089  25.346  25.988  1.00  0.00     0.247 C 
ATOM      5  O   UNL A   1      31.513  24.262  26.180  1.00  0.00    -0.272 OA
ATOM      6  H   UNL A   1      30.504  26.236  26.761  1.00  0.00     0.163 HD
BRANCH   4   7
ATOM      7  C   UNL A   1      33.448  25.353  25.168  1.00  0.00     0.202 C 
BRANCH   7   8
ATOM      8  C   UNL A   1      33.304  25.160  23.689  1.00  0.00     0.011 C 
ATOM      9  C   UNL A   1      33.554  27.593  22.933  1.00  0.00     0.069 C 
ATOM     10  C   UNL A   1      33.406  26.119  22.754  1.00  0.00     0.064 C 
ATOM     11  N   UNL A   1      33.455  25.613  21.482  1.00  0.00    -0.160 NA
ATOM     12  C   UNL A   1      33.312  23.875  22.920  1.00  0.00     0.156 C 
ATOM     13  N   UNL A   1      33.451  24.355  21.514  1.00  0.00    -0.181 NA
ATOM     14  C   UNL A   1      32.052  23.025  22.965  1.00  0.00     0.040 C 
ENDBRANCH   7   8
BRANCH   7  15
ATOM     15  N   UNL A   1      34.836  25.105  25.627  1.00  0.00    -0.339 N 
ATOM     16  C   UNL A   1      35.626  23.987  25.767  1.00  0.00     0.244 C 
ATOM     17  H   UNL A   1      35.299  25.931  25.894  1.00  0.00     0.164 HD
ATOM     18  O   UNL A   1      36.758  24.133  26.226  1.00  0.00    -0.273 OA
BRANCH  16  19
ATOM     19  C   UNL A   1      35.053  22.661  25.326  1.00  0.00     0.178 C 
ATOM     20  C   UNL A   1      33.915  22.102  26.203  1.00  0.00     0.050 C 
ATOM     21  N   UNL A   1      35.960  21.512  25.030  1.00  0.00    -0.362 N 
ATOM     22  C   UNL A   1      33.909  20.680  25.742  1.00  0.00    -0.016 A 
ATOM     23  C   UNL A   1      34.070  22.292  27.698  1.00  0.00     0.015 C 
ATOM     24  C   UNL A   1      35.108  20.390  25.078  1.00  0.00     0.041 A 
ATOM     25  C   UNL A   1      36.961  21.595  23.981  1.00  0.00     0.144 C 
ATOM     26  C   UNL A   1      32.832  19.804  25.761  1.00  0.00     0.045 A 
ATOM     27  C   UNL A   1      35.261  19.151  24.471  1.00  0.00     0.029 A 
ATOM     28  C   UNL A   1      32.979  18.594  25.102  1.00  0.00     0.123 A 
ATOM     29  C   UNL A   1      34.180  18.254  24.473  1.00  0.00     0.041 A 
ATOM     30  F   UNL A   1      31.933  17.759  25.031  1.00  0.00    -0.207 F 
ENDBRANCH  16  19
ENDBRANCH   7  15
ENDBRANCH   4   7
ENDBRANCH   2   3
ENDBRANCH   1   2
BRANCH   1  31
ATOM     31  C   UNL A   1      33.753  29.535  26.582  1.00  0.00     0.118 C 
BRANCH  31  32
ATOM     32  N   UNL A   1      33.776  30.340  27.770  1.00  0.00    -0.352 N 
ATOM     33  C   UNL A   1      34.754  31.279  27.993  1.00  0.00     0.251 C 
ATOM     34  H   UNL A   1      33.069  30.215  28.444  1.00  0.00     0.163 HD
ATOM     35  O   UNL A   1      34.437  32.464  28.037  1.00  0.00    -0.269 OA
BRANCH  33  36
ATOM     36  C   UNL A   1      36.100  30.839  28.435  1.00  0.00     0.039 A 
ATOM     37  C   UNL A   1      37.157  31.674  28.818  1.00  0.00     0.014 A 
ATOM     38  C   UNL A   1      36.288  29.452  28.402  1.00  0.00     0.014 A 
ATOM     39  C   UNL A   1      38.413  31.120  29.093  1.00  0.00     0.010 A 
ATOM     40  C   UNL A   1      37.526  28.904  28.684  1.00  0.00     0.010 A 
ATOM     41  C   UNL A   1      38.607  29.738  28.975  1.00  0.00    -0.014 A 
BRANCH  41  42
ATOM     42  C   UNL A   1      39.927  29.144  29.218  1.00  0.00     0.031 A 
ATOM     43  C   UNL A   1      40.303  28.952  30.648  1.00  0.00     0.074 A 
ATOM     44  C   UNL A   1      40.647  28.583  28.216  1.00  0.00     0.049 A 
ATOM     45  N   UNL A   1      41.353  29.391  31.266  1.00  0.00    -0.248 NA
ATOM     46  C   UNL A   1      39.352  28.242  31.520  1.00  0.00     0.031 C 
ATOM     47  C   UNL A   1      40.218  28.437  26.818  1.00  0.00     0.029 A 
ATOM     48  N   UNL A   1      41.816  27.870  28.250  1.00  0.00    -0.354 N 
ATOM     49  C   UNL A   1      41.306  28.811  32.535  1.00  0.00     0.074 A 
ATOM     50  C   UNL A   1      39.987  28.259  32.693  1.00  0.00     0.031 C 
ATOM     51  C   UNL A   1      40.941  27.464  26.228  1.00  0.00     0.029 A 
ATOM     52  C   UNL A   1      41.982  27.035  27.142  1.00  0.00     0.049 A 
ATOM     53  H   UNL A   1      42.473  27.940  28.980  1.00  0.00     0.167 HD
ATOM     54  C   UNL A   1      42.433  28.574  33.262  1.00  0.00     0.034 A 
ATOM     55  C   UNL A   1      42.863  26.014  27.011  1.00  0.00     0.034 A 
ATOM     56  C   UNL A   1      43.585  29.225  32.712  1.00  0.00     0.049 A 
ATOM     57  C   UNL A   1      43.980  26.276  27.942  1.00  0.00     0.074 A 
ATOM     58  C   UNL A   1      44.120  30.491  32.686  1.00  0.00     0.029 A 
ATOM     59  N   UNL A   1      44.208  28.488  31.743  1.00  0.00    -0.354 N 
ATOM     60  N   UNL A   1      44.780  27.301  27.839  1.00  0.00    -0.248 NA
ATOM     61  C   UNL A   1      44.082  25.523  29.187  1.00  0.00     0.031 C 
ATOM     62  C   UNL A   1      44.963  30.539  31.536  1.00  0.00     0.029 A 
ATOM     63  C   UNL A   1      44.934  29.294  30.910  1.00  0.00     0.049 A 
ATOM     64  H   UNL A   1      44.143  27.510  31.656  1.00  0.00     0.167 HD
ATOM     65  C   UNL A   1      45.133  27.574  29.144  1.00  0.00     0.074 A 
ATOM     66  C   UNL A   1      44.857  26.355  29.887  1.00  0.00     0.031 C 
ATOM     67  C   UNL A   1      45.274  28.858  29.574  1.00  0.00     0.034 A 
BRANCH  54  68
ATOM     68  C   UNL A   1      42.606  27.400  34.197  1.00  0.00     0.023 A 
ATOM     69  C   UNL A   1      42.386  27.593  35.577  1.00  0.00     0.012 A 
ATOM     70  C   UNL A   1      43.247  26.202  33.808  1.00  0.00     0.148 A 
ATOM     71  C   UNL A   1      42.766  26.628  36.520  1.00  0.00     0.002 A 
ATOM     72  C   UNL A   1      43.550  25.214  34.738  1.00  0.00     0.091 A 
ATOM     73  F   UNL A   1      43.692  26.075  32.552  1.00  0.00    -0.205 F 
ATOM     74  C   UNL A   1      43.329  25.428  36.099  1.00  0.00     0.022 A 
BRANCH  72  75
ATOM     75  S   UNL A   1      44.237  23.634  34.228  1.00  0.00     0.127 S 
ATOM     76  O   UNL A   1      45.599  24.018  33.850  1.00  0.00    -0.237 OA
ATOM     77  O   UNL A   1      44.140  22.855  35.467  1.00  0.00    -0.237 OA
ATOM     78  O   UNL A   1      43.376  23.169  33.161  1.00  0.00    -0.744 OA
ENDBRANCH  72  75
ENDBRANCH  54  68
BRANCH  55  79
ATOM     79  C   UNL A   1      42.742  24.717  26.294  1.00  0.00     0.023 A 
ATOM     80  C   UNL A   1      43.793  24.308  25.444  1.00  0.00     0.012 A 
ATOM     81  C   UNL A   1      41.777  23.754  26.660  1.00  0.00     0.148 A 
ATOM     82  C   UNL A   1      43.925  22.973  25.044  1.00  0.00     0.002 A 
ATOM     83  C   UNL A   1      41.904  22.430  26.245  1.00  0.00     0.091 A 
ATOM     84  F   UNL A   1      40.789  24.105  27.493  1.00  0.00    -0.205 F 
ATOM     85  C   UNL A   1      42.990  22.031  25.457  1.00  0.00     0.022 A 
BRANCH  83  86
ATOM     86  S   UNL A   1      40.726  21.163  26.737  1.00  0.00     0.127 S 
ATOM     87  O   UNL A   1      41.233  19.981  26.037  1.00  0.00    -0.237 OA
ATOM     88  O   UNL A   1      40.898  21.135  28.186  1.00  0.00    -0.237 OA
ATOM     89  O   UNL A   1      39.431  21.628  26.256  1.00  0.00    -0.744 OA
ENDBRANCH  83  86
ENDBRANCH  55  79
BRANCH  67  90
ATOM     90  C   UNL A   1      45.586  29.907  28.553  1.00  0.00     0.023 A 
ATOM     91  C   UNL A   1      44.592  30.696  27.942  1.00  0.00     0.012 A 
ATOM     92  C   UNL A   1      46.938  30.172  28.285  1.00  0.00     0.148 A 
ATOM     93  C   UNL A   1      44.946  31.729  27.069  1.00  0.00     0.002 A 
ATOM     94  C   UNL A   1      47.286  31.221  27.447  1.00  0.00     0.091 A 
ATOM     95  F   UNL A   1      47.862  29.403  28.880  1.00  0.00    -0.205 F 
ATOM     96  C   UNL A   1      46.293  31.999  26.832  1.00  0.00     0.022 A 
BRANCH  94  97
ATOM     97  S   UNL A   1      48.998  31.681  27.175  1.00  0.00     0.127 S 
ATOM     98  O   UNL A   1      48.869  32.823  26.272  1.00  0.00    -0.237 OA
ATOM     99  O   UNL A   1      49.446  32.016  28.528  1.00  0.00    -0.237 OA
ATOM    100  O   UNL A   1      49.647  30.506  26.605  1.00  0.00    -0.744 OA
ENDBRANCH  94  97
ENDBRANCH  67  90
ENDBRANCH  41  42
ENDBRANCH  33  36
ENDBRANCH  31  32
ENDBRANCH   1  31
TORSDOF 16
ENDMDL
MODEL 2
REMARK VINA RESULT:     -13.2      2.184      3.052
REMARK SMILES CC1=C([C@H](NC(=O)[C@@H]2[C@H](C)c3cc(F)ccc3N2C)C(=O)NCCCNC(=O)c2ccc(-c3c4nc(c(-c5cccc(S(=O)(=O)[O-])c5F)c5ccc([nH]5)c(-c5cccc(S(=O)(=O)[O-])c5F)c5nc(c(-c6cccc(S(=O)(=O)[O-])c6F)c6ccc3[nH]6)C=C5)C=C4)cc2)[C@@H](C)N=N1
REMARK SMILES IDX 24 1 23 2 22 3 20 4 21 5 4 7 3 8 1 9 2 10 95 11 92 12 94 13
REMARK SMILES IDX 93 14 5 15 6 16 7 18 8 19 9 20 18 21 11 22 10 23 17 24 19 25
REMARK SMILES IDX 12 26 16 27 13 28 15 29 14 30 25 31 26 32 27 33 28 35 29 36
REMARK SMILES IDX 30 37 91 38 31 39 90 40 32 41 33 42 34 43 84 44 35 45 89 46
REMARK SMILES IDX 83 47 85 48 36 49 88 50 82 51 81 52 37 54 69 55 49 56 68 57
REMARK SMILES IDX 50 58 53 59 67 60 86 61 51 62 52 63 66 65 87 66 54 67 38 68
REMARK SMILES IDX 39 69 47 70 40 71 42 72 48 73 41 74 43 75 44 76 45 77 46 78
REMARK SMILES IDX 70 79 71 80 79 81 72 82 74 83 80 84 73 85 75 86 76 87 77 88
REMARK SMILES IDX 78 89 55 90 56 91 64 92 57 93 59 94 65 95 58 96 60 97 61 98
REMARK SMILES IDX 62 99 63 100
REMARK H PARENT 22 6 5 17 26 34 85 53 53 64
REMARK Flexibility Score: inf
ROOT
ATOM      1  C   UNL A   1      31.921  28.626  26.880  1.00  0.00     0.042 C 
ENDROOT
BRANCH   1   2
ATOM      2  C   UNL A   1      32.319  27.227  26.412  1.00  0.00     0.117 C 
BRANCH   2   3
ATOM      3  N   UNL A   1      31.369  26.173  26.731  1.00  0.00    -0.354 N 
ATOM      4  C   UNL A   1      30.863  25.126  26.016  1.00  0.00     0.247 C 
ATOM      5  O   UNL A   1      30.165  24.337  26.675  1.00  0.00    -0.272 OA
ATOM      6  H   UNL A   1      31.020  26.226  27.650  1.00  0.00     0.163 HD
BRANCH   4   7
ATOM      7  C   UNL A   1      30.997  24.903  24.451  1.00  0.00     0.202 C 
BRANCH   7   8
ATOM      8  C   UNL A   1      30.714  26.107  23.606  1.00  0.00     0.011 C 
ATOM      9  C   UNL A   1      28.224  26.396  24.127  1.00  0.00     0.069 C 
ATOM     10  C   UNL A   1      29.541  26.757  23.525  1.00  0.00     0.064 C 
ATOM     11  N   UNL A   1      29.642  27.946  22.854  1.00  0.00    -0.160 NA
ATOM     12  C   UNL A   1      31.696  27.005  22.919  1.00  0.00     0.156 C 
ATOM     13  N   UNL A   1      30.839  28.162  22.528  1.00  0.00    -0.181 NA
ATOM     14  C   UNL A   1      32.340  26.491  21.641  1.00  0.00     0.040 C 
ENDBRANCH   7   8
BRANCH   7  15
ATOM     15  N   UNL A   1      30.947  23.648  23.662  1.00  0.00    -0.339 N 
ATOM     16  C   UNL A   1      31.813  22.599  23.450  1.00  0.00     0.244 C 
ATOM     17  H   UNL A   1      30.098  23.541  23.176  1.00  0.00     0.164 HD
ATOM     18  O   UNL A   1      31.461  21.705  22.682  1.00  0.00    -0.273 OA
BRANCH  16  19
ATOM     19  C   UNL A   1      33.127  22.611  24.195  1.00  0.00     0.178 C 
ATOM     20  C   UNL A   1      34.181  23.605  23.670  1.00  0.00     0.050 C 
ATOM     21  N   UNL A   1      33.850  21.333  24.462  1.00  0.00    -0.362 N 
ATOM     22  C   UNL A   1      35.405  23.056  24.329  1.00  0.00    -0.016 A 
ATOM     23  C   UNL A   1      34.272  23.749  22.164  1.00  0.00     0.015 C 
ATOM     24  C   UNL A   1      35.164  21.746  24.762  1.00  0.00     0.041 A 
ATOM     25  C   UNL A   1      33.243  20.277  25.254  1.00  0.00     0.144 C 
ATOM     26  C   UNL A   1      36.554  23.757  24.667  1.00  0.00     0.045 A 
ATOM     27  C   UNL A   1      36.138  21.089  25.502  1.00  0.00     0.029 A 
ATOM     28  C   UNL A   1      37.493  23.109  25.454  1.00  0.00     0.123 A 
ATOM     29  C   UNL A   1      37.304  21.785  25.861  1.00  0.00     0.041 A 
ATOM     30  F   UNL A   1      38.575  23.782  25.866  1.00  0.00    -0.207 F 
ENDBRANCH  16  19
ENDBRANCH   7  15
ENDBRANCH   4   7
ENDBRANCH   2   3
ENDBRANCH   1   2
BRANCH   1  31
ATOM     31  C   UNL A   1      32.867  29.772  26.606  1.00  0.00     0.118 C 
BRANCH  31  32
ATOM     32  N   UNL A   1      33.129  30.573  27.767  1.00  0.00    -0.352 N 
ATOM     33  C   UNL A   1      34.191  31.444  27.825  1.00  0.00     0.251 C 
ATOM     34  H   UNL A   1      32.531  30.497  28.545  1.00  0.00     0.163 HD
ATOM     35  O   UNL A   1      33.966  32.648  27.906  1.00  0.00    -0.269 OA
BRANCH  33  36
ATOM     36  C   UNL A   1      35.558  30.913  28.055  1.00  0.00     0.039 A 
ATOM     37  C   UNL A   1      35.938  29.565  28.012  1.00  0.00     0.014 A 
ATOM     38  C   UNL A   1      36.504  31.891  28.384  1.00  0.00     0.014 A 
ATOM     39  C   UNL A   1      37.240  29.201  28.373  1.00  0.00     0.010 A 
ATOM     40  C   UNL A   1      37.794  31.532  28.729  1.00  0.00     0.010 A 
ATOM     41  C   UNL A   1      38.152  30.184  28.780  1.00  0.00    -0.014 A 
BRANCH  41  42
ATOM     42  C   UNL A   1      39.510  29.817  29.201  1.00  0.00     0.031 A 
ATOM     43  C   UNL A   1      39.836  30.062  30.635  1.00  0.00     0.074 A 
ATOM     44  C   UNL A   1      40.324  29.082  28.406  1.00  0.00     0.049 A 
ATOM     45  N   UNL A   1      40.812  30.758  31.127  1.00  0.00    -0.248 NA
ATOM     46  C   UNL A   1      38.918  29.522  31.652  1.00  0.00     0.031 C 
ATOM     47  C   UNL A   1      39.974  28.519  27.094  1.00  0.00     0.029 A 
ATOM     48  N   UNL A   1      41.552  28.530  28.655  1.00  0.00    -0.354 N 
ATOM     49  C   UNL A   1      40.762  30.544  32.506  1.00  0.00     0.074 A 
ATOM     50  C   UNL A   1      39.495  29.923  32.787  1.00  0.00     0.031 C 
ATOM     51  C   UNL A   1      40.812  27.501  26.808  1.00  0.00     0.029 A 
ATOM     52  C   UNL A   1      41.846  27.447  27.823  1.00  0.00     0.049 A 
ATOM     53  H   UNL A   1      42.166  28.864  29.349  1.00  0.00     0.167 HD
ATOM     54  C   UNL A   1      41.872  30.632  33.290  1.00  0.00     0.034 A 
ATOM     55  C   UNL A   1      42.825  26.526  27.994  1.00  0.00     0.034 A 
ATOM     56  C   UNL A   1      42.981  31.223  32.603  1.00  0.00     0.049 A 
ATOM     57  C   UNL A   1      43.869  27.145  28.836  1.00  0.00     0.074 A 
ATOM     58  C   UNL A   1      43.395  32.482  32.238  1.00  0.00     0.029 A 
ATOM     59  N   UNL A   1      43.714  30.319  31.885  1.00  0.00    -0.354 N 
ATOM     60  N   UNL A   1      44.572  28.180  28.469  1.00  0.00    -0.248 NA
ATOM     61  C   UNL A   1      43.985  26.774  30.243  1.00  0.00     0.031 C 
ATOM     62  C   UNL A   1      44.281  32.303  31.134  1.00  0.00     0.029 A 
ATOM     63  C   UNL A   1      44.397  30.938  30.876  1.00  0.00     0.049 A 
ATOM     64  H   UNL A   1      43.746  29.353  32.070  1.00  0.00     0.167 HD
ATOM     65  C   UNL A   1      44.839  28.832  29.655  1.00  0.00     0.074 A 
ATOM     66  C   UNL A   1      44.644  27.840  30.700  1.00  0.00     0.031 C 
ATOM     67  C   UNL A   1      44.838  30.193  29.718  1.00  0.00     0.034 A 
BRANCH  54  68
ATOM     68  C   UNL A   1      42.111  29.781  34.515  1.00  0.00     0.023 A 
ATOM     69  C   UNL A   1      42.671  30.383  35.661  1.00  0.00     0.012 A 
ATOM     70  C   UNL A   1      42.074  28.368  34.483  1.00  0.00     0.148 A 
ATOM     71  C   UNL A   1      43.149  29.615  36.732  1.00  0.00     0.002 A 
ATOM     72  C   UNL A   1      42.475  27.612  35.579  1.00  0.00     0.091 A 
ATOM     73  F   UNL A   1      41.780  27.746  33.335  1.00  0.00    -0.205 F 
ATOM     74  C   UNL A   1      43.031  28.229  36.701  1.00  0.00     0.022 A 
BRANCH  72  75
ATOM     75  S   UNL A   1      42.298  25.824  35.593  1.00  0.00     0.127 S 
ATOM     76  O   UNL A   1      42.795  25.495  36.932  1.00  0.00    -0.237 OA
ATOM     77  O   UNL A   1      40.850  25.669  35.420  1.00  0.00    -0.237 OA
ATOM     78  O   UNL A   1      43.087  25.353  34.476  1.00  0.00    -0.744 OA
ENDBRANCH  72  75
ENDBRANCH  54  68
BRANCH  55  79
ATOM     79  C   UNL A   1      42.859  25.077  27.660  1.00  0.00     0.023 A 
ATOM     80  C   UNL A   1      41.731  24.282  27.959  1.00  0.00     0.012 A 
ATOM     81  C   UNL A   1      43.834  24.538  26.793  1.00  0.00     0.148 A 
ATOM     82  C   UNL A   1      41.540  23.035  27.352  1.00  0.00     0.002 A 
ATOM     83  C   UNL A   1      43.647  23.289  26.204  1.00  0.00     0.091 A 
ATOM     84  F   UNL A   1      44.898  25.284  26.464  1.00  0.00    -0.205 F 
ATOM     85  C   UNL A   1      42.490  22.546  26.463  1.00  0.00     0.022 A 
BRANCH  83  86
ATOM     86  S   UNL A   1      44.839  22.594  25.051  1.00  0.00     0.127 S 
ATOM     87  O   UNL A   1      46.010  22.385  25.906  1.00  0.00    -0.237 OA
ATOM     88  O   UNL A   1      44.170  21.371  24.622  1.00  0.00    -0.237 OA
ATOM     89  O   UNL A   1      45.029  23.613  24.026  1.00  0.00    -0.744 OA
ENDBRANCH  83  86
ENDBRANCH  55  79
BRANCH  67  90
ATOM     90  C   UNL A   1      45.095  30.950  28.453  1.00  0.00     0.023 A 
ATOM     91  C   UNL A   1      44.069  31.319  27.561  1.00  0.00     0.012 A 
ATOM     92  C   UNL A   1      46.406  31.394  28.216  1.00  0.00     0.148 A 
ATOM     93  C   UNL A   1      44.352  32.112  26.446  1.00  0.00     0.002 A 
ATOM     94  C   UNL A   1      46.676  32.211  27.128  1.00  0.00     0.091 A 
ATOM     95  F   UNL A   1      47.363  31.026  29.081  1.00  0.00    -0.205 F 
ATOM     96  C   UNL A   1      45.652  32.568  26.236  1.00  0.00     0.022 A 
BRANCH  94  97
ATOM     97  S   UNL A   1      48.305  32.908  26.855  1.00  0.00     0.127 S 
ATOM     98  O   UNL A   1      49.094  31.723  26.524  1.00  0.00    -0.237 OA
ATOM     99  O   UNL A   1      48.067  33.820  25.735  1.00  0.00    -0.237 OA
ATOM    100  O   UNL A   1      48.674  33.574  28.099  1.00  0.00    -0.744 OA
ENDBRANCH  94  97
ENDBRANCH  67  90
ENDBRANCH  41  42
ENDBRANCH  33  36
ENDBRANCH  31  32
ENDBRANCH   1  31
TORSDOF 16
ENDMDL
MODEL 3
REMARK VINA RESULT:     -13.1      2.525      3.516
REMARK SMILES CC1=C([C@H](NC(=O)[C@@H]2[C@H](C)c3cc(F)ccc3N2C)C(=O)NCCCNC(=O)c2ccc(-c3c4nc(c(-c5cccc(S(=O)(=O)[O-])c5F)c5ccc([nH]5)c(-c5cccc(S(=O)(=O)[O-])c5F)c5nc(c(-c6cccc(S(=O)(=O)[O-])c6F)c6ccc3[nH]6)C=C5)C=C4)cc2)[C@@H](C)N=N1
REMARK SMILES IDX 24 1 23 2 22 3 20 4 21 5 4 7 3 8 1 9 2 10 95 11 92 12 94 13
REMARK SMILES IDX 93 14 5 15 6 16 7 18 8 19 9 20 18 21 11 22 10 23 17 24 19 25
REMARK SMILES IDX 12 26 16 27 13 28 15 29 14 30 25 31 26 32 27 33 28 35 29 36
REMARK SMILES IDX 30 37 91 38 31 39 90 40 32 41 33 42 34 43 84 44 35 45 89 46
REMARK SMILES IDX 83 47 85 48 36 49 88 50 82 51 81 52 37 54 69 55 49 56 68 57
REMARK SMILES IDX 50 58 53 59 67 60 86 61 51 62 52 63 66 65 87 66 54 67 38 68
REMARK SMILES IDX 39 69 47 70 40 71 42 72 48 73 41 74 43 75 44 76 45 77 46 78
REMARK SMILES IDX 70 79 71 80 79 81 72 82 74 83 80 84 73 85 75 86 76 87 77 88
REMARK SMILES IDX 78 89 55 90 56 91 64 92 57 93 59 94 65 95 58 96 60 97 61 98
REMARK SMILES IDX 62 99 63 100
REMARK H PARENT 22 6 5 17 26 34 85 53 53 64
REMARK Flexibility Score: inf
ROOT
ATOM      1  C   UNL A   1      34.108  30.307  27.044  1.00  0.00     0.042 C 
ENDROOT
BRANCH   1   2
ATOM      2  C   UNL A   1      32.590  30.463  27.123  1.00  0.00     0.117 C 
BRANCH   2   3
ATOM      3  N   UNL A   1      31.833  29.227  27.000  1.00  0.00    -0.354 N 
ATOM      4  C   UNL A   1      31.421  28.487  25.929  1.00  0.00     0.247 C 
ATOM      5  O   UNL A   1      30.905  27.395  26.220  1.00  0.00    -0.272 OA
ATOM      6  H   UNL A   1      31.563  28.846  27.867  1.00  0.00     0.163 HD
BRANCH   4   7
ATOM      7  C   UNL A   1      31.447  28.939  24.409  1.00  0.00     0.202 C 
BRANCH   7   8
ATOM      8  C   UNL A   1      30.109  29.008  23.739  1.00  0.00     0.011 C 
ATOM      9  C   UNL A   1      29.619  31.501  24.059  1.00  0.00     0.069 C 
ATOM     10  C   UNL A   1      29.374  30.118  23.555  1.00  0.00     0.064 C 
ATOM     11  N   UNL A   1      28.310  29.913  22.718  1.00  0.00    -0.160 NA
ATOM     12  C   UNL A   1      29.443  27.966  22.894  1.00  0.00     0.156 C 
ATOM     13  N   UNL A   1      28.321  28.734  22.279  1.00  0.00    -0.181 NA
ATOM     14  C   UNL A   1      28.815  26.781  23.610  1.00  0.00     0.040 C 
ENDBRANCH   7   8
BRANCH   7  15
ATOM     15  N   UNL A   1      32.557  28.906  23.426  1.00  0.00    -0.339 N 
ATOM     16  C   UNL A   1      33.226  27.910  22.750  1.00  0.00     0.244 C 
ATOM     17  H   UNL A   1      32.895  29.804  23.207  1.00  0.00     0.164 HD
ATOM     18  O   UNL A   1      34.154  28.236  22.012  1.00  0.00    -0.273 OA
BRANCH  16  19
ATOM     19  C   UNL A   1      32.756  26.488  22.948  1.00  0.00     0.178 C 
ATOM     20  C   UNL A   1      33.010  25.891  24.346  1.00  0.00     0.050 C 
ATOM     21  N   UNL A   1      33.131  25.430  21.964  1.00  0.00    -0.362 N 
ATOM     22  C   UNL A   1      32.824  24.439  24.045  1.00  0.00    -0.016 A 
ATOM     23  C   UNL A   1      34.332  26.248  24.995  1.00  0.00     0.015 C 
ATOM     24  C   UNL A   1      32.906  24.227  22.663  1.00  0.00     0.041 A 
ATOM     25  C   UNL A   1      32.731  25.524  20.570  1.00  0.00     0.144 C 
ATOM     26  C   UNL A   1      32.425  23.450  24.933  1.00  0.00     0.045 A 
ATOM     27  C   UNL A   1      32.649  22.959  22.158  1.00  0.00     0.029 A 
ATOM     28  C   UNL A   1      32.116  22.204  24.408  1.00  0.00     0.123 A 
ATOM     29  C   UNL A   1      32.236  21.946  23.039  1.00  0.00     0.041 A 
ATOM     30  F   UNL A   1      31.651  21.250  25.225  1.00  0.00    -0.207 F 
ENDBRANCH  16  19
ENDBRANCH   7  15
ENDBRANCH   4   7
ENDBRANCH   2   3
ENDBRANCH   1   2
BRANCH   1  31
ATOM     31  C   UNL A   1      34.972  31.319  27.761  1.00  0.00     0.118 C 
BRANCH  31  32
ATOM     32  N   UNL A   1      35.000  31.126  29.183  1.00  0.00    -0.352 N 
ATOM     33  C   UNL A   1      36.072  31.516  29.949  1.00  0.00     0.251 C 
ATOM     34  H   UNL A   1      34.227  30.702  29.622  1.00  0.00     0.163 HD
ATOM     35  O   UNL A   1      35.915  32.410  30.776  1.00  0.00    -0.269 OA
BRANCH  33  36
ATOM     36  C   UNL A   1      37.304  30.688  29.954  1.00  0.00     0.039 A 
ATOM     37  C   UNL A   1      37.359  29.290  30.003  1.00  0.00     0.014 A 
ATOM     38  C   UNL A   1      38.491  31.430  29.953  1.00  0.00     0.014 A 
ATOM     39  C   UNL A   1      38.597  28.649  30.127  1.00  0.00     0.010 A 
ATOM     40  C   UNL A   1      39.716  30.796  30.064  1.00  0.00     0.010 A 
ATOM     41  C   UNL A   1      39.771  29.409  30.208  1.00  0.00    -0.014 A 
BRANCH  41  42
ATOM     42  C   UNL A   1      41.075  28.757  30.380  1.00  0.00     0.031 A 
ATOM     43  C   UNL A   1      41.602  28.710  31.774  1.00  0.00     0.074 A 
ATOM     44  C   UNL A   1      41.641  28.033  29.385  1.00  0.00     0.049 A 
ATOM     45  N   UNL A   1      42.740  29.144  32.215  1.00  0.00    -0.248 NA
ATOM     46  C   UNL A   1      40.720  28.175  32.825  1.00  0.00     0.031 C 
ATOM     47  C   UNL A   1      41.046  27.755  28.070  1.00  0.00     0.029 A 
ATOM     48  N   UNL A   1      42.765  27.250  29.380  1.00  0.00    -0.354 N 
ATOM     49  C   UNL A   1      42.808  28.723  33.544  1.00  0.00     0.074 A 
ATOM     50  C   UNL A   1      41.487  28.286  33.912  1.00  0.00     0.031 C 
ATOM     51  C   UNL A   1      41.640  26.670  27.531  1.00  0.00     0.029 A 
ATOM     52  C   UNL A   1      42.755  26.281  28.374  1.00  0.00     0.049 A 
ATOM     53  H   UNL A   1      43.505  27.360  30.021  1.00  0.00     0.167 HD
ATOM     54  C   UNL A   1      43.996  28.496  34.169  1.00  0.00     0.034 A 
ATOM     55  C   UNL A   1      43.557  25.193  28.277  1.00  0.00     0.034 A 
ATOM     56  C   UNL A   1      45.111  28.995  33.421  1.00  0.00     0.049 A 
ATOM     57  C   UNL A   1      44.787  25.485  29.042  1.00  0.00     0.074 A 
ATOM     58  C   UNL A   1      45.710  30.209  33.179  1.00  0.00     0.029 A 
ATOM     59  N   UNL A   1      45.576  28.108  32.489  1.00  0.00    -0.354 N 
ATOM     60  N   UNL A   1      45.625  26.433  28.725  1.00  0.00    -0.248 NA
ATOM     61  C   UNL A   1      44.990  24.878  30.353  1.00  0.00     0.031 C 
ATOM     62  C   UNL A   1      46.415  30.063  31.947  1.00  0.00     0.029 A 
ATOM     63  C   UNL A   1      46.244  28.758  31.489  1.00  0.00     0.049 A 
ATOM     64  H   UNL A   1      45.447  27.133  32.533  1.00  0.00     0.167 HD
ATOM     65  C   UNL A   1      46.142  26.832  29.941  1.00  0.00     0.074 A 
ATOM     66  C   UNL A   1      45.885  25.731  30.856  1.00  0.00     0.031 C 
ATOM     67  C   UNL A   1      46.403  28.145  30.190  1.00  0.00     0.034 A 
BRANCH  54  68
ATOM     68  C   UNL A   1      44.210  27.431  35.219  1.00  0.00     0.023 A 
ATOM     69  C   UNL A   1      44.616  27.824  36.512  1.00  0.00     0.012 A 
ATOM     70  C   UNL A   1      44.304  26.056  34.905  1.00  0.00     0.148 A 
ATOM     71  C   UNL A   1      45.071  26.888  37.452  1.00  0.00     0.002 A 
ATOM     72  C   UNL A   1      44.680  25.123  35.864  1.00  0.00     0.091 A 
ATOM     73  F   UNL A   1      44.163  25.664  33.633  1.00  0.00    -0.205 F 
ATOM     74  C   UNL A   1      45.083  25.534  37.135  1.00  0.00     0.022 A 
BRANCH  72  75
ATOM     75  S   UNL A   1      44.665  23.362  35.507  1.00  0.00     0.127 S 
ATOM     76  O   UNL A   1      45.133  22.804  36.779  1.00  0.00    -0.237 OA
ATOM     77  O   UNL A   1      43.245  23.130  35.219  1.00  0.00    -0.237 OA
ATOM     78  O   UNL A   1      45.540  23.196  34.366  1.00  0.00    -0.744 OA
ENDBRANCH  72  75
ENDBRANCH  54  68
BRANCH  55  79
ATOM     79  C   UNL A   1      43.281  23.832  27.746  1.00  0.00     0.023 A 
ATOM     80  C   UNL A   1      42.012  23.256  27.971  1.00  0.00     0.012 A 
ATOM     81  C   UNL A   1      44.115  23.230  26.778  1.00  0.00     0.148 A 
ATOM     82  C   UNL A   1      41.557  22.177  27.205  1.00  0.00     0.002 A 
ATOM     83  C   UNL A   1      43.664  22.145  26.030  1.00  0.00     0.091 A 
ATOM     84  F   UNL A   1      45.311  23.776  26.518  1.00  0.00    -0.205 F 
ATOM     85  C   UNL A   1      42.377  21.631  26.224  1.00  0.00     0.022 A 
BRANCH  83  86
ATOM     86  S   UNL A   1      44.676  21.387  24.751  1.00  0.00     0.127 S 
ATOM     87  O   UNL A   1      44.560  22.351  23.654  1.00  0.00    -0.237 OA
ATOM     88  O   UNL A   1      45.988  21.341  25.388  1.00  0.00    -0.237 OA
ATOM     89  O   UNL A   1      44.054  20.098  24.475  1.00  0.00    -0.744 OA
ENDBRANCH  83  86
ENDBRANCH  55  79
BRANCH  67  90
ATOM     90  C   UNL A   1      46.652  29.042  29.017  1.00  0.00     0.023 A 
ATOM     91  C   UNL A   1      47.871  29.055  28.312  1.00  0.00     0.012 A 
ATOM     92  C   UNL A   1      45.579  29.818  28.553  1.00  0.00     0.148 A 
ATOM     93  C   UNL A   1      48.016  29.839  27.163  1.00  0.00     0.002 A 
ATOM     94  C   UNL A   1      45.715  30.567  27.393  1.00  0.00     0.091 A 
ATOM     95  F   UNL A   1      44.431  29.788  29.246  1.00  0.00    -0.205 F 
ATOM     96  C   UNL A   1      46.935  30.585  26.698  1.00  0.00     0.022 A 
BRANCH  94  97
ATOM     97  S   UNL A   1      44.337  31.472  26.689  1.00  0.00     0.127 S 
ATOM     98  O   UNL A   1      43.986  32.388  27.773  1.00  0.00    -0.237 OA
ATOM     99  O   UNL A   1      44.948  32.108  25.521  1.00  0.00    -0.237 OA
ATOM    100  O   UNL A   1      43.322  30.476  26.364  1.00  0.00    -0.744 OA
ENDBRANCH  94  97
ENDBRANCH  67  90
ENDBRANCH  41  42
ENDBRANCH  33  36
ENDBRANCH  31  32
ENDBRANCH   1  31
TORSDOF 16
ENDMDL
