MODEL 1
REMARK VINA RESULT:     -11.5      0.000      0.000
REMARK SMILES C[C@H]1[C@H](C(=O)NCCCNC(=O)c2ccc(-c3c4nc(c(-c5cccc(S(=O)(=O)[O-])c5F)c5ccc([nH]5)c(-c5cccc(S(=O)(=O)[O-])c5F)c5nc(c(-c6cccc(S(=O)(=O)[O-])c6F)c6ccc3[nH]6)C=C5)C=C4)cc2)CCN1C(=O)COc1ccc(F)cc1Br
REMARK SMILES IDX 7 1 6 2 4 3 5 4 3 6 1 7 2 8 78 9 76 10 77 11 79 12 80 13
REMARK SMILES IDX 81 14 82 15 83 16 84 17 89 18 85 19 88 20 90 21 86 22 87 23
REMARK SMILES IDX 8 24 9 25 10 26 11 27 12 29 13 30 14 31 75 32 15 33 74 34
REMARK SMILES IDX 16 35 17 36 18 37 68 38 19 39 73 40 67 41 69 42 20 43 72 44
REMARK SMILES IDX 66 45 65 46 21 48 53 49 33 50 52 51 34 52 37 53 51 54 70 55
REMARK SMILES IDX 35 56 36 57 50 59 71 60 38 61 22 62 23 63 31 64 24 65 26 66
REMARK SMILES IDX 32 67 25 68 27 69 28 70 29 71 30 72 54 73 55 74 63 75 56 76
REMARK SMILES IDX 58 77 64 78 57 79 59 80 60 81 61 82 62 83 39 84 40 85 48 86
REMARK SMILES IDX 41 87 43 88 49 89 42 90 44 91 45 92 46 93 47 94
REMARK H PARENT 6 5 10 28 69 47 37 58
REMARK Flexibility Score: inf
ROOT
ATOM      1  C   UNL A   1      31.690  29.250  24.952  1.00  0.00     0.117 C 
ENDROOT
BRANCH   1   2
ATOM      2  N   UNL A   1      31.160  29.681  23.668  1.00  0.00    -0.356 N 
ATOM      3  C   UNL A   1      30.636  28.976  22.632  1.00  0.00     0.225 C 
ATOM      4  O   UNL A   1      30.259  29.612  21.645  1.00  0.00    -0.275 OA
ATOM      5  H   UNL A   1      31.186  30.654  23.525  1.00  0.00     0.163 HD
BRANCH   3   6
ATOM      6  C   UNL A   1      30.491  27.466  22.658  1.00  0.00     0.102 C 
ATOM      7  C   UNL A   1      32.082  25.889  21.548  1.00  0.00     0.032 C 
ATOM      8  C   UNL A   1      31.839  26.726  22.805  1.00  0.00     0.094 C 
ATOM      9  N   UNL A   1      31.687  25.941  24.033  1.00  0.00    -0.336 N 
ATOM     10  C   UNL A   1      29.559  26.960  23.758  1.00  0.00     0.037 C 
ATOM     11  C   UNL A   1      30.292  25.807  24.407  1.00  0.00     0.121 C 
BRANCH   9  12
ATOM     12  C   UNL A   1      32.667  25.642  24.965  1.00  0.00     0.260 C 
ATOM     13  O   UNL A   1      32.390  25.571  26.168  1.00  0.00    -0.271 OA
BRANCH  12  14
ATOM     14  C   UNL A   1      34.103  25.366  24.504  1.00  0.00     0.329 C 
BRANCH  14  15
ATOM     15  O   UNL A   1      35.051  24.931  25.448  1.00  0.00    -0.483 OA
BRANCH  15  16
ATOM     16  C   UNL A   1      35.535  23.658  25.508  1.00  0.00     0.134 A 
ATOM     17  C   UNL A   1      36.562  23.469  24.562  1.00  0.00     0.050 A 
ATOM     18  C   UNL A   1      35.087  22.541  26.227  1.00  0.00     0.062 A 
ATOM     19  C   UNL A   1      37.105  22.210  24.307  1.00  0.00     0.043 A 
ATOM     20  C   UNL A   1      35.618  21.270  25.946  1.00  0.00     0.058 A 
ATOM     21  Br  UNL A   1      33.755  22.513  27.570  1.00  0.00    -0.047 Br
ATOM     22  C   UNL A   1      36.609  21.115  24.989  1.00  0.00     0.124 A 
ATOM     23  F   UNL A   1      37.078  19.891  24.718  1.00  0.00    -0.207 F 
ENDBRANCH  15  16
ENDBRANCH  14  15
ENDBRANCH  12  14
ENDBRANCH   9  12
ENDBRANCH   3   6
ENDBRANCH   1   2
BRANCH   1  24
ATOM     24  C   UNL A   1      33.210  29.235  24.973  1.00  0.00     0.042 C 
BRANCH  24  25
ATOM     25  C   UNL A   1      33.802  29.317  26.375  1.00  0.00     0.118 C 
BRANCH  25  26
ATOM     26  N   UNL A   1      33.729  30.660  26.934  1.00  0.00    -0.352 N 
ATOM     27  C   UNL A   1      34.507  31.259  27.893  1.00  0.00     0.251 C 
ATOM     28  H   UNL A   1      33.012  31.226  26.567  1.00  0.00     0.163 HD
ATOM     29  O   UNL A   1      34.157  32.336  28.367  1.00  0.00    -0.269 OA
BRANCH  27  30
ATOM     30  C   UNL A   1      35.751  30.610  28.361  1.00  0.00     0.039 A 
ATOM     31  C   UNL A   1      36.956  30.930  27.730  1.00  0.00     0.014 A 
ATOM     32  C   UNL A   1      35.730  29.673  29.396  1.00  0.00     0.014 A 
ATOM     33  C   UNL A   1      38.146  30.352  28.177  1.00  0.00     0.010 A 
ATOM     34  C   UNL A   1      36.924  29.166  29.897  1.00  0.00     0.010 A 
ATOM     35  C   UNL A   1      38.143  29.488  29.285  1.00  0.00    -0.014 A 
BRANCH  35  36
ATOM     36  C   UNL A   1      39.407  28.918  29.818  1.00  0.00     0.031 A 
ATOM     37  C   UNL A   1      40.064  29.521  31.030  1.00  0.00     0.074 A 
ATOM     38  C   UNL A   1      40.003  27.905  29.160  1.00  0.00     0.049 A 
ATOM     39  N   UNL A   1      41.184  29.182  31.613  1.00  0.00    -0.248 NA
ATOM     40  C   UNL A   1      39.394  30.678  31.648  1.00  0.00     0.031 C 
ATOM     41  C   UNL A   1      39.515  27.297  27.919  1.00  0.00     0.029 A 
ATOM     42  N   UNL A   1      41.165  27.224  29.428  1.00  0.00    -0.354 N 
ATOM     43  C   UNL A   1      41.368  30.096  32.644  1.00  0.00     0.074 A 
ATOM     44  C   UNL A   1      40.268  31.033  32.579  1.00  0.00     0.031 C 
ATOM     45  C   UNL A   1      40.367  26.333  27.536  1.00  0.00     0.029 A 
ATOM     46  C   UNL A   1      41.472  26.268  28.488  1.00  0.00     0.049 A 
ATOM     47  H   UNL A   1      41.724  27.402  30.217  1.00  0.00     0.167 HD
ATOM     48  C   UNL A   1      42.344  30.133  33.583  1.00  0.00     0.034 A 
ATOM     49  C   UNL A   1      42.526  25.434  28.400  1.00  0.00     0.034 A 
ATOM     50  C   UNL A   1      43.412  29.174  33.670  1.00  0.00     0.049 A 
ATOM     51  C   UNL A   1      43.563  25.452  29.490  1.00  0.00     0.074 A 
ATOM     52  C   UNL A   1      44.400  29.071  34.634  1.00  0.00     0.029 A 
ATOM     53  N   UNL A   1      43.634  28.153  32.759  1.00  0.00    -0.354 N 
ATOM     54  N   UNL A   1      43.629  26.220  30.551  1.00  0.00    -0.248 NA
ATOM     55  C   UNL A   1      44.645  24.464  29.394  1.00  0.00     0.031 C 
ATOM     56  C   UNL A   1      45.231  27.997  34.294  1.00  0.00     0.029 A 
ATOM     57  C   UNL A   1      44.746  27.417  33.133  1.00  0.00     0.049 A 
ATOM     58  H   UNL A   1      43.082  27.977  31.963  1.00  0.00     0.167 HD
ATOM     59  C   UNL A   1      44.742  25.789  31.263  1.00  0.00     0.074 A 
ATOM     60  C   UNL A   1      45.302  24.673  30.526  1.00  0.00     0.031 C 
ATOM     61  C   UNL A   1      45.265  26.282  32.414  1.00  0.00     0.034 A 
BRANCH  48  62
ATOM     62  C   UNL A   1      42.262  31.214  34.631  1.00  0.00     0.023 A 
ATOM     63  C   UNL A   1      41.565  30.963  35.832  1.00  0.00     0.012 A 
ATOM     64  C   UNL A   1      42.908  32.453  34.456  1.00  0.00     0.148 A 
ATOM     65  C   UNL A   1      41.479  31.937  36.823  1.00  0.00     0.002 A 
ATOM     66  C   UNL A   1      42.856  33.404  35.469  1.00  0.00     0.091 A 
ATOM     67  F   UNL A   1      43.547  32.685  33.301  1.00  0.00    -0.205 F 
ATOM     68  C   UNL A   1      42.132  33.154  36.647  1.00  0.00     0.022 A 
BRANCH  66  69
ATOM     69  S   UNL A   1      43.729  34.972  35.373  1.00  0.00     0.127 S 
ATOM     70  O   UNL A   1      43.621  35.454  36.749  1.00  0.00    -0.237 OA
ATOM     71  O   UNL A   1      45.074  34.552  34.978  1.00  0.00    -0.237 OA
ATOM     72  O   UNL A   1      43.023  35.763  34.375  1.00  0.00    -0.744 OA
ENDBRANCH  66  69
ENDBRANCH  48  62
BRANCH  49  73
ATOM     73  C   UNL A   1      42.608  24.462  27.274  1.00  0.00     0.023 A 
ATOM     74  C   UNL A   1      43.313  24.812  26.107  1.00  0.00     0.012 A 
ATOM     75  C   UNL A   1      42.029  23.182  27.369  1.00  0.00     0.148 A 
ATOM     76  C   UNL A   1      43.417  23.916  25.042  1.00  0.00     0.002 A 
ATOM     77  C   UNL A   1      42.185  22.273  26.328  1.00  0.00     0.091 A 
ATOM     78  F   UNL A   1      41.353  22.872  28.484  1.00  0.00    -0.205 F 
ATOM     79  C   UNL A   1      42.862  22.644  25.157  1.00  0.00     0.022 A 
BRANCH  77  80
ATOM     80  S   UNL A   1      41.624  20.570  26.450  1.00  0.00     0.127 S 
ATOM     81  O   UNL A   1      40.192  20.709  26.201  1.00  0.00    -0.237 OA
ATOM     82  O   UNL A   1      42.378  19.925  25.375  1.00  0.00    -0.237 OA
ATOM     83  O   UNL A   1      41.995  20.129  27.788  1.00  0.00    -0.744 OA
ENDBRANCH  77  80
ENDBRANCH  49  73
BRANCH  61  84
ATOM     84  C   UNL A   1      46.496  25.607  32.961  1.00  0.00     0.023 A 
ATOM     85  C   UNL A   1      47.772  26.106  32.631  1.00  0.00     0.012 A 
ATOM     86  C   UNL A   1      46.387  24.520  33.849  1.00  0.00     0.148 A 
ATOM     87  C   UNL A   1      48.922  25.507  33.144  1.00  0.00     0.002 A 
ATOM     88  C   UNL A   1      47.536  23.959  34.396  1.00  0.00     0.091 A 
ATOM     89  F   UNL A   1      45.166  24.047  34.138  1.00  0.00    -0.205 F 
ATOM     90  C   UNL A   1      48.804  24.443  34.034  1.00  0.00     0.022 A 
BRANCH  88  91
ATOM     91  S   UNL A   1      47.473  22.649  35.622  1.00  0.00     0.127 S 
ATOM     92  O   UNL A   1      46.696  23.276  36.690  1.00  0.00    -0.237 OA
ATOM     93  O   UNL A   1      46.771  21.583  34.906  1.00  0.00    -0.237 OA
ATOM     94  O   UNL A   1      48.858  22.341  35.950  1.00  0.00    -0.744 OA
ENDBRANCH  88  91
ENDBRANCH  61  84
ENDBRANCH  35  36
ENDBRANCH  27  30
ENDBRANCH  25  26
ENDBRANCH  24  25
ENDBRANCH   1  24
TORSDOF 17
ENDMDL
MODEL 2
REMARK VINA RESULT:     -11.0      1.765      2.225
REMARK SMILES C[C@H]1[C@H](C(=O)NCCCNC(=O)c2ccc(-c3c4nc(c(-c5cccc(S(=O)(=O)[O-])c5F)c5ccc([nH]5)c(-c5cccc(S(=O)(=O)[O-])c5F)c5nc(c(-c6cccc(S(=O)(=O)[O-])c6F)c6ccc3[nH]6)C=C5)C=C4)cc2)CCN1C(=O)COc1ccc(F)cc1Br
REMARK SMILES IDX 7 1 6 2 4 3 5 4 3 6 1 7 2 8 78 9 76 10 77 11 79 12 80 13
REMARK SMILES IDX 81 14 82 15 83 16 84 17 89 18 85 19 88 20 90 21 86 22 87 23
REMARK SMILES IDX 8 24 9 25 10 26 11 27 12 29 13 30 14 31 75 32 15 33 74 34
REMARK SMILES IDX 16 35 17 36 18 37 68 38 19 39 73 40 67 41 69 42 20 43 72 44
REMARK SMILES IDX 66 45 65 46 21 48 53 49 33 50 52 51 34 52 37 53 51 54 70 55
REMARK SMILES IDX 35 56 36 57 50 59 71 60 38 61 22 62 23 63 31 64 24 65 26 66
REMARK SMILES IDX 32 67 25 68 27 69 28 70 29 71 30 72 54 73 55 74 63 75 56 76
REMARK SMILES IDX 58 77 64 78 57 79 59 80 60 81 61 82 62 83 39 84 40 85 48 86
REMARK SMILES IDX 41 87 43 88 49 89 42 90 44 91 45 92 46 93 47 94
REMARK H PARENT 6 5 10 28 69 47 37 58
REMARK Flexibility Score: inf
ROOT
ATOM      1  C   UNL A   1      31.077  29.239  25.014  1.00  0.00     0.117 C 
ENDROOT
BRANCH   1   2
ATOM      2  N   UNL A   1      30.739  29.696  23.676  1.00  0.00    -0.356 N 
ATOM      3  C   UNL A   1      30.406  29.011  22.552  1.00  0.00     0.225 C 
ATOM      4  O   UNL A   1      30.167  29.669  21.536  1.00  0.00    -0.275 OA
ATOM      5  H   UNL A   1      30.756  30.674  23.566  1.00  0.00     0.163 HD
BRANCH   3   6
ATOM      6  C   UNL A   1      30.307  27.498  22.512  1.00  0.00     0.102 C 
ATOM      7  C   UNL A   1      31.995  26.015  21.417  1.00  0.00     0.032 C 
ATOM      8  C   UNL A   1      31.670  26.793  22.692  1.00  0.00     0.094 C 
ATOM      9  N   UNL A   1      31.488  25.955  23.880  1.00  0.00    -0.336 N 
ATOM     10  C   UNL A   1      29.343  26.921  23.548  1.00  0.00     0.037 C 
ATOM     11  C   UNL A   1      30.082  25.765  24.185  1.00  0.00     0.121 C 
BRANCH   9  12
ATOM     12  C   UNL A   1      32.434  25.648  24.844  1.00  0.00     0.260 C 
ATOM     13  O   UNL A   1      32.112  25.550  26.034  1.00  0.00    -0.271 OA
BRANCH  12  14
ATOM     14  C   UNL A   1      33.890  25.396  24.435  1.00  0.00     0.329 C 
BRANCH  14  15
ATOM     15  O   UNL A   1      34.781  24.856  25.380  1.00  0.00    -0.483 OA
BRANCH  15  16
ATOM     16  C   UNL A   1      35.298  23.596  25.303  1.00  0.00     0.134 A 
ATOM     17  C   UNL A   1      36.697  23.619  25.462  1.00  0.00     0.050 A 
ATOM     18  C   UNL A   1      34.693  22.378  24.964  1.00  0.00     0.062 A 
ATOM     19  C   UNL A   1      37.481  22.484  25.258  1.00  0.00     0.043 A 
ATOM     20  C   UNL A   1      35.489  21.243  24.732  1.00  0.00     0.058 A 
ATOM     21  Br  UNL A   1      32.845  22.054  24.722  1.00  0.00    -0.047 Br
ATOM     22  C   UNL A   1      36.867  21.308  24.871  1.00  0.00     0.124 A 
ATOM     23  F   UNL A   1      37.608  20.222  24.616  1.00  0.00    -0.207 F 
ENDBRANCH  15  16
ENDBRANCH  14  15
ENDBRANCH  12  14
ENDBRANCH   9  12
ENDBRANCH   3   6
ENDBRANCH   1   2
BRANCH   1  24
ATOM     24  C   UNL A   1      32.408  29.794  25.496  1.00  0.00     0.042 C 
BRANCH  24  25
ATOM     25  C   UNL A   1      32.353  30.380  26.901  1.00  0.00     0.118 C 
BRANCH  25  26
ATOM     26  N   UNL A   1      32.467  31.833  26.905  1.00  0.00    -0.352 N 
ATOM     27  C   UNL A   1      33.401  32.642  27.503  1.00  0.00     0.251 C 
ATOM     28  H   UNL A   1      31.767  32.307  26.402  1.00  0.00     0.163 HD
ATOM     29  O   UNL A   1      33.207  33.852  27.551  1.00  0.00    -0.269 OA
BRANCH  27  30
ATOM     30  C   UNL A   1      34.626  32.061  28.093  1.00  0.00     0.039 A 
ATOM     31  C   UNL A   1      35.746  32.879  28.262  1.00  0.00     0.014 A 
ATOM     32  C   UNL A   1      34.683  30.714  28.455  1.00  0.00     0.014 A 
ATOM     33  C   UNL A   1      36.903  32.358  28.845  1.00  0.00     0.010 A 
ATOM     34  C   UNL A   1      35.802  30.219  29.116  1.00  0.00     0.010 A 
ATOM     35  C   UNL A   1      36.930  31.031  29.305  1.00  0.00    -0.014 A 
BRANCH  35  36
ATOM     36  C   UNL A   1      38.126  30.479  29.991  1.00  0.00     0.031 A 
ATOM     37  C   UNL A   1      38.490  30.939  31.377  1.00  0.00     0.074 A 
ATOM     38  C   UNL A   1      38.929  29.622  29.332  1.00  0.00     0.049 A 
ATOM     39  N   UNL A   1      39.514  30.598  32.115  1.00  0.00    -0.248 NA
ATOM     40  C   UNL A   1      37.608  31.939  32.004  1.00  0.00     0.031 C 
ATOM     41  C   UNL A   1      38.736  29.175  27.949  1.00  0.00     0.029 A 
ATOM     42  N   UNL A   1      40.084  28.994  29.725  1.00  0.00    -0.354 N 
ATOM     43  C   UNL A   1      39.418  31.357  33.275  1.00  0.00     0.074 A 
ATOM     44  C   UNL A   1      38.261  32.212  33.125  1.00  0.00     0.031 C 
ATOM     45  C   UNL A   1      39.733  28.342  27.613  1.00  0.00     0.029 A 
ATOM     46  C   UNL A   1      40.649  28.214  28.743  1.00  0.00     0.049 A 
ATOM     47  H   UNL A   1      40.471  29.091  30.624  1.00  0.00     0.167 HD
ATOM     48  C   UNL A   1      40.199  31.323  34.381  1.00  0.00     0.034 A 
ATOM     49  C   UNL A   1      41.778  27.480  28.749  1.00  0.00     0.034 A 
ATOM     50  C   UNL A   1      41.323  30.441  34.544  1.00  0.00     0.049 A 
ATOM     51  C   UNL A   1      42.594  27.410  30.011  1.00  0.00     0.074 A 
ATOM     52  C   UNL A   1      42.126  30.265  35.657  1.00  0.00     0.029 A 
ATOM     53  N   UNL A   1      41.806  29.587  33.565  1.00  0.00    -0.354 N 
ATOM     54  N   UNL A   1      42.391  28.012  31.158  1.00  0.00    -0.248 NA
ATOM     55  C   UNL A   1      43.768  26.527  29.994  1.00  0.00     0.031 C 
ATOM     56  C   UNL A   1      43.106  29.317  35.344  1.00  0.00     0.029 A 
ATOM     57  C   UNL A   1      42.900  28.885  34.044  1.00  0.00     0.049 A 
ATOM     58  H   UNL A   1      41.428  29.493  32.661  1.00  0.00     0.167 HD
ATOM     59  C   UNL A   1      43.394  27.560  32.008  1.00  0.00     0.074 A 
ATOM     60  C   UNL A   1      44.185  26.611  31.250  1.00  0.00     0.031 C 
ATOM     61  C   UNL A   1      43.649  27.911  33.293  1.00  0.00     0.034 A 
BRANCH  48  62
ATOM     62  C   UNL A   1      39.823  32.226  35.529  1.00  0.00     0.023 A 
ATOM     63  C   UNL A   1      39.059  31.707  36.595  1.00  0.00     0.012 A 
ATOM     64  C   UNL A   1      40.259  33.564  35.581  1.00  0.00     0.148 A 
ATOM     65  C   UNL A   1      38.702  32.513  37.675  1.00  0.00     0.002 A 
ATOM     66  C   UNL A   1      39.938  34.349  36.682  1.00  0.00     0.091 A 
ATOM     67  F   UNL A   1      40.965  34.047  34.549  1.00  0.00    -0.205 F 
ATOM     68  C   UNL A   1      39.150  33.830  37.724  1.00  0.00     0.022 A 
BRANCH  66  69
ATOM     69  S   UNL A   1      40.531  36.034  36.878  1.00  0.00     0.127 S 
ATOM     70  O   UNL A   1      40.195  36.304  38.275  1.00  0.00    -0.237 OA
ATOM     71  O   UNL A   1      41.963  35.889  36.614  1.00  0.00    -0.237 OA
ATOM     72  O   UNL A   1      39.810  36.829  35.895  1.00  0.00    -0.744 OA
ENDBRANCH  66  69
ENDBRANCH  48  62
BRANCH  49  73
ATOM     73  C   UNL A   1      42.158  26.698  27.540  1.00  0.00     0.023 A 
ATOM     74  C   UNL A   1      42.799  27.347  26.467  1.00  0.00     0.012 A 
ATOM     75  C   UNL A   1      41.928  25.311  27.466  1.00  0.00     0.148 A 
ATOM     76  C   UNL A   1      43.177  26.635  25.328  1.00  0.00     0.002 A 
ATOM     77  C   UNL A   1      42.359  24.597  26.353  1.00  0.00     0.091 A 
ATOM     78  F   UNL A   1      41.308  24.713  28.493  1.00  0.00    -0.205 F 
ATOM     79  C   UNL A   1      42.967  25.259  25.276  1.00  0.00     0.022 A 
BRANCH  77  80
ATOM     80  S   UNL A   1      42.255  22.805  26.263  1.00  0.00     0.127 S 
ATOM     81  O   UNL A   1      40.824  22.579  26.447  1.00  0.00    -0.237 OA
ATOM     82  O   UNL A   1      42.753  22.539  24.914  1.00  0.00    -0.237 OA
ATOM     83  O   UNL A   1      43.117  22.308  27.327  1.00  0.00    -0.744 OA
ENDBRANCH  77  80
ENDBRANCH  49  73
BRANCH  61  84
ATOM     84  C   UNL A   1      44.821  27.252  33.972  1.00  0.00     0.023 A 
ATOM     85  C   UNL A   1      46.103  27.830  33.873  1.00  0.00     0.012 A 
ATOM     86  C   UNL A   1      44.643  26.096  34.758  1.00  0.00     0.148 A 
ATOM     87  C   UNL A   1      47.196  27.245  34.511  1.00  0.00     0.002 A 
ATOM     88  C   UNL A   1      45.728  25.547  35.432  1.00  0.00     0.091 A 
ATOM     89  F   UNL A   1      43.420  25.550  34.826  1.00  0.00    -0.205 F 
ATOM     90  C   UNL A   1      47.006  26.113  35.299  1.00  0.00     0.022 A 
BRANCH  88  91
ATOM     91  S   UNL A   1      45.557  24.147  36.543  1.00  0.00     0.127 S 
ATOM     92  O   UNL A   1      44.652  24.680  37.559  1.00  0.00    -0.237 OA
ATOM     93  O   UNL A   1      44.964  23.129  35.674  1.00  0.00    -0.237 OA
ATOM     94  O   UNL A   1      46.903  23.834  37.002  1.00  0.00    -0.744 OA
ENDBRANCH  88  91
ENDBRANCH  61  84
ENDBRANCH  35  36
ENDBRANCH  27  30
ENDBRANCH  25  26
ENDBRANCH  24  25
ENDBRANCH   1  24
TORSDOF 17
ENDMDL
MODEL 3
REMARK VINA RESULT:     -10.9      5.199     10.026
REMARK SMILES C[C@H]1[C@H](C(=O)NCCCNC(=O)c2ccc(-c3c4nc(c(-c5cccc(S(=O)(=O)[O-])c5F)c5ccc([nH]5)c(-c5cccc(S(=O)(=O)[O-])c5F)c5nc(c(-c6cccc(S(=O)(=O)[O-])c6F)c6ccc3[nH]6)C=C5)C=C4)cc2)CCN1C(=O)COc1ccc(F)cc1Br
REMARK SMILES IDX 7 1 6 2 4 3 5 4 3 6 1 7 2 8 78 9 76 10 77 11 79 12 80 13
REMARK SMILES IDX 81 14 82 15 83 16 84 17 89 18 85 19 88 20 90 21 86 22 87 23
REMARK SMILES IDX 8 24 9 25 10 26 11 27 12 29 13 30 14 31 75 32 15 33 74 34
REMARK SMILES IDX 16 35 17 36 18 37 68 38 19 39 73 40 67 41 69 42 20 43 72 44
REMARK SMILES IDX 66 45 65 46 21 48 53 49 33 50 52 51 34 52 37 53 51 54 70 55
REMARK SMILES IDX 35 56 36 57 50 59 71 60 38 61 22 62 23 63 31 64 24 65 26 66
REMARK SMILES IDX 32 67 25 68 27 69 28 70 29 71 30 72 54 73 55 74 63 75 56 76
REMARK SMILES IDX 58 77 64 78 57 79 59 80 60 81 61 82 62 83 39 84 40 85 48 86
REMARK SMILES IDX 41 87 43 88 49 89 42 90 44 91 45 92 46 93 47 94
REMARK H PARENT 6 5 10 28 69 47 37 58
REMARK Flexibility Score: inf
ROOT
ATOM      1  C   UNL A   1      35.275  21.298  25.422  1.00  0.00     0.117 C 
ENDROOT
BRANCH   1   2
ATOM      2  N   UNL A   1      34.392  20.162  25.631  1.00  0.00    -0.356 N 
ATOM      3  C   UNL A   1      33.086  19.972  25.311  1.00  0.00     0.225 C 
ATOM      4  O   UNL A   1      32.579  18.889  25.616  1.00  0.00    -0.275 OA
ATOM      5  H   UNL A   1      34.815  19.398  26.084  1.00  0.00     0.163 HD
BRANCH   3   6
ATOM      6  C   UNL A   1      32.255  21.019  24.594  1.00  0.00     0.102 C 
ATOM      7  C   UNL A   1      31.537  23.180  25.624  1.00  0.00     0.032 C 
ATOM      8  C   UNL A   1      32.689  22.466  24.916  1.00  0.00     0.094 C 
ATOM      9  N   UNL A   1      33.040  23.036  23.612  1.00  0.00    -0.336 N 
ATOM     10  C   UNL A   1      32.252  20.861  23.074  1.00  0.00     0.037 C 
ATOM     11  C   UNL A   1      32.490  22.249  22.525  1.00  0.00     0.121 C 
BRANCH   9  12
ATOM     12  C   UNL A   1      34.037  23.958  23.340  1.00  0.00     0.260 C 
ATOM     13  O   UNL A   1      35.130  23.590  22.893  1.00  0.00    -0.271 OA
BRANCH  12  14
ATOM     14  C   UNL A   1      33.780  25.453  23.565  1.00  0.00     0.329 C 
BRANCH  14  15
ATOM     15  O   UNL A   1      32.744  25.845  24.432  1.00  0.00    -0.483 OA
BRANCH  15  16
ATOM     16  C   UNL A   1      32.699  27.052  25.064  1.00  0.00     0.134 A 
ATOM     17  C   UNL A   1      32.190  26.914  26.370  1.00  0.00     0.050 A 
ATOM     18  C   UNL A   1      32.935  28.347  24.582  1.00  0.00     0.062 A 
ATOM     19  C   UNL A   1      31.887  28.019  27.164  1.00  0.00     0.043 A 
ATOM     20  C   UNL A   1      32.601  29.459  25.375  1.00  0.00     0.058 A 
ATOM     21  Br  UNL A   1      33.639  28.821  22.892  1.00  0.00    -0.047 Br
ATOM     22  C   UNL A   1      32.076  29.287  26.646  1.00  0.00     0.124 A 
ATOM     23  F   UNL A   1      31.739  30.361  27.372  1.00  0.00    -0.207 F 
ENDBRANCH  15  16
ENDBRANCH  14  15
ENDBRANCH  12  14
ENDBRANCH   9  12
ENDBRANCH   3   6
ENDBRANCH   1   2
BRANCH   1  24
ATOM     24  C   UNL A   1      36.656  20.877  24.944  1.00  0.00     0.042 C 
BRANCH  24  25
ATOM     25  C   UNL A   1      37.795  21.593  25.659  1.00  0.00     0.118 C 
BRANCH  25  26
ATOM     26  N   UNL A   1      38.858  20.684  26.065  1.00  0.00    -0.352 N 
ATOM     27  C   UNL A   1      40.122  20.957  26.526  1.00  0.00     0.251 C 
ATOM     28  H   UNL A   1      38.637  19.728  25.999  1.00  0.00     0.163 HD
ATOM     29  O   UNL A   1      40.936  20.044  26.628  1.00  0.00    -0.269 OA
BRANCH  27  30
ATOM     30  C   UNL A   1      40.505  22.338  26.889  1.00  0.00     0.039 A 
ATOM     31  C   UNL A   1      41.235  22.550  28.062  1.00  0.00     0.014 A 
ATOM     32  C   UNL A   1      40.127  23.423  26.095  1.00  0.00     0.014 A 
ATOM     33  C   UNL A   1      41.632  23.843  28.406  1.00  0.00     0.010 A 
ATOM     34  C   UNL A   1      40.597  24.698  26.392  1.00  0.00     0.010 A 
ATOM     35  C   UNL A   1      41.343  24.925  27.557  1.00  0.00    -0.014 A 
BRANCH  35  36
ATOM     36  C   UNL A   1      41.817  26.296  27.871  1.00  0.00     0.031 A 
ATOM     37  C   UNL A   1      43.223  26.713  27.535  1.00  0.00     0.074 A 
ATOM     38  C   UNL A   1      41.003  27.141  28.533  1.00  0.00     0.049 A 
ATOM     39  N   UNL A   1      43.822  27.852  27.766  1.00  0.00    -0.248 NA
ATOM     40  C   UNL A   1      44.081  25.708  26.884  1.00  0.00     0.031 C 
ATOM     41  C   UNL A   1      39.651  26.822  29.000  1.00  0.00     0.029 A 
ATOM     42  N   UNL A   1      41.202  28.433  28.952  1.00  0.00    -0.354 N 
ATOM     43  C   UNL A   1      45.128  27.693  27.319  1.00  0.00     0.074 A 
ATOM     44  C   UNL A   1      45.249  26.333  26.843  1.00  0.00     0.031 C 
ATOM     45  C   UNL A   1      39.142  27.889  29.635  1.00  0.00     0.029 A 
ATOM     46  C   UNL A   1      40.135  28.959  29.643  1.00  0.00     0.049 A 
ATOM     47  H   UNL A   1      42.029  28.936  28.774  1.00  0.00     0.167 HD
ATOM     48  C   UNL A   1      46.129  28.606  27.273  1.00  0.00     0.034 A 
ATOM     49  C   UNL A   1      39.976  30.165  30.221  1.00  0.00     0.034 A 
ATOM     50  C   UNL A   1      45.991  29.971  27.706  1.00  0.00     0.049 A 
ATOM     51  C   UNL A   1      41.078  31.182  30.101  1.00  0.00     0.074 A 
ATOM     52  C   UNL A   1      46.914  30.998  27.622  1.00  0.00     0.029 A 
ATOM     53  N   UNL A   1      44.860  30.499  28.308  1.00  0.00    -0.354 N 
ATOM     54  N   UNL A   1      42.249  31.063  29.525  1.00  0.00    -0.248 NA
ATOM     55  C   UNL A   1      40.820  32.511  30.672  1.00  0.00     0.031 C 
ATOM     56  C   UNL A   1      46.346  32.143  28.190  1.00  0.00     0.029 A 
ATOM     57  C   UNL A   1      45.061  31.836  28.606  1.00  0.00     0.049 A 
ATOM     58  H   UNL A   1      44.034  29.997  28.496  1.00  0.00     0.167 HD
ATOM     59  C   UNL A   1      42.857  32.308  29.639  1.00  0.00     0.074 A 
ATOM     60  C   UNL A   1      41.910  33.174  30.313  1.00  0.00     0.031 C 
ATOM     61  C   UNL A   1      44.093  32.696  29.238  1.00  0.00     0.034 A 
BRANCH  48  62
ATOM     62  C   UNL A   1      47.442  28.172  26.674  1.00  0.00     0.023 A 
ATOM     63  C   UNL A   1      48.534  27.896  27.525  1.00  0.00     0.012 A 
ATOM     64  C   UNL A   1      47.588  27.989  25.285  1.00  0.00     0.148 A 
ATOM     65  C   UNL A   1      49.758  27.484  27.003  1.00  0.00     0.002 A 
ATOM     66  C   UNL A   1      48.799  27.534  24.776  1.00  0.00     0.091 A 
ATOM     67  F   UNL A   1      46.549  28.277  24.489  1.00  0.00    -0.205 F 
ATOM     68  C   UNL A   1      49.888  27.293  25.630  1.00  0.00     0.022 A 
BRANCH  66  69
ATOM     69  S   UNL A   1      49.046  27.181  23.031  1.00  0.00     0.127 S 
ATOM     70  O   UNL A   1      48.511  28.390  22.407  1.00  0.00    -0.237 OA
ATOM     71  O   UNL A   1      50.500  27.044  22.946  1.00  0.00    -0.237 OA
ATOM     72  O   UNL A   1      48.304  25.957  22.762  1.00  0.00    -0.744 OA
ENDBRANCH  66  69
ENDBRANCH  48  62
BRANCH  49  73
ATOM     73  C   UNL A   1      38.691  30.495  30.900  1.00  0.00     0.023 A 
ATOM     74  C   UNL A   1      38.513  30.148  32.253  1.00  0.00     0.012 A 
ATOM     75  C   UNL A   1      37.666  31.186  30.227  1.00  0.00     0.148 A 
ATOM     76  C   UNL A   1      37.326  30.458  32.917  1.00  0.00     0.002 A 
ATOM     77  C   UNL A   1      36.508  31.541  30.910  1.00  0.00     0.091 A 
ATOM     78  F   UNL A   1      37.850  31.497  28.936  1.00  0.00    -0.205 F 
ATOM     79  C   UNL A   1      36.328  31.163  32.249  1.00  0.00     0.022 A 
BRANCH  77  80
ATOM     80  S   UNL A   1      35.234  32.569  30.167  1.00  0.00     0.127 S 
ATOM     81  O   UNL A   1      34.777  31.729  29.065  1.00  0.00    -0.237 OA
ATOM     82  O   UNL A   1      34.282  32.715  31.269  1.00  0.00    -0.237 OA
ATOM     83  O   UNL A   1      35.901  33.807  29.787  1.00  0.00    -0.744 OA
ENDBRANCH  77  80
ENDBRANCH  49  73
BRANCH  61  84
ATOM     84  C   UNL A   1      44.490  34.126  29.498  1.00  0.00     0.023 A 
ATOM     85  C   UNL A   1      45.152  34.461  30.696  1.00  0.00     0.012 A 
ATOM     86  C   UNL A   1      44.261  35.125  28.532  1.00  0.00     0.148 A 
ATOM     87  C   UNL A   1      45.545  35.775  30.947  1.00  0.00     0.002 A 
ATOM     88  C   UNL A   1      44.700  36.424  28.767  1.00  0.00     0.091 A 
ATOM     89  F   UNL A   1      43.614  34.792  27.406  1.00  0.00    -0.205 F 
ATOM     90  C   UNL A   1      45.330  36.752  29.978  1.00  0.00     0.022 A 
BRANCH  88  91
ATOM     91  S   UNL A   1      44.549  37.723  27.537  1.00  0.00     0.127 S 
ATOM     92  O   UNL A   1      44.697  38.926  28.354  1.00  0.00    -0.237 OA
ATOM     93  O   UNL A   1      45.681  37.448  26.651  1.00  0.00    -0.237 OA
ATOM     94  O   UNL A   1      43.244  37.539  26.919  1.00  0.00    -0.744 OA
ENDBRANCH  88  91
ENDBRANCH  61  84
ENDBRANCH  35  36
ENDBRANCH  27  30
ENDBRANCH  25  26
ENDBRANCH  24  25
ENDBRANCH   1  24
TORSDOF 17
ENDMDL
