MODEL 1
REMARK VINA RESULT:     -11.8      0.000      0.000
REMARK SMILES C[C@H](c1ccc(Br)s1)[NH+]1CCC(CC(=O)NCCCNC(=O)c2ccc(-c3c4nc(c(-c5cccc(S(=O)(=O)[O-])c5F)c5ccc([nH]5)c(-c5cccc(S(=O)(=O)[O-])c5F)c5nc(c(-c6cccc(S(=O)(=O)[O-])c6F)c6ccc3[nH]6)C=C5)C=C4)cc2)CC1
REMARK SMILES IDX 18 1 17 2 16 3 14 4 15 5 13 7 12 8 9 9 10 10 87 11 11 13
REMARK SMILES IDX 86 14 2 15 1 16 3 17 4 18 8 19 5 20 6 21 7 22 19 23 20 24
REMARK SMILES IDX 21 25 22 27 23 28 24 29 85 30 25 31 84 32 26 33 27 34 28 35
REMARK SMILES IDX 78 36 29 37 83 38 77 39 79 40 30 41 82 42 76 43 75 44 31 46
REMARK SMILES IDX 63 47 43 48 62 49 44 50 47 51 61 52 80 53 45 54 46 55 60 57
REMARK SMILES IDX 81 58 48 59 32 60 33 61 41 62 34 63 36 64 42 65 35 66 37 67
REMARK SMILES IDX 38 68 39 69 40 70 64 71 65 72 73 73 66 74 68 75 74 76 67 77
REMARK SMILES IDX 69 78 70 79 71 80 72 81 49 82 50 83 58 84 51 85 53 86 59 87
REMARK SMILES IDX 52 88 54 89 55 90 56 91 57 92
REMARK H PARENT 16 6 9 12 20 26 79 45 47 56
REMARK Flexibility Score: inf
ROOT
ATOM      1  C   UNL A   1      31.403  32.110  26.534  1.00  0.00     0.042 C 
ENDROOT
BRANCH   1   2
ATOM      2  C   UNL A   1      31.455  30.639  26.096  1.00  0.00     0.117 C 
BRANCH   2   3
ATOM      3  N   UNL A   1      31.036  30.411  24.715  1.00  0.00    -0.356 N 
ATOM      4  C   UNL A   1      30.715  29.267  24.038  1.00  0.00     0.220 C 
ATOM      5  O   UNL A   1      30.313  29.378  22.876  1.00  0.00    -0.275 OA
ATOM      6  H   UNL A   1      30.973  31.231  24.173  1.00  0.00     0.163 HD
BRANCH   4   7
ATOM      7  C   UNL A   1      30.867  27.886  24.671  1.00  0.00     0.104 C 
BRANCH   7   8
ATOM      8  C   UNL A   1      31.021  26.744  23.640  1.00  0.00     0.009 C 
ATOM      9  N   UNL A   1      32.530  24.224  23.373  1.00  0.00    -0.328 N 
ATOM     10  C   UNL A   1      32.849  25.367  22.504  1.00  0.00     0.263 C 
ATOM     11  C   UNL A   1      31.061  24.157  23.472  1.00  0.00     0.263 C 
ATOM     12  H   UNL A   1      32.940  24.363  24.296  1.00  0.00     0.348 HD
ATOM     13  C   UNL A   1      32.481  26.621  23.254  1.00  0.00     0.066 C 
ATOM     14  C   UNL A   1      30.504  25.402  24.196  1.00  0.00     0.066 C 
BRANCH   9  15
ATOM     15  C   UNL A   1      33.142  22.944  22.906  1.00  0.00     0.222 C 
ATOM     16  C   UNL A   1      32.216  21.771  23.266  1.00  0.00     0.082 C 
BRANCH  15  17
ATOM     17  C   UNL A   1      34.511  22.716  23.532  1.00  0.00     0.063 A 
ATOM     18  C   UNL A   1      35.718  23.357  23.295  1.00  0.00     0.023 A 
ATOM     19  S   UNL A   1      34.725  21.372  24.591  1.00  0.00    -0.127 S 
ATOM     20  C   UNL A   1      36.828  22.623  23.820  1.00  0.00     0.028 A 
ATOM     21  C   UNL A   1      36.407  21.484  24.460  1.00  0.00     0.070 A 
ATOM     22  Br  UNL A   1      37.552  20.131  25.057  1.00  0.00    -0.039 Br
ENDBRANCH  15  17
ENDBRANCH   9  15
ENDBRANCH   7   8
ENDBRANCH   4   7
ENDBRANCH   2   3
ENDBRANCH   1   2
BRANCH   1  23
ATOM     23  C   UNL A   1      32.667  32.643  27.194  1.00  0.00     0.118 C 
BRANCH  23  24
ATOM     24  N   UNL A   1      32.518  34.027  27.609  1.00  0.00    -0.352 N 
ATOM     25  C   UNL A   1      33.096  34.710  28.655  1.00  0.00     0.251 C 
ATOM     26  H   UNL A   1      31.906  34.561  27.054  1.00  0.00     0.163 HD
ATOM     27  O   UNL A   1      32.623  35.800  28.972  1.00  0.00    -0.269 OA
BRANCH  25  28
ATOM     28  C   UNL A   1      34.261  34.171  29.407  1.00  0.00     0.039 A 
ATOM     29  C   UNL A   1      35.550  34.432  28.924  1.00  0.00     0.014 A 
ATOM     30  C   UNL A   1      34.111  33.341  30.521  1.00  0.00     0.014 A 
ATOM     31  C   UNL A   1      36.674  33.892  29.565  1.00  0.00     0.010 A 
ATOM     32  C   UNL A   1      35.235  32.870  31.208  1.00  0.00     0.010 A 
ATOM     33  C   UNL A   1      36.530  33.118  30.726  1.00  0.00    -0.014 A 
BRANCH  33  34
ATOM     34  C   UNL A   1      37.703  32.527  31.432  1.00  0.00     0.031 A 
ATOM     35  C   UNL A   1      38.429  31.345  30.835  1.00  0.00     0.074 A 
ATOM     36  C   UNL A   1      38.080  32.996  32.641  1.00  0.00     0.049 A 
ATOM     37  N   UNL A   1      39.394  30.621  31.343  1.00  0.00    -0.248 NA
ATOM     38  C   UNL A   1      38.004  30.911  29.491  1.00  0.00     0.031 C 
ATOM     39  C   UNL A   1      37.458  34.116  33.347  1.00  0.00     0.029 A 
ATOM     40  N   UNL A   1      39.052  32.557  33.509  1.00  0.00    -0.354 N 
ATOM     41  C   UNL A   1      39.677  29.639  30.398  1.00  0.00     0.074 A 
ATOM     42  C   UNL A   1      38.750  29.831  29.304  1.00  0.00     0.031 C 
ATOM     43  C   UNL A   1      38.039  34.256  34.551  1.00  0.00     0.029 A 
ATOM     44  C   UNL A   1      39.054  33.223  34.714  1.00  0.00     0.049 A 
ATOM     45  H   UNL A   1      39.685  31.837  33.289  1.00  0.00     0.167 HD
ATOM     46  C   UNL A   1      40.646  28.692  30.414  1.00  0.00     0.034 A 
ATOM     47  C   UNL A   1      39.779  33.016  35.831  1.00  0.00     0.034 A 
ATOM     48  C   UNL A   1      41.599  28.530  31.478  1.00  0.00     0.049 A 
ATOM     49  C   UNL A   1      40.831  31.939  35.836  1.00  0.00     0.074 A 
ATOM     50  C   UNL A   1      42.661  27.646  31.555  1.00  0.00     0.029 A 
ATOM     51  N   UNL A   1      41.611  29.270  32.650  1.00  0.00    -0.354 N 
ATOM     52  N   UNL A   1      41.165  31.110  34.878  1.00  0.00    -0.248 NA
ATOM     53  C   UNL A   1      41.640  31.807  37.056  1.00  0.00     0.031 C 
ATOM     54  C   UNL A   1      43.309  27.844  32.779  1.00  0.00     0.029 A 
ATOM     55  C   UNL A   1      42.661  28.863  33.456  1.00  0.00     0.049 A 
ATOM     56  H   UNL A   1      40.967  29.979  32.877  1.00  0.00     0.167 HD
ATOM     57  C   UNL A   1      42.258  30.396  35.358  1.00  0.00     0.074 A 
ATOM     58  C   UNL A   1      42.531  30.894  36.690  1.00  0.00     0.031 C 
ATOM     59  C   UNL A   1      42.967  29.414  34.750  1.00  0.00     0.034 A 
BRANCH  46  60
ATOM     60  C   UNL A   1      40.779  27.803  29.204  1.00  0.00     0.023 A 
ATOM     61  C   UNL A   1      39.992  26.636  29.119  1.00  0.00     0.012 A 
ATOM     62  C   UNL A   1      41.616  28.150  28.124  1.00  0.00     0.148 A 
ATOM     63  C   UNL A   1      40.058  25.810  27.998  1.00  0.00     0.002 A 
ATOM     64  C   UNL A   1      41.646  27.343  26.991  1.00  0.00     0.091 A 
ATOM     65  F   UNL A   1      42.369  29.254  28.227  1.00  0.00    -0.205 F 
ATOM     66  C   UNL A   1      40.876  26.169  26.931  1.00  0.00     0.022 A 
BRANCH  64  67
ATOM     67  S   UNL A   1      42.606  27.755  25.529  1.00  0.00     0.127 S 
ATOM     68  O   UNL A   1      42.331  26.607  24.665  1.00  0.00    -0.237 OA
ATOM     69  O   UNL A   1      41.985  29.006  25.094  1.00  0.00    -0.237 OA
ATOM     70  O   UNL A   1      43.985  27.883  25.977  1.00  0.00    -0.744 OA
ENDBRANCH  64  67
ENDBRANCH  46  60
BRANCH  47  71
ATOM     71  C   UNL A   1      39.591  33.892  37.022  1.00  0.00     0.023 A 
ATOM     72  C   UNL A   1      40.088  35.210  36.992  1.00  0.00     0.012 A 
ATOM     73  C   UNL A   1      38.929  33.436  38.177  1.00  0.00     0.148 A 
ATOM     74  C   UNL A   1      39.954  36.046  38.100  1.00  0.00     0.002 A 
ATOM     75  C   UNL A   1      38.749  34.292  39.258  1.00  0.00     0.091 A 
ATOM     76  F   UNL A   1      38.502  32.166  38.204  1.00  0.00    -0.205 F 
ATOM     77  C   UNL A   1      39.276  35.592  39.228  1.00  0.00     0.022 A 
BRANCH  75  78
ATOM     78  S   UNL A   1      37.793  33.830  40.708  1.00  0.00     0.127 S 
ATOM     79  O   UNL A   1      36.645  33.156  40.108  1.00  0.00    -0.237 OA
ATOM     80  O   UNL A   1      38.722  32.950  41.417  1.00  0.00    -0.237 OA
ATOM     81  O   UNL A   1      37.506  35.081  41.399  1.00  0.00    -0.744 OA
ENDBRANCH  75  78
ENDBRANCH  47  71
BRANCH  59  82
ATOM     82  C   UNL A   1      44.152  28.847  35.487  1.00  0.00     0.023 A 
ATOM     83  C   UNL A   1      45.430  29.407  35.299  1.00  0.00     0.012 A 
ATOM     84  C   UNL A   1      43.980  27.810  36.425  1.00  0.00     0.148 A 
ATOM     85  C   UNL A   1      46.526  28.924  36.012  1.00  0.00     0.002 A 
ATOM     86  C   UNL A   1      45.068  27.364  37.166  1.00  0.00     0.091 A 
ATOM     87  F   UNL A   1      42.758  27.277  36.574  1.00  0.00    -0.205 F 
ATOM     88  C   UNL A   1      46.344  27.912  36.953  1.00  0.00     0.022 A 
BRANCH  86  89
ATOM     89  S   UNL A   1      44.910  26.133  38.465  1.00  0.00     0.127 S 
ATOM     90  O   UNL A   1      44.103  26.845  39.454  1.00  0.00    -0.237 OA
ATOM     91  O   UNL A   1      44.212  25.045  37.778  1.00  0.00    -0.237 OA
ATOM     92  O   UNL A   1      46.269  25.811  38.880  1.00  0.00    -0.744 OA
ENDBRANCH  86  89
ENDBRANCH  59  82
ENDBRANCH  33  34
ENDBRANCH  25  28
ENDBRANCH  23  24
ENDBRANCH   1  23
TORSDOF 16
ENDMDL
MODEL 2
REMARK VINA RESULT:     -11.6      1.876      7.962
REMARK SMILES C[C@H](c1ccc(Br)s1)[NH+]1CCC(CC(=O)NCCCNC(=O)c2ccc(-c3c4nc(c(-c5cccc(S(=O)(=O)[O-])c5F)c5ccc([nH]5)c(-c5cccc(S(=O)(=O)[O-])c5F)c5nc(c(-c6cccc(S(=O)(=O)[O-])c6F)c6ccc3[nH]6)C=C5)C=C4)cc2)CC1
REMARK SMILES IDX 18 1 17 2 16 3 14 4 15 5 13 7 12 8 9 9 10 10 87 11 11 13
REMARK SMILES IDX 86 14 2 15 1 16 3 17 4 18 8 19 5 20 6 21 7 22 19 23 20 24
REMARK SMILES IDX 21 25 22 27 23 28 24 29 85 30 25 31 84 32 26 33 27 34 28 35
REMARK SMILES IDX 78 36 29 37 83 38 77 39 79 40 30 41 82 42 76 43 75 44 31 46
REMARK SMILES IDX 63 47 43 48 62 49 44 50 47 51 61 52 80 53 45 54 46 55 60 57
REMARK SMILES IDX 81 58 48 59 32 60 33 61 41 62 34 63 36 64 42 65 35 66 37 67
REMARK SMILES IDX 38 68 39 69 40 70 64 71 65 72 73 73 66 74 68 75 74 76 67 77
REMARK SMILES IDX 69 78 70 79 71 80 72 81 49 82 50 83 58 84 51 85 53 86 59 87
REMARK SMILES IDX 52 88 54 89 55 90 56 91 57 92
REMARK H PARENT 16 6 9 12 20 26 79 45 47 56
REMARK Flexibility Score: inf
ROOT
ATOM      1  C   UNL A   1      31.202  31.470  25.945  1.00  0.00     0.042 C 
ENDROOT
BRANCH   1   2
ATOM      2  C   UNL A   1      31.365  30.121  25.229  1.00  0.00     0.117 C 
BRANCH   2   3
ATOM      3  N   UNL A   1      30.704  30.051  23.928  1.00  0.00    -0.356 N 
ATOM      4  C   UNL A   1      30.707  29.089  22.956  1.00  0.00     0.220 C 
ATOM      5  O   UNL A   1      29.983  29.262  21.971  1.00  0.00    -0.275 OA
ATOM      6  H   UNL A   1      30.158  30.840  23.711  1.00  0.00     0.163 HD
BRANCH   4   7
ATOM      7  C   UNL A   1      31.589  27.846  23.054  1.00  0.00     0.104 C 
BRANCH   7   8
ATOM      8  C   UNL A   1      30.919  26.668  23.800  1.00  0.00     0.009 C 
ATOM      9  N   UNL A   1      31.682  24.011  24.828  1.00  0.00    -0.328 N 
ATOM     10  C   UNL A   1      30.758  24.121  23.688  1.00  0.00     0.263 C 
ATOM     11  C   UNL A   1      31.297  25.056  25.794  1.00  0.00     0.263 C 
ATOM     12  H   UNL A   1      32.641  24.157  24.515  1.00  0.00     0.348 HD
ATOM     13  C   UNL A   1      31.075  25.408  22.972  1.00  0.00     0.066 C 
ATOM     14  C   UNL A   1      31.528  26.462  25.201  1.00  0.00     0.066 C 
BRANCH   9  15
ATOM     15  C   UNL A   1      31.712  22.644  25.427  1.00  0.00     0.222 C 
ATOM     16  C   UNL A   1      31.689  22.756  26.961  1.00  0.00     0.082 C 
BRANCH  15  17
ATOM     17  C   UNL A   1      32.951  21.870  24.998  1.00  0.00     0.063 A 
ATOM     18  C   UNL A   1      33.196  20.505  25.004  1.00  0.00     0.023 A 
ATOM     19  S   UNL A   1      34.373  22.749  24.577  1.00  0.00    -0.127 S 
ATOM     20  C   UNL A   1      34.588  20.208  24.860  1.00  0.00     0.028 A 
ATOM     21  C   UNL A   1      35.324  21.357  24.715  1.00  0.00     0.070 A 
ATOM     22  Br  UNL A   1      37.193  21.419  24.756  1.00  0.00    -0.039 Br
ENDBRANCH  15  17
ENDBRANCH   9  15
ENDBRANCH   7   8
ENDBRANCH   4   7
ENDBRANCH   2   3
ENDBRANCH   1   2
BRANCH   1  23
ATOM     23  C   UNL A   1      32.238  31.773  27.019  1.00  0.00     0.118 C 
BRANCH  23  24
ATOM     24  N   UNL A   1      32.461  33.200  27.167  1.00  0.00    -0.352 N 
ATOM     25  C   UNL A   1      33.339  33.884  27.976  1.00  0.00     0.251 C 
ATOM     26  H   UNL A   1      31.893  33.769  26.600  1.00  0.00     0.163 HD
ATOM     27  O   UNL A   1      33.172  35.093  28.129  1.00  0.00    -0.269 OA
BRANCH  25  28
ATOM     28  C   UNL A   1      34.471  33.210  28.667  1.00  0.00     0.039 A 
ATOM     29  C   UNL A   1      35.752  33.307  28.107  1.00  0.00     0.014 A 
ATOM     30  C   UNL A   1      34.286  32.412  29.798  1.00  0.00     0.014 A 
ATOM     31  C   UNL A   1      36.837  32.636  28.689  1.00  0.00     0.010 A 
ATOM     32  C   UNL A   1      35.382  31.809  30.425  1.00  0.00     0.010 A 
ATOM     33  C   UNL A   1      36.667  31.893  29.867  1.00  0.00    -0.014 A 
BRANCH  33  34
ATOM     34  C   UNL A   1      37.798  31.165  30.512  1.00  0.00     0.031 A 
ATOM     35  C   UNL A   1      38.241  31.538  31.906  1.00  0.00     0.074 A 
ATOM     36  C   UNL A   1      38.480  30.220  29.829  1.00  0.00     0.049 A 
ATOM     37  N   UNL A   1      39.269  31.107  32.594  1.00  0.00    -0.248 NA
ATOM     38  C   UNL A   1      37.428  32.540  32.619  1.00  0.00     0.031 C 
ATOM     39  C   UNL A   1      38.178  29.773  28.469  1.00  0.00     0.029 A 
ATOM     40  N   UNL A   1      39.596  29.496  30.174  1.00  0.00    -0.354 N 
ATOM     41  C   UNL A   1      39.238  31.794  33.803  1.00  0.00     0.074 A 
ATOM     42  C   UNL A   1      38.118  32.706  33.739  1.00  0.00     0.031 C 
ATOM     43  C   UNL A   1      39.103  28.878  28.082  1.00  0.00     0.029 A 
ATOM     44  C   UNL A   1      40.077  28.707  29.153  1.00  0.00     0.049 A 
ATOM     45  H   UNL A   1      40.011  29.538  31.065  1.00  0.00     0.167 HD
ATOM     46  C   UNL A   1      40.039  31.652  34.887  1.00  0.00     0.034 A 
ATOM     47  C   UNL A   1      41.186  27.944  29.079  1.00  0.00     0.034 A 
ATOM     48  C   UNL A   1      41.124  30.711  34.972  1.00  0.00     0.049 A 
ATOM     49  C   UNL A   1      42.076  27.822  30.287  1.00  0.00     0.074 A 
ATOM     50  C   UNL A   1      41.948  30.444  36.051  1.00  0.00     0.029 A 
ATOM     51  N   UNL A   1      41.535  29.882  33.940  1.00  0.00    -0.354 N 
ATOM     52  N   UNL A   1      41.950  28.385  31.464  1.00  0.00    -0.248 NA
ATOM     53  C   UNL A   1      43.232  26.920  30.172  1.00  0.00     0.031 C 
ATOM     54  C   UNL A   1      42.865  29.458  35.668  1.00  0.00     0.029 A 
ATOM     55  C   UNL A   1      42.600  29.101  34.357  1.00  0.00     0.049 A 
ATOM     56  H   UNL A   1      41.130  29.853  33.044  1.00  0.00     0.167 HD
ATOM     57  C   UNL A   1      42.974  27.863  32.246  1.00  0.00     0.074 A 
ATOM     58  C   UNL A   1      43.708  26.936  31.410  1.00  0.00     0.031 C 
ATOM     59  C   UNL A   1      43.279  28.131  33.539  1.00  0.00     0.034 A 
BRANCH  46  60
ATOM     60  C   UNL A   1      39.722  32.477  36.108  1.00  0.00     0.023 A 
ATOM     61  C   UNL A   1      40.380  33.710  36.292  1.00  0.00     0.012 A 
ATOM     62  C   UNL A   1      38.732  32.081  37.029  1.00  0.00     0.148 A 
ATOM     63  C   UNL A   1      40.085  34.521  37.388  1.00  0.00     0.002 A 
ATOM     64  C   UNL A   1      38.412  32.913  38.096  1.00  0.00     0.091 A 
ATOM     65  F   UNL A   1      38.126  30.898  36.848  1.00  0.00    -0.205 F 
ATOM     66  C   UNL A   1      39.094  34.128  38.282  1.00  0.00     0.022 A 
BRANCH  64  67
ATOM     67  S   UNL A   1      37.099  32.538  39.264  1.00  0.00     0.127 S 
ATOM     68  O   UNL A   1      37.411  31.155  39.623  1.00  0.00    -0.237 OA
ATOM     69  O   UNL A   1      37.343  33.513  40.327  1.00  0.00    -0.237 OA
ATOM     70  O   UNL A   1      35.850  32.728  38.540  1.00  0.00    -0.744 OA
ENDBRANCH  64  67
ENDBRANCH  46  60
BRANCH  47  71
ATOM     71  C   UNL A   1      41.486  27.172  27.840  1.00  0.00     0.023 A 
ATOM     72  C   UNL A   1      41.951  27.856  26.700  1.00  0.00     0.012 A 
ATOM     73  C   UNL A   1      41.315  25.777  27.780  1.00  0.00     0.148 A 
ATOM     74  C   UNL A   1      42.212  27.167  25.515  1.00  0.00     0.002 A 
ATOM     75  C   UNL A   1      41.631  25.088  26.614  1.00  0.00     0.091 A 
ATOM     76  F   UNL A   1      40.830  25.150  28.861  1.00  0.00    -0.205 F 
ATOM     77  C   UNL A   1      42.064  25.783  25.475  1.00  0.00     0.022 A 
BRANCH  75  78
ATOM     78  S   UNL A   1      41.575  23.295  26.506  1.00  0.00     0.127 S 
ATOM     79  O   UNL A   1      42.200  22.899  27.765  1.00  0.00    -0.237 OA
ATOM     80  O   UNL A   1      40.137  23.039  26.425  1.00  0.00    -0.237 OA
ATOM     81  O   UNL A   1      42.313  22.955  25.295  1.00  0.00    -0.744 OA
ENDBRANCH  75  78
ENDBRANCH  47  71
BRANCH  59  82
ATOM     82  C   UNL A   1      44.420  27.371  34.161  1.00  0.00     0.023 A 
ATOM     83  C   UNL A   1      45.716  27.922  34.159  1.00  0.00     0.012 A 
ATOM     84  C   UNL A   1      44.189  26.146  34.819  1.00  0.00     0.148 A 
ATOM     85  C   UNL A   1      46.772  27.251  34.775  1.00  0.00     0.002 A 
ATOM     86  C   UNL A   1      45.235  25.506  35.471  1.00  0.00     0.091 A 
ATOM     87  F   UNL A   1      42.951  25.630  34.793  1.00  0.00    -0.205 F 
ATOM     88  C   UNL A   1      46.530  26.051  35.441  1.00  0.00     0.022 A 
BRANCH  86  89
ATOM     89  S   UNL A   1      44.999  24.007  36.433  1.00  0.00     0.127 S 
ATOM     90  O   UNL A   1      44.436  24.535  37.675  1.00  0.00    -0.237 OA
ATOM     91  O   UNL A   1      44.053  23.255  35.607  1.00  0.00    -0.237 OA
ATOM     92  O   UNL A   1      46.315  23.394  36.552  1.00  0.00    -0.744 OA
ENDBRANCH  86  89
ENDBRANCH  59  82
ENDBRANCH  33  34
ENDBRANCH  25  28
ENDBRANCH  23  24
ENDBRANCH   1  23
TORSDOF 16
ENDMDL
MODEL 3
REMARK VINA RESULT:     -11.6      6.480     11.755
REMARK SMILES C[C@H](c1ccc(Br)s1)[NH+]1CCC(CC(=O)NCCCNC(=O)c2ccc(-c3c4nc(c(-c5cccc(S(=O)(=O)[O-])c5F)c5ccc([nH]5)c(-c5cccc(S(=O)(=O)[O-])c5F)c5nc(c(-c6cccc(S(=O)(=O)[O-])c6F)c6ccc3[nH]6)C=C5)C=C4)cc2)CC1
REMARK SMILES IDX 18 1 17 2 16 3 14 4 15 5 13 7 12 8 9 9 10 10 87 11 11 13
REMARK SMILES IDX 86 14 2 15 1 16 3 17 4 18 8 19 5 20 6 21 7 22 19 23 20 24
REMARK SMILES IDX 21 25 22 27 23 28 24 29 85 30 25 31 84 32 26 33 27 34 28 35
REMARK SMILES IDX 78 36 29 37 83 38 77 39 79 40 30 41 82 42 76 43 75 44 31 46
REMARK SMILES IDX 63 47 43 48 62 49 44 50 47 51 61 52 80 53 45 54 46 55 60 57
REMARK SMILES IDX 81 58 48 59 32 60 33 61 41 62 34 63 36 64 42 65 35 66 37 67
REMARK SMILES IDX 38 68 39 69 40 70 64 71 65 72 73 73 66 74 68 75 74 76 67 77
REMARK SMILES IDX 69 78 70 79 71 80 72 81 49 82 50 83 58 84 51 85 53 86 59 87
REMARK SMILES IDX 52 88 54 89 55 90 56 91 57 92
REMARK H PARENT 16 6 9 12 20 26 79 45 47 56
REMARK Flexibility Score: inf
ROOT
ATOM      1  C   UNL A   1      37.226  19.437  25.111  1.00  0.00     0.042 C 
ENDROOT
BRANCH   1   2
ATOM      2  C   UNL A   1      35.963  20.304  25.000  1.00  0.00     0.117 C 
BRANCH   2   3
ATOM      3  N   UNL A   1      34.713  19.554  25.104  1.00  0.00    -0.356 N 
ATOM      4  C   UNL A   1      33.415  19.963  25.249  1.00  0.00     0.220 C 
ATOM      5  O   UNL A   1      32.534  19.099  25.231  1.00  0.00    -0.275 OA
ATOM      6  H   UNL A   1      34.825  18.577  25.063  1.00  0.00     0.163 HD
BRANCH   4   7
ATOM      7  C   UNL A   1      33.051  21.431  25.451  1.00  0.00     0.104 C 
BRANCH   7   8
ATOM      8  C   UNL A   1      32.663  22.160  24.144  1.00  0.00     0.009 C 
ATOM      9  N   UNL A   1      32.207  24.929  23.233  1.00  0.00    -0.328 N 
ATOM     10  C   UNL A   1      31.079  23.987  23.318  1.00  0.00     0.263 C 
ATOM     11  C   UNL A   1      33.347  24.182  22.672  1.00  0.00     0.263 C 
ATOM     12  H   UNL A   1      32.439  25.280  24.162  1.00  0.00     0.348 HD
ATOM     13  C   UNL A   1      31.412  22.979  24.388  1.00  0.00     0.066 C 
ATOM     14  C   UNL A   1      33.803  23.069  23.640  1.00  0.00     0.066 C 
BRANCH   9  15
ATOM     15  C   UNL A   1      31.881  26.164  22.461  1.00  0.00     0.222 C 
ATOM     16  C   UNL A   1      33.127  26.629  21.688  1.00  0.00     0.082 C 
BRANCH  15  17
ATOM     17  C   UNL A   1      31.407  27.287  23.373  1.00  0.00     0.063 A 
ATOM     18  C   UNL A   1      30.446  28.265  23.158  1.00  0.00     0.023 A 
ATOM     19  S   UNL A   1      32.243  27.562  24.855  1.00  0.00    -0.127 S 
ATOM     20  C   UNL A   1      30.545  29.332  24.105  1.00  0.00     0.028 A 
ATOM     21  C   UNL A   1      31.547  29.095  25.012  1.00  0.00     0.070 A 
ATOM     22  Br  UNL A   1      32.164  30.355  26.249  1.00  0.00    -0.039 Br
ENDBRANCH  15  17
ENDBRANCH   9  15
ENDBRANCH   7   8
ENDBRANCH   4   7
ENDBRANCH   2   3
ENDBRANCH   1   2
BRANCH   1  23
ATOM     23  C   UNL A   1      38.521  20.194  25.373  1.00  0.00     0.118 C 
BRANCH  23  24
ATOM     24  N   UNL A   1      39.594  19.305  25.780  1.00  0.00    -0.352 N 
ATOM     25  C   UNL A   1      40.887  19.586  26.159  1.00  0.00     0.251 C 
ATOM     26  H   UNL A   1      39.360  18.349  25.784  1.00  0.00     0.163 HD
ATOM     27  O   UNL A   1      41.695  18.660  26.208  1.00  0.00    -0.269 OA
BRANCH  25  28
ATOM     28  C   UNL A   1      41.331  20.963  26.506  1.00  0.00     0.039 A 
ATOM     29  C   UNL A   1      41.590  21.866  25.466  1.00  0.00     0.014 A 
ATOM     30  C   UNL A   1      41.587  21.356  27.821  1.00  0.00     0.014 A 
ATOM     31  C   UNL A   1      42.071  23.153  25.743  1.00  0.00     0.010 A 
ATOM     32  C   UNL A   1      41.989  22.666  28.103  1.00  0.00     0.010 A 
ATOM     33  C   UNL A   1      42.259  23.574  27.067  1.00  0.00    -0.014 A 
BRANCH  33  34
ATOM     34  C   UNL A   1      42.771  24.936  27.398  1.00  0.00     0.031 A 
ATOM     35  C   UNL A   1      41.854  25.957  28.027  1.00  0.00     0.074 A 
ATOM     36  C   UNL A   1      44.033  25.288  27.072  1.00  0.00     0.049 A 
ATOM     37  N   UNL A   1      42.073  27.222  28.285  1.00  0.00    -0.248 NA
ATOM     38  C   UNL A   1      40.505  25.498  28.406  1.00  0.00     0.031 C 
ATOM     39  C   UNL A   1      45.022  24.414  26.441  1.00  0.00     0.029 A 
ATOM     40  N   UNL A   1      44.685  26.493  27.188  1.00  0.00    -0.354 N 
ATOM     41  C   UNL A   1      40.892  27.712  28.833  1.00  0.00     0.074 A 
ATOM     42  C   UNL A   1      39.942  26.622  28.828  1.00  0.00     0.031 C 
ATOM     43  C   UNL A   1      46.141  25.116  26.196  1.00  0.00     0.029 A 
ATOM     44  C   UNL A   1      45.942  26.495  26.626  1.00  0.00     0.049 A 
ATOM     45  H   UNL A   1      44.291  27.279  27.631  1.00  0.00     0.167 HD
ATOM     46  C   UNL A   1      40.631  28.944  29.336  1.00  0.00     0.034 A 
ATOM     47  C   UNL A   1      46.829  27.496  26.458  1.00  0.00     0.034 A 
ATOM     48  C   UNL A   1      41.588  30.015  29.387  1.00  0.00     0.049 A 
ATOM     49  C   UNL A   1      46.506  28.863  27.001  1.00  0.00     0.074 A 
ATOM     50  C   UNL A   1      41.441  31.276  29.939  1.00  0.00     0.029 A 
ATOM     51  N   UNL A   1      42.873  29.954  28.869  1.00  0.00    -0.354 N 
ATOM     52  N   UNL A   1      45.430  29.265  27.632  1.00  0.00    -0.248 NA
ATOM     53  C   UNL A   1      47.540  29.897  26.854  1.00  0.00     0.031 C 
ATOM     54  C   UNL A   1      42.634  31.981  29.746  1.00  0.00     0.029 A 
ATOM     55  C   UNL A   1      43.529  31.154  29.089  1.00  0.00     0.049 A 
ATOM     56  H   UNL A   1      43.260  29.174  28.411  1.00  0.00     0.167 HD
ATOM     57  C   UNL A   1      45.681  30.581  28.007  1.00  0.00     0.074 A 
ATOM     58  C   UNL A   1      47.010  30.905  27.535  1.00  0.00     0.031 C 
ATOM     59  C   UNL A   1      44.878  31.442  28.678  1.00  0.00     0.034 A 
BRANCH  46  60
ATOM     60  C   UNL A   1      39.275  29.178  29.952  1.00  0.00     0.023 A 
ATOM     61  C   UNL A   1      39.005  28.659  31.235  1.00  0.00     0.012 A 
ATOM     62  C   UNL A   1      38.299  29.964  29.307  1.00  0.00     0.148 A 
ATOM     63  C   UNL A   1      37.777  28.889  31.855  1.00  0.00     0.002 A 
ATOM     64  C   UNL A   1      37.092  30.224  29.948  1.00  0.00     0.091 A 
ATOM     65  F   UNL A   1      38.565  30.436  28.081  1.00  0.00    -0.205 F 
ATOM     66  C   UNL A   1      36.826  29.680  31.216  1.00  0.00     0.022 A 
BRANCH  64  67
ATOM     67  S   UNL A   1      35.829  31.293  29.248  1.00  0.00     0.127 S 
ATOM     68  O   UNL A   1      35.135  30.375  28.345  1.00  0.00    -0.237 OA
ATOM     69  O   UNL A   1      35.061  31.679  30.431  1.00  0.00    -0.237 OA
ATOM     70  O   UNL A   1      36.541  32.386  28.601  1.00  0.00    -0.744 OA
ENDBRANCH  64  67
ENDBRANCH  46  60
BRANCH  47  71
ATOM     71  C   UNL A   1      48.145  27.234  25.810  1.00  0.00     0.023 A 
ATOM     72  C   UNL A   1      49.221  26.781  26.597  1.00  0.00     0.012 A 
ATOM     73  C   UNL A   1      48.339  27.427  24.429  1.00  0.00     0.148 A 
ATOM     74  C   UNL A   1      50.474  26.554  26.026  1.00  0.00     0.002 A 
ATOM     75  C   UNL A   1      49.574  27.146  23.856  1.00  0.00     0.091 A 
ATOM     76  F   UNL A   1      47.316  27.900  23.705  1.00  0.00    -0.205 F 
ATOM     77  C   UNL A   1      50.648  26.725  24.655  1.00  0.00     0.022 A 
BRANCH  75  78
ATOM     78  S   UNL A   1      49.858  27.231  22.083  1.00  0.00     0.127 S 
ATOM     79  O   UNL A   1      49.655  28.652  21.816  1.00  0.00    -0.237 OA
ATOM     80  O   UNL A   1      51.244  26.775  21.975  1.00  0.00    -0.237 OA
ATOM     81  O   UNL A   1      48.882  26.327  21.489  1.00  0.00    -0.744 OA
ENDBRANCH  75  78
ENDBRANCH  47  71
BRANCH  59  82
ATOM     82  C   UNL A   1      45.430  32.804  29.004  1.00  0.00     0.023 A 
ATOM     83  C   UNL A   1      46.181  32.995  30.180  1.00  0.00     0.012 A 
ATOM     84  C   UNL A   1      45.269  33.875  28.103  1.00  0.00     0.148 A 
ATOM     85  C   UNL A   1      46.739  34.240  30.469  1.00  0.00     0.002 A 
ATOM     86  C   UNL A   1      45.868  35.100  28.374  1.00  0.00     0.091 A 
ATOM     87  F   UNL A   1      44.535  33.677  26.998  1.00  0.00    -0.205 F 
ATOM     88  C   UNL A   1      46.593  35.287  29.562  1.00  0.00     0.022 A 
BRANCH  86  89
ATOM     89  S   UNL A   1      45.813  36.475  27.220  1.00  0.00     0.127 S 
ATOM     90  O   UNL A   1      46.587  37.492  27.930  1.00  0.00    -0.237 OA
ATOM     91  O   UNL A   1      46.476  35.918  26.040  1.00  0.00    -0.237 OA
ATOM     92  O   UNL A   1      44.402  36.784  27.029  1.00  0.00    -0.744 OA
ENDBRANCH  86  89
ENDBRANCH  59  82
ENDBRANCH  33  34
ENDBRANCH  25  28
ENDBRANCH  23  24
ENDBRANCH   1  23
TORSDOF 16
ENDMDL
