MODEL 1
REMARK VINA RESULT:     -11.1      0.000      0.000
REMARK SMILES O=CN1CCC[C@@H](C(=O)NCCCNC(=O)c2ccc(-c3c4nc(c(-c5cccc(S(=O)(=O)[O-])c5F)c5ccc([nH]5)c(-c5cccc(S(=O)(=O)[O-])c5F)c5nc(c(-c6cccc(S(=O)(=O)[O-])c6F)c6ccc3[nH]6)C=C5)C=C4)cc2)C1
REMARK SMILES IDX 13 1 12 2 11 3 10 4 8 5 9 6 7 8 3 9 4 10 80 11 5 12 6 13
REMARK SMILES IDX 2 14 1 15 14 16 15 17 16 19 17 20 18 21 79 22 19 23 78 24
REMARK SMILES IDX 20 25 21 26 22 27 72 28 23 29 77 30 71 31 73 32 24 33 76 34
REMARK SMILES IDX 70 35 69 36 25 38 57 39 37 40 56 41 38 42 41 43 55 44 74 45
REMARK SMILES IDX 39 46 40 47 54 49 75 50 42 51 26 52 27 53 35 54 28 55 30 56
REMARK SMILES IDX 36 57 29 58 31 59 32 60 33 61 34 62 58 63 59 64 67 65 60 66
REMARK SMILES IDX 62 67 68 68 61 69 63 70 64 71 65 72 66 73 43 74 44 75 52 76
REMARK SMILES IDX 45 77 47 78 53 79 46 80 48 81 49 82 50 83 51 84
REMARK H PARENT 10 7 14 18 73 37 41 48
REMARK Flexibility Score: inf
ROOT
ATOM      1  C   UNL A   1      33.915  28.595  26.264  1.00  0.00     0.118 C 
ENDROOT
BRANCH   1   2
ATOM      2  C   UNL A   1      33.961  28.360  24.754  1.00  0.00     0.042 C 
BRANCH   2   3
ATOM      3  C   UNL A   1      32.973  29.243  23.995  1.00  0.00     0.117 C 
BRANCH   3   4
ATOM      4  N   UNL A   1      32.116  28.466  23.121  1.00  0.00    -0.356 N 
ATOM      5  C   UNL A   1      30.921  28.701  22.532  1.00  0.00     0.224 C 
ATOM      6  O   UNL A   1      30.471  27.767  21.854  1.00  0.00    -0.275 OA
ATOM      7  H   UNL A   1      32.481  27.576  22.912  1.00  0.00     0.163 HD
BRANCH   5   8
ATOM      8  C   UNL A   1      30.170  30.030  22.540  1.00  0.00     0.098 C 
ATOM      9  N   UNL A   1      28.452  31.577  21.660  1.00  0.00    -0.344 N 
ATOM     10  C   UNL A   1      27.953  31.909  22.984  1.00  0.00     0.119 C 
ATOM     11  C   UNL A   1      29.092  30.278  21.495  1.00  0.00     0.132 C 
ATOM     12  C   UNL A   1      29.020  31.700  24.051  1.00  0.00     0.022 C 
ATOM     13  C   UNL A   1      29.646  30.308  23.958  1.00  0.00     0.017 C 
BRANCH   9  14
ATOM     14  C   UNL A   1      28.026  32.268  20.544  1.00  0.00     0.339 C 
ATOM     15  O   UNL A   1      27.459  33.352  20.558  1.00  0.00    -0.279 OA
ENDBRANCH   9  14
ENDBRANCH   5   8
ENDBRANCH   3   4
ENDBRANCH   2   3
ENDBRANCH   1   2
BRANCH   1  16
ATOM     16  N   UNL A   1      33.827  30.017  26.584  1.00  0.00    -0.352 N 
ATOM     17  C   UNL A   1      34.540  30.771  27.480  1.00  0.00     0.251 C 
ATOM     18  H   UNL A   1      33.146  30.514  26.075  1.00  0.00     0.163 HD
ATOM     19  O   UNL A   1      34.113  31.874  27.811  1.00  0.00    -0.269 OA
BRANCH  17  20
ATOM     20  C   UNL A   1      35.817  30.272  28.028  1.00  0.00     0.039 A 
ATOM     21  C   UNL A   1      35.835  29.694  29.301  1.00  0.00     0.014 A 
ATOM     22  C   UNL A   1      37.005  30.423  27.309  1.00  0.00     0.014 A 
ATOM     23  C   UNL A   1      37.038  29.226  29.829  1.00  0.00     0.010 A 
ATOM     24  C   UNL A   1      38.184  29.875  27.797  1.00  0.00     0.010 A 
ATOM     25  C   UNL A   1      38.219  29.287  29.070  1.00  0.00    -0.014 A 
BRANCH  25  26
ATOM     26  C   UNL A   1      39.502  28.749  29.584  1.00  0.00     0.031 A 
ATOM     27  C   UNL A   1      40.226  29.459  30.695  1.00  0.00     0.074 A 
ATOM     28  C   UNL A   1      40.059  27.681  28.981  1.00  0.00     0.049 A 
ATOM     29  N   UNL A   1      41.395  29.194  31.218  1.00  0.00    -0.248 NA
ATOM     30  C   UNL A   1      39.569  30.647  31.269  1.00  0.00     0.031 C 
ATOM     31  C   UNL A   1      39.494  26.967  27.835  1.00  0.00     0.029 A 
ATOM     32  N   UNL A   1      41.242  27.032  29.227  1.00  0.00    -0.354 N 
ATOM     33  C   UNL A   1      41.628  30.197  32.153  1.00  0.00     0.074 A 
ATOM     34  C   UNL A   1      40.502  31.102  32.091  1.00  0.00     0.031 C 
ATOM     35  C   UNL A   1      40.328  25.979  27.476  1.00  0.00     0.029 A 
ATOM     36  C   UNL A   1      41.501  26.010  28.344  1.00  0.00     0.049 A 
ATOM     37  H   UNL A   1      41.848  27.274  29.965  1.00  0.00     0.167 HD
ATOM     38  C   UNL A   1      42.669  30.335  33.009  1.00  0.00     0.034 A 
ATOM     39  C   UNL A   1      42.569  25.197  28.237  1.00  0.00     0.034 A 
ATOM     40  C   UNL A   1      43.766  29.409  33.089  1.00  0.00     0.049 A 
ATOM     41  C   UNL A   1      43.691  25.338  29.228  1.00  0.00     0.074 A 
ATOM     42  C   UNL A   1      44.828  29.405  33.974  1.00  0.00     0.029 A 
ATOM     43  N   UNL A   1      43.945  28.323  32.244  1.00  0.00    -0.354 N 
ATOM     44  N   UNL A   1      43.821  26.200  30.208  1.00  0.00    -0.248 NA
ATOM     45  C   UNL A   1      44.793  24.373  29.127  1.00  0.00     0.031 C 
ATOM     46  C   UNL A   1      45.663  28.330  33.649  1.00  0.00     0.029 A 
ATOM     47  C   UNL A   1      45.103  27.645  32.582  1.00  0.00     0.049 A 
ATOM     48  H   UNL A   1      43.337  28.071  31.511  1.00  0.00     0.167 HD
ATOM     49  C   UNL A   1      45.001  25.862  30.859  1.00  0.00     0.074 A 
ATOM     50  C   UNL A   1      45.535  24.702  30.175  1.00  0.00     0.031 C 
ATOM     51  C   UNL A   1      45.597  26.465  31.918  1.00  0.00     0.034 A 
BRANCH  38  52
ATOM     52  C   UNL A   1      42.637  31.503  33.963  1.00  0.00     0.023 A 
ATOM     53  C   UNL A   1      43.224  32.728  33.583  1.00  0.00     0.012 A 
ATOM     54  C   UNL A   1      42.000  31.404  35.215  1.00  0.00     0.148 A 
ATOM     55  C   UNL A   1      43.220  33.821  34.449  1.00  0.00     0.002 A 
ATOM     56  C   UNL A   1      41.956  32.513  36.054  1.00  0.00     0.091 A 
ATOM     57  F   UNL A   1      41.464  30.229  35.571  1.00  0.00    -0.205 F 
ATOM     58  C   UNL A   1      42.578  33.716  35.679  1.00  0.00     0.022 A 
BRANCH  56  59
ATOM     59  S   UNL A   1      41.085  32.507  37.625  1.00  0.00     0.127 S 
ATOM     60  O   UNL A   1      41.946  31.650  38.436  1.00  0.00    -0.237 OA
ATOM     61  O   UNL A   1      41.112  33.923  37.996  1.00  0.00    -0.237 OA
ATOM     62  O   UNL A   1      39.758  31.979  37.347  1.00  0.00    -0.744 OA
ENDBRANCH  56  59
ENDBRANCH  38  52
BRANCH  39  63
ATOM     63  C   UNL A   1      42.593  24.142  27.186  1.00  0.00     0.023 A 
ATOM     64  C   UNL A   1      43.273  24.381  25.977  1.00  0.00     0.012 A 
ATOM     65  C   UNL A   1      41.989  22.887  27.399  1.00  0.00     0.148 A 
ATOM     66  C   UNL A   1      43.327  23.402  24.985  1.00  0.00     0.002 A 
ATOM     67  C   UNL A   1      42.094  21.897  26.429  1.00  0.00     0.091 A 
ATOM     68  F   UNL A   1      41.343  22.682  28.554  1.00  0.00    -0.205 F 
ATOM     69  C   UNL A   1      42.747  22.157  25.215  1.00  0.00     0.022 A 
BRANCH  67  70
ATOM     70  S   UNL A   1      41.493  20.224  26.688  1.00  0.00     0.127 S 
ATOM     71  O   UNL A   1      40.059  20.444  26.853  1.00  0.00    -0.237 OA
ATOM     72  O   UNL A   1      41.877  19.570  25.437  1.00  0.00    -0.237 OA
ATOM     73  O   UNL A   1      42.195  19.731  27.866  1.00  0.00    -0.744 OA
ENDBRANCH  67  70
ENDBRANCH  39  63
BRANCH  51  74
ATOM     74  C   UNL A   1      46.878  25.863  32.432  1.00  0.00     0.023 A 
ATOM     75  C   UNL A   1      48.115  26.308  31.926  1.00  0.00     0.012 A 
ATOM     76  C   UNL A   1      46.855  24.910  33.470  1.00  0.00     0.148 A 
ATOM     77  C   UNL A   1      49.310  25.788  32.422  1.00  0.00     0.002 A 
ATOM     78  C   UNL A   1      48.051  24.437  33.994  1.00  0.00     0.091 A 
ATOM     79  F   UNL A   1      45.667  24.487  33.924  1.00  0.00    -0.205 F 
ATOM     80  C   UNL A   1      49.279  24.863  33.464  1.00  0.00     0.022 A 
BRANCH  78  81
ATOM     81  S   UNL A   1      48.110  23.320  35.400  1.00  0.00     0.127 S 
ATOM     82  O   UNL A   1      49.550  23.149  35.585  1.00  0.00    -0.237 OA
ATOM     83  O   UNL A   1      47.449  24.102  36.446  1.00  0.00    -0.237 OA
ATOM     84  O   UNL A   1      47.386  22.122  34.994  1.00  0.00    -0.744 OA
ENDBRANCH  78  81
ENDBRANCH  51  74
ENDBRANCH  25  26
ENDBRANCH  17  20
ENDBRANCH   1  16
TORSDOF 14
ENDMDL
MODEL 2
REMARK VINA RESULT:     -11.1      3.205      5.616
REMARK SMILES O=CN1CCC[C@@H](C(=O)NCCCNC(=O)c2ccc(-c3c4nc(c(-c5cccc(S(=O)(=O)[O-])c5F)c5ccc([nH]5)c(-c5cccc(S(=O)(=O)[O-])c5F)c5nc(c(-c6cccc(S(=O)(=O)[O-])c6F)c6ccc3[nH]6)C=C5)C=C4)cc2)C1
REMARK SMILES IDX 13 1 12 2 11 3 10 4 8 5 9 6 7 8 3 9 4 10 80 11 5 12 6 13
REMARK SMILES IDX 2 14 1 15 14 16 15 17 16 19 17 20 18 21 79 22 19 23 78 24
REMARK SMILES IDX 20 25 21 26 22 27 72 28 23 29 77 30 71 31 73 32 24 33 76 34
REMARK SMILES IDX 70 35 69 36 25 38 57 39 37 40 56 41 38 42 41 43 55 44 74 45
REMARK SMILES IDX 39 46 40 47 54 49 75 50 42 51 26 52 27 53 35 54 28 55 30 56
REMARK SMILES IDX 36 57 29 58 31 59 32 60 33 61 34 62 58 63 59 64 67 65 60 66
REMARK SMILES IDX 62 67 68 68 61 69 63 70 64 71 65 72 66 73 43 74 44 75 52 76
REMARK SMILES IDX 45 77 47 78 53 79 46 80 48 81 49 82 50 83 51 84
REMARK H PARENT 10 7 14 18 73 37 41 48
REMARK Flexibility Score: inf
ROOT
ATOM      1  C   UNL A   1      33.876  33.929  28.576  1.00  0.00     0.118 C 
ENDROOT
BRANCH   1   2
ATOM      2  C   UNL A   1      32.880  35.067  28.800  1.00  0.00     0.042 C 
BRANCH   2   3
ATOM      3  C   UNL A   1      33.568  36.418  28.987  1.00  0.00     0.117 C 
BRANCH   3   4
ATOM      4  N   UNL A   1      33.170  37.059  30.225  1.00  0.00    -0.356 N 
ATOM      5  C   UNL A   1      33.300  36.733  31.531  1.00  0.00     0.224 C 
ATOM      6  O   UNL A   1      32.801  37.538  32.330  1.00  0.00    -0.275 OA
ATOM      7  H   UNL A   1      32.706  37.916  30.084  1.00  0.00     0.163 HD
BRANCH   5   8
ATOM      8  C   UNL A   1      34.095  35.552  32.080  1.00  0.00     0.098 C 
ATOM      9  N   UNL A   1      35.948  34.589  33.406  1.00  0.00    -0.344 N 
ATOM     10  C   UNL A   1      35.088  33.612  34.053  1.00  0.00     0.119 C 
ATOM     11  C   UNL A   1      35.324  35.820  32.937  1.00  0.00     0.132 C 
ATOM     12  C   UNL A   1      33.862  33.299  33.205  1.00  0.00     0.022 C 
ATOM     13  C   UNL A   1      33.134  34.573  32.775  1.00  0.00     0.017 C 
BRANCH   9  14
ATOM     14  C   UNL A   1      37.320  34.539  33.551  1.00  0.00     0.339 C 
ATOM     15  O   UNL A   1      37.948  35.006  34.491  1.00  0.00    -0.279 OA
ENDBRANCH   9  14
ENDBRANCH   5   8
ENDBRANCH   3   4
ENDBRANCH   2   3
ENDBRANCH   1   2
BRANCH   1  16
ATOM     16  N   UNL A   1      33.282  32.840  27.806  1.00  0.00    -0.352 N 
ATOM     17  C   UNL A   1      33.819  31.646  27.397  1.00  0.00     0.251 C 
ATOM     18  H   UNL A   1      32.346  32.985  27.537  1.00  0.00     0.163 HD
ATOM     19  O   UNL A   1      33.256  31.006  26.512  1.00  0.00    -0.269 OA
BRANCH  17  20
ATOM     20  C   UNL A   1      35.048  31.124  28.027  1.00  0.00     0.039 A 
ATOM     21  C   UNL A   1      36.206  31.907  28.015  1.00  0.00     0.014 A 
ATOM     22  C   UNL A   1      35.073  29.842  28.580  1.00  0.00     0.014 A 
ATOM     23  C   UNL A   1      37.375  31.419  28.602  1.00  0.00     0.010 A 
ATOM     24  C   UNL A   1      36.209  29.396  29.243  1.00  0.00     0.010 A 
ATOM     25  C   UNL A   1      37.378  30.171  29.246  1.00  0.00    -0.014 A 
BRANCH  25  26
ATOM     26  C   UNL A   1      38.590  29.650  29.924  1.00  0.00     0.031 A 
ATOM     27  C   UNL A   1      38.999  30.199  31.264  1.00  0.00     0.074 A 
ATOM     28  C   UNL A   1      39.372  28.758  29.286  1.00  0.00     0.049 A 
ATOM     29  N   UNL A   1      40.066  29.934  31.972  1.00  0.00    -0.248 NA
ATOM     30  C   UNL A   1      38.111  31.204  31.873  1.00  0.00     0.031 C 
ATOM     31  C   UNL A   1      39.125  28.225  27.945  1.00  0.00     0.029 A 
ATOM     32  N   UNL A   1      40.551  28.170  29.666  1.00  0.00    -0.354 N 
ATOM     33  C   UNL A   1      39.997  30.763  33.086  1.00  0.00     0.074 A 
ATOM     34  C   UNL A   1      38.808  31.573  32.938  1.00  0.00     0.031 C 
ATOM     35  C   UNL A   1      40.121  27.388  27.614  1.00  0.00     0.029 A 
ATOM     36  C   UNL A   1      41.092  27.351  28.703  1.00  0.00     0.049 A 
ATOM     37  H   UNL A   1      40.971  28.319  30.545  1.00  0.00     0.167 HD
ATOM     38  C   UNL A   1      40.829  30.823  34.153  1.00  0.00     0.034 A 
ATOM     39  C   UNL A   1      42.247  26.658  28.693  1.00  0.00     0.034 A 
ATOM     40  C   UNL A   1      41.989  29.987  34.310  1.00  0.00     0.049 A 
ATOM     41  C   UNL A   1      43.131  26.702  29.908  1.00  0.00     0.074 A 
ATOM     42  C   UNL A   1      42.852  29.904  35.387  1.00  0.00     0.029 A 
ATOM     43  N   UNL A   1      42.451  29.092  33.356  1.00  0.00    -0.354 N 
ATOM     44  N   UNL A   1      42.969  27.377  31.020  1.00  0.00    -0.248 NA
ATOM     45  C   UNL A   1      44.335  25.861  29.885  1.00  0.00     0.031 C 
ATOM     46  C   UNL A   1      43.851  28.976  35.074  1.00  0.00     0.029 A 
ATOM     47  C   UNL A   1      43.592  28.457  33.815  1.00  0.00     0.049 A 
ATOM     48  H   UNL A   1      42.030  28.933  32.480  1.00  0.00     0.167 HD
ATOM     49  C   UNL A   1      44.030  27.019  31.842  1.00  0.00     0.074 A 
ATOM     50  C   UNL A   1      44.817  26.049  31.105  1.00  0.00     0.031 C 
ATOM     51  C   UNL A   1      44.337  27.461  33.087  1.00  0.00     0.034 A 
BRANCH  38  52
ATOM     52  C   UNL A   1      40.479  31.789  35.257  1.00  0.00     0.023 A 
ATOM     53  C   UNL A   1      41.255  32.954  35.434  1.00  0.00     0.012 A 
ATOM     54  C   UNL A   1      39.368  31.568  36.095  1.00  0.00     0.148 A 
ATOM     55  C   UNL A   1      40.962  33.859  36.454  1.00  0.00     0.002 A 
ATOM     56  C   UNL A   1      39.052  32.500  37.078  1.00  0.00     0.091 A 
ATOM     57  F   UNL A   1      38.653  30.448  35.928  1.00  0.00    -0.205 F 
ATOM     58  C   UNL A   1      39.857  33.637  37.268  1.00  0.00     0.022 A 
BRANCH  56  59
ATOM     59  S   UNL A   1      37.603  32.349  38.128  1.00  0.00     0.127 S 
ATOM     60  O   UNL A   1      36.602  33.083  37.356  1.00  0.00    -0.237 OA
ATOM     61  O   UNL A   1      37.401  30.900  38.164  1.00  0.00    -0.237 OA
ATOM     62  O   UNL A   1      37.967  32.942  39.405  1.00  0.00    -0.744 OA
ENDBRANCH  56  59
ENDBRANCH  38  52
BRANCH  39  63
ATOM     63  C   UNL A   1      42.594  25.819  27.512  1.00  0.00     0.023 A 
ATOM     64  C   UNL A   1      43.414  26.352  26.499  1.00  0.00     0.012 A 
ATOM     65  C   UNL A   1      42.160  24.483  27.413  1.00  0.00     0.148 A 
ATOM     66  C   UNL A   1      43.771  25.580  25.392  1.00  0.00     0.002 A 
ATOM     67  C   UNL A   1      42.564  23.703  26.336  1.00  0.00     0.091 A 
ATOM     68  F   UNL A   1      41.377  23.997  28.385  1.00  0.00    -0.205 F 
ATOM     69  C   UNL A   1      43.355  24.254  25.316  1.00  0.00     0.022 A 
BRANCH  67  70
ATOM     70  S   UNL A   1      42.187  21.950  26.218  1.00  0.00     0.127 S 
ATOM     71  O   UNL A   1      42.594  21.468  27.535  1.00  0.00    -0.237 OA
ATOM     72  O   UNL A   1      40.742  21.969  25.988  1.00  0.00    -0.237 OA
ATOM     73  O   UNL A   1      42.970  21.454  25.094  1.00  0.00    -0.744 OA
ENDBRANCH  67  70
ENDBRANCH  39  63
BRANCH  51  74
ATOM     74  C   UNL A   1      45.554  26.878  33.754  1.00  0.00     0.023 A 
ATOM     75  C   UNL A   1      46.797  27.533  33.644  1.00  0.00     0.012 A 
ATOM     76  C   UNL A   1      45.448  25.720  34.550  1.00  0.00     0.148 A 
ATOM     77  C   UNL A   1      47.923  27.026  34.291  1.00  0.00     0.002 A 
ATOM     78  C   UNL A   1      46.563  25.251  35.233  1.00  0.00     0.091 A 
ATOM     79  F   UNL A   1      44.261  25.102  34.626  1.00  0.00    -0.205 F 
ATOM     80  C   UNL A   1      47.804  25.894  35.095  1.00  0.00     0.022 A 
BRANCH  78  81
ATOM     81  S   UNL A   1      46.482  23.860  36.367  1.00  0.00     0.127 S 
ATOM     82  O   UNL A   1      47.839  23.841  36.911  1.00  0.00    -0.237 OA
ATOM     83  O   UNL A   1      45.451  24.291  37.312  1.00  0.00    -0.237 OA
ATOM     84  O   UNL A   1      46.117  22.704  35.560  1.00  0.00    -0.744 OA
ENDBRANCH  78  81
ENDBRANCH  51  74
ENDBRANCH  25  26
ENDBRANCH  17  20
ENDBRANCH   1  16
TORSDOF 14
ENDMDL
MODEL 3
REMARK VINA RESULT:     -11.0      2.974      4.951
REMARK SMILES O=CN1CCC[C@@H](C(=O)NCCCNC(=O)c2ccc(-c3c4nc(c(-c5cccc(S(=O)(=O)[O-])c5F)c5ccc([nH]5)c(-c5cccc(S(=O)(=O)[O-])c5F)c5nc(c(-c6cccc(S(=O)(=O)[O-])c6F)c6ccc3[nH]6)C=C5)C=C4)cc2)C1
REMARK SMILES IDX 13 1 12 2 11 3 10 4 8 5 9 6 7 8 3 9 4 10 80 11 5 12 6 13
REMARK SMILES IDX 2 14 1 15 14 16 15 17 16 19 17 20 18 21 79 22 19 23 78 24
REMARK SMILES IDX 20 25 21 26 22 27 72 28 23 29 77 30 71 31 73 32 24 33 76 34
REMARK SMILES IDX 70 35 69 36 25 38 57 39 37 40 56 41 38 42 41 43 55 44 74 45
REMARK SMILES IDX 39 46 40 47 54 49 75 50 42 51 26 52 27 53 35 54 28 55 30 56
REMARK SMILES IDX 36 57 29 58 31 59 32 60 33 61 34 62 58 63 59 64 67 65 60 66
REMARK SMILES IDX 62 67 68 68 61 69 63 70 64 71 65 72 66 73 43 74 44 75 52 76
REMARK SMILES IDX 45 77 47 78 53 79 46 80 48 81 49 82 50 83 51 84
REMARK H PARENT 10 7 14 18 73 37 41 48
REMARK Flexibility Score: inf
ROOT
ATOM      1  C   UNL A   1      35.236  33.287  28.005  1.00  0.00     0.118 C 
ENDROOT
BRANCH   1   2
ATOM      2  C   UNL A   1      34.505  34.629  27.978  1.00  0.00     0.042 C 
BRANCH   2   3
ATOM      3  C   UNL A   1      33.159  34.577  28.696  1.00  0.00     0.117 C 
BRANCH   3   4
ATOM      4  N   UNL A   1      32.921  35.769  29.485  1.00  0.00    -0.356 N 
ATOM      5  C   UNL A   1      33.138  36.092  30.781  1.00  0.00     0.224 C 
ATOM      6  O   UNL A   1      32.775  37.229  31.112  1.00  0.00    -0.275 OA
ATOM      7  H   UNL A   1      32.515  36.501  28.968  1.00  0.00     0.163 HD
BRANCH   5   8
ATOM      8  C   UNL A   1      33.884  35.234  31.799  1.00  0.00     0.098 C 
ATOM      9  N   UNL A   1      35.740  33.735  32.456  1.00  0.00    -0.344 N 
ATOM     10  C   UNL A   1      36.002  34.461  33.687  1.00  0.00     0.119 C 
ATOM     11  C   UNL A   1      35.131  34.478  31.360  1.00  0.00     0.132 C 
ATOM     12  C   UNL A   1      34.763  35.205  34.171  1.00  0.00     0.022 C 
ATOM     13  C   UNL A   1      34.155  36.067  33.063  1.00  0.00     0.017 C 
BRANCH   9  14
ATOM     14  C   UNL A   1      36.358  32.529  32.194  1.00  0.00     0.339 C 
ATOM     15  O   UNL A   1      36.232  31.511  32.861  1.00  0.00    -0.279 OA
ENDBRANCH   9  14
ENDBRANCH   5   8
ENDBRANCH   3   4
ENDBRANCH   2   3
ENDBRANCH   1   2
BRANCH   1  16
ATOM     16  N   UNL A   1      34.321  32.172  27.780  1.00  0.00    -0.352 N 
ATOM     17  C   UNL A   1      34.570  30.829  27.662  1.00  0.00     0.251 C 
ATOM     18  H   UNL A   1      33.373  32.424  27.699  1.00  0.00     0.163 HD
ATOM     19  O   UNL A   1      33.709  30.098  27.179  1.00  0.00    -0.269 OA
BRANCH  17  20
ATOM     20  C   UNL A   1      35.851  30.262  28.128  1.00  0.00     0.039 A 
ATOM     21  C   UNL A   1      36.948  30.250  27.261  1.00  0.00     0.014 A 
ATOM     22  C   UNL A   1      35.956  29.695  29.399  1.00  0.00     0.014 A 
ATOM     23  C   UNL A   1      38.161  29.710  27.690  1.00  0.00     0.010 A 
ATOM     24  C   UNL A   1      37.187  29.242  29.857  1.00  0.00     0.010 A 
ATOM     25  C   UNL A   1      38.299  29.228  29.002  1.00  0.00    -0.014 A 
BRANCH  25  26
ATOM     26  C   UNL A   1      39.590  28.698  29.503  1.00  0.00     0.031 A 
ATOM     27  C   UNL A   1      40.319  29.409  30.611  1.00  0.00     0.074 A 
ATOM     28  C   UNL A   1      40.151  27.637  28.892  1.00  0.00     0.049 A 
ATOM     29  N   UNL A   1      41.494  29.151  31.123  1.00  0.00    -0.248 NA
ATOM     30  C   UNL A   1      39.658  30.589  31.195  1.00  0.00     0.031 C 
ATOM     31  C   UNL A   1      39.581  26.922  27.747  1.00  0.00     0.029 A 
ATOM     32  N   UNL A   1      41.341  26.996  29.124  1.00  0.00    -0.354 N 
ATOM     33  C   UNL A   1      41.727  30.152  32.060  1.00  0.00     0.074 A 
ATOM     34  C   UNL A   1      40.594  31.049  32.011  1.00  0.00     0.031 C 
ATOM     35  C   UNL A   1      40.420  25.942  27.378  1.00  0.00     0.029 A 
ATOM     36  C   UNL A   1      41.600  25.979  28.235  1.00  0.00     0.049 A 
ATOM     37  H   UNL A   1      41.951  27.239  29.858  1.00  0.00     0.167 HD
ATOM     38  C   UNL A   1      42.774  30.295  32.907  1.00  0.00     0.034 A 
ATOM     39  C   UNL A   1      42.674  25.175  28.116  1.00  0.00     0.034 A 
ATOM     40  C   UNL A   1      43.880  29.377  32.974  1.00  0.00     0.049 A 
ATOM     41  C   UNL A   1      43.803  25.321  29.099  1.00  0.00     0.074 A 
ATOM     42  C   UNL A   1      44.949  29.378  33.850  1.00  0.00     0.029 A 
ATOM     43  N   UNL A   1      44.059  28.295  32.124  1.00  0.00    -0.354 N 
ATOM     44  N   UNL A   1      43.935  26.180  30.081  1.00  0.00    -0.248 NA
ATOM     45  C   UNL A   1      44.911  24.364  28.984  1.00  0.00     0.031 C 
ATOM     46  C   UNL A   1      45.789  28.311  33.514  1.00  0.00     0.029 A 
ATOM     47  C   UNL A   1      45.226  27.625  32.449  1.00  0.00     0.049 A 
ATOM     48  H   UNL A   1      43.447  28.042  31.395  1.00  0.00     0.167 HD
ATOM     49  C   UNL A   1      45.122  25.849  30.720  1.00  0.00     0.074 A 
ATOM     50  C   UNL A   1      45.660  24.695  30.027  1.00  0.00     0.031 C 
ATOM     51  C   UNL A   1      45.723  26.451  31.777  1.00  0.00     0.034 A 
BRANCH  38  52
ATOM     52  C   UNL A   1      42.741  31.458  33.866  1.00  0.00     0.023 A 
ATOM     53  C   UNL A   1      43.317  32.689  33.486  1.00  0.00     0.012 A 
ATOM     54  C   UNL A   1      42.114  31.351  35.123  1.00  0.00     0.148 A 
ATOM     55  C   UNL A   1      43.312  33.778  34.357  1.00  0.00     0.002 A 
ATOM     56  C   UNL A   1      42.069  32.456  35.966  1.00  0.00     0.091 A 
ATOM     57  F   UNL A   1      41.589  30.170  35.478  1.00  0.00    -0.205 F 
ATOM     58  C   UNL A   1      42.681  33.665  35.591  1.00  0.00     0.022 A 
BRANCH  56  59
ATOM     59  S   UNL A   1      41.209  32.438  37.543  1.00  0.00     0.127 S 
ATOM     60  O   UNL A   1      41.208  33.857  37.895  1.00  0.00    -0.237 OA
ATOM     61  O   UNL A   1      39.899  31.902  37.172  1.00  0.00    -0.237 OA
ATOM     62  O   UNL A   1      41.991  31.577  38.417  1.00  0.00    -0.744 OA
ENDBRANCH  56  59
ENDBRANCH  38  52
BRANCH  39  63
ATOM     63  C   UNL A   1      42.697  24.124  27.061  1.00  0.00     0.023 A 
ATOM     64  C   UNL A   1      43.430  24.342  25.880  1.00  0.00     0.012 A 
ATOM     65  C   UNL A   1      42.038  22.892  27.244  1.00  0.00     0.148 A 
ATOM     66  C   UNL A   1      43.484  23.365  24.884  1.00  0.00     0.002 A 
ATOM     67  C   UNL A   1      42.141  21.902  26.273  1.00  0.00     0.091 A 
ATOM     68  F   UNL A   1      41.341  22.707  28.373  1.00  0.00    -0.205 F 
ATOM     69  C   UNL A   1      42.849  22.143  25.086  1.00  0.00     0.022 A 
BRANCH  67  70
ATOM     70  S   UNL A   1      41.468  20.253  26.501  1.00  0.00     0.127 S 
ATOM     71  O   UNL A   1      40.034  20.495  26.369  1.00  0.00    -0.237 OA
ATOM     72  O   UNL A   1      42.075  19.525  25.386  1.00  0.00    -0.237 OA
ATOM     73  O   UNL A   1      41.917  19.822  27.818  1.00  0.00    -0.744 OA
ENDBRANCH  67  70
ENDBRANCH  39  63
BRANCH  51  74
ATOM     74  C   UNL A   1      47.013  25.858  32.277  1.00  0.00     0.023 A 
ATOM     75  C   UNL A   1      48.240  26.282  31.731  1.00  0.00     0.012 A 
ATOM     76  C   UNL A   1      47.010  24.934  33.341  1.00  0.00     0.148 A 
ATOM     77  C   UNL A   1      49.444  25.771  32.213  1.00  0.00     0.002 A 
ATOM     78  C   UNL A   1      48.216  24.469  33.851  1.00  0.00     0.091 A 
ATOM     79  F   UNL A   1      45.831  24.530  33.834  1.00  0.00    -0.205 F 
ATOM     80  C   UNL A   1      49.433  24.875  33.280  1.00  0.00     0.022 A 
BRANCH  78  81
ATOM     81  S   UNL A   1      48.302  23.391  35.285  1.00  0.00     0.127 S 
ATOM     82  O   UNL A   1      47.643  22.184  34.790  1.00  0.00    -0.237 OA
ATOM     83  O   UNL A   1      49.746  23.260  35.488  1.00  0.00    -0.237 OA
ATOM     84  O   UNL A   1      47.604  24.089  36.356  1.00  0.00    -0.744 OA
ENDBRANCH  78  81
ENDBRANCH  51  74
ENDBRANCH  25  26
ENDBRANCH  17  20
ENDBRANCH   1  16
TORSDOF 14
ENDMDL
