MODEL 1
REMARK VINA RESULT:     -12.5      0.000      0.000
REMARK SMILES CC(C)NC(=O)c1cccc(NC(=O)[C@@H]2[C@H](C(=O)NCCCNC(=O)c3ccc(-c4c5nc(c(-c6cccc(S(=O)(=O)[O-])c6F)c6ccc([nH]6)c(-c6cccc(S(=O)(=O)[O-])c6F)c6nc(c(-c7cccc(S(=O)(=O)[O-])c7F)c7ccc4[nH]7)C=C6)C=C5)cc3)C2(C)C)c1
REMARK SMILES IDX 20 1 19 2 17 3 18 4 16 6 15 7 89 8 90 9 91 10 13 11 12 12
REMARK SMILES IDX 14 14 11 15 7 16 8 17 92 18 9 19 10 20 5 21 4 22 6 24 2 25
REMARK SMILES IDX 1 26 3 27 21 28 22 29 23 30 24 31 25 33 26 34 27 35 88 36
REMARK SMILES IDX 28 37 87 38 29 39 30 40 31 41 81 42 32 43 86 44 80 45 82 46
REMARK SMILES IDX 33 47 85 48 79 49 78 50 34 52 66 53 46 54 65 55 47 56 50 57
REMARK SMILES IDX 64 58 83 59 48 60 49 61 63 63 84 64 51 65 35 66 36 67 44 68
REMARK SMILES IDX 37 69 39 70 45 71 38 72 40 73 41 74 42 75 43 76 67 77 68 78
REMARK SMILES IDX 76 79 69 80 71 81 77 82 70 83 72 84 73 85 74 86 75 87 52 88
REMARK SMILES IDX 53 89 61 90 54 91 56 92 62 93 55 94 57 95 58 96 59 97 60 98
REMARK H PARENT 19 5 12 13 4 23 23 32 82 51 50 62
REMARK Flexibility Score: inf
ROOT
ATOM      1  C   UNL A   1      32.041  27.740  26.703  1.00  0.00     0.117 C 
ENDROOT
BRANCH   1   2
ATOM      2  N   UNL A   1      33.118  27.127  25.948  1.00  0.00    -0.356 N 
ATOM      3  C   UNL A   1      33.084  26.565  24.704  1.00  0.00     0.224 C 
ATOM      4  O   UNL A   1      34.087  25.999  24.279  1.00  0.00    -0.275 OA
ATOM      5  H   UNL A   1      33.995  27.116  26.394  1.00  0.00     0.163 HD
BRANCH   3   6
ATOM      6  C   UNL A   1      31.824  26.614  23.916  1.00  0.00     0.098 C 
ATOM      7  C   UNL A   1      31.521  25.610  22.798  1.00  0.00     0.098 C 
ATOM      8  C   UNL A   1      30.687  25.599  24.065  1.00  0.00    -0.011 C 
ATOM      9  C   UNL A   1      29.269  26.134  23.843  1.00  0.00     0.013 C 
ATOM     10  C   UNL A   1      30.667  24.535  25.129  1.00  0.00     0.013 C 
BRANCH   7  11
ATOM     11  C   UNL A   1      32.678  25.032  22.062  1.00  0.00     0.228 C 
ATOM     12  N   UNL A   1      33.129  23.750  21.939  1.00  0.00    -0.326 N 
ATOM     13  H   UNL A   1      33.634  23.630  21.102  1.00  0.00     0.169 HD
ATOM     14  O   UNL A   1      33.220  25.808  21.263  1.00  0.00    -0.274 OA
BRANCH  12  15
ATOM     15  C   UNL A   1      33.072  22.569  22.665  1.00  0.00     0.041 A 
ATOM     16  C   UNL A   1      33.778  21.320  24.609  1.00  0.00     0.041 A 
ATOM     17  C   UNL A   1      32.979  20.240  24.240  1.00  0.00     0.014 A 
ATOM     18  C   UNL A   1      33.871  22.463  23.807  1.00  0.00     0.040 A 
ATOM     19  C   UNL A   1      32.149  20.375  23.138  1.00  0.00     0.003 A 
ATOM     20  C   UNL A   1      32.159  21.567  22.410  1.00  0.00     0.026 A 
BRANCH  16  21
ATOM     21  C   UNL A   1      34.399  21.290  25.942  1.00  0.00     0.251 C 
ATOM     22  N   UNL A   1      35.771  21.315  26.016  1.00  0.00    -0.350 N 
ATOM     23  H   UNL A   1      36.145  21.341  26.926  1.00  0.00     0.164 HD
ATOM     24  O   UNL A   1      33.700  21.304  26.948  1.00  0.00    -0.269 OA
BRANCH  22  25
ATOM     25  C   UNL A   1      36.754  21.309  24.929  1.00  0.00     0.076 C 
ATOM     26  C   UNL A   1      37.620  22.564  24.975  1.00  0.00     0.030 C 
ATOM     27  C   UNL A   1      37.603  20.047  25.025  1.00  0.00     0.030 C 
ENDBRANCH  22  25
ENDBRANCH  16  21
ENDBRANCH  12  15
ENDBRANCH   7  11
ENDBRANCH   3   6
ENDBRANCH   1   2
BRANCH   1  28
ATOM     28  C   UNL A   1      31.614  29.085  26.137  1.00  0.00     0.042 C 
BRANCH  28  29
ATOM     29  C   UNL A   1      32.766  30.024  25.804  1.00  0.00     0.118 C 
BRANCH  29  30
ATOM     30  N   UNL A   1      32.582  31.377  26.315  1.00  0.00    -0.352 N 
ATOM     31  C   UNL A   1      33.299  32.082  27.253  1.00  0.00     0.251 C 
ATOM     32  H   UNL A   1      31.820  31.865  25.926  1.00  0.00     0.163 HD
ATOM     33  O   UNL A   1      32.887  33.175  27.634  1.00  0.00    -0.269 OA
BRANCH  31  34
ATOM     34  C   UNL A   1      34.544  31.521  27.825  1.00  0.00     0.039 A 
ATOM     35  C   UNL A   1      35.646  32.362  28.010  1.00  0.00     0.014 A 
ATOM     36  C   UNL A   1      34.628  30.175  28.186  1.00  0.00     0.014 A 
ATOM     37  C   UNL A   1      36.797  31.871  28.635  1.00  0.00     0.010 A 
ATOM     38  C   UNL A   1      35.731  29.718  28.899  1.00  0.00     0.010 A 
ATOM     39  C   UNL A   1      36.831  30.556  29.126  1.00  0.00    -0.014 A 
BRANCH  39  40
ATOM     40  C   UNL A   1      37.998  30.031  29.884  1.00  0.00     0.031 A 
ATOM     41  C   UNL A   1      38.254  30.490  31.294  1.00  0.00     0.074 A 
ATOM     42  C   UNL A   1      38.889  29.228  29.267  1.00  0.00     0.049 A 
ATOM     43  N   UNL A   1      39.260  30.213  32.084  1.00  0.00    -0.248 NA
ATOM     44  C   UNL A   1      37.269  31.412  31.885  1.00  0.00     0.031 C 
ATOM     45  C   UNL A   1      38.804  28.776  27.877  1.00  0.00     0.029 A 
ATOM     46  N   UNL A   1      40.057  28.669  29.724  1.00  0.00    -0.354 N 
ATOM     47  C   UNL A   1      39.057  30.964  33.235  1.00  0.00     0.074 A 
ATOM     48  C   UNL A   1      37.852  31.736  33.030  1.00  0.00     0.031 C 
ATOM     49  C   UNL A   1      39.860  27.994  27.601  1.00  0.00     0.029 A 
ATOM     50  C   UNL A   1      40.715  27.914  28.781  1.00  0.00     0.049 A 
ATOM     51  H   UNL A   1      40.392  28.797  30.642  1.00  0.00     0.167 HD
ATOM     52  C   UNL A   1      39.786  30.986  34.377  1.00  0.00     0.034 A 
ATOM     53  C   UNL A   1      41.874  27.231  28.859  1.00  0.00     0.034 A 
ATOM     54  C   UNL A   1      40.942  30.164  34.607  1.00  0.00     0.049 A 
ATOM     55  C   UNL A   1      42.636  27.226  30.157  1.00  0.00     0.074 A 
ATOM     56  C   UNL A   1      41.679  30.021  35.770  1.00  0.00     0.029 A 
ATOM     57  N   UNL A   1      41.530  29.343  33.657  1.00  0.00    -0.354 N 
ATOM     58  N   UNL A   1      42.335  27.808  31.292  1.00  0.00    -0.248 NA
ATOM     59  C   UNL A   1      43.880  26.444  30.193  1.00  0.00     0.031 C 
ATOM     60  C   UNL A   1      42.723  29.123  35.516  1.00  0.00     0.029 A 
ATOM     61  C   UNL A   1      42.627  28.699  34.201  1.00  0.00     0.049 A 
ATOM     62  H   UNL A   1      41.214  29.236  32.730  1.00  0.00     0.167 HD
ATOM     63  C   UNL A   1      43.329  27.433  32.188  1.00  0.00     0.074 A 
ATOM     64  C   UNL A   1      44.233  26.559  31.466  1.00  0.00     0.031 C 
ATOM     65  C   UNL A   1      43.486  27.788  33.488  1.00  0.00     0.034 A 
BRANCH  52  66
ATOM     66  C   UNL A   1      39.312  31.888  35.487  1.00  0.00     0.023 A 
ATOM     67  C   UNL A   1      38.380  31.401  36.427  1.00  0.00     0.012 A 
ATOM     68  C   UNL A   1      39.804  33.200  35.621  1.00  0.00     0.148 A 
ATOM     69  C   UNL A   1      37.911  32.219  37.453  1.00  0.00     0.002 A 
ATOM     70  C   UNL A   1      39.364  33.996  36.674  1.00  0.00     0.091 A 
ATOM     71  F   UNL A   1      40.669  33.659  34.705  1.00  0.00    -0.205 F 
ATOM     72  C   UNL A   1      38.410  33.512  37.583  1.00  0.00     0.022 A 
BRANCH  70  73
ATOM     73  S   UNL A   1      40.013  35.647  36.961  1.00  0.00     0.127 S 
ATOM     74  O   UNL A   1      39.327  36.024  38.195  1.00  0.00    -0.237 OA
ATOM     75  O   UNL A   1      41.448  35.397  37.114  1.00  0.00    -0.237 OA
ATOM     76  O   UNL A   1      39.662  36.419  35.777  1.00  0.00    -0.744 OA
ENDBRANCH  70  73
ENDBRANCH  52  66
BRANCH  53  77
ATOM     77  C   UNL A   1      42.328  26.407  27.703  1.00  0.00     0.023 A 
ATOM     78  C   UNL A   1      43.192  26.987  26.754  1.00  0.00     0.012 A 
ATOM     79  C   UNL A   1      41.956  25.057  27.558  1.00  0.00     0.148 A 
ATOM     80  C   UNL A   1      43.658  26.248  25.667  1.00  0.00     0.002 A 
ATOM     81  C   UNL A   1      42.463  24.311  26.499  1.00  0.00     0.091 A 
ATOM     82  F   UNL A   1      41.125  24.526  28.466  1.00  0.00    -0.205 F 
ATOM     83  C   UNL A   1      43.302  24.908  25.546  1.00  0.00     0.022 A 
BRANCH  81  84
ATOM     84  S   UNL A   1      42.161  22.548  26.327  1.00  0.00     0.127 S 
ATOM     85  O   UNL A   1      42.754  22.269  25.020  1.00  0.00    -0.237 OA
ATOM     86  O   UNL A   1      42.899  22.003  27.467  1.00  0.00    -0.237 OA
ATOM     87  O   UNL A   1      40.716  22.386  26.414  1.00  0.00    -0.744 OA
ENDBRANCH  81  84
ENDBRANCH  53  77
BRANCH  65  88
ATOM     88  C   UNL A   1      44.662  27.213  34.232  1.00  0.00     0.023 A 
ATOM     89  C   UNL A   1      45.896  27.892  34.219  1.00  0.00     0.012 A 
ATOM     90  C   UNL A   1      44.523  26.046  35.009  1.00  0.00     0.148 A 
ATOM     91  C   UNL A   1      46.981  27.405  34.945  1.00  0.00     0.002 A 
ATOM     92  C   UNL A   1      45.595  25.591  35.766  1.00  0.00     0.091 A 
ATOM     93  F   UNL A   1      43.347  25.401  34.991  1.00  0.00    -0.205 F 
ATOM     94  C   UNL A   1      46.828  26.262  35.728  1.00  0.00     0.022 A 
BRANCH  92  95
ATOM     95  S   UNL A   1      45.456  24.184  36.876  1.00  0.00     0.127 S 
ATOM     96  O   UNL A   1      46.831  24.041  37.351  1.00  0.00    -0.237 OA
ATOM     97  O   UNL A   1      44.510  24.670  37.881  1.00  0.00    -0.237 OA
ATOM     98  O   UNL A   1      44.955  23.084  36.062  1.00  0.00    -0.744 OA
ENDBRANCH  92  95
ENDBRANCH  65  88
ENDBRANCH  39  40
ENDBRANCH  31  34
ENDBRANCH  29  30
ENDBRANCH  28  29
ENDBRANCH   1  28
TORSDOF 17
ENDMDL
MODEL 2
REMARK VINA RESULT:     -12.4      1.499      2.156
REMARK SMILES CC(C)NC(=O)c1cccc(NC(=O)[C@@H]2[C@H](C(=O)NCCCNC(=O)c3ccc(-c4c5nc(c(-c6cccc(S(=O)(=O)[O-])c6F)c6ccc([nH]6)c(-c6cccc(S(=O)(=O)[O-])c6F)c6nc(c(-c7cccc(S(=O)(=O)[O-])c7F)c7ccc4[nH]7)C=C6)C=C5)cc3)C2(C)C)c1
REMARK SMILES IDX 20 1 19 2 17 3 18 4 16 6 15 7 89 8 90 9 91 10 13 11 12 12
REMARK SMILES IDX 14 14 11 15 7 16 8 17 92 18 9 19 10 20 5 21 4 22 6 24 2 25
REMARK SMILES IDX 1 26 3 27 21 28 22 29 23 30 24 31 25 33 26 34 27 35 88 36
REMARK SMILES IDX 28 37 87 38 29 39 30 40 31 41 81 42 32 43 86 44 80 45 82 46
REMARK SMILES IDX 33 47 85 48 79 49 78 50 34 52 66 53 46 54 65 55 47 56 50 57
REMARK SMILES IDX 64 58 83 59 48 60 49 61 63 63 84 64 51 65 35 66 36 67 44 68
REMARK SMILES IDX 37 69 39 70 45 71 38 72 40 73 41 74 42 75 43 76 67 77 68 78
REMARK SMILES IDX 76 79 69 80 71 81 77 82 70 83 72 84 73 85 74 86 75 87 52 88
REMARK SMILES IDX 53 89 61 90 54 91 56 92 62 93 55 94 57 95 58 96 59 97 60 98
REMARK H PARENT 19 5 12 13 4 23 23 32 82 51 50 62
REMARK Flexibility Score: inf
ROOT
ATOM      1  C   UNL A   1      32.256  27.650  26.916  1.00  0.00     0.117 C 
ENDROOT
BRANCH   1   2
ATOM      2  N   UNL A   1      31.554  26.736  26.033  1.00  0.00    -0.356 N 
ATOM      3  C   UNL A   1      31.848  26.387  24.746  1.00  0.00     0.224 C 
ATOM      4  O   UNL A   1      31.064  25.673  24.130  1.00  0.00    -0.275 OA
ATOM      5  H   UNL A   1      30.754  26.308  26.417  1.00  0.00     0.163 HD
BRANCH   3   6
ATOM      6  C   UNL A   1      33.085  26.915  24.113  1.00  0.00     0.098 C 
ATOM      7  C   UNL A   1      33.464  26.588  22.665  1.00  0.00     0.098 C 
ATOM      8  C   UNL A   1      33.092  28.009  23.042  1.00  0.00    -0.011 C 
ATOM      9  C   UNL A   1      34.299  28.953  23.047  1.00  0.00     0.013 C 
ATOM     10  C   UNL A   1      31.859  28.765  22.628  1.00  0.00     0.013 C 
BRANCH   7  11
ATOM     11  C   UNL A   1      33.005  25.284  22.113  1.00  0.00     0.228 C 
ATOM     12  N   UNL A   1      33.157  24.003  22.559  1.00  0.00    -0.326 N 
ATOM     13  H   UNL A   1      32.432  23.424  22.231  1.00  0.00     0.169 HD
ATOM     14  O   UNL A   1      32.176  25.375  21.197  1.00  0.00    -0.274 OA
BRANCH  12  15
ATOM     15  C   UNL A   1      34.050  23.292  23.349  1.00  0.00     0.041 A 
ATOM     16  C   UNL A   1      34.394  21.763  25.188  1.00  0.00     0.041 A 
ATOM     17  C   UNL A   1      35.769  21.763  24.967  1.00  0.00     0.014 A 
ATOM     18  C   UNL A   1      33.535  22.559  24.421  1.00  0.00     0.040 A 
ATOM     19  C   UNL A   1      36.264  22.448  23.869  1.00  0.00     0.003 A 
ATOM     20  C   UNL A   1      35.385  23.143  23.036  1.00  0.00     0.026 A 
BRANCH  16  21
ATOM     21  C   UNL A   1      33.853  20.786  26.144  1.00  0.00     0.251 C 
ATOM     22  N   UNL A   1      33.626  19.505  25.701  1.00  0.00    -0.350 N 
ATOM     23  H   UNL A   1      33.308  18.871  26.383  1.00  0.00     0.164 HD
ATOM     24  O   UNL A   1      33.673  21.103  27.314  1.00  0.00    -0.269 OA
BRANCH  22  25
ATOM     25  C   UNL A   1      33.792  18.952  24.354  1.00  0.00     0.076 C 
ATOM     26  C   UNL A   1      34.686  17.717  24.382  1.00  0.00     0.030 C 
ATOM     27  C   UNL A   1      32.421  18.630  23.769  1.00  0.00     0.030 C 
ENDBRANCH  22  25
ENDBRANCH  16  21
ENDBRANCH  12  15
ENDBRANCH   7  11
ENDBRANCH   3   6
ENDBRANCH   1   2
BRANCH   1  28
ATOM     28  C   UNL A   1      31.836  29.098  26.719  1.00  0.00     0.042 C 
BRANCH  28  29
ATOM     29  C   UNL A   1      32.940  30.010  26.200  1.00  0.00     0.118 C 
BRANCH  29  30
ATOM     30  N   UNL A   1      32.839  31.381  26.684  1.00  0.00    -0.352 N 
ATOM     31  C   UNL A   1      33.648  32.087  27.544  1.00  0.00     0.251 C 
ATOM     32  H   UNL A   1      32.065  31.885  26.341  1.00  0.00     0.163 HD
ATOM     33  O   UNL A   1      33.303  33.202  27.924  1.00  0.00    -0.269 OA
BRANCH  31  34
ATOM     34  C   UNL A   1      34.915  31.499  28.034  1.00  0.00     0.039 A 
ATOM     35  C   UNL A   1      36.051  32.309  28.124  1.00  0.00     0.014 A 
ATOM     36  C   UNL A   1      34.988  30.157  28.413  1.00  0.00     0.014 A 
ATOM     37  C   UNL A   1      37.230  31.795  28.674  1.00  0.00     0.010 A 
ATOM     38  C   UNL A   1      36.127  29.679  29.053  1.00  0.00     0.010 A 
ATOM     39  C   UNL A   1      37.264  30.488  29.185  1.00  0.00    -0.014 A 
BRANCH  39  40
ATOM     40  C   UNL A   1      38.467  29.941  29.866  1.00  0.00     0.031 A 
ATOM     41  C   UNL A   1      38.841  30.420  31.243  1.00  0.00     0.074 A 
ATOM     42  C   UNL A   1      39.285  29.098  29.203  1.00  0.00     0.049 A 
ATOM     43  N   UNL A   1      39.894  30.127  31.963  1.00  0.00    -0.248 NA
ATOM     44  C   UNL A   1      37.931  31.385  31.884  1.00  0.00     0.031 C 
ATOM     45  C   UNL A   1      39.082  28.621  27.834  1.00  0.00     0.029 A 
ATOM     46  N   UNL A   1      40.466  28.512  29.586  1.00  0.00    -0.354 N 
ATOM     47  C   UNL A   1      39.800  30.907  33.108  1.00  0.00     0.074 A 
ATOM     48  C   UNL A   1      38.607  31.713  32.975  1.00  0.00     0.031 C 
ATOM     49  C   UNL A   1      40.090  27.800  27.499  1.00  0.00     0.029 A 
ATOM     50  C   UNL A   1      41.028  27.717  28.614  1.00  0.00     0.049 A 
ATOM     51  H   UNL A   1      40.872  28.647  30.473  1.00  0.00     0.167 HD
ATOM     52  C   UNL A   1      40.613  30.929  34.192  1.00  0.00     0.034 A 
ATOM     53  C   UNL A   1      42.169  26.998  28.621  1.00  0.00     0.034 A 
ATOM     54  C   UNL A   1      41.757  30.075  34.355  1.00  0.00     0.049 A 
ATOM     55  C   UNL A   1      43.025  26.996  29.859  1.00  0.00     0.074 A 
ATOM     56  C   UNL A   1      42.574  29.933  35.463  1.00  0.00     0.029 A 
ATOM     57  N   UNL A   1      42.248  29.218  33.382  1.00  0.00    -0.354 N 
ATOM     58  N   UNL A   1      42.827  27.610  31.000  1.00  0.00    -0.248 NA
ATOM     59  C   UNL A   1      44.244  26.175  29.821  1.00  0.00     0.031 C 
ATOM     60  C   UNL A   1      43.569  28.997  35.153  1.00  0.00     0.029 A 
ATOM     61  C   UNL A   1      43.362  28.550  33.858  1.00  0.00     0.049 A 
ATOM     62  H   UNL A   1      41.861  29.102  32.484  1.00  0.00     0.167 HD
ATOM     63  C   UNL A   1      43.873  27.221  31.828  1.00  0.00     0.074 A 
ATOM     64  C   UNL A   1      44.694  26.305  31.062  1.00  0.00     0.031 C 
ATOM     65  C   UNL A   1      44.137  27.597  33.104  1.00  0.00     0.034 A 
BRANCH  52  66
ATOM     66  C   UNL A   1      40.250  31.869  35.314  1.00  0.00     0.023 A 
ATOM     67  C   UNL A   1      40.965  33.074  35.468  1.00  0.00     0.012 A 
ATOM     68  C   UNL A   1      39.190  31.578  36.193  1.00  0.00     0.148 A 
ATOM     69  C   UNL A   1      40.662  33.953  36.506  1.00  0.00     0.002 A 
ATOM     70  C   UNL A   1      38.866  32.481  37.200  1.00  0.00     0.091 A 
ATOM     71  F   UNL A   1      38.537  30.416  36.052  1.00  0.00    -0.205 F 
ATOM     72  C   UNL A   1      39.607  33.662  37.366  1.00  0.00     0.022 A 
BRANCH  70  73
ATOM     73  S   UNL A   1      37.472  32.223  38.304  1.00  0.00     0.127 S 
ATOM     74  O   UNL A   1      36.421  32.991  37.639  1.00  0.00    -0.237 OA
ATOM     75  O   UNL A   1      37.292  30.770  38.247  1.00  0.00    -0.237 OA
ATOM     76  O   UNL A   1      37.899  32.723  39.602  1.00  0.00    -0.744 OA
ENDBRANCH  70  73
ENDBRANCH  52  66
BRANCH  53  77
ATOM     77  C   UNL A   1      42.510  26.137  27.454  1.00  0.00     0.023 A 
ATOM     78  C   UNL A   1      43.319  26.670  26.431  1.00  0.00     0.012 A 
ATOM     79  C   UNL A   1      42.087  24.797  27.367  1.00  0.00     0.148 A 
ATOM     80  C   UNL A   1      43.679  25.894  25.329  1.00  0.00     0.002 A 
ATOM     81  C   UNL A   1      42.492  24.014  26.291  1.00  0.00     0.091 A 
ATOM     82  F   UNL A   1      41.311  24.312  28.346  1.00  0.00    -0.205 F 
ATOM     83  C   UNL A   1      43.275  24.565  25.265  1.00  0.00     0.022 A 
BRANCH  81  84
ATOM     84  S   UNL A   1      42.124  22.259  26.181  1.00  0.00     0.127 S 
ATOM     85  O   UNL A   1      42.884  21.867  24.996  1.00  0.00    -0.237 OA
ATOM     86  O   UNL A   1      42.657  21.759  27.449  1.00  0.00    -0.237 OA
ATOM     87  O   UNL A   1      40.675  22.166  26.062  1.00  0.00    -0.744 OA
ENDBRANCH  81  84
ENDBRANCH  53  77
BRANCH  65  88
ATOM     88  C   UNL A   1      45.348  27.000  33.772  1.00  0.00     0.023 A 
ATOM     89  C   UNL A   1      46.563  27.712  33.780  1.00  0.00     0.012 A 
ATOM     90  C   UNL A   1      45.260  25.774  34.461  1.00  0.00     0.148 A 
ATOM     91  C   UNL A   1      47.679  27.201  34.440  1.00  0.00     0.002 A 
ATOM     92  C   UNL A   1      46.363  25.292  35.154  1.00  0.00     0.091 A 
ATOM     93  F   UNL A   1      44.100  25.101  34.424  1.00  0.00    -0.205 F 
ATOM     94  C   UNL A   1      47.577  25.999  35.136  1.00  0.00     0.022 A 
BRANCH  92  95
ATOM     95  S   UNL A   1      46.290  23.802  36.156  1.00  0.00     0.127 S 
ATOM     96  O   UNL A   1      46.210  22.760  35.134  1.00  0.00    -0.237 OA
ATOM     97  O   UNL A   1      47.560  23.849  36.881  1.00  0.00    -0.237 OA
ATOM     98  O   UNL A   1      45.111  23.948  36.999  1.00  0.00    -0.744 OA
ENDBRANCH  92  95
ENDBRANCH  65  88
ENDBRANCH  39  40
ENDBRANCH  31  34
ENDBRANCH  29  30
ENDBRANCH  28  29
ENDBRANCH   1  28
TORSDOF 17
ENDMDL
MODEL 3
REMARK VINA RESULT:     -12.1      4.879     10.395
REMARK SMILES CC(C)NC(=O)c1cccc(NC(=O)[C@@H]2[C@H](C(=O)NCCCNC(=O)c3ccc(-c4c5nc(c(-c6cccc(S(=O)(=O)[O-])c6F)c6ccc([nH]6)c(-c6cccc(S(=O)(=O)[O-])c6F)c6nc(c(-c7cccc(S(=O)(=O)[O-])c7F)c7ccc4[nH]7)C=C6)C=C5)cc3)C2(C)C)c1
REMARK SMILES IDX 20 1 19 2 17 3 18 4 16 6 15 7 89 8 90 9 91 10 13 11 12 12
REMARK SMILES IDX 14 14 11 15 7 16 8 17 92 18 9 19 10 20 5 21 4 22 6 24 2 25
REMARK SMILES IDX 1 26 3 27 21 28 22 29 23 30 24 31 25 33 26 34 27 35 88 36
REMARK SMILES IDX 28 37 87 38 29 39 30 40 31 41 81 42 32 43 86 44 80 45 82 46
REMARK SMILES IDX 33 47 85 48 79 49 78 50 34 52 66 53 46 54 65 55 47 56 50 57
REMARK SMILES IDX 64 58 83 59 48 60 49 61 63 63 84 64 51 65 35 66 36 67 44 68
REMARK SMILES IDX 37 69 39 70 45 71 38 72 40 73 41 74 42 75 43 76 67 77 68 78
REMARK SMILES IDX 76 79 69 80 71 81 77 82 70 83 72 84 73 85 74 86 75 87 52 88
REMARK SMILES IDX 53 89 61 90 54 91 56 92 62 93 55 94 57 95 58 96 59 97 60 98
REMARK H PARENT 19 5 12 13 4 23 23 32 82 51 50 62
REMARK Flexibility Score: inf
ROOT
ATOM      1  C   UNL A   1      35.660  21.730  24.572  1.00  0.00     0.117 C 
ENDROOT
BRANCH   1   2
ATOM      2  N   UNL A   1      35.147  22.546  25.657  1.00  0.00    -0.356 N 
ATOM      3  C   UNL A   1      33.852  22.837  25.977  1.00  0.00     0.224 C 
ATOM      4  O   UNL A   1      33.627  23.639  26.878  1.00  0.00    -0.275 OA
ATOM      5  H   UNL A   1      35.829  22.944  26.246  1.00  0.00     0.163 HD
BRANCH   3   6
ATOM      6  C   UNL A   1      32.751  22.210  25.199  1.00  0.00     0.098 C 
ATOM      7  C   UNL A   1      31.341  22.808  25.152  1.00  0.00     0.098 C 
ATOM      8  C   UNL A   1      32.192  22.789  23.897  1.00  0.00    -0.011 C 
ATOM      9  C   UNL A   1      31.696  21.774  22.862  1.00  0.00     0.013 C 
ATOM     10  C   UNL A   1      32.799  23.974  23.194  1.00  0.00     0.013 C 
BRANCH   7  11
ATOM     11  C   UNL A   1      30.885  23.584  26.337  1.00  0.00     0.228 C 
ATOM     12  N   UNL A   1      30.597  24.907  26.502  1.00  0.00    -0.326 N 
ATOM     13  H   UNL A   1      29.957  25.042  27.238  1.00  0.00     0.169 HD
ATOM     14  O   UNL A   1      30.512  22.891  27.294  1.00  0.00    -0.274 OA
BRANCH  12  15
ATOM     15  C   UNL A   1      30.954  26.115  25.919  1.00  0.00     0.041 A 
ATOM     16  C   UNL A   1      31.018  27.498  23.939  1.00  0.00     0.041 A 
ATOM     17  C   UNL A   1      31.585  28.549  24.657  1.00  0.00     0.014 A 
ATOM     18  C   UNL A   1      30.747  26.266  24.546  1.00  0.00     0.040 A 
ATOM     19  C   UNL A   1      31.736  28.409  26.028  1.00  0.00     0.003 A 
ATOM     20  C   UNL A   1      31.350  27.218  26.647  1.00  0.00     0.026 A 
BRANCH  16  21
ATOM     21  C   UNL A   1      30.567  27.770  22.566  1.00  0.00     0.251 C 
ATOM     22  N   UNL A   1      29.504  28.623  22.392  1.00  0.00    -0.350 N 
ATOM     23  H   UNL A   1      29.264  28.815  21.457  1.00  0.00     0.164 HD
ATOM     24  O   UNL A   1      31.170  27.291  21.613  1.00  0.00    -0.269 OA
BRANCH  22  25
ATOM     25  C   UNL A   1      28.679  29.288  23.405  1.00  0.00     0.076 C 
ATOM     26  C   UNL A   1      29.009  30.775  23.482  1.00  0.00     0.030 C 
ATOM     27  C   UNL A   1      27.206  29.064  23.081  1.00  0.00     0.030 C 
ENDBRANCH  22  25
ENDBRANCH  16  21
ENDBRANCH  12  15
ENDBRANCH   7  11
ENDBRANCH   3   6
ENDBRANCH   1   2
BRANCH   1  28
ATOM     28  C   UNL A   1      36.757  20.777  25.018  1.00  0.00     0.042 C 
BRANCH  28  29
ATOM     29  C   UNL A   1      38.083  21.450  25.347  1.00  0.00     0.118 C 
BRANCH  29  30
ATOM     30  N   UNL A   1      39.059  20.552  25.951  1.00  0.00    -0.352 N 
ATOM     31  C   UNL A   1      40.184  20.825  26.692  1.00  0.00     0.251 C 
ATOM     32  H   UNL A   1      38.886  19.594  25.803  1.00  0.00     0.163 HD
ATOM     33  O   UNL A   1      40.947  19.911  26.996  1.00  0.00    -0.269 OA
BRANCH  31  34
ATOM     34  C   UNL A   1      40.496  22.214  27.100  1.00  0.00     0.039 A 
ATOM     35  C   UNL A   1      41.458  22.431  28.091  1.00  0.00     0.014 A 
ATOM     36  C   UNL A   1      39.852  23.301  26.507  1.00  0.00     0.014 A 
ATOM     37  C   UNL A   1      41.833  23.738  28.422  1.00  0.00     0.010 A 
ATOM     38  C   UNL A   1      40.299  24.593  26.761  1.00  0.00     0.010 A 
ATOM     39  C   UNL A   1      41.289  24.829  27.726  1.00  0.00    -0.014 A 
BRANCH  39  40
ATOM     40  C   UNL A   1      41.735  26.224  27.980  1.00  0.00     0.031 A 
ATOM     41  C   UNL A   1      43.126  26.656  27.599  1.00  0.00     0.074 A 
ATOM     42  C   UNL A   1      40.930  27.072  28.653  1.00  0.00     0.049 A 
ATOM     43  N   UNL A   1      43.725  27.799  27.814  1.00  0.00    -0.248 NA
ATOM     44  C   UNL A   1      43.970  25.659  26.916  1.00  0.00     0.031 C 
ATOM     45  C   UNL A   1      39.592  26.753  29.153  1.00  0.00     0.029 A 
ATOM     46  N   UNL A   1      41.133  28.369  29.055  1.00  0.00    -0.354 N 
ATOM     47  C   UNL A   1      45.024  27.641  27.346  1.00  0.00     0.074 A 
ATOM     48  C   UNL A   1      45.138  26.282  26.867  1.00  0.00     0.031 C 
ATOM     49  C   UNL A   1      39.085  27.830  29.776  1.00  0.00     0.029 A 
ATOM     50  C   UNL A   1      40.073  28.904  29.749  1.00  0.00     0.049 A 
ATOM     51  H   UNL A   1      41.960  28.869  28.865  1.00  0.00     0.167 HD
ATOM     52  C   UNL A   1      46.024  28.552  27.287  1.00  0.00     0.034 A 
ATOM     53  C   UNL A   1      39.911  30.125  30.298  1.00  0.00     0.034 A 
ATOM     54  C   UNL A   1      45.886  29.923  27.696  1.00  0.00     0.049 A 
ATOM     55  C   UNL A   1      41.017  31.138  30.169  1.00  0.00     0.074 A 
ATOM     56  C   UNL A   1      46.798  30.956  27.566  1.00  0.00     0.029 A 
ATOM     57  N   UNL A   1      44.766  30.453  28.316  1.00  0.00    -0.354 N 
ATOM     58  N   UNL A   1      42.176  31.022  29.569  1.00  0.00    -0.248 NA
ATOM     59  C   UNL A   1      40.777  32.460  30.764  1.00  0.00     0.031 C 
ATOM     60  C   UNL A   1      46.232  32.110  28.122  1.00  0.00     0.029 A 
ATOM     61  C   UNL A   1      44.964  31.796  28.585  1.00  0.00     0.049 A 
ATOM     62  H   UNL A   1      43.949  29.948  28.534  1.00  0.00     0.167 HD
ATOM     63  C   UNL A   1      42.789  32.264  29.680  1.00  0.00     0.074 A 
ATOM     64  C   UNL A   1      41.864  33.124  30.391  1.00  0.00     0.031 C 
ATOM     65  C   UNL A   1      44.012  32.655  29.243  1.00  0.00     0.034 A 
BRANCH  52  66
ATOM     66  C   UNL A   1      47.338  28.105  26.699  1.00  0.00     0.023 A 
ATOM     67  C   UNL A   1      48.416  27.806  27.558  1.00  0.00     0.012 A 
ATOM     68  C   UNL A   1      47.501  27.952  25.310  1.00  0.00     0.148 A 
ATOM     69  C   UNL A   1      49.648  27.407  27.041  1.00  0.00     0.002 A 
ATOM     70  C   UNL A   1      48.719  27.511  24.804  1.00  0.00     0.091 A 
ATOM     71  F   UNL A   1      46.476  28.266  24.504  1.00  0.00    -0.205 F 
ATOM     72  C   UNL A   1      49.796  27.250  25.666  1.00  0.00     0.022 A 
BRANCH  70  73
ATOM     73  S   UNL A   1      48.973  27.207  23.051  1.00  0.00     0.127 S 
ATOM     74  O   UNL A   1      50.429  27.101  22.978  1.00  0.00    -0.237 OA
ATOM     75  O   UNL A   1      48.260  25.945  22.846  1.00  0.00    -0.237 OA
ATOM     76  O   UNL A   1      48.384  28.347  22.364  1.00  0.00    -0.744 OA
ENDBRANCH  70  73
ENDBRANCH  52  66
BRANCH  53  77
ATOM     77  C   UNL A   1      38.610  30.489  30.926  1.00  0.00     0.023 A 
ATOM     78  C   UNL A   1      38.395  30.165  32.280  1.00  0.00     0.012 A 
ATOM     79  C   UNL A   1      37.611  31.187  30.221  1.00  0.00     0.148 A 
ATOM     80  C   UNL A   1      37.201  30.504  32.914  1.00  0.00     0.002 A 
ATOM     81  C   UNL A   1      36.442  31.566  30.873  1.00  0.00     0.091 A 
ATOM     82  F   UNL A   1      37.831  31.478  28.931  1.00  0.00    -0.205 F 
ATOM     83  C   UNL A   1      36.230  31.213  32.215  1.00  0.00     0.022 A 
BRANCH  81  84
ATOM     84  S   UNL A   1      35.187  32.587  30.092  1.00  0.00     0.127 S 
ATOM     85  O   UNL A   1      34.260  32.819  31.196  1.00  0.00    -0.237 OA
ATOM     86  O   UNL A   1      35.963  33.758  29.682  1.00  0.00    -0.237 OA
ATOM     87  O   UNL A   1      34.667  31.795  28.985  1.00  0.00    -0.744 OA
ENDBRANCH  81  84
ENDBRANCH  53  77
BRANCH  65  88
ATOM     88  C   UNL A   1      44.418  34.084  29.491  1.00  0.00     0.023 A 
ATOM     89  C   UNL A   1      45.050  34.429  30.702  1.00  0.00     0.012 A 
ATOM     90  C   UNL A   1      44.249  35.065  28.494  1.00  0.00     0.148 A 
ATOM     91  C   UNL A   1      45.483  35.735  30.927  1.00  0.00     0.002 A 
ATOM     92  C   UNL A   1      44.723  36.354  28.708  1.00  0.00     0.091 A 
ATOM     93  F   UNL A   1      43.626  34.722  27.357  1.00  0.00    -0.205 F 
ATOM     94  C   UNL A   1      45.330  36.693  29.928  1.00  0.00     0.022 A 
BRANCH  92  95
ATOM     95  S   UNL A   1      44.655  37.623  27.438  1.00  0.00     0.127 S 
ATOM     96  O   UNL A   1      45.641  37.135  26.475  1.00  0.00    -0.237 OA
ATOM     97  O   UNL A   1      43.266  37.538  26.985  1.00  0.00    -0.237 OA
ATOM     98  O   UNL A   1      44.993  38.873  28.106  1.00  0.00    -0.744 OA
ENDBRANCH  92  95
ENDBRANCH  65  88
ENDBRANCH  39  40
ENDBRANCH  31  34
ENDBRANCH  29  30
ENDBRANCH  28  29
ENDBRANCH   1  28
TORSDOF 17
ENDMDL
