MODEL 1
REMARK VINA RESULT:     -11.9      0.000      0.000
REMARK SMILES CCc1cc(OC(F)(F)F)cc2c1O[C@H](C(F)(F)F)C(C(=O)NCCCNC(=O)c1ccc(-c3c4nc(c(-c5cccc(S(=O)(=O)[O-])c5F)c5ccc([nH]5)c(-c5cccc(S(=O)(=O)[O-])c5F)c5nc(c(-c6cccc(S(=O)(=O)[O-])c6F)c6ccc3[nH]6)C=C5)C=C4)cc1)=C2
REMARK SMILES IDX 25 1 24 2 23 3 21 4 22 5 20 7 3 8 4 9 13 10 5 11 12 12 14 13
REMARK SMILES IDX 11 14 93 15 15 16 2 17 1 18 6 19 7 20 8 21 9 22 10 23 16 24
REMARK SMILES IDX 17 25 18 26 19 27 26 28 27 29 28 30 29 32 30 33 31 34 92 35
REMARK SMILES IDX 32 36 91 37 33 38 34 39 35 40 85 41 36 42 90 43 84 44 86 45
REMARK SMILES IDX 37 46 89 47 83 48 82 49 38 51 70 52 50 53 69 54 51 55 54 56
REMARK SMILES IDX 68 57 87 58 52 59 53 60 67 62 88 63 55 64 39 65 40 66 48 67
REMARK SMILES IDX 41 68 43 69 49 70 42 71 44 72 45 73 46 74 47 75 71 76 72 77
REMARK SMILES IDX 80 78 73 79 75 80 81 81 74 82 76 83 77 84 78 85 79 86 56 87
REMARK SMILES IDX 57 88 65 89 58 90 60 91 66 92 59 93 61 94 62 95 63 96 64 97
REMARK H PARENT 23 6 27 31 86 50 54 61
REMARK Flexibility Score: inf
ROOT
ATOM      1  C   UNL A   1      32.758  27.837  26.694  1.00  0.00     0.042 C 
ENDROOT
BRANCH   1   2
ATOM      2  C   UNL A   1      31.799  27.385  25.595  1.00  0.00     0.118 C 
BRANCH   2   3
ATOM      3  N   UNL A   1      30.738  26.551  26.130  1.00  0.00    -0.352 N 
ATOM      4  C   UNL A   1      30.598  25.209  26.259  1.00  0.00     0.251 C 
ATOM      5  O   UNL A   1      29.593  24.801  26.841  1.00  0.00    -0.270 OA
ATOM      6  H   UNL A   1      29.968  27.062  26.466  1.00  0.00     0.163 HD
BRANCH   4   7
ATOM      7  C   UNL A   1      31.642  24.230  25.846  1.00  0.00     0.067 C 
ATOM      8  C   UNL A   1      33.977  20.854  24.949  1.00  0.00    -0.002 A 
ATOM      9  C   UNL A   1      35.358  20.893  25.228  1.00  0.00     0.054 A 
ATOM     10  C   UNL A   1      33.198  21.982  25.245  1.00  0.00     0.131 A 
ATOM     11  C   UNL A   1      35.947  22.028  25.791  1.00  0.00     0.130 A 
ATOM     12  C   UNL A   1      33.781  23.129  25.791  1.00  0.00     0.021 A 
ATOM     13  O   UNL A   1      31.843  21.890  25.057  1.00  0.00    -0.475 OA
ATOM     14  C   UNL A   1      35.153  23.146  26.060  1.00  0.00     0.058 A 
ATOM     15  C   UNL A   1      32.940  24.258  26.178  1.00  0.00     0.025 C 
ATOM     16  C   UNL A   1      31.132  23.150  24.908  1.00  0.00     0.314 C 
BRANCH   8  17
ATOM     17  C   UNL A   1      33.375  19.593  24.370  1.00  0.00     0.036 C 
ATOM     18  C   UNL A   1      34.269  18.368  24.510  1.00  0.00     0.009 C 
ENDBRANCH   8  17
BRANCH  11  19
ATOM     19  O   UNL A   1      37.258  22.176  26.144  1.00  0.00    -0.406 OA
BRANCH  19  20
ATOM     20  C   UNL A   1      37.904  23.392  25.812  1.00  0.00     0.573 C 
ATOM     21  F   UNL A   1      37.677  23.728  24.522  1.00  0.00    -0.132 F 
ATOM     22  F   UNL A   1      37.494  24.398  26.613  1.00  0.00    -0.132 F 
ATOM     23  F   UNL A   1      39.236  23.239  25.972  1.00  0.00    -0.132 F 
ENDBRANCH  19  20
ENDBRANCH  11  19
BRANCH  16  24
ATOM     24  C   UNL A   1      31.134  23.599  23.431  1.00  0.00     0.429 C 
ATOM     25  F   UNL A   1      29.903  24.040  23.060  1.00  0.00    -0.167 F 
ATOM     26  F   UNL A   1      31.989  24.614  23.184  1.00  0.00    -0.167 F 
ATOM     27  F   UNL A   1      31.459  22.590  22.588  1.00  0.00    -0.167 F 
ENDBRANCH  16  24
ENDBRANCH   4   7
ENDBRANCH   2   3
ENDBRANCH   1   2
BRANCH   1  28
ATOM     28  C   UNL A   1      33.936  28.650  26.165  1.00  0.00     0.118 C 
BRANCH  28  29
ATOM     29  N   UNL A   1      33.828  30.055  26.533  1.00  0.00    -0.352 N 
ATOM     30  C   UNL A   1      34.552  30.784  27.443  1.00  0.00     0.251 C 
ATOM     31  H   UNL A   1      33.130  30.559  26.057  1.00  0.00     0.163 HD
ATOM     32  O   UNL A   1      34.142  31.890  27.786  1.00  0.00    -0.269 OA
BRANCH  30  33
ATOM     33  C   UNL A   1      35.811  30.250  28.008  1.00  0.00     0.039 A 
ATOM     34  C   UNL A   1      35.786  29.672  29.281  1.00  0.00     0.014 A 
ATOM     35  C   UNL A   1      37.018  30.365  27.315  1.00  0.00     0.014 A 
ATOM     36  C   UNL A   1      36.965  29.171  29.839  1.00  0.00     0.010 A 
ATOM     37  C   UNL A   1      38.179  29.803  27.842  1.00  0.00     0.010 A 
ATOM     38  C   UNL A   1      38.167  29.211  29.114  1.00  0.00    -0.014 A 
BRANCH  38  39
ATOM     39  C   UNL A   1      39.423  28.645  29.668  1.00  0.00     0.031 A 
ATOM     40  C   UNL A   1      40.066  29.272  30.876  1.00  0.00     0.074 A 
ATOM     41  C   UNL A   1      40.022  27.617  29.037  1.00  0.00     0.049 A 
ATOM     42  N   UNL A   1      41.195  28.965  31.462  1.00  0.00    -0.248 NA
ATOM     43  C   UNL A   1      39.361  30.408  31.495  1.00  0.00     0.031 C 
ATOM     44  C   UNL A   1      39.529  26.968  27.819  1.00  0.00     0.029 A 
ATOM     45  N   UNL A   1      41.190  26.953  29.315  1.00  0.00    -0.354 N 
ATOM     46  C   UNL A   1      41.350  29.883  32.495  1.00  0.00     0.074 A 
ATOM     47  C   UNL A   1      40.219  30.782  32.434  1.00  0.00     0.031 C 
ATOM     48  C   UNL A   1      40.385  25.999  27.458  1.00  0.00     0.029 A 
ATOM     49  C   UNL A   1      41.501  25.975  28.398  1.00  0.00     0.049 A 
ATOM     50  H   UNL A   1      41.753  27.157  30.096  1.00  0.00     0.167 HD
ATOM     51  C   UNL A   1      42.326  29.951  33.432  1.00  0.00     0.034 A 
ATOM     52  C   UNL A   1      42.568  25.156  28.323  1.00  0.00     0.034 A 
ATOM     53  C   UNL A   1      43.427  29.028  33.513  1.00  0.00     0.049 A 
ATOM     54  C   UNL A   1      43.625  25.240  29.391  1.00  0.00     0.074 A 
ATOM     55  C   UNL A   1      44.435  28.973  34.458  1.00  0.00     0.029 A 
ATOM     56  N   UNL A   1      43.662  27.998  32.615  1.00  0.00    -0.354 N 
ATOM     57  N   UNL A   1      43.680  26.024  30.440  1.00  0.00    -0.248 NA
ATOM     58  C   UNL A   1      44.751  24.300  29.284  1.00  0.00     0.031 C 
ATOM     59  C   UNL A   1      45.288  27.915  34.126  1.00  0.00     0.029 A 
ATOM     60  C   UNL A   1      44.799  27.300  32.985  1.00  0.00     0.049 A 
ATOM     61  H   UNL A   1      43.104  27.794  31.831  1.00  0.00     0.167 HD
ATOM     62  C   UNL A   1      44.820  25.644  31.139  1.00  0.00     0.074 A 
ATOM     63  C   UNL A   1      45.414  24.546  30.405  1.00  0.00     0.031 C 
ATOM     64  C   UNL A   1      45.339  26.167  32.277  1.00  0.00     0.034 A 
BRANCH  51  65
ATOM     65  C   UNL A   1      42.209  31.018  34.489  1.00  0.00     0.023 A 
ATOM     66  C   UNL A   1      41.565  30.714  35.706  1.00  0.00     0.012 A 
ATOM     67  C   UNL A   1      42.783  32.292  34.313  1.00  0.00     0.148 A 
ATOM     68  C   UNL A   1      41.464  31.669  36.718  1.00  0.00     0.002 A 
ATOM     69  C   UNL A   1      42.716  33.225  35.342  1.00  0.00     0.091 A 
ATOM     70  F   UNL A   1      43.376  32.570  33.142  1.00  0.00    -0.205 F 
ATOM     71  C   UNL A   1      42.048  32.920  36.539  1.00  0.00     0.022 A 
BRANCH  69  72
ATOM     72  S   UNL A   1      43.500  34.839  35.245  1.00  0.00     0.127 S 
ATOM     73  O   UNL A   1      43.159  35.411  36.547  1.00  0.00    -0.237 OA
ATOM     74  O   UNL A   1      44.910  34.487  35.084  1.00  0.00    -0.237 OA
ATOM     75  O   UNL A   1      42.905  35.506  34.094  1.00  0.00    -0.744 OA
ENDBRANCH  69  72
ENDBRANCH  51  65
BRANCH  52  76
ATOM     76  C   UNL A   1      42.656  24.135  27.240  1.00  0.00     0.023 A 
ATOM     77  C   UNL A   1      43.324  24.459  26.042  1.00  0.00     0.012 A 
ATOM     78  C   UNL A   1      42.095  22.852  27.386  1.00  0.00     0.148 A 
ATOM     79  C   UNL A   1      43.398  23.539  24.996  1.00  0.00     0.002 A 
ATOM     80  C   UNL A   1      42.222  21.920  26.361  1.00  0.00     0.091 A 
ATOM     81  F   UNL A   1      41.451  22.565  28.526  1.00  0.00    -0.205 F 
ATOM     82  C   UNL A   1      42.856  22.268  25.158  1.00  0.00     0.022 A 
BRANCH  80  83
ATOM     83  S   UNL A   1      41.670  20.220  26.541  1.00  0.00     0.127 S 
ATOM     84  O   UNL A   1      42.322  19.823  27.785  1.00  0.00    -0.237 OA
ATOM     85  O   UNL A   1      40.216  20.378  26.629  1.00  0.00    -0.237 OA
ATOM     86  O   UNL A   1      42.121  19.538  25.335  1.00  0.00    -0.744 OA
ENDBRANCH  80  83
ENDBRANCH  52  76
BRANCH  64  87
ATOM     87  C   UNL A   1      46.589  25.535  32.828  1.00  0.00     0.023 A 
ATOM     88  C   UNL A   1      47.851  26.039  32.459  1.00  0.00     0.012 A 
ATOM     89  C   UNL A   1      46.509  24.486  33.766  1.00  0.00     0.148 A 
ATOM     90  C   UNL A   1      49.017  25.488  32.989  1.00  0.00     0.002 A 
ATOM     91  C   UNL A   1      47.673  23.974  34.327  1.00  0.00     0.091 A 
ATOM     92  F   UNL A   1      45.299  24.007  34.089  1.00  0.00    -0.205 F 
ATOM     93  C   UNL A   1      48.927  24.465  33.931  1.00  0.00     0.022 A 
BRANCH  91  94
ATOM     94  S   UNL A   1      47.650  22.724  35.616  1.00  0.00     0.127 S 
ATOM     95  O   UNL A   1      46.838  23.371  36.645  1.00  0.00    -0.237 OA
ATOM     96  O   UNL A   1      47.000  21.598  34.945  1.00  0.00    -0.237 OA
ATOM     97  O   UNL A   1      49.043  22.490  35.973  1.00  0.00    -0.744 OA
ENDBRANCH  91  94
ENDBRANCH  64  87
ENDBRANCH  38  39
ENDBRANCH  30  33
ENDBRANCH  28  29
ENDBRANCH   1  28
TORSDOF 17
ENDMDL
MODEL 2
REMARK VINA RESULT:     -11.8      1.799      2.205
REMARK SMILES CCc1cc(OC(F)(F)F)cc2c1O[C@H](C(F)(F)F)C(C(=O)NCCCNC(=O)c1ccc(-c3c4nc(c(-c5cccc(S(=O)(=O)[O-])c5F)c5ccc([nH]5)c(-c5cccc(S(=O)(=O)[O-])c5F)c5nc(c(-c6cccc(S(=O)(=O)[O-])c6F)c6ccc3[nH]6)C=C5)C=C4)cc1)=C2
REMARK SMILES IDX 25 1 24 2 23 3 21 4 22 5 20 7 3 8 4 9 13 10 5 11 12 12 14 13
REMARK SMILES IDX 11 14 93 15 15 16 2 17 1 18 6 19 7 20 8 21 9 22 10 23 16 24
REMARK SMILES IDX 17 25 18 26 19 27 26 28 27 29 28 30 29 32 30 33 31 34 92 35
REMARK SMILES IDX 32 36 91 37 33 38 34 39 35 40 85 41 36 42 90 43 84 44 86 45
REMARK SMILES IDX 37 46 89 47 83 48 82 49 38 51 70 52 50 53 69 54 51 55 54 56
REMARK SMILES IDX 68 57 87 58 52 59 53 60 67 62 88 63 55 64 39 65 40 66 48 67
REMARK SMILES IDX 41 68 43 69 49 70 42 71 44 72 45 73 46 74 47 75 71 76 72 77
REMARK SMILES IDX 80 78 73 79 75 80 81 81 74 82 76 83 77 84 78 85 79 86 56 87
REMARK SMILES IDX 57 88 65 89 58 90 60 91 66 92 59 93 61 94 62 95 63 96 64 97
REMARK H PARENT 23 6 27 31 86 50 54 61
REMARK Flexibility Score: inf
ROOT
ATOM      1  C   UNL A   1      32.922  27.778  26.650  1.00  0.00     0.042 C 
ENDROOT
BRANCH   1   2
ATOM      2  C   UNL A   1      31.976  27.361  25.526  1.00  0.00     0.118 C 
BRANCH   2   3
ATOM      3  N   UNL A   1      30.865  26.577  26.035  1.00  0.00    -0.352 N 
ATOM      4  C   UNL A   1      30.665  25.243  26.171  1.00  0.00     0.251 C 
ATOM      5  O   UNL A   1      29.627  24.883  26.726  1.00  0.00    -0.270 OA
ATOM      6  H   UNL A   1      30.107  27.123  26.343  1.00  0.00     0.163 HD
BRANCH   4   7
ATOM      7  C   UNL A   1      31.679  24.218  25.798  1.00  0.00     0.067 C 
ATOM      8  C   UNL A   1      33.915  20.741  25.045  1.00  0.00    -0.002 A 
ATOM      9  C   UNL A   1      35.298  20.754  25.318  1.00  0.00     0.054 A 
ATOM     10  C   UNL A   1      33.169  21.902  25.293  1.00  0.00     0.131 A 
ATOM     11  C   UNL A   1      35.921  21.895  25.828  1.00  0.00     0.130 A 
ATOM     12  C   UNL A   1      33.786  23.055  25.786  1.00  0.00     0.021 A 
ATOM     13  O   UNL A   1      31.811  21.840  25.113  1.00  0.00    -0.475 OA
ATOM     14  C   UNL A   1      35.159  23.046  26.050  1.00  0.00     0.058 A 
ATOM     15  C   UNL A   1      32.979  24.224  26.125  1.00  0.00     0.025 C 
ATOM     16  C   UNL A   1      31.135  23.113  24.911  1.00  0.00     0.314 C 
BRANCH   8  17
ATOM     17  C   UNL A   1      33.275  19.473  24.525  1.00  0.00     0.036 C 
ATOM     18  C   UNL A   1      34.246  18.308  24.391  1.00  0.00     0.009 C 
ENDBRANCH   8  17
BRANCH  11  19
ATOM     19  O   UNL A   1      37.237  22.021  26.170  1.00  0.00    -0.406 OA
BRANCH  19  20
ATOM     20  C   UNL A   1      37.910  23.212  25.800  1.00  0.00     0.573 C 
ATOM     21  F   UNL A   1      37.532  24.248  26.583  1.00  0.00    -0.132 F 
ATOM     22  F   UNL A   1      39.248  23.061  25.875  1.00  0.00    -0.132 F 
ATOM     23  F   UNL A   1      37.588  23.519  24.525  1.00  0.00    -0.132 F 
ENDBRANCH  19  20
ENDBRANCH  11  19
BRANCH  16  24
ATOM     24  C   UNL A   1      31.143  23.495  23.415  1.00  0.00     0.429 C 
ATOM     25  F   UNL A   1      32.094  24.431  23.162  1.00  0.00    -0.167 F 
ATOM     26  F   UNL A   1      31.413  22.452  22.601  1.00  0.00    -0.167 F 
ATOM     27  F   UNL A   1      29.961  24.019  23.014  1.00  0.00    -0.167 F 
ENDBRANCH  16  24
ENDBRANCH   4   7
ENDBRANCH   2   3
ENDBRANCH   1   2
BRANCH   1  28
ATOM     28  C   UNL A   1      34.041  28.703  26.178  1.00  0.00     0.118 C 
BRANCH  28  29
ATOM     29  N   UNL A   1      33.851  30.065  26.659  1.00  0.00    -0.352 N 
ATOM     30  C   UNL A   1      34.550  30.769  27.607  1.00  0.00     0.251 C 
ATOM     31  H   UNL A   1      33.108  30.555  26.240  1.00  0.00     0.163 HD
ATOM     32  O   UNL A   1      34.078  31.815  28.045  1.00  0.00    -0.269 OA
BRANCH  30  33
ATOM     33  C   UNL A   1      35.856  30.280  28.100  1.00  0.00     0.039 A 
ATOM     34  C   UNL A   1      35.920  29.685  29.364  1.00  0.00     0.014 A 
ATOM     35  C   UNL A   1      37.021  30.453  27.348  1.00  0.00     0.014 A 
ATOM     36  C   UNL A   1      37.146  29.226  29.854  1.00  0.00     0.010 A 
ATOM     37  C   UNL A   1      38.229  29.932  27.807  1.00  0.00     0.010 A 
ATOM     38  C   UNL A   1      38.306  29.325  29.070  1.00  0.00    -0.014 A 
BRANCH  38  39
ATOM     39  C   UNL A   1      39.610  28.803  29.551  1.00  0.00     0.031 A 
ATOM     40  C   UNL A   1      40.350  29.517  30.651  1.00  0.00     0.074 A 
ATOM     41  C   UNL A   1      40.161  27.735  28.945  1.00  0.00     0.049 A 
ATOM     42  N   UNL A   1      41.528  29.257  31.157  1.00  0.00    -0.248 NA
ATOM     43  C   UNL A   1      39.691  30.693  31.246  1.00  0.00     0.031 C 
ATOM     44  C   UNL A   1      39.571  26.998  27.824  1.00  0.00     0.029 A 
ATOM     45  N   UNL A   1      41.356  27.095  29.167  1.00  0.00    -0.354 N 
ATOM     46  C   UNL A   1      41.763  30.247  32.104  1.00  0.00     0.074 A 
ATOM     47  C   UNL A   1      40.623  31.136  32.077  1.00  0.00     0.031 C 
ATOM     48  C   UNL A   1      40.401  26.008  27.461  1.00  0.00     0.029 A 
ATOM     49  C   UNL A   1      41.595  26.055  28.299  1.00  0.00     0.049 A 
ATOM     50  H   UNL A   1      41.982  27.357  29.880  1.00  0.00     0.167 HD
ATOM     51  C   UNL A   1      42.816  30.385  32.945  1.00  0.00     0.034 A 
ATOM     52  C   UNL A   1      42.658  25.236  28.190  1.00  0.00     0.034 A 
ATOM     53  C   UNL A   1      43.929  29.473  32.996  1.00  0.00     0.049 A 
ATOM     54  C   UNL A   1      43.804  25.399  29.153  1.00  0.00     0.074 A 
ATOM     55  C   UNL A   1      45.016  29.490  33.851  1.00  0.00     0.029 A 
ATOM     56  N   UNL A   1      44.095  28.382  32.157  1.00  0.00    -0.354 N 
ATOM     57  N   UNL A   1      43.942  26.257  30.135  1.00  0.00    -0.248 NA
ATOM     58  C   UNL A   1      44.925  24.457  29.016  1.00  0.00     0.031 C 
ATOM     59  C   UNL A   1      45.846  28.412  33.522  1.00  0.00     0.029 A 
ATOM     60  C   UNL A   1      45.265  27.716  32.474  1.00  0.00     0.049 A 
ATOM     61  H   UNL A   1      43.472  28.120  31.441  1.00  0.00     0.167 HD
ATOM     62  C   UNL A   1      45.142  25.931  30.757  1.00  0.00     0.074 A 
ATOM     63  C   UNL A   1      45.680  24.785  30.054  1.00  0.00     0.031 C 
ATOM     64  C   UNL A   1      45.753  26.537  31.805  1.00  0.00     0.034 A 
BRANCH  51  65
ATOM     65  C   UNL A   1      42.782  31.525  33.929  1.00  0.00     0.023 A 
ATOM     66  C   UNL A   1      43.312  32.776  33.552  1.00  0.00     0.012 A 
ATOM     67  C   UNL A   1      42.177  31.386  35.194  1.00  0.00     0.148 A 
ATOM     68  C   UNL A   1      43.272  33.861  34.428  1.00  0.00     0.002 A 
ATOM     69  C   UNL A   1      42.102  32.483  36.045  1.00  0.00     0.091 A 
ATOM     70  F   UNL A   1      41.695  30.184  35.543  1.00  0.00    -0.205 F 
ATOM     71  C   UNL A   1      42.658  33.717  35.669  1.00  0.00     0.022 A 
BRANCH  69  72
ATOM     72  S   UNL A   1      41.266  32.426  37.635  1.00  0.00     0.127 S 
ATOM     73  O   UNL A   1      41.256  33.839  38.013  1.00  0.00    -0.237 OA
ATOM     74  O   UNL A   1      39.957  31.882  37.275  1.00  0.00    -0.237 OA
ATOM     75  O   UNL A   1      42.074  31.558  38.482  1.00  0.00    -0.744 OA
ENDBRANCH  69  72
ENDBRANCH  51  65
BRANCH  52  76
ATOM     76  C   UNL A   1      42.661  24.140  27.179  1.00  0.00     0.023 A 
ATOM     77  C   UNL A   1      43.242  24.371  25.916  1.00  0.00     0.012 A 
ATOM     78  C   UNL A   1      42.106  22.877  27.456  1.00  0.00     0.148 A 
ATOM     79  C   UNL A   1      43.235  23.379  24.935  1.00  0.00     0.002 A 
ATOM     80  C   UNL A   1      42.152  21.873  26.494  1.00  0.00     0.091 A 
ATOM     81  F   UNL A   1      41.545  22.677  28.658  1.00  0.00    -0.205 F 
ATOM     82  C   UNL A   1      42.699  22.128  25.227  1.00  0.00     0.022 A 
BRANCH  80  83
ATOM     83  S   UNL A   1      41.605  20.196  26.834  1.00  0.00     0.127 S 
ATOM     84  O   UNL A   1      40.197  20.401  27.160  1.00  0.00    -0.237 OA
ATOM     85  O   UNL A   1      41.853  19.528  25.555  1.00  0.00    -0.237 OA
ATOM     86  O   UNL A   1      42.452  19.727  27.923  1.00  0.00    -0.744 OA
ENDBRANCH  80  83
ENDBRANCH  52  76
BRANCH  64  87
ATOM     87  C   UNL A   1      47.052  25.949  32.288  1.00  0.00     0.023 A 
ATOM     88  C   UNL A   1      47.058  25.078  33.394  1.00  0.00     0.012 A 
ATOM     89  C   UNL A   1      48.254  26.205  31.601  1.00  0.00     0.148 A 
ATOM     90  C   UNL A   1      48.248  24.495  33.831  1.00  0.00     0.002 A 
ATOM     91  C   UNL A   1      49.428  25.583  32.011  1.00  0.00     0.091 A 
ATOM     92  F   UNL A   1      48.231  27.052  30.562  1.00  0.00    -0.205 F 
ATOM     93  C   UNL A   1      49.428  24.739  33.133  1.00  0.00     0.022 A 
BRANCH  91  94
ATOM     94  S   UNL A   1      50.975  25.761  31.116  1.00  0.00     0.127 S 
ATOM     95  O   UNL A   1      51.269  27.180  31.310  1.00  0.00    -0.237 OA
ATOM     96  O   UNL A   1      51.860  24.850  31.842  1.00  0.00    -0.237 OA
ATOM     97  O   UNL A   1      50.693  25.361  29.744  1.00  0.00    -0.744 OA
ENDBRANCH  91  94
ENDBRANCH  64  87
ENDBRANCH  38  39
ENDBRANCH  30  33
ENDBRANCH  28  29
ENDBRANCH   1  28
TORSDOF 17
ENDMDL
MODEL 3
REMARK VINA RESULT:     -11.5      2.948      8.069
REMARK SMILES CCc1cc(OC(F)(F)F)cc2c1O[C@H](C(F)(F)F)C(C(=O)NCCCNC(=O)c1ccc(-c3c4nc(c(-c5cccc(S(=O)(=O)[O-])c5F)c5ccc([nH]5)c(-c5cccc(S(=O)(=O)[O-])c5F)c5nc(c(-c6cccc(S(=O)(=O)[O-])c6F)c6ccc3[nH]6)C=C5)C=C4)cc1)=C2
REMARK SMILES IDX 25 1 24 2 23 3 21 4 22 5 20 7 3 8 4 9 13 10 5 11 12 12 14 13
REMARK SMILES IDX 11 14 93 15 15 16 2 17 1 18 6 19 7 20 8 21 9 22 10 23 16 24
REMARK SMILES IDX 17 25 18 26 19 27 26 28 27 29 28 30 29 32 30 33 31 34 92 35
REMARK SMILES IDX 32 36 91 37 33 38 34 39 35 40 85 41 36 42 90 43 84 44 86 45
REMARK SMILES IDX 37 46 89 47 83 48 82 49 38 51 70 52 50 53 69 54 51 55 54 56
REMARK SMILES IDX 68 57 87 58 52 59 53 60 67 62 88 63 55 64 39 65 40 66 48 67
REMARK SMILES IDX 41 68 43 69 49 70 42 71 44 72 45 73 46 74 47 75 71 76 72 77
REMARK SMILES IDX 80 78 73 79 75 80 81 81 74 82 76 83 77 84 78 85 79 86 56 87
REMARK SMILES IDX 57 88 65 89 58 90 60 91 66 92 59 93 61 94 62 95 63 96 64 97
REMARK H PARENT 23 6 27 31 86 50 54 61
REMARK Flexibility Score: inf
ROOT
ATOM      1  C   UNL A   1      33.005  28.566  23.436  1.00  0.00     0.042 C 
ENDROOT
BRANCH   1   2
ATOM      2  C   UNL A   1      32.976  27.068  23.140  1.00  0.00     0.118 C 
BRANCH   2   3
ATOM      3  N   UNL A   1      31.627  26.541  23.219  1.00  0.00    -0.352 N 
ATOM      4  C   UNL A   1      31.130  25.327  23.564  1.00  0.00     0.251 C 
ATOM      5  O   UNL A   1      29.906  25.213  23.612  1.00  0.00    -0.270 OA
ATOM      6  H   UNL A   1      30.933  27.195  22.975  1.00  0.00     0.163 HD
BRANCH   4   7
ATOM      7  C   UNL A   1      31.981  24.185  23.996  1.00  0.00     0.067 C 
ATOM      8  C   UNL A   1      35.019  21.371  24.715  1.00  0.00    -0.002 A 
ATOM      9  C   UNL A   1      34.681  20.003  24.743  1.00  0.00     0.054 A 
ATOM     10  C   UNL A   1      34.005  22.311  24.479  1.00  0.00     0.131 A 
ATOM     11  C   UNL A   1      33.365  19.582  24.536  1.00  0.00     0.130 A 
ATOM     12  C   UNL A   1      32.682  21.901  24.289  1.00  0.00     0.021 A 
ATOM     13  O   UNL A   1      34.369  23.627  24.360  1.00  0.00    -0.475 OA
ATOM     14  C   UNL A   1      32.369  20.539  24.320  1.00  0.00     0.058 A 
ATOM     15  C   UNL A   1      31.657  22.885  23.953  1.00  0.00     0.025 C 
ATOM     16  C   UNL A   1      33.315  24.604  24.589  1.00  0.00     0.314 C 
BRANCH   8  17
ATOM     17  C   UNL A   1      36.461  21.781  24.911  1.00  0.00     0.036 C 
ATOM     18  C   UNL A   1      37.428  20.606  24.972  1.00  0.00     0.009 C 
ENDBRANCH   8  17
BRANCH  11  19
ATOM     19  O   UNL A   1      32.918  18.292  24.498  1.00  0.00    -0.406 OA
BRANCH  19  20
ATOM     20  C   UNL A   1      33.425  17.440  23.486  1.00  0.00     0.573 C 
ATOM     21  F   UNL A   1      34.777  17.419  23.501  1.00  0.00    -0.132 F 
ATOM     22  F   UNL A   1      32.958  16.183  23.626  1.00  0.00    -0.132 F 
ATOM     23  F   UNL A   1      33.032  17.908  22.282  1.00  0.00    -0.132 F 
ENDBRANCH  19  20
ENDBRANCH  11  19
BRANCH  16  24
ATOM     24  C   UNL A   1      33.214  24.946  26.091  1.00  0.00     0.429 C 
ATOM     25  F   UNL A   1      31.925  24.879  26.516  1.00  0.00    -0.167 F 
ATOM     26  F   UNL A   1      33.915  24.100  26.877  1.00  0.00    -0.167 F 
ATOM     27  F   UNL A   1      33.652  26.198  26.363  1.00  0.00    -0.167 F 
ENDBRANCH  16  24
ENDBRANCH   4   7
ENDBRANCH   2   3
ENDBRANCH   1   2
BRANCH   1  28
ATOM     28  C   UNL A   1      33.404  28.885  24.875  1.00  0.00     0.118 C 
BRANCH  28  29
ATOM     29  N   UNL A   1      32.731  30.079  25.367  1.00  0.00    -0.352 N 
ATOM     30  C   UNL A   1      32.946  30.800  26.515  1.00  0.00     0.251 C 
ATOM     31  H   UNL A   1      32.011  30.421  24.789  1.00  0.00     0.163 HD
ATOM     32  O   UNL A   1      32.109  31.627  26.868  1.00  0.00    -0.269 OA
BRANCH  30  33
ATOM     33  C   UNL A   1      34.169  30.591  27.320  1.00  0.00     0.039 A 
ATOM     34  C   UNL A   1      34.435  29.312  27.822  1.00  0.00     0.014 A 
ATOM     35  C   UNL A   1      35.022  31.653  27.626  1.00  0.00     0.014 A 
ATOM     36  C   UNL A   1      35.579  29.093  28.594  1.00  0.00     0.010 A 
ATOM     37  C   UNL A   1      36.198  31.420  28.336  1.00  0.00     0.010 A 
ATOM     38  C   UNL A   1      36.482  30.141  28.838  1.00  0.00    -0.014 A 
BRANCH  38  39
ATOM     39  C   UNL A   1      37.726  29.921  29.617  1.00  0.00     0.031 A 
ATOM     40  C   UNL A   1      38.806  29.022  29.079  1.00  0.00     0.074 A 
ATOM     41  C   UNL A   1      37.847  30.470  30.841  1.00  0.00     0.049 A 
ATOM     42  N   UNL A   1      39.929  28.653  29.641  1.00  0.00    -0.248 NA
ATOM     43  C   UNL A   1      38.588  28.440  27.743  1.00  0.00     0.031 C 
ATOM     44  C   UNL A   1      36.838  31.307  31.498  1.00  0.00     0.029 A 
ATOM     45  N   UNL A   1      38.858  30.386  31.766  1.00  0.00    -0.354 N 
ATOM     46  C   UNL A   1      40.534  27.778  28.746  1.00  0.00     0.074 A 
ATOM     47  C   UNL A   1      39.638  27.641  27.620  1.00  0.00     0.031 C 
ATOM     48  C   UNL A   1      37.284  31.661  32.714  1.00  0.00     0.029 A 
ATOM     49  C   UNL A   1      38.592  31.055  32.938  1.00  0.00     0.049 A 
ATOM     50  H   UNL A   1      39.695  29.893  31.605  1.00  0.00     0.167 HD
ATOM     51  C   UNL A   1      41.742  27.172  28.836  1.00  0.00     0.034 A 
ATOM     52  C   UNL A   1      39.319  31.163  34.066  1.00  0.00     0.034 A 
ATOM     53  C   UNL A   1      42.647  27.345  29.941  1.00  0.00     0.049 A 
ATOM     54  C   UNL A   1      40.668  30.496  34.129  1.00  0.00     0.074 A 
ATOM     55  C   UNL A   1      43.918  26.824  30.102  1.00  0.00     0.029 A 
ATOM     56  N   UNL A   1      42.377  28.099  31.073  1.00  0.00    -0.354 N 
ATOM     57  N   UNL A   1      41.282  29.788  33.213  1.00  0.00    -0.248 NA
ATOM     58  C   UNL A   1      41.438  30.674  35.368  1.00  0.00     0.031 C 
ATOM     59  C   UNL A   1      44.414  27.254  31.337  1.00  0.00     0.029 A 
ATOM     60  C   UNL A   1      43.458  28.058  31.937  1.00  0.00     0.049 A 
ATOM     61  H   UNL A   1      41.541  28.590  31.238  1.00  0.00     0.167 HD
ATOM     62  C   UNL A   1      42.526  29.472  33.748  1.00  0.00     0.074 A 
ATOM     63  C   UNL A   1      42.585  30.084  35.059  1.00  0.00     0.031 C 
ATOM     64  C   UNL A   1      43.524  28.728  33.210  1.00  0.00     0.034 A 
BRANCH  51  65
ATOM     65  C   UNL A   1      42.186  26.319  27.677  1.00  0.00     0.023 A 
ATOM     66  C   UNL A   1      43.001  26.888  26.676  1.00  0.00     0.012 A 
ATOM     67  C   UNL A   1      41.857  24.952  27.602  1.00  0.00     0.148 A 
ATOM     68  C   UNL A   1      43.453  26.121  25.603  1.00  0.00     0.002 A 
ATOM     69  C   UNL A   1      42.347  24.182  26.552  1.00  0.00     0.091 A 
ATOM     70  F   UNL A   1      41.067  24.432  28.552  1.00  0.00    -0.205 F 
ATOM     71  C   UNL A   1      43.135  24.768  25.546  1.00  0.00     0.022 A 
BRANCH  69  72
ATOM     72  S   UNL A   1      42.060  22.413  26.425  1.00  0.00     0.127 S 
ATOM     73  O   UNL A   1      40.601  22.358  26.323  1.00  0.00    -0.237 OA
ATOM     74  O   UNL A   1      42.770  22.074  25.193  1.00  0.00    -0.237 OA
ATOM     75  O   UNL A   1      42.624  21.827  27.633  1.00  0.00    -0.744 OA
ENDBRANCH  69  72
ENDBRANCH  51  65
BRANCH  52  76
ATOM     76  C   UNL A   1      38.825  31.993  35.202  1.00  0.00     0.023 A 
ATOM     77  C   UNL A   1      38.898  33.397  35.110  1.00  0.00     0.012 A 
ATOM     78  C   UNL A   1      38.280  31.410  36.361  1.00  0.00     0.148 A 
ATOM     79  C   UNL A   1      38.472  34.204  36.167  1.00  0.00     0.002 A 
ATOM     80  C   UNL A   1      37.806  32.220  37.387  1.00  0.00     0.091 A 
ATOM     81  F   UNL A   1      38.231  30.072  36.438  1.00  0.00    -0.205 F 
ATOM     82  C   UNL A   1      37.919  33.616  37.301  1.00  0.00     0.022 A 
BRANCH  80  83
ATOM     83  S   UNL A   1      36.958  31.549  38.822  1.00  0.00     0.127 S 
ATOM     84  O   UNL A   1      37.944  31.758  39.878  1.00  0.00    -0.237 OA
ATOM     85  O   UNL A   1      35.773  32.405  38.905  1.00  0.00    -0.237 OA
ATOM     86  O   UNL A   1      36.666  30.162  38.485  1.00  0.00    -0.744 OA
ENDBRANCH  80  83
ENDBRANCH  52  76
BRANCH  64  87
ATOM     87  C   UNL A   1      44.785  28.568  34.017  1.00  0.00     0.023 A 
ATOM     88  C   UNL A   1      45.828  29.504  33.881  1.00  0.00     0.012 A 
ATOM     89  C   UNL A   1      44.904  27.529  34.961  1.00  0.00     0.148 A 
ATOM     90  C   UNL A   1      46.987  29.391  34.649  1.00  0.00     0.002 A 
ATOM     91  C   UNL A   1      46.041  27.450  35.758  1.00  0.00     0.091 A 
ATOM     92  F   UNL A   1      43.909  26.637  35.062  1.00  0.00    -0.205 F 
ATOM     93  C   UNL A   1      47.087  28.372  35.594  1.00  0.00     0.022 A 
BRANCH  91  94
ATOM     94  S   UNL A   1      46.217  26.231  37.065  1.00  0.00     0.127 S 
ATOM     95  O   UNL A   1      46.126  24.978  36.318  1.00  0.00    -0.237 OA
ATOM     96  O   UNL A   1      47.549  26.531  37.592  1.00  0.00    -0.237 OA
ATOM     97  O   UNL A   1      45.129  26.485  37.999  1.00  0.00    -0.744 OA
ENDBRANCH  91  94
ENDBRANCH  64  87
ENDBRANCH  38  39
ENDBRANCH  30  33
ENDBRANCH  28  29
ENDBRANCH   1  28
TORSDOF 17
ENDMDL
