MODEL 1
REMARK VINA RESULT:     -13.0      0.000      0.000
REMARK SMILES O=C(NCCCNC(=O)[C@@H]1CCCC[C@@H]1C(=O)Nc1nc(-c2ccc(Cl)c(Cl)c2)cs1)c1ccc(-c2c3nc(c(-c4cccc(S(=O)(=O)[O-])c4F)c4ccc([nH]4)c(-c4cccc(S(=O)(=O)[O-])c4F)c4nc(c(-c5cccc(S(=O)(=O)[O-])c5F)c5ccc2[nH]5)C=C4)C=C3)cc1
REMARK SMILES IDX 5 1 4 2 3 3 1 4 2 5 32 7 33 8 94 9 34 10 93 11 35 12 36 13
REMARK SMILES IDX 37 14 87 15 38 16 92 17 86 18 88 19 39 20 91 21 85 22 84 23
REMARK SMILES IDX 40 25 72 26 52 27 71 28 53 29 56 30 70 31 89 32 54 33 55 34
REMARK SMILES IDX 69 36 90 37 57 38 41 39 42 40 50 41 43 42 45 43 51 44 44 45
REMARK SMILES IDX 46 46 47 47 48 48 49 49 73 50 74 51 82 52 75 53 77 54 83 55
REMARK SMILES IDX 76 56 78 57 79 58 80 59 81 60 58 61 59 62 67 63 60 64 62 65
REMARK SMILES IDX 68 66 61 67 63 68 64 69 65 70 66 71 6 72 7 73 8 74 9 76
REMARK SMILES IDX 10 77 11 78 15 79 12 80 14 81 13 82 16 83 17 84 18 85 19 87
REMARK SMILES IDX 20 88 31 89 21 90 30 91 22 92 23 93 29 94 24 95 27 96 25 97
REMARK SMILES IDX 28 98 26 99
REMARK H PARENT 3 6 88 24 56 35 7 75 18 86
REMARK Flexibility Score: inf
ROOT
ATOM      1  C   UNL A   1      32.843  27.856  25.769  1.00  0.00     0.042 C 
ENDROOT
BRANCH   1   2
ATOM      2  C   UNL A   1      33.552  29.094  25.245  1.00  0.00     0.118 C 
BRANCH   2   3
ATOM      3  N   UNL A   1      32.998  30.327  25.782  1.00  0.00    -0.352 N 
ATOM      4  O   UNL A   1      32.650  31.965  27.278  1.00  0.00    -0.269 OA
ATOM      5  C   UNL A   1      33.379  31.058  26.882  1.00  0.00     0.251 C 
ATOM      6  H   UNL A   1      32.233  30.692  25.282  1.00  0.00     0.163 HD
BRANCH   5   7
ATOM      7  C   UNL A   1      34.639  30.746  27.597  1.00  0.00     0.039 A 
ATOM      8  C   UNL A   1      34.828  29.507  28.212  1.00  0.00     0.014 A 
ATOM      9  C   UNL A   1      35.664  31.697  27.626  1.00  0.00     0.014 A 
ATOM     10  C   UNL A   1      35.962  29.280  28.984  1.00  0.00     0.010 A 
ATOM     11  C   UNL A   1      36.852  31.425  28.316  1.00  0.00     0.010 A 
ATOM     12  C   UNL A   1      37.000  30.224  29.025  1.00  0.00    -0.014 A 
BRANCH  12  13
ATOM     13  C   UNL A   1      38.260  29.875  29.730  1.00  0.00     0.031 A 
ATOM     14  C   UNL A   1      38.580  30.417  31.097  1.00  0.00     0.074 A 
ATOM     15  C   UNL A   1      39.120  29.033  29.120  1.00  0.00     0.049 A 
ATOM     16  N   UNL A   1      39.611  30.157  31.860  1.00  0.00    -0.248 NA
ATOM     17  C   UNL A   1      37.632  31.378  31.683  1.00  0.00     0.031 C 
ATOM     18  C   UNL A   1      38.944  28.487  27.771  1.00  0.00     0.029 A 
ATOM     19  N   UNL A   1      40.301  28.483  29.546  1.00  0.00    -0.354 N 
ATOM     20  C   UNL A   1      39.457  30.939  32.997  1.00  0.00     0.074 A 
ATOM     21  C   UNL A   1      38.234  31.696  32.822  1.00  0.00     0.031 C 
ATOM     22  C   UNL A   1      39.957  27.655  27.495  1.00  0.00     0.029 A 
ATOM     23  C   UNL A   1      40.881  27.646  28.621  1.00  0.00     0.049 A 
ATOM     24  H   UNL A   1      40.695  28.667  30.430  1.00  0.00     0.167 HD
ATOM     25  C   UNL A   1      40.251  31.007  34.095  1.00  0.00     0.034 A 
ATOM     26  C   UNL A   1      42.036  26.957  28.664  1.00  0.00     0.034 A 
ATOM     27  C   UNL A   1      41.447  30.226  34.277  1.00  0.00     0.049 A 
ATOM     28  C   UNL A   1      42.874  27.027  29.908  1.00  0.00     0.074 A 
ATOM     29  C   UNL A   1      42.286  30.183  35.377  1.00  0.00     0.029 A 
ATOM     30  N   UNL A   1      41.978  29.354  33.337  1.00  0.00    -0.354 N 
ATOM     31  N   UNL A   1      42.639  27.672  31.025  1.00  0.00    -0.248 NA
ATOM     32  C   UNL A   1      44.124  26.255  29.908  1.00  0.00     0.031 C 
ATOM     33  C   UNL A   1      43.334  29.299  35.096  1.00  0.00     0.029 A 
ATOM     34  C   UNL A   1      43.137  28.776  33.829  1.00  0.00     0.049 A 
ATOM     35  H   UNL A   1      41.590  29.175  32.451  1.00  0.00     0.167 HD
ATOM     36  C   UNL A   1      43.700  27.370  31.867  1.00  0.00     0.074 A 
ATOM     37  C   UNL A   1      44.559  26.452  31.145  1.00  0.00     0.031 C 
ATOM     38  C   UNL A   1      43.957  27.831  33.115  1.00  0.00     0.034 A 
BRANCH  25  39
ATOM     39  C   UNL A   1      39.831  31.920  35.218  1.00  0.00     0.023 A 
ATOM     40  C   UNL A   1      40.204  33.279  35.178  1.00  0.00     0.012 A 
ATOM     41  C   UNL A   1      38.993  31.463  36.255  1.00  0.00     0.148 A 
ATOM     42  C   UNL A   1      39.766  34.165  36.162  1.00  0.00     0.002 A 
ATOM     43  C   UNL A   1      38.530  32.361  37.211  1.00  0.00     0.091 A 
ATOM     44  F   UNL A   1      38.663  30.165  36.284  1.00  0.00    -0.205 F 
ATOM     45  C   UNL A   1      38.921  33.709  37.170  1.00  0.00     0.022 A 
BRANCH  43  46
ATOM     46  S   UNL A   1      37.379  31.892  38.509  1.00  0.00     0.127 S 
ATOM     47  O   UNL A   1      38.178  32.126  39.711  1.00  0.00    -0.237 OA
ATOM     48  O   UNL A   1      36.286  32.845  38.310  1.00  0.00    -0.237 OA
ATOM     49  O   UNL A   1      37.028  30.502  38.254  1.00  0.00    -0.744 OA
ENDBRANCH  43  46
ENDBRANCH  25  39
BRANCH  26  50
ATOM     50  C   UNL A   1      42.439  26.110  27.507  1.00  0.00     0.023 A 
ATOM     51  C   UNL A   1      43.282  26.643  26.515  1.00  0.00     0.012 A 
ATOM     52  C   UNL A   1      42.023  24.768  27.406  1.00  0.00     0.148 A 
ATOM     53  C   UNL A   1      43.680  25.863  25.427  1.00  0.00     0.002 A 
ATOM     54  C   UNL A   1      42.473  23.980  26.355  1.00  0.00     0.091 A 
ATOM     55  F   UNL A   1      41.202  24.282  28.350  1.00  0.00    -0.205 F 
ATOM     56  C   UNL A   1      43.288  24.529  25.354  1.00  0.00     0.022 A 
BRANCH  54  57
ATOM     57  S   UNL A   1      42.133  22.218  26.281  1.00  0.00     0.127 S 
ATOM     58  O   UNL A   1      40.681  22.199  26.126  1.00  0.00    -0.237 OA
ATOM     59  O   UNL A   1      42.885  21.806  25.095  1.00  0.00    -0.237 OA
ATOM     60  O   UNL A   1      42.652  21.676  27.531  1.00  0.00    -0.744 OA
ENDBRANCH  54  57
ENDBRANCH  26  50
BRANCH  38  61
ATOM     61  C   UNL A   1      45.214  27.339  33.783  1.00  0.00     0.023 A 
ATOM     62  C   UNL A   1      46.410  28.071  33.636  1.00  0.00     0.012 A 
ATOM     63  C   UNL A   1      45.203  26.184  34.587  1.00  0.00     0.148 A 
ATOM     64  C   UNL A   1      47.584  27.638  34.247  1.00  0.00     0.002 A 
ATOM     65  C   UNL A   1      46.367  25.785  35.232  1.00  0.00     0.091 A 
ATOM     66  F   UNL A   1      44.061  25.490  34.698  1.00  0.00    -0.205 F 
ATOM     67  C   UNL A   1      47.562  26.502  35.053  1.00  0.00     0.022 A 
BRANCH  65  68
ATOM     68  S   UNL A   1      46.408  24.385  36.357  1.00  0.00     0.127 S 
ATOM     69  O   UNL A   1      46.040  23.280  35.474  1.00  0.00    -0.237 OA
ATOM     70  O   UNL A   1      47.804  24.376  36.796  1.00  0.00    -0.237 OA
ATOM     71  O   UNL A   1      45.449  24.695  37.410  1.00  0.00    -0.744 OA
ENDBRANCH  65  68
ENDBRANCH  38  61
ENDBRANCH  12  13
ENDBRANCH   5   7
ENDBRANCH   2   3
ENDBRANCH   1   2
BRANCH   1  72
ATOM     72  C   UNL A   1      33.639  26.566  25.603  1.00  0.00     0.117 C 
BRANCH  72  73
ATOM     73  N   UNL A   1      33.708  26.118  24.220  1.00  0.00    -0.356 N 
ATOM     74  C   UNL A   1      34.238  24.977  23.686  1.00  0.00     0.223 C 
ATOM     75  H   UNL A   1      33.310  26.736  23.566  1.00  0.00     0.163 HD
ATOM     76  O   UNL A   1      33.971  24.723  22.511  1.00  0.00    -0.275 OA
BRANCH  74  77
ATOM     77  C   UNL A   1      35.031  24.024  24.579  1.00  0.00     0.091 C 
ATOM     78  C   UNL A   1      36.105  23.203  23.842  1.00  0.00     0.014 C 
ATOM     79  C   UNL A   1      34.118  23.110  25.446  1.00  0.00     0.091 C 
ATOM     80  C   UNL A   1      36.945  22.361  24.797  1.00  0.00     0.001 C 
ATOM     81  C   UNL A   1      35.050  22.393  26.450  1.00  0.00     0.014 C 
ATOM     82  C   UNL A   1      36.098  21.534  25.749  1.00  0.00     0.001 C 
BRANCH  79  83
ATOM     83  C   UNL A   1      33.286  22.108  24.613  1.00  0.00     0.230 C 
ATOM     84  O   UNL A   1      33.760  21.052  24.184  1.00  0.00    -0.274 OA
ATOM     85  N   UNL A   1      31.952  22.288  24.404  1.00  0.00    -0.302 N 
ATOM     86  H   UNL A   1      31.468  21.536  23.992  1.00  0.00     0.172 HD
BRANCH  85  87
ATOM     87  C   UNL A   1      31.214  23.388  24.703  1.00  0.00     0.189 A 
ATOM     88  N   UNL A   1      30.785  24.333  23.909  1.00  0.00    -0.220 NA
ATOM     89  S   UNL A   1      30.881  23.577  26.367  1.00  0.00    -0.105 S 
ATOM     90  C   UNL A   1      30.230  25.342  24.668  1.00  0.00     0.084 A 
ATOM     91  C   UNL A   1      30.253  25.142  26.035  1.00  0.00     0.097 A 
BRANCH  90  92
ATOM     92  C   UNL A   1      29.642  26.504  24.041  1.00  0.00     0.003 A 
ATOM     93  C   UNL A   1      28.253  26.667  24.082  1.00  0.00     0.012 A 
ATOM     94  C   UNL A   1      30.435  27.452  23.387  1.00  0.00     0.032 A 
ATOM     95  C   UNL A   1      27.660  27.788  23.500  1.00  0.00     0.023 A 
ATOM     96  C   UNL A   1      29.839  28.571  22.795  1.00  0.00     0.060 A 
ATOM     97  C   UNL A   1      28.450  28.744  22.859  1.00  0.00     0.059 A 
ATOM     98  Cl  UNL A   1      30.874  29.705  22.001  1.00  0.00    -0.083 Cl
ATOM     99  Cl  UNL A   1      27.653  30.113  22.171  1.00  0.00    -0.083 Cl
ENDBRANCH  90  92
ENDBRANCH  85  87
ENDBRANCH  79  83
ENDBRANCH  74  77
ENDBRANCH  72  73
ENDBRANCH   1  72
TORSDOF 16
ENDMDL
MODEL 2
REMARK VINA RESULT:     -12.9      1.770      2.400
REMARK SMILES O=C(NCCCNC(=O)[C@@H]1CCCC[C@@H]1C(=O)Nc1nc(-c2ccc(Cl)c(Cl)c2)cs1)c1ccc(-c2c3nc(c(-c4cccc(S(=O)(=O)[O-])c4F)c4ccc([nH]4)c(-c4cccc(S(=O)(=O)[O-])c4F)c4nc(c(-c5cccc(S(=O)(=O)[O-])c5F)c5ccc2[nH]5)C=C4)C=C3)cc1
REMARK SMILES IDX 5 1 4 2 3 3 1 4 2 5 32 7 33 8 94 9 34 10 93 11 35 12 36 13
REMARK SMILES IDX 37 14 87 15 38 16 92 17 86 18 88 19 39 20 91 21 85 22 84 23
REMARK SMILES IDX 40 25 72 26 52 27 71 28 53 29 56 30 70 31 89 32 54 33 55 34
REMARK SMILES IDX 69 36 90 37 57 38 41 39 42 40 50 41 43 42 45 43 51 44 44 45
REMARK SMILES IDX 46 46 47 47 48 48 49 49 73 50 74 51 82 52 75 53 77 54 83 55
REMARK SMILES IDX 76 56 78 57 79 58 80 59 81 60 58 61 59 62 67 63 60 64 62 65
REMARK SMILES IDX 68 66 61 67 63 68 64 69 65 70 66 71 6 72 7 73 8 74 9 76
REMARK SMILES IDX 10 77 11 78 15 79 12 80 14 81 13 82 16 83 17 84 18 85 19 87
REMARK SMILES IDX 20 88 31 89 21 90 30 91 22 92 23 93 29 94 24 95 27 96 25 97
REMARK SMILES IDX 28 98 26 99
REMARK H PARENT 3 6 88 24 56 35 7 75 18 86
REMARK Flexibility Score: inf
ROOT
ATOM      1  C   UNL A   1      33.720  27.722  25.528  1.00  0.00     0.042 C 
ENDROOT
BRANCH   1   2
ATOM      2  C   UNL A   1      33.633  28.208  26.965  1.00  0.00     0.118 C 
BRANCH   2   3
ATOM      3  N   UNL A   1      33.534  29.656  27.062  1.00  0.00    -0.352 N 
ATOM      4  O   UNL A   1      34.021  31.723  27.791  1.00  0.00    -0.269 OA
ATOM      5  C   UNL A   1      34.390  30.560  27.644  1.00  0.00     0.251 C 
ATOM      6  H   UNL A   1      32.731  30.047  26.649  1.00  0.00     0.163 HD
BRANCH   5   7
ATOM      7  C   UNL A   1      35.732  30.138  28.110  1.00  0.00     0.039 A 
ATOM      8  C   UNL A   1      36.847  30.240  27.276  1.00  0.00     0.014 A 
ATOM      9  C   UNL A   1      35.886  29.662  29.415  1.00  0.00     0.014 A 
ATOM     10  C   UNL A   1      38.071  29.723  27.684  1.00  0.00     0.010 A 
ATOM     11  C   UNL A   1      37.145  29.241  29.863  1.00  0.00     0.010 A 
ATOM     12  C   UNL A   1      38.244  29.242  28.992  1.00  0.00    -0.014 A 
BRANCH  12  13
ATOM     13  C   UNL A   1      39.605  28.848  29.438  1.00  0.00     0.031 A 
ATOM     14  C   UNL A   1      40.311  29.564  30.556  1.00  0.00     0.074 A 
ATOM     15  C   UNL A   1      40.199  27.804  28.822  1.00  0.00     0.049 A 
ATOM     16  N   UNL A   1      41.475  29.298  31.093  1.00  0.00    -0.248 NA
ATOM     17  C   UNL A   1      39.637  30.732  31.146  1.00  0.00     0.031 C 
ATOM     18  C   UNL A   1      39.635  27.068  27.687  1.00  0.00     0.029 A 
ATOM     19  N   UNL A   1      41.394  27.177  29.060  1.00  0.00    -0.354 N 
ATOM     20  C   UNL A   1      41.689  30.275  32.056  1.00  0.00     0.074 A 
ATOM     21  C   UNL A   1      40.537  31.152  32.026  1.00  0.00     0.031 C 
ATOM     22  C   UNL A   1      40.464  26.070  27.352  1.00  0.00     0.029 A 
ATOM     23  C   UNL A   1      41.641  26.125  28.209  1.00  0.00     0.049 A 
ATOM     24  H   UNL A   1      42.016  27.453  29.773  1.00  0.00     0.167 HD
ATOM     25  C   UNL A   1      42.740  30.417  32.902  1.00  0.00     0.034 A 
ATOM     26  C   UNL A   1      42.700  25.300  28.117  1.00  0.00     0.034 A 
ATOM     27  C   UNL A   1      43.867  29.522  32.950  1.00  0.00     0.049 A 
ATOM     28  C   UNL A   1      43.831  25.464  29.090  1.00  0.00     0.074 A 
ATOM     29  C   UNL A   1      44.951  29.550  33.809  1.00  0.00     0.029 A 
ATOM     30  N   UNL A   1      44.058  28.439  32.104  1.00  0.00    -0.354 N 
ATOM     31  N   UNL A   1      43.949  26.315  30.081  1.00  0.00    -0.248 NA
ATOM     32  C   UNL A   1      44.964  24.539  28.951  1.00  0.00     0.031 C 
ATOM     33  C   UNL A   1      45.807  28.496  33.472  1.00  0.00     0.029 A 
ATOM     34  C   UNL A   1      45.246  27.798  32.415  1.00  0.00     0.049 A 
ATOM     35  H   UNL A   1      43.441  28.167  31.387  1.00  0.00     0.167 HD
ATOM     36  C   UNL A   1      45.158  26.016  30.694  1.00  0.00     0.074 A 
ATOM     37  C   UNL A   1      45.716  24.881  29.987  1.00  0.00     0.031 C 
ATOM     38  C   UNL A   1      45.767  26.643  31.731  1.00  0.00     0.034 A 
BRANCH  25  39
ATOM     39  C   UNL A   1      42.706  31.556  33.888  1.00  0.00     0.023 A 
ATOM     40  C   UNL A   1      43.240  32.807  33.516  1.00  0.00     0.012 A 
ATOM     41  C   UNL A   1      42.065  31.422  35.136  1.00  0.00     0.148 A 
ATOM     42  C   UNL A   1      43.154  33.901  34.378  1.00  0.00     0.002 A 
ATOM     43  C   UNL A   1      41.951  32.527  35.974  1.00  0.00     0.091 A 
ATOM     44  F   UNL A   1      41.579  30.221  35.478  1.00  0.00    -0.205 F 
ATOM     45  C   UNL A   1      42.500  33.763  35.599  1.00  0.00     0.022 A 
BRANCH  43  46
ATOM     46  S   UNL A   1      41.065  32.475  37.536  1.00  0.00     0.127 S 
ATOM     47  O   UNL A   1      41.923  31.599  38.333  1.00  0.00    -0.237 OA
ATOM     48  O   UNL A   1      41.082  33.880  37.946  1.00  0.00    -0.237 OA
ATOM     49  O   UNL A   1      39.743  31.945  37.233  1.00  0.00    -0.744 OA
ENDBRANCH  43  46
ENDBRANCH  25  39
BRANCH  26  50
ATOM     50  C   UNL A   1      42.714  24.223  27.089  1.00  0.00     0.023 A 
ATOM     51  C   UNL A   1      43.438  24.408  25.896  1.00  0.00     0.012 A 
ATOM     52  C   UNL A   1      42.048  23.001  27.304  1.00  0.00     0.148 A 
ATOM     53  C   UNL A   1      43.474  23.407  24.924  1.00  0.00     0.002 A 
ATOM     54  C   UNL A   1      42.140  21.985  26.361  1.00  0.00     0.091 A 
ATOM     55  F   UNL A   1      41.346  22.848  28.437  1.00  0.00    -0.205 F 
ATOM     56  C   UNL A   1      42.837  22.191  25.162  1.00  0.00     0.022 A 
BRANCH  54  57
ATOM     57  S   UNL A   1      41.474  20.346  26.669  1.00  0.00     0.127 S 
ATOM     58  O   UNL A   1      42.192  19.953  27.878  1.00  0.00    -0.237 OA
ATOM     59  O   UNL A   1      40.049  20.620  26.859  1.00  0.00    -0.237 OA
ATOM     60  O   UNL A   1      41.776  19.579  25.466  1.00  0.00    -0.744 OA
ENDBRANCH  54  57
ENDBRANCH  26  50
BRANCH  38  61
ATOM     61  C   UNL A   1      47.102  26.103  32.170  1.00  0.00     0.023 A 
ATOM     62  C   UNL A   1      48.275  26.543  31.523  1.00  0.00     0.012 A 
ATOM     63  C   UNL A   1      47.201  25.199  33.244  1.00  0.00     0.148 A 
ATOM     64  C   UNL A   1      49.522  26.060  31.914  1.00  0.00     0.002 A 
ATOM     65  C   UNL A   1      48.452  24.759  33.659  1.00  0.00     0.091 A 
ATOM     66  F   UNL A   1      46.073  24.776  33.833  1.00  0.00    -0.205 F 
ATOM     67  C   UNL A   1      49.612  25.177  32.987  1.00  0.00     0.022 A 
BRANCH  65  68
ATOM     68  S   UNL A   1      48.667  23.690  35.086  1.00  0.00     0.127 S 
ATOM     69  O   UNL A   1      50.119  23.524  35.121  1.00  0.00    -0.237 OA
ATOM     70  O   UNL A   1      48.119  24.503  36.172  1.00  0.00    -0.237 OA
ATOM     71  O   UNL A   1      47.903  22.483  34.796  1.00  0.00    -0.744 OA
ENDBRANCH  65  68
ENDBRANCH  38  61
ENDBRANCH  12  13
ENDBRANCH   5   7
ENDBRANCH   2   3
ENDBRANCH   1   2
BRANCH   1  72
ATOM     72  C   UNL A   1      34.005  26.231  25.391  1.00  0.00     0.117 C 
BRANCH  72  73
ATOM     73  N   UNL A   1      33.952  25.769  24.013  1.00  0.00    -0.356 N 
ATOM     74  C   UNL A   1      34.360  24.587  23.460  1.00  0.00     0.223 C 
ATOM     75  H   UNL A   1      33.560  26.410  23.377  1.00  0.00     0.163 HD
ATOM     76  O   UNL A   1      34.001  24.346  22.307  1.00  0.00    -0.275 OA
BRANCH  74  77
ATOM     77  C   UNL A   1      35.136  23.583  24.312  1.00  0.00     0.091 C 
ATOM     78  C   UNL A   1      36.121  22.702  23.523  1.00  0.00     0.014 C 
ATOM     79  C   UNL A   1      34.212  22.723  25.221  1.00  0.00     0.091 C 
ATOM     80  C   UNL A   1      36.954  21.807  24.435  1.00  0.00     0.001 C 
ATOM     81  C   UNL A   1      35.145  21.946  26.178  1.00  0.00     0.014 C 
ATOM     82  C   UNL A   1      36.105  21.029  25.426  1.00  0.00     0.001 C 
BRANCH  79  83
ATOM     83  C   UNL A   1      33.281  21.777  24.427  1.00  0.00     0.230 C 
ATOM     84  O   UNL A   1      33.656  20.676  24.015  1.00  0.00    -0.274 OA
ATOM     85  N   UNL A   1      31.963  22.064  24.240  1.00  0.00    -0.302 N 
ATOM     86  H   UNL A   1      31.408  21.348  23.856  1.00  0.00     0.172 HD
BRANCH  85  87
ATOM     87  C   UNL A   1      31.327  23.230  24.528  1.00  0.00     0.189 A 
ATOM     88  N   UNL A   1      30.985  24.202  23.724  1.00  0.00    -0.220 NA
ATOM     89  S   UNL A   1      31.009  23.463  26.189  1.00  0.00    -0.105 S 
ATOM     90  C   UNL A   1      30.522  25.264  24.473  1.00  0.00     0.084 A 
ATOM     91  C   UNL A   1      30.524  25.075  25.841  1.00  0.00     0.097 A 
BRANCH  90  92
ATOM     92  C   UNL A   1      30.042  26.468  23.834  1.00  0.00     0.003 A 
ATOM     93  C   UNL A   1      30.950  27.275  23.139  1.00  0.00     0.012 A 
ATOM     94  C   UNL A   1      28.697  26.841  23.912  1.00  0.00     0.032 A 
ATOM     95  C   UNL A   1      30.512  28.434  22.499  1.00  0.00     0.023 A 
ATOM     96  C   UNL A   1      28.259  28.010  23.277  1.00  0.00     0.060 A 
ATOM     97  C   UNL A   1      29.166  28.803  22.562  1.00  0.00     0.059 A 
ATOM     98  Cl  UNL A   1      26.585  28.416  23.413  1.00  0.00    -0.083 Cl
ATOM     99  Cl  UNL A   1      28.688  30.243  21.736  1.00  0.00    -0.083 Cl
ENDBRANCH  90  92
ENDBRANCH  85  87
ENDBRANCH  79  83
ENDBRANCH  74  77
ENDBRANCH  72  73
ENDBRANCH   1  72
TORSDOF 16
ENDMDL
MODEL 3
REMARK VINA RESULT:     -12.7      5.362      9.855
REMARK SMILES O=C(NCCCNC(=O)[C@@H]1CCCC[C@@H]1C(=O)Nc1nc(-c2ccc(Cl)c(Cl)c2)cs1)c1ccc(-c2c3nc(c(-c4cccc(S(=O)(=O)[O-])c4F)c4ccc([nH]4)c(-c4cccc(S(=O)(=O)[O-])c4F)c4nc(c(-c5cccc(S(=O)(=O)[O-])c5F)c5ccc2[nH]5)C=C4)C=C3)cc1
REMARK SMILES IDX 5 1 4 2 3 3 1 4 2 5 32 7 33 8 94 9 34 10 93 11 35 12 36 13
REMARK SMILES IDX 37 14 87 15 38 16 92 17 86 18 88 19 39 20 91 21 85 22 84 23
REMARK SMILES IDX 40 25 72 26 52 27 71 28 53 29 56 30 70 31 89 32 54 33 55 34
REMARK SMILES IDX 69 36 90 37 57 38 41 39 42 40 50 41 43 42 45 43 51 44 44 45
REMARK SMILES IDX 46 46 47 47 48 48 49 49 73 50 74 51 82 52 75 53 77 54 83 55
REMARK SMILES IDX 76 56 78 57 79 58 80 59 81 60 58 61 59 62 67 63 60 64 62 65
REMARK SMILES IDX 68 66 61 67 63 68 64 69 65 70 66 71 6 72 7 73 8 74 9 76
REMARK SMILES IDX 10 77 11 78 15 79 12 80 14 81 13 82 16 83 17 84 18 85 19 87
REMARK SMILES IDX 20 88 31 89 21 90 30 91 22 92 23 93 29 94 24 95 27 96 25 97
REMARK SMILES IDX 28 98 26 99
REMARK H PARENT 3 6 88 24 56 35 7 75 18 86
REMARK Flexibility Score: inf
ROOT
ATOM      1  C   UNL A   1      35.365  23.292  25.082  1.00  0.00     0.042 C 
ENDROOT
BRANCH   1   2
ATOM      2  C   UNL A   1      35.817  22.517  26.308  1.00  0.00     0.118 C 
BRANCH   2   3
ATOM      3  N   UNL A   1      36.753  21.452  25.985  1.00  0.00    -0.352 N 
ATOM      4  O   UNL A   1      38.706  20.516  25.392  1.00  0.00    -0.269 OA
ATOM      5  C   UNL A   1      38.122  21.487  25.870  1.00  0.00     0.251 C 
ATOM      6  H   UNL A   1      36.342  20.571  25.824  1.00  0.00     0.163 HD
BRANCH   5   7
ATOM      7  C   UNL A   1      38.885  22.684  26.294  1.00  0.00     0.039 A 
ATOM      8  C   UNL A   1      38.568  23.950  25.799  1.00  0.00     0.014 A 
ATOM      9  C   UNL A   1      39.917  22.543  27.227  1.00  0.00     0.014 A 
ATOM     10  C   UNL A   1      39.374  25.040  26.109  1.00  0.00     0.010 A 
ATOM     11  C   UNL A   1      40.661  23.663  27.622  1.00  0.00     0.010 A 
ATOM     12  C   UNL A   1      40.414  24.917  27.045  1.00  0.00    -0.014 A 
BRANCH  12  13
ATOM     13  C   UNL A   1      41.147  26.138  27.468  1.00  0.00     0.031 A 
ATOM     14  C   UNL A   1      42.577  26.382  27.068  1.00  0.00     0.074 A 
ATOM     15  C   UNL A   1      40.490  27.049  28.214  1.00  0.00     0.049 A 
ATOM     16  N   UNL A   1      43.329  27.425  27.312  1.00  0.00    -0.248 NA
ATOM     17  C   UNL A   1      43.258  25.323  26.306  1.00  0.00     0.031 C 
ATOM     18  C   UNL A   1      39.119  26.895  28.710  1.00  0.00     0.029 A 
ATOM     19  N   UNL A   1      40.873  28.280  28.681  1.00  0.00    -0.354 N 
ATOM     20  C   UNL A   1      44.573  27.141  26.766  1.00  0.00     0.074 A 
ATOM     21  C   UNL A   1      44.483  25.818  26.184  1.00  0.00     0.031 C 
ATOM     22  C   UNL A   1      38.764  28.001  29.378  1.00  0.00     0.029 A 
ATOM     23  C   UNL A   1      39.894  28.920  29.406  1.00  0.00     0.049 A 
ATOM     24  H   UNL A   1      41.762  28.668  28.512  1.00  0.00     0.167 HD
ATOM     25  C   UNL A   1      45.684  27.919  26.736  1.00  0.00     0.034 A 
ATOM     26  C   UNL A   1      39.905  30.109  30.035  1.00  0.00     0.034 A 
ATOM     27  C   UNL A   1      45.757  29.247  27.287  1.00  0.00     0.049 A 
ATOM     28  C   UNL A   1      41.139  30.960  29.954  1.00  0.00     0.074 A 
ATOM     29  C   UNL A   1      46.819  30.134  27.256  1.00  0.00     0.029 A 
ATOM     30  N   UNL A   1      44.731  29.881  27.973  1.00  0.00    -0.354 N 
ATOM     31  N   UNL A   1      42.261  30.725  29.316  1.00  0.00    -0.248 NA
ATOM     32  C   UNL A   1      41.102  32.250  30.655  1.00  0.00     0.031 C 
ATOM     33  C   UNL A   1      46.442  31.297  27.937  1.00  0.00     0.029 A 
ATOM     34  C   UNL A   1      45.137  31.143  28.376  1.00  0.00     0.049 A 
ATOM     35  H   UNL A   1      43.844  29.491  28.148  1.00  0.00     0.167 HD
ATOM     36  C   UNL A   1      43.056  31.844  29.524  1.00  0.00     0.074 A 
ATOM     37  C   UNL A   1      42.271  32.773  30.313  1.00  0.00     0.031 C 
ATOM     38  C   UNL A   1      44.330  32.073  29.122  1.00  0.00     0.034 A 
BRANCH  25  39
ATOM     39  C   UNL A   1      46.907  27.381  26.039  1.00  0.00     0.023 A 
ATOM     40  C   UNL A   1      47.072  27.611  24.658  1.00  0.00     0.012 A 
ATOM     41  C   UNL A   1      47.934  26.738  26.760  1.00  0.00     0.148 A 
ATOM     42  C   UNL A   1      48.229  27.193  24.001  1.00  0.00     0.002 A 
ATOM     43  C   UNL A   1      49.101  26.358  26.104  1.00  0.00     0.091 A 
ATOM     44  F   UNL A   1      47.751  26.513  28.068  1.00  0.00    -0.205 F 
ATOM     45  C   UNL A   1      49.247  26.578  24.725  1.00  0.00     0.022 A 
BRANCH  43  46
ATOM     46  S   UNL A   1      50.501  25.624  26.959  1.00  0.00     0.127 S 
ATOM     47  O   UNL A   1      50.868  26.689  27.892  1.00  0.00    -0.237 OA
ATOM     48  O   UNL A   1      49.896  24.448  27.587  1.00  0.00    -0.237 OA
ATOM     49  O   UNL A   1      51.488  25.326  25.933  1.00  0.00    -0.744 OA
ENDBRANCH  43  46
ENDBRANCH  25  39
BRANCH  26  50
ATOM     50  C   UNL A   1      38.691  30.576  30.760  1.00  0.00     0.023 A 
ATOM     51  C   UNL A   1      38.601  30.400  32.153  1.00  0.00     0.012 A 
ATOM     52  C   UNL A   1      37.643  31.230  30.082  1.00  0.00     0.148 A 
ATOM     53  C   UNL A   1      37.476  30.840  32.854  1.00  0.00     0.002 A 
ATOM     54  C   UNL A   1      36.557  31.721  30.794  1.00  0.00     0.091 A 
ATOM     55  F   UNL A   1      37.736  31.371  28.751  1.00  0.00    -0.205 F 
ATOM     56  C   UNL A   1      36.461  31.513  32.177  1.00  0.00     0.022 A 
BRANCH  54  57
ATOM     57  S   UNL A   1      35.291  32.727  30.012  1.00  0.00     0.127 S 
ATOM     58  O   UNL A   1      34.737  31.801  29.028  1.00  0.00    -0.237 OA
ATOM     59  O   UNL A   1      34.404  33.038  31.133  1.00  0.00    -0.237 OA
ATOM     60  O   UNL A   1      35.999  33.884  29.477  1.00  0.00    -0.744 OA
ENDBRANCH  54  57
ENDBRANCH  26  50
BRANCH  38  61
ATOM     61  C   UNL A   1      44.950  33.385  29.521  1.00  0.00     0.023 A 
ATOM     62  C   UNL A   1      45.698  33.466  30.713  1.00  0.00     0.012 A 
ATOM     63  C   UNL A   1      44.830  34.522  28.701  1.00  0.00     0.148 A 
ATOM     64  C   UNL A   1      46.284  34.668  31.101  1.00  0.00     0.002 A 
ATOM     65  C   UNL A   1      45.458  35.706  29.071  1.00  0.00     0.091 A 
ATOM     66  F   UNL A   1      44.098  34.432  27.581  1.00  0.00    -0.205 F 
ATOM     67  C   UNL A   1      46.173  35.785  30.277  1.00  0.00     0.022 A 
BRANCH  65  68
ATOM     68  S   UNL A   1      45.440  37.167  28.026  1.00  0.00     0.127 S 
ATOM     69  O   UNL A   1      44.019  37.507  28.010  1.00  0.00    -0.237 OA
ATOM     70  O   UNL A   1      46.282  38.099  28.777  1.00  0.00    -0.237 OA
ATOM     71  O   UNL A   1      46.001  36.747  26.748  1.00  0.00    -0.744 OA
ENDBRANCH  65  68
ENDBRANCH  38  61
ENDBRANCH  12  13
ENDBRANCH   5   7
ENDBRANCH   2   3
ENDBRANCH   1   2
BRANCH   1  72
ATOM     72  C   UNL A   1      34.722  24.637  25.398  1.00  0.00     0.117 C 
BRANCH  72  73
ATOM     73  N   UNL A   1      33.465  24.507  26.119  1.00  0.00    -0.356 N 
ATOM     74  C   UNL A   1      32.522  25.448  26.428  1.00  0.00     0.223 C 
ATOM     75  H   UNL A   1      33.262  23.598  26.434  1.00  0.00     0.163 HD
ATOM     76  O   UNL A   1      31.437  25.046  26.850  1.00  0.00    -0.275 OA
BRANCH  74  77
ATOM     77  C   UNL A   1      32.804  26.922  26.141  1.00  0.00     0.091 C 
ATOM     78  C   UNL A   1      32.091  27.904  27.089  1.00  0.00     0.014 C 
ATOM     79  C   UNL A   1      32.567  27.301  24.652  1.00  0.00     0.091 C 
ATOM     80  C   UNL A   1      32.503  29.352  26.835  1.00  0.00     0.001 C 
ATOM     81  C   UNL A   1      33.120  28.735  24.476  1.00  0.00     0.014 C 
ATOM     82  C   UNL A   1      32.402  29.741  25.370  1.00  0.00     0.001 C 
BRANCH  79  83
ATOM     83  C   UNL A   1      31.086  27.197  24.220  1.00  0.00     0.230 C 
ATOM     84  O   UNL A   1      30.270  28.096  24.440  1.00  0.00    -0.274 OA
ATOM     85  N   UNL A   1      30.633  26.151  23.474  1.00  0.00    -0.302 N 
ATOM     86  H   UNL A   1      29.718  26.231  23.118  1.00  0.00     0.172 HD
BRANCH  85  87
ATOM     87  C   UNL A   1      31.302  25.010  23.165  1.00  0.00     0.189 A 
ATOM     88  N   UNL A   1      31.207  23.826  23.710  1.00  0.00    -0.220 NA
ATOM     89  S   UNL A   1      32.478  25.198  21.942  1.00  0.00    -0.105 S 
ATOM     90  C   UNL A   1      32.200  23.015  23.200  1.00  0.00     0.084 A 
ATOM     91  C   UNL A   1      33.036  23.607  22.273  1.00  0.00     0.097 A 
BRANCH  90  92
ATOM     92  C   UNL A   1      32.309  21.632  23.606  1.00  0.00     0.003 A 
ATOM     93  C   UNL A   1      32.546  21.338  24.953  1.00  0.00     0.012 A 
ATOM     94  C   UNL A   1      32.197  20.594  22.676  1.00  0.00     0.032 A 
ATOM     95  C   UNL A   1      32.639  20.012  25.376  1.00  0.00     0.023 A 
ATOM     96  C   UNL A   1      32.300  19.264  23.099  1.00  0.00     0.060 A 
ATOM     97  C   UNL A   1      32.512  18.972  24.452  1.00  0.00     0.059 A 
ATOM     98  Cl  UNL A   1      32.153  18.028  21.900  1.00  0.00    -0.083 Cl
ATOM     99  Cl  UNL A   1      32.624  17.354  25.045  1.00  0.00    -0.083 Cl
ENDBRANCH  90  92
ENDBRANCH  85  87
ENDBRANCH  79  83
ENDBRANCH  74  77
ENDBRANCH  72  73
ENDBRANCH   1  72
TORSDOF 16
ENDMDL
