MODEL 1
REMARK VINA RESULT:     -11.0      0.000      0.000
REMARK SMILES C=CCN(CC(=O)NCCCNC(=O)c1ccc(-c2c3nc(c(-c4cccc(S(=O)(=O)[O-])c4F)c4ccc([nH]4)c(-c4cccc(S(=O)(=O)[O-])c4F)c4nc(c(-c5cccc(S(=O)(=O)[O-])c5F)c5ccc2[nH]5)C=C4)C=C3)cc1)c1ccc([N+](=O)[O-])cc1Br
REMARK SMILES IDX 10 1 9 2 8 3 6 4 7 5 5 7 4 8 3 9 2 10 1 11 78 12 79 13 86 14
REMARK SMILES IDX 80 15 85 16 87 17 81 18 82 19 83 20 84 21 11 22 12 23 13 24
REMARK SMILES IDX 14 26 15 27 16 28 77 29 17 30 76 31 18 32 19 33 20 34 70 35
REMARK SMILES IDX 21 36 75 37 69 38 71 39 22 40 74 41 68 42 67 43 23 45 55 46
REMARK SMILES IDX 35 47 54 48 36 49 39 50 53 51 72 52 37 53 38 54 52 56 73 57
REMARK SMILES IDX 40 58 24 59 25 60 33 61 26 62 28 63 34 64 27 65 29 66 30 67
REMARK SMILES IDX 31 68 32 69 56 70 57 71 65 72 58 73 60 74 66 75 59 76 61 77
REMARK SMILES IDX 62 78 63 79 64 80 41 81 42 82 50 83 43 84 45 85 51 86 44 87
REMARK SMILES IDX 46 88 47 89 48 90 49 91
REMARK H PARENT 8 6 12 25 71 44 39 55
REMARK Flexibility Score: inf
ROOT
ATOM      1  C   UNL A   1      32.274  27.813  27.019  1.00  0.00     0.042 C 
ENDROOT
BRANCH   1   2
ATOM      2  C   UNL A   1      31.963  26.632  26.100  1.00  0.00     0.117 C 
BRANCH   2   3
ATOM      3  N   UNL A   1      31.386  25.509  26.808  1.00  0.00    -0.354 N 
ATOM      4  C   UNL A   1      31.072  24.251  26.377  1.00  0.00     0.239 C 
ATOM      5  O   UNL A   1      30.616  23.474  27.223  1.00  0.00    -0.273 OA
ATOM      6  H   UNL A   1      31.186  25.679  27.757  1.00  0.00     0.163 HD
BRANCH   4   7
ATOM      7  C   UNL A   1      31.314  23.791  24.928  1.00  0.00     0.216 C 
BRANCH   7   8
ATOM      8  N   UNL A   1      32.602  23.127  24.649  1.00  0.00    -0.358 N 
BRANCH   8   9
ATOM      9  C   UNL A   1      33.717  23.924  24.134  1.00  0.00     0.144 C 
BRANCH   9  10
ATOM     10  C   UNL A   1      34.643  24.384  25.212  1.00  0.00    -0.014 C 
ATOM     11  C   UNL A   1      35.972  24.224  25.174  1.00  0.00     0.006 C 
ENDBRANCH   9  10
ENDBRANCH   8   9
BRANCH   8  12
ATOM     12  C   UNL A   1      32.658  21.740  24.504  1.00  0.00     0.052 A 
ATOM     13  C   UNL A   1      32.158  21.136  23.333  1.00  0.00     0.034 A 
ATOM     14  C   UNL A   1      33.245  20.877  25.459  1.00  0.00     0.048 A 
ATOM     15  C   UNL A   1      32.267  19.762  23.093  1.00  0.00     0.088 A 
ATOM     16  C   UNL A   1      33.417  19.508  25.206  1.00  0.00     0.103 A 
ATOM     17  Br  UNL A   1      33.712  21.451  27.215  1.00  0.00    -0.048 Br
ATOM     18  C   UNL A   1      32.926  18.958  24.021  1.00  0.00     0.270 A 
BRANCH  18  19
ATOM     19  N   UNL A   1      33.064  17.521  23.773  1.00  0.00     0.062 N 
ATOM     20  O   UNL A   1      33.473  17.169  22.659  1.00  0.00    -0.258 OA
ATOM     21  O   UNL A   1      32.737  16.747  24.684  1.00  0.00    -0.258 OA
ENDBRANCH  18  19
ENDBRANCH   8  12
ENDBRANCH   7   8
ENDBRANCH   4   7
ENDBRANCH   2   3
ENDBRANCH   1   2
BRANCH   1  22
ATOM     22  C   UNL A   1      33.618  28.486  26.760  1.00  0.00     0.118 C 
BRANCH  22  23
ATOM     23  N   UNL A   1      33.580  29.919  27.010  1.00  0.00    -0.352 N 
ATOM     24  C   UNL A   1      34.447  30.726  27.705  1.00  0.00     0.251 C 
ATOM     25  H   UNL A   1      32.807  30.385  26.618  1.00  0.00     0.163 HD
ATOM     26  O   UNL A   1      34.105  31.881  27.951  1.00  0.00    -0.269 OA
BRANCH  24  27
ATOM     27  C   UNL A   1      35.767  30.235  28.164  1.00  0.00     0.039 A 
ATOM     28  C   UNL A   1      35.869  29.694  29.451  1.00  0.00     0.014 A 
ATOM     29  C   UNL A   1      36.914  30.357  27.376  1.00  0.00     0.014 A 
ATOM     30  C   UNL A   1      37.103  29.241  29.927  1.00  0.00     0.010 A 
ATOM     31  C   UNL A   1      38.129  29.836  27.822  1.00  0.00     0.010 A 
ATOM     32  C   UNL A   1      38.242  29.287  29.108  1.00  0.00    -0.014 A 
BRANCH  32  33
ATOM     33  C   UNL A   1      39.555  28.777  29.583  1.00  0.00     0.031 A 
ATOM     34  C   UNL A   1      40.296  29.487  30.685  1.00  0.00     0.074 A 
ATOM     35  C   UNL A   1      40.121  27.716  28.972  1.00  0.00     0.049 A 
ATOM     36  N   UNL A   1      41.472  29.222  31.194  1.00  0.00    -0.248 NA
ATOM     37  C   UNL A   1      39.642  30.666  31.278  1.00  0.00     0.031 C 
ATOM     38  C   UNL A   1      39.543  26.984  27.843  1.00  0.00     0.029 A 
ATOM     39  N   UNL A   1      41.320  27.086  29.196  1.00  0.00    -0.354 N 
ATOM     40  C   UNL A   1      41.716  30.217  32.134  1.00  0.00     0.074 A 
ATOM     41  C   UNL A   1      40.579  31.111  32.104  1.00  0.00     0.031 C 
ATOM     42  C   UNL A   1      40.385  26.006  27.475  1.00  0.00     0.029 A 
ATOM     43  C   UNL A   1      41.574  26.056  28.320  1.00  0.00     0.049 A 
ATOM     44  H   UNL A   1      41.939  27.347  29.914  1.00  0.00     0.167 HD
ATOM     45  C   UNL A   1      42.772  30.360  32.970  1.00  0.00     0.034 A 
ATOM     46  C   UNL A   1      42.646  25.245  28.207  1.00  0.00     0.034 A 
ATOM     47  C   UNL A   1      43.879  29.443  33.035  1.00  0.00     0.049 A 
ATOM     48  C   UNL A   1      43.785  25.396  29.178  1.00  0.00     0.074 A 
ATOM     49  C   UNL A   1      44.953  29.452  33.907  1.00  0.00     0.029 A 
ATOM     50  N   UNL A   1      44.057  28.356  32.194  1.00  0.00    -0.354 N 
ATOM     51  N   UNL A   1      43.919  26.248  30.167  1.00  0.00    -0.248 NA
ATOM     52  C   UNL A   1      44.902  24.450  29.045  1.00  0.00     0.031 C 
ATOM     53  C   UNL A   1      45.790  28.378  33.581  1.00  0.00     0.029 A 
ATOM     54  C   UNL A   1      45.225  27.688  32.521  1.00  0.00     0.049 A 
ATOM     55  H   UNL A   1      43.442  28.096  31.470  1.00  0.00     0.167 HD
ATOM     56  C   UNL A   1      45.115  25.916  30.794  1.00  0.00     0.074 A 
ATOM     57  C   UNL A   1      45.655  24.772  30.088  1.00  0.00     0.031 C 
ATOM     58  C   UNL A   1      45.722  26.516  31.848  1.00  0.00     0.034 A 
BRANCH  45  59
ATOM     59  C   UNL A   1      42.756  31.524  33.928  1.00  0.00     0.023 A 
ATOM     60  C   UNL A   1      43.236  32.779  33.502  1.00  0.00     0.012 A 
ATOM     61  C   UNL A   1      42.214  31.396  35.222  1.00  0.00     0.148 A 
ATOM     62  C   UNL A   1      43.212  33.880  34.357  1.00  0.00     0.002 A 
ATOM     63  C   UNL A   1      42.152  32.508  36.054  1.00  0.00     0.091 A 
ATOM     64  F   UNL A   1      41.780  30.191  35.618  1.00  0.00    -0.205 F 
ATOM     65  C   UNL A   1      42.661  33.746  35.629  1.00  0.00     0.022 A 
BRANCH  63  66
ATOM     66  S   UNL A   1      41.391  32.461  37.681  1.00  0.00     0.127 S 
ATOM     67  O   UNL A   1      40.021  32.065  37.354  1.00  0.00    -0.237 OA
ATOM     68  O   UNL A   1      42.177  31.431  38.360  1.00  0.00    -0.237 OA
ATOM     69  O   UNL A   1      41.539  33.801  38.232  1.00  0.00    -0.744 OA
ENDBRANCH  63  66
ENDBRANCH  45  59
BRANCH  46  70
ATOM     70  C   UNL A   1      42.659  24.169  27.176  1.00  0.00     0.023 A 
ATOM     71  C   UNL A   1      43.341  24.383  25.963  1.00  0.00     0.012 A 
ATOM     72  C   UNL A   1      42.027  22.930  27.397  1.00  0.00     0.148 A 
ATOM     73  C   UNL A   1      43.363  23.401  24.973  1.00  0.00     0.002 A 
ATOM     74  C   UNL A   1      42.100  21.933  26.430  1.00  0.00     0.091 A 
ATOM     75  F   UNL A   1      41.373  22.748  28.553  1.00  0.00    -0.205 F 
ATOM     76  C   UNL A   1      42.751  22.173  25.210  1.00  0.00     0.022 A 
BRANCH  74  77
ATOM     77  S   UNL A   1      41.460  20.277  26.706  1.00  0.00     0.127 S 
ATOM     78  O   UNL A   1      41.824  19.604  25.464  1.00  0.00    -0.237 OA
ATOM     79  O   UNL A   1      42.218  19.853  27.884  1.00  0.00    -0.237 OA
ATOM     80  O   UNL A   1      40.032  20.446  26.945  1.00  0.00    -0.744 OA
ENDBRANCH  74  77
ENDBRANCH  46  70
BRANCH  58  81
ATOM     81  C   UNL A   1      47.021  25.928  32.335  1.00  0.00     0.023 A 
ATOM     82  C   UNL A   1      47.026  25.060  33.444  1.00  0.00     0.012 A 
ATOM     83  C   UNL A   1      48.226  26.184  31.652  1.00  0.00     0.148 A 
ATOM     84  C   UNL A   1      48.216  24.483  33.887  1.00  0.00     0.002 A 
ATOM     85  C   UNL A   1      49.400  25.567  32.068  1.00  0.00     0.091 A 
ATOM     86  F   UNL A   1      48.205  27.030  30.610  1.00  0.00    -0.205 F 
ATOM     87  C   UNL A   1      49.399  24.726  33.193  1.00  0.00     0.022 A 
BRANCH  85  88
ATOM     88  S   UNL A   1      50.949  25.748  31.177  1.00  0.00     0.127 S 
ATOM     89  O   UNL A   1      51.839  24.880  31.945  1.00  0.00    -0.237 OA
ATOM     90  O   UNL A   1      50.604  25.246  29.846  1.00  0.00    -0.237 OA
ATOM     91  O   UNL A   1      51.269  27.169  31.218  1.00  0.00    -0.744 OA
ENDBRANCH  85  88
ENDBRANCH  58  81
ENDBRANCH  32  33
ENDBRANCH  24  27
ENDBRANCH  22  23
ENDBRANCH   1  22
TORSDOF 18
ENDMDL
MODEL 2
REMARK VINA RESULT:     -10.9      4.676      9.645
REMARK SMILES C=CCN(CC(=O)NCCCNC(=O)c1ccc(-c2c3nc(c(-c4cccc(S(=O)(=O)[O-])c4F)c4ccc([nH]4)c(-c4cccc(S(=O)(=O)[O-])c4F)c4nc(c(-c5cccc(S(=O)(=O)[O-])c5F)c5ccc2[nH]5)C=C4)C=C3)cc1)c1ccc([N+](=O)[O-])cc1Br
REMARK SMILES IDX 10 1 9 2 8 3 6 4 7 5 5 7 4 8 3 9 2 10 1 11 78 12 79 13 86 14
REMARK SMILES IDX 80 15 85 16 87 17 81 18 82 19 83 20 84 21 11 22 12 23 13 24
REMARK SMILES IDX 14 26 15 27 16 28 77 29 17 30 76 31 18 32 19 33 20 34 70 35
REMARK SMILES IDX 21 36 75 37 69 38 71 39 22 40 74 41 68 42 67 43 23 45 55 46
REMARK SMILES IDX 35 47 54 48 36 49 39 50 53 51 72 52 37 53 38 54 52 56 73 57
REMARK SMILES IDX 40 58 24 59 25 60 33 61 26 62 28 63 34 64 27 65 29 66 30 67
REMARK SMILES IDX 31 68 32 69 56 70 57 71 65 72 58 73 60 74 66 75 59 76 61 77
REMARK SMILES IDX 62 78 63 79 64 80 41 81 42 82 50 83 43 84 45 85 51 86 44 87
REMARK SMILES IDX 46 88 47 89 48 90 49 91
REMARK H PARENT 8 6 12 25 71 44 39 55
REMARK Flexibility Score: inf
ROOT
ATOM      1  C   UNL A   1      36.367  23.411  24.479  1.00  0.00     0.042 C 
ENDROOT
BRANCH   1   2
ATOM      2  C   UNL A   1      34.870  23.207  24.251  1.00  0.00     0.117 C 
BRANCH   2   3
ATOM      3  N   UNL A   1      34.425  23.713  22.970  1.00  0.00    -0.354 N 
ATOM      4  C   UNL A   1      33.201  24.170  22.568  1.00  0.00     0.239 C 
ATOM      5  O   UNL A   1      33.118  24.581  21.405  1.00  0.00    -0.273 OA
ATOM      6  H   UNL A   1      35.118  23.730  22.270  1.00  0.00     0.163 HD
BRANCH   4   7
ATOM      7  C   UNL A   1      31.991  24.227  23.517  1.00  0.00     0.216 C 
BRANCH   7   8
ATOM      8  N   UNL A   1      31.773  25.496  24.240  1.00  0.00    -0.358 N 
BRANCH   8   9
ATOM      9  C   UNL A   1      32.218  25.607  25.630  1.00  0.00     0.144 C 
BRANCH   9  10
ATOM     10  C   UNL A   1      33.543  26.284  25.758  1.00  0.00    -0.014 C 
ATOM     11  C   UNL A   1      33.705  27.531  26.222  1.00  0.00     0.006 C 
ENDBRANCH   9  10
ENDBRANCH   8   9
BRANCH   8  12
ATOM     12  C   UNL A   1      30.841  26.420  23.767  1.00  0.00     0.052 A 
ATOM     13  C   UNL A   1      29.465  26.200  23.980  1.00  0.00     0.034 A 
ATOM     14  C   UNL A   1      31.195  27.622  23.112  1.00  0.00     0.048 A 
ATOM     15  C   UNL A   1      28.491  27.134  23.609  1.00  0.00     0.088 A 
ATOM     16  C   UNL A   1      30.237  28.595  22.789  1.00  0.00     0.103 A 
ATOM     17  Br  UNL A   1      32.958  27.968  22.477  1.00  0.00    -0.048 Br
ATOM     18  C   UNL A   1      28.887  28.343  23.041  1.00  0.00     0.270 A 
BRANCH  18  19
ATOM     19  N   UNL A   1      27.879  29.337  22.665  1.00  0.00     0.062 N 
ATOM     20  O   UNL A   1      26.808  29.330  23.286  1.00  0.00    -0.258 OA
ATOM     21  O   UNL A   1      28.149  30.104  21.730  1.00  0.00    -0.258 OA
ENDBRANCH  18  19
ENDBRANCH   8  12
ENDBRANCH   7   8
ENDBRANCH   4   7
ENDBRANCH   2   3
ENDBRANCH   1   2
BRANCH   1  22
ATOM     22  C   UNL A   1      36.817  23.269  25.930  1.00  0.00     0.118 C 
BRANCH  22  23
ATOM     23  N   UNL A   1      37.963  22.384  26.072  1.00  0.00    -0.352 N 
ATOM     24  C   UNL A   1      39.270  22.662  26.390  1.00  0.00     0.251 C 
ATOM     25  H   UNL A   1      37.770  21.432  25.916  1.00  0.00     0.163 HD
ATOM     26  O   UNL A   1      40.108  21.772  26.260  1.00  0.00    -0.269 OA
BRANCH  24  27
ATOM     27  C   UNL A   1      39.684  24.000  26.873  1.00  0.00     0.039 A 
ATOM     28  C   UNL A   1      40.121  24.943  25.936  1.00  0.00     0.014 A 
ATOM     29  C   UNL A   1      39.711  24.317  28.233  1.00  0.00     0.014 A 
ATOM     30  C   UNL A   1      40.541  26.209  26.356  1.00  0.00     0.010 A 
ATOM     31  C   UNL A   1      40.059  25.604  28.645  1.00  0.00     0.010 A 
ATOM     32  C   UNL A   1      40.493  26.559  27.714  1.00  0.00    -0.014 A 
BRANCH  32  33
ATOM     33  C   UNL A   1      40.901  27.912  28.177  1.00  0.00     0.031 A 
ATOM     34  C   UNL A   1      42.357  28.296  28.221  1.00  0.00     0.074 A 
ATOM     35  C   UNL A   1      39.968  28.773  28.631  1.00  0.00     0.049 A 
ATOM     36  N   UNL A   1      42.906  29.406  28.643  1.00  0.00    -0.248 NA
ATOM     37  C   UNL A   1      43.328  27.291  27.754  1.00  0.00     0.031 C 
ATOM     38  C   UNL A   1      38.532  28.498  28.712  1.00  0.00     0.029 A 
ATOM     39  N   UNL A   1      40.091  30.044  29.136  1.00  0.00    -0.354 N 
ATOM     40  C   UNL A   1      44.280  29.222  28.530  1.00  0.00     0.074 A 
ATOM     41  C   UNL A   1      44.483  27.880  28.029  1.00  0.00     0.031 C 
ATOM     42  C   UNL A   1      37.908  29.566  29.232  1.00  0.00     0.029 A 
ATOM     43  C   UNL A   1      38.897  30.591  29.548  1.00  0.00     0.049 A 
ATOM     44  H   UNL A   1      40.950  30.519  29.197  1.00  0.00     0.167 HD
ATOM     45  C   UNL A   1      45.281  30.097  28.788  1.00  0.00     0.034 A 
ATOM     46  C   UNL A   1      38.630  31.783  30.120  1.00  0.00     0.034 A 
ATOM     47  C   UNL A   1      45.077  31.447  29.238  1.00  0.00     0.049 A 
ATOM     48  C   UNL A   1      39.756  32.753  30.352  1.00  0.00     0.074 A 
ATOM     49  C   UNL A   1      46.021  32.438  29.442  1.00  0.00     0.029 A 
ATOM     50  N   UNL A   1      43.845  31.997  29.556  1.00  0.00    -0.354 N 
ATOM     51  N   UNL A   1      41.033  32.615  30.086  1.00  0.00    -0.248 NA
ATOM     52  C   UNL A   1      39.400  34.059  30.927  1.00  0.00     0.031 C 
ATOM     53  C   UNL A   1      45.360  33.584  29.902  1.00  0.00     0.029 A 
ATOM     54  C   UNL A   1      44.003  33.312  29.961  1.00  0.00     0.049 A 
ATOM     55  H   UNL A   1      42.984  31.524  29.502  1.00  0.00     0.167 HD
ATOM     56  C   UNL A   1      41.625  33.827  30.426  1.00  0.00     0.074 A 
ATOM     57  C   UNL A   1      40.564  34.694  30.895  1.00  0.00     0.031 C 
ATOM     58  C   UNL A   1      42.932  34.184  30.370  1.00  0.00     0.034 A 
BRANCH  45  59
ATOM     59  C   UNL A   1      46.695  29.639  28.533  1.00  0.00     0.023 A 
ATOM     60  C   UNL A   1      47.247  29.779  27.243  1.00  0.00     0.012 A 
ATOM     61  C   UNL A   1      47.496  29.129  29.574  1.00  0.00     0.148 A 
ATOM     62  C   UNL A   1      48.559  29.386  26.982  1.00  0.00     0.002 A 
ATOM     63  C   UNL A   1      48.817  28.781  29.318  1.00  0.00     0.091 A 
ATOM     64  F   UNL A   1      46.949  28.985  30.790  1.00  0.00    -0.205 F 
ATOM     65  C   UNL A   1      49.347  28.897  28.021  1.00  0.00     0.022 A 
BRANCH  63  66
ATOM     66  S   UNL A   1      49.939  28.217  30.603  1.00  0.00     0.127 S 
ATOM     67  O   UNL A   1      51.174  28.013  29.847  1.00  0.00    -0.237 OA
ATOM     68  O   UNL A   1      49.965  29.361  31.514  1.00  0.00    -0.237 OA
ATOM     69  O   UNL A   1      49.339  27.011  31.157  1.00  0.00    -0.744 OA
ENDBRANCH  63  66
ENDBRANCH  45  59
BRANCH  46  70
ATOM     70  C   UNL A   1      37.224  32.153  30.447  1.00  0.00     0.023 A 
ATOM     71  C   UNL A   1      36.735  31.926  31.748  1.00  0.00     0.012 A 
ATOM     72  C   UNL A   1      36.378  32.748  29.491  1.00  0.00     0.148 A 
ATOM     73  C   UNL A   1      35.420  32.250  32.083  1.00  0.00     0.002 A 
ATOM     74  C   UNL A   1      35.087  33.122  29.847  1.00  0.00     0.091 A 
ATOM     75  F   UNL A   1      36.856  32.945  28.255  1.00  0.00    -0.205 F 
ATOM     76  C   UNL A   1      34.599  32.857  31.136  1.00  0.00     0.022 A 
BRANCH  74  77
ATOM     77  S   UNL A   1      34.008  34.030  28.734  1.00  0.00     0.127 S 
ATOM     78  O   UNL A   1      33.615  32.995  27.784  1.00  0.00    -0.237 OA
ATOM     79  O   UNL A   1      32.947  34.475  29.638  1.00  0.00    -0.237 OA
ATOM     80  O   UNL A   1      34.824  35.112  28.196  1.00  0.00    -0.744 OA
ENDBRANCH  74  77
ENDBRANCH  46  70
BRANCH  58  81
ATOM     81  C   UNL A   1      43.292  35.584  30.792  1.00  0.00     0.023 A 
ATOM     82  C   UNL A   1      43.624  35.849  32.136  1.00  0.00     0.012 A 
ATOM     83  C   UNL A   1      43.367  36.624  29.844  1.00  0.00     0.148 A 
ATOM     84  C   UNL A   1      43.991  37.134  32.535  1.00  0.00     0.002 A 
ATOM     85  C   UNL A   1      43.782  37.891  30.240  1.00  0.00     0.091 A 
ATOM     86  F   UNL A   1      43.028  36.358  28.573  1.00  0.00    -0.205 F 
ATOM     87  C   UNL A   1      44.081  38.151  31.587  1.00  0.00     0.022 A 
BRANCH  85  88
ATOM     88  S   UNL A   1      44.018  39.233  29.070  1.00  0.00     0.127 S 
ATOM     89  O   UNL A   1      42.664  39.420  28.552  1.00  0.00    -0.237 OA
ATOM     90  O   UNL A   1      44.497  40.316  29.930  1.00  0.00    -0.237 OA
ATOM     91  O   UNL A   1      44.999  38.754  28.106  1.00  0.00    -0.744 OA
ENDBRANCH  85  88
ENDBRANCH  58  81
ENDBRANCH  32  33
ENDBRANCH  24  27
ENDBRANCH  22  23
ENDBRANCH   1  22
TORSDOF 18
ENDMDL
MODEL 3
REMARK VINA RESULT:     -10.7      4.672      9.568
REMARK SMILES C=CCN(CC(=O)NCCCNC(=O)c1ccc(-c2c3nc(c(-c4cccc(S(=O)(=O)[O-])c4F)c4ccc([nH]4)c(-c4cccc(S(=O)(=O)[O-])c4F)c4nc(c(-c5cccc(S(=O)(=O)[O-])c5F)c5ccc2[nH]5)C=C4)C=C3)cc1)c1ccc([N+](=O)[O-])cc1Br
REMARK SMILES IDX 10 1 9 2 8 3 6 4 7 5 5 7 4 8 3 9 2 10 1 11 78 12 79 13 86 14
REMARK SMILES IDX 80 15 85 16 87 17 81 18 82 19 83 20 84 21 11 22 12 23 13 24
REMARK SMILES IDX 14 26 15 27 16 28 77 29 17 30 76 31 18 32 19 33 20 34 70 35
REMARK SMILES IDX 21 36 75 37 69 38 71 39 22 40 74 41 68 42 67 43 23 45 55 46
REMARK SMILES IDX 35 47 54 48 36 49 39 50 53 51 72 52 37 53 38 54 52 56 73 57
REMARK SMILES IDX 40 58 24 59 25 60 33 61 26 62 28 63 34 64 27 65 29 66 30 67
REMARK SMILES IDX 31 68 32 69 56 70 57 71 65 72 58 73 60 74 66 75 59 76 61 77
REMARK SMILES IDX 62 78 63 79 64 80 41 81 42 82 50 83 43 84 45 85 51 86 44 87
REMARK SMILES IDX 46 88 47 89 48 90 49 91
REMARK H PARENT 8 6 12 25 71 44 39 55
REMARK Flexibility Score: inf
ROOT
ATOM      1  C   UNL A   1      35.927  22.547  24.356  1.00  0.00     0.042 C 
ENDROOT
BRANCH   1   2
ATOM      2  C   UNL A   1      34.449  22.477  23.976  1.00  0.00     0.117 C 
BRANCH   2   3
ATOM      3  N   UNL A   1      34.142  23.237  22.782  1.00  0.00    -0.354 N 
ATOM      4  C   UNL A   1      33.038  23.972  22.453  1.00  0.00     0.239 C 
ATOM      5  O   UNL A   1      33.065  24.553  21.362  1.00  0.00    -0.273 OA
ATOM      6  H   UNL A   1      34.844  23.220  22.091  1.00  0.00     0.163 HD
BRANCH   4   7
ATOM      7  C   UNL A   1      31.836  24.124  23.402  1.00  0.00     0.216 C 
BRANCH   7   8
ATOM      8  N   UNL A   1      31.727  25.400  24.136  1.00  0.00    -0.358 N 
BRANCH   8   9
ATOM      9  C   UNL A   1      32.202  25.467  25.519  1.00  0.00     0.144 C 
BRANCH   9  10
ATOM     10  C   UNL A   1      33.459  26.261  25.659  1.00  0.00    -0.014 C 
ATOM     11  C   UNL A   1      33.516  27.481  26.209  1.00  0.00     0.006 C 
ENDBRANCH   9  10
ENDBRANCH   8   9
BRANCH   8  12
ATOM     12  C   UNL A   1      30.859  26.395  23.686  1.00  0.00     0.052 A 
ATOM     13  C   UNL A   1      29.469  26.247  23.863  1.00  0.00     0.034 A 
ATOM     14  C   UNL A   1      31.295  27.602  23.091  1.00  0.00     0.048 A 
ATOM     15  C   UNL A   1      28.558  27.250  23.513  1.00  0.00     0.088 A 
ATOM     16  C   UNL A   1      30.401  28.641  22.791  1.00  0.00     0.103 A 
ATOM     17  Br  UNL A   1      33.089  27.871  22.505  1.00  0.00    -0.048 Br
ATOM     18  C   UNL A   1      29.034  28.457  23.006  1.00  0.00     0.270 A 
BRANCH  18  19
ATOM     19  N   UNL A   1      28.093  29.522  22.654  1.00  0.00     0.062 N 
ATOM     20  O   UNL A   1      28.452  30.346  21.803  1.00  0.00    -0.258 OA
ATOM     21  O   UNL A   1      27.007  29.549  23.249  1.00  0.00    -0.258 OA
ENDBRANCH  18  19
ENDBRANCH   8  12
ENDBRANCH   7   8
ENDBRANCH   4   7
ENDBRANCH   2   3
ENDBRANCH   1   2
BRANCH   1  22
ATOM     22  C   UNL A   1      36.236  22.138  25.793  1.00  0.00     0.118 C 
BRANCH  22  23
ATOM     23  N   UNL A   1      37.276  21.124  25.871  1.00  0.00    -0.352 N 
ATOM     24  C   UNL A   1      38.632  21.248  26.043  1.00  0.00     0.251 C 
ATOM     25  H   UNL A   1      36.954  20.197  25.787  1.00  0.00     0.163 HD
ATOM     26  O   UNL A   1      39.339  20.256  25.881  1.00  0.00    -0.269 OA
BRANCH  24  27
ATOM     27  C   UNL A   1      39.253  22.543  26.409  1.00  0.00     0.039 A 
ATOM     28  C   UNL A   1      40.283  22.546  27.355  1.00  0.00     0.014 A 
ATOM     29  C   UNL A   1      38.794  23.755  25.885  1.00  0.00     0.014 A 
ATOM     30  C   UNL A   1      40.878  23.751  27.742  1.00  0.00     0.010 A 
ATOM     31  C   UNL A   1      39.438  24.948  26.215  1.00  0.00     0.010 A 
ATOM     32  C   UNL A   1      40.476  24.963  27.159  1.00  0.00    -0.014 A 
BRANCH  32  33
ATOM     33  C   UNL A   1      41.120  26.250  27.530  1.00  0.00     0.031 A 
ATOM     34  C   UNL A   1      42.558  26.516  27.169  1.00  0.00     0.074 A 
ATOM     35  C   UNL A   1      40.436  27.154  28.261  1.00  0.00     0.049 A 
ATOM     36  N   UNL A   1      43.303  27.553  27.453  1.00  0.00    -0.248 NA
ATOM     37  C   UNL A   1      43.261  25.467  26.410  1.00  0.00     0.031 C 
ATOM     38  C   UNL A   1      39.062  26.988  28.739  1.00  0.00     0.029 A 
ATOM     39  N   UNL A   1      40.812  28.380  28.751  1.00  0.00    -0.354 N 
ATOM     40  C   UNL A   1      44.566  27.269  26.946  1.00  0.00     0.074 A 
ATOM     41  C   UNL A   1      44.496  25.946  26.363  1.00  0.00     0.031 C 
ATOM     42  C   UNL A   1      38.710  28.070  29.451  1.00  0.00     0.029 A 
ATOM     43  C   UNL A   1      39.838  28.994  29.505  1.00  0.00     0.049 A 
ATOM     44  H   UNL A   1      41.693  28.782  28.580  1.00  0.00     0.167 HD
ATOM     45  C   UNL A   1      45.675  28.046  26.935  1.00  0.00     0.034 A 
ATOM     46  C   UNL A   1      39.853  30.168  30.169  1.00  0.00     0.034 A 
ATOM     47  C   UNL A   1      45.731  29.380  27.469  1.00  0.00     0.049 A 
ATOM     48  C   UNL A   1      41.083  31.032  30.102  1.00  0.00     0.074 A 
ATOM     49  C   UNL A   1      46.781  30.280  27.428  1.00  0.00     0.029 A 
ATOM     50  N   UNL A   1      44.695  30.006  28.145  1.00  0.00    -0.354 N 
ATOM     51  N   UNL A   1      42.215  30.810  29.477  1.00  0.00    -0.248 NA
ATOM     52  C   UNL A   1      41.025  32.326  30.797  1.00  0.00     0.031 C 
ATOM     53  C   UNL A   1      46.385  31.445  28.096  1.00  0.00     0.029 A 
ATOM     54  C   UNL A   1      45.080  31.278  28.531  1.00  0.00     0.049 A 
ATOM     55  H   UNL A   1      43.814  29.605  28.323  1.00  0.00     0.167 HD
ATOM     56  C   UNL A   1      42.987  31.950  29.673  1.00  0.00     0.074 A 
ATOM     57  C   UNL A   1      42.186  32.869  30.455  1.00  0.00     0.031 C 
ATOM     58  C   UNL A   1      44.253  32.206  29.259  1.00  0.00     0.034 A 
BRANCH  45  59
ATOM     59  C   UNL A   1      46.912  27.494  26.271  1.00  0.00     0.023 A 
ATOM     60  C   UNL A   1      47.123  27.726  24.897  1.00  0.00     0.012 A 
ATOM     61  C   UNL A   1      47.890  26.802  27.012  1.00  0.00     0.148 A 
ATOM     62  C   UNL A   1      48.268  27.248  24.261  1.00  0.00     0.002 A 
ATOM     63  C   UNL A   1      49.051  26.368  26.382  1.00  0.00     0.091 A 
ATOM     64  F   UNL A   1      47.665  26.573  28.314  1.00  0.00    -0.205 F 
ATOM     65  C   UNL A   1      49.236  26.578  25.005  1.00  0.00     0.022 A 
BRANCH  63  66
ATOM     66  S   UNL A   1      50.393  25.565  27.265  1.00  0.00     0.127 S 
ATOM     67  O   UNL A   1      49.750  24.336  27.726  1.00  0.00    -0.237 OA
ATOM     68  O   UNL A   1      51.387  25.373  26.208  1.00  0.00    -0.237 OA
ATOM     69  O   UNL A   1      50.794  26.492  28.315  1.00  0.00    -0.744 OA
ENDBRANCH  63  66
ENDBRANCH  45  59
BRANCH  46  70
ATOM     70  C   UNL A   1      38.636  30.628  30.896  1.00  0.00     0.023 A 
ATOM     71  C   UNL A   1      38.516  30.366  32.275  1.00  0.00     0.012 A 
ATOM     72  C   UNL A   1      37.613  31.341  30.242  1.00  0.00     0.148 A 
ATOM     73  C   UNL A   1      37.385  30.772  32.982  1.00  0.00     0.002 A 
ATOM     74  C   UNL A   1      36.514  31.793  30.964  1.00  0.00     0.091 A 
ATOM     75  F   UNL A   1      37.739  31.570  28.928  1.00  0.00    -0.205 F 
ATOM     76  C   UNL A   1      36.389  31.494  32.330  1.00  0.00     0.022 A 
BRANCH  74  77
ATOM     77  S   UNL A   1      35.253  32.845  30.237  1.00  0.00     0.127 S 
ATOM     78  O   UNL A   1      34.698  31.978  29.202  1.00  0.00    -0.237 OA
ATOM     79  O   UNL A   1      34.369  33.090  31.377  1.00  0.00    -0.237 OA
ATOM     80  O   UNL A   1      35.958  34.030  29.764  1.00  0.00    -0.744 OA
ENDBRANCH  74  77
ENDBRANCH  46  70
BRANCH  58  81
ATOM     81  C   UNL A   1      44.844  33.547  29.606  1.00  0.00     0.023 A 
ATOM     82  C   UNL A   1      45.648  33.683  30.755  1.00  0.00     0.012 A 
ATOM     83  C   UNL A   1      44.659  34.656  28.758  1.00  0.00     0.148 A 
ATOM     84  C   UNL A   1      46.229  34.911  31.073  1.00  0.00     0.002 A 
ATOM     85  C   UNL A   1      45.281  35.864  29.054  1.00  0.00     0.091 A 
ATOM     86  F   UNL A   1      43.874  34.514  27.679  1.00  0.00    -0.205 F 
ATOM     87  C   UNL A   1      46.056  35.996  30.217  1.00  0.00     0.022 A 
BRANCH  85  88
ATOM     88  S   UNL A   1      45.191  37.285  27.959  1.00  0.00     0.127 S 
ATOM     89  O   UNL A   1      43.760  37.586  27.977  1.00  0.00    -0.237 OA
ATOM     90  O   UNL A   1      46.029  38.266  28.650  1.00  0.00    -0.237 OA
ATOM     91  O   UNL A   1      45.722  36.836  26.678  1.00  0.00    -0.744 OA
ENDBRANCH  85  88
ENDBRANCH  58  81
ENDBRANCH  32  33
ENDBRANCH  24  27
ENDBRANCH  22  23
ENDBRANCH   1  22
TORSDOF 18
ENDMDL
