MODEL 1
REMARK VINA RESULT:     -12.6      0.000      0.000
REMARK SMILES Cc1ccc([C@@H]2[C@H](C(=O)NCCCNC(=O)c3ccc(-c4c5nc(c(-c6cccc(S(=O)(=O)[O-])c6F)c6ccc([nH]6)c(-c6cccc(S(=O)(=O)[O-])c6F)c6nc(c(-c7cccc(S(=O)(=O)[O-])c7F)c7ccc4[nH]7)C=C6)C=C5)cc3)c3ccccc3C(=O)N2c2ccccc2)cc1
REMARK SMILES IDX 13 1 12 2 11 3 10 4 8 5 9 6 7 8 6 9 88 10 80 11 86 12 81 13
REMARK SMILES IDX 85 14 87 15 82 16 84 17 83 18 5 19 1 20 2 21 3 22 96 23 4 24
REMARK SMILES IDX 95 25 89 26 90 27 94 28 91 29 93 30 92 31 14 32 15 33 16 35
REMARK SMILES IDX 17 36 18 37 79 38 19 39 78 40 20 41 21 42 22 43 72 44 23 45
REMARK SMILES IDX 77 46 71 47 73 48 24 49 76 50 70 51 69 52 25 54 57 55 37 56
REMARK SMILES IDX 56 57 38 58 41 59 55 60 74 61 39 62 40 63 54 65 75 66 42 67
REMARK SMILES IDX 26 68 27 69 35 70 28 71 30 72 36 73 29 74 31 75 32 76 33 77
REMARK SMILES IDX 34 78 58 79 59 80 67 81 60 82 62 83 68 84 61 85 63 86 64 87
REMARK SMILES IDX 65 88 66 89 43 90 44 91 52 92 45 93 47 94 53 95 46 96 48 97
REMARK SMILES IDX 49 98 50 99 51 100
REMARK H PARENT 10 7 14 34 73 53 41 64
REMARK Flexibility Score: inf
ROOT
ATOM      1  C   UNL A   1      34.013  30.562  26.849  1.00  0.00     0.118 C 
ENDROOT
BRANCH   1   2
ATOM      2  C   UNL A   1      33.352  29.273  27.311  1.00  0.00     0.042 C 
BRANCH   2   3
ATOM      3  C   UNL A   1      34.178  28.019  27.077  1.00  0.00     0.117 C 
BRANCH   3   4
ATOM      4  N   UNL A   1      33.373  26.973  26.465  1.00  0.00    -0.355 N 
ATOM      5  C   UNL A   1      33.978  25.979  25.734  1.00  0.00     0.230 C 
ATOM      6  O   UNL A   1      34.511  25.041  26.326  1.00  0.00    -0.274 OA
ATOM      7  H   UNL A   1      32.395  26.977  26.576  1.00  0.00     0.163 HD
BRANCH   5   8
ATOM      8  C   UNL A   1      33.924  26.040  24.201  1.00  0.00     0.137 C 
ATOM      9  C   UNL A   1      33.528  24.649  23.597  1.00  0.00     0.138 C 
ATOM     10  N   UNL A   1      32.062  24.505  23.620  1.00  0.00    -0.300 N 
ATOM     11  C   UNL A   1      33.033  27.121  23.567  1.00  0.00    -0.020 A 
ATOM     12  C   UNL A   1      31.489  25.333  22.642  1.00  0.00     0.259 C 
ATOM     13  C   UNL A   1      33.339  28.481  23.709  1.00  0.00     0.005 A 
ATOM     14  C   UNL A   1      31.900  26.769  22.793  1.00  0.00     0.044 A 
ATOM     15  O   UNL A   1      30.679  24.975  21.798  1.00  0.00    -0.269 OA
ATOM     16  C   UNL A   1      32.489  29.459  23.181  1.00  0.00     0.000 A 
ATOM     17  C   UNL A   1      31.081  27.752  22.225  1.00  0.00     0.014 A 
ATOM     18  C   UNL A   1      31.364  29.097  22.443  1.00  0.00     0.001 A 
BRANCH   9  19
ATOM     19  C   UNL A   1      34.464  23.464  23.809  1.00  0.00    -0.024 A 
ATOM     20  C   UNL A   1      37.439  20.571  25.003  1.00  0.00     0.044 C 
ATOM     21  C   UNL A   1      36.397  21.491  24.442  1.00  0.00    -0.051 A 
ATOM     22  C   UNL A   1      35.037  21.261  24.665  1.00  0.00     0.004 A 
ATOM     23  C   UNL A   1      36.778  22.655  23.776  1.00  0.00     0.004 A 
ATOM     24  C   UNL A   1      34.078  22.212  24.294  1.00  0.00     0.006 A 
ATOM     25  C   UNL A   1      35.824  23.627  23.470  1.00  0.00     0.006 A 
ENDBRANCH   9  19
BRANCH  10  26
ATOM     26  C   UNL A   1      31.286  24.340  24.839  1.00  0.00     0.045 A 
ATOM     27  C   UNL A   1      31.314  23.103  25.521  1.00  0.00     0.026 A 
ATOM     28  C   UNL A   1      30.406  25.306  25.339  1.00  0.00     0.026 A 
ATOM     29  C   UNL A   1      30.450  22.822  26.583  1.00  0.00     0.002 A 
ATOM     30  C   UNL A   1      29.574  25.045  26.437  1.00  0.00     0.002 A 
ATOM     31  C   UNL A   1      29.576  23.795  27.043  1.00  0.00     0.000 A 
ENDBRANCH  10  26
ENDBRANCH   5   8
ENDBRANCH   3   4
ENDBRANCH   2   3
ENDBRANCH   1   2
BRANCH   1  32
ATOM     32  N   UNL A   1      34.408  31.405  27.972  1.00  0.00    -0.352 N 
ATOM     33  C   UNL A   1      35.362  31.192  28.948  1.00  0.00     0.251 C 
ATOM     34  H   UNL A   1      33.921  32.257  28.045  1.00  0.00     0.163 HD
ATOM     35  O   UNL A   1      35.422  31.963  29.905  1.00  0.00    -0.269 OA
BRANCH  33  36
ATOM     36  C   UNL A   1      36.366  30.125  28.759  1.00  0.00     0.039 A 
ATOM     37  C   UNL A   1      36.729  29.365  29.876  1.00  0.00     0.014 A 
ATOM     38  C   UNL A   1      37.097  30.033  27.579  1.00  0.00     0.014 A 
ATOM     39  C   UNL A   1      37.961  28.718  29.894  1.00  0.00     0.010 A 
ATOM     40  C   UNL A   1      38.356  29.479  27.623  1.00  0.00     0.010 A 
ATOM     41  C   UNL A   1      38.808  28.880  28.801  1.00  0.00    -0.014 A 
BRANCH  41  42
ATOM     42  C   UNL A   1      40.204  28.490  28.788  1.00  0.00     0.031 A 
ATOM     43  C   UNL A   1      40.571  27.084  28.571  1.00  0.00     0.074 A 
ATOM     44  C   UNL A   1      41.145  29.457  28.830  1.00  0.00     0.049 A 
ATOM     45  N   UNL A   1      41.685  26.566  28.956  1.00  0.00    -0.248 NA
ATOM     46  C   UNL A   1      39.679  26.145  27.905  1.00  0.00     0.031 C 
ATOM     47  C   UNL A   1      42.555  29.338  28.486  1.00  0.00     0.029 A 
ATOM     48  N   UNL A   1      41.036  30.726  29.408  1.00  0.00    -0.354 N 
ATOM     49  C   UNL A   1      41.778  25.328  28.362  1.00  0.00     0.074 A 
ATOM     50  C   UNL A   1      40.476  25.079  27.784  1.00  0.00     0.031 C 
ATOM     51  C   UNL A   1      43.228  30.332  29.088  1.00  0.00     0.029 A 
ATOM     52  C   UNL A   1      42.291  31.008  29.972  1.00  0.00     0.049 A 
ATOM     53  H   UNL A   1      40.239  31.304  29.417  1.00  0.00     0.167 HD
ATOM     54  C   UNL A   1      42.994  24.721  28.260  1.00  0.00     0.034 A 
ATOM     55  C   UNL A   1      42.484  31.253  31.301  1.00  0.00     0.034 A 
ATOM     56  C   UNL A   1      44.048  25.553  28.850  1.00  0.00     0.049 A 
ATOM     57  C   UNL A   1      43.464  30.287  31.942  1.00  0.00     0.074 A 
ATOM     58  C   UNL A   1      44.917  26.482  28.299  1.00  0.00     0.029 A 
ATOM     59  N   UNL A   1      44.100  25.735  30.226  1.00  0.00    -0.354 N 
ATOM     60  N   UNL A   1      43.925  29.217  31.355  1.00  0.00    -0.248 NA
ATOM     61  C   UNL A   1      43.979  30.431  33.301  1.00  0.00     0.031 C 
ATOM     62  C   UNL A   1      45.442  27.273  29.352  1.00  0.00     0.029 A 
ATOM     63  C   UNL A   1      44.915  26.812  30.544  1.00  0.00     0.049 A 
ATOM     64  H   UNL A   1      43.625  25.177  30.883  1.00  0.00     0.167 HD
ATOM     65  C   UNL A   1      44.665  28.476  32.241  1.00  0.00     0.074 A 
ATOM     66  C   UNL A   1      44.733  29.322  33.421  1.00  0.00     0.031 C 
ATOM     67  C   UNL A   1      45.102  27.212  31.936  1.00  0.00     0.034 A 
BRANCH  54  68
ATOM     68  C   UNL A   1      43.263  23.585  27.295  1.00  0.00     0.023 A 
ATOM     69  C   UNL A   1      43.995  23.882  26.124  1.00  0.00     0.012 A 
ATOM     70  C   UNL A   1      42.787  22.261  27.420  1.00  0.00     0.148 A 
ATOM     71  C   UNL A   1      44.147  22.964  25.082  1.00  0.00     0.002 A 
ATOM     72  C   UNL A   1      42.875  21.364  26.348  1.00  0.00     0.091 A 
ATOM     73  F   UNL A   1      42.299  21.845  28.595  1.00  0.00    -0.205 F 
ATOM     74  C   UNL A   1      43.552  21.717  25.176  1.00  0.00     0.022 A 
BRANCH  72  75
ATOM     75  S   UNL A   1      42.025  19.777  26.349  1.00  0.00     0.127 S 
ATOM     76  O   UNL A   1      40.616  20.176  26.293  1.00  0.00    -0.237 OA
ATOM     77  O   UNL A   1      42.524  19.147  25.130  1.00  0.00    -0.237 OA
ATOM     78  O   UNL A   1      42.402  19.130  27.601  1.00  0.00    -0.744 OA
ENDBRANCH  72  75
ENDBRANCH  54  68
BRANCH  55  79
ATOM     79  C   UNL A   1      41.297  31.862  31.972  1.00  0.00     0.023 A 
ATOM     80  C   UNL A   1      40.888  33.136  31.508  1.00  0.00     0.012 A 
ATOM     81  C   UNL A   1      40.382  31.082  32.701  1.00  0.00     0.148 A 
ATOM     82  C   UNL A   1      39.561  33.552  31.624  1.00  0.00     0.002 A 
ATOM     83  C   UNL A   1      39.060  31.511  32.822  1.00  0.00     0.091 A 
ATOM     84  F   UNL A   1      40.787  29.905  33.193  1.00  0.00    -0.205 F 
ATOM     85  C   UNL A   1      38.638  32.720  32.247  1.00  0.00     0.022 A 
BRANCH  83  86
ATOM     86  S   UNL A   1      37.818  30.473  33.606  1.00  0.00     0.127 S 
ATOM     87  O   UNL A   1      37.942  30.873  35.004  1.00  0.00    -0.237 OA
ATOM     88  O   UNL A   1      36.583  30.906  32.953  1.00  0.00    -0.237 OA
ATOM     89  O   UNL A   1      38.221  29.114  33.277  1.00  0.00    -0.744 OA
ENDBRANCH  83  86
ENDBRANCH  55  79
BRANCH  67  90
ATOM     90  C   UNL A   1      45.741  26.221  32.897  1.00  0.00     0.023 A 
ATOM     91  C   UNL A   1      47.129  26.164  33.120  1.00  0.00     0.012 A 
ATOM     92  C   UNL A   1      44.936  25.396  33.730  1.00  0.00     0.148 A 
ATOM     93  C   UNL A   1      47.695  25.309  34.075  1.00  0.00     0.002 A 
ATOM     94  C   UNL A   1      45.493  24.639  34.757  1.00  0.00     0.091 A 
ATOM     95  F   UNL A   1      43.614  25.315  33.519  1.00  0.00    -0.205 F 
ATOM     96  C   UNL A   1      46.876  24.567  34.914  1.00  0.00     0.022 A 
BRANCH  94  97
ATOM     97  S   UNL A   1      44.452  23.872  36.009  1.00  0.00     0.127 S 
ATOM     98  O   UNL A   1      45.435  23.192  36.849  1.00  0.00    -0.237 OA
ATOM     99  O   UNL A   1      43.810  25.027  36.638  1.00  0.00    -0.237 OA
ATOM    100  O   UNL A   1      43.537  23.017  35.263  1.00  0.00    -0.744 OA
ENDBRANCH  94  97
ENDBRANCH  67  90
ENDBRANCH  41  42
ENDBRANCH  33  36
ENDBRANCH   1  32
TORSDOF 15
ENDMDL
MODEL 2
REMARK VINA RESULT:     -12.6      1.599      2.025
REMARK SMILES Cc1ccc([C@@H]2[C@H](C(=O)NCCCNC(=O)c3ccc(-c4c5nc(c(-c6cccc(S(=O)(=O)[O-])c6F)c6ccc([nH]6)c(-c6cccc(S(=O)(=O)[O-])c6F)c6nc(c(-c7cccc(S(=O)(=O)[O-])c7F)c7ccc4[nH]7)C=C6)C=C5)cc3)c3ccccc3C(=O)N2c2ccccc2)cc1
REMARK SMILES IDX 13 1 12 2 11 3 10 4 8 5 9 6 7 8 6 9 88 10 80 11 86 12 81 13
REMARK SMILES IDX 85 14 87 15 82 16 84 17 83 18 5 19 1 20 2 21 3 22 96 23 4 24
REMARK SMILES IDX 95 25 89 26 90 27 94 28 91 29 93 30 92 31 14 32 15 33 16 35
REMARK SMILES IDX 17 36 18 37 79 38 19 39 78 40 20 41 21 42 22 43 72 44 23 45
REMARK SMILES IDX 77 46 71 47 73 48 24 49 76 50 70 51 69 52 25 54 57 55 37 56
REMARK SMILES IDX 56 57 38 58 41 59 55 60 74 61 39 62 40 63 54 65 75 66 42 67
REMARK SMILES IDX 26 68 27 69 35 70 28 71 30 72 36 73 29 74 31 75 32 76 33 77
REMARK SMILES IDX 34 78 58 79 59 80 67 81 60 82 62 83 68 84 61 85 63 86 64 87
REMARK SMILES IDX 65 88 66 89 43 90 44 91 52 92 45 93 47 94 53 95 46 96 48 97
REMARK SMILES IDX 49 98 50 99 51 100
REMARK H PARENT 10 7 14 34 73 53 41 64
REMARK Flexibility Score: inf
ROOT
ATOM      1  C   UNL A   1      34.229  30.749  26.906  1.00  0.00     0.118 C 
ENDROOT
BRANCH   1   2
ATOM      2  C   UNL A   1      33.241  29.812  27.584  1.00  0.00     0.042 C 
BRANCH   2   3
ATOM      3  C   UNL A   1      33.677  28.357  27.630  1.00  0.00     0.117 C 
BRANCH   3   4
ATOM      4  N   UNL A   1      32.821  27.531  26.793  1.00  0.00    -0.355 N 
ATOM      5  C   UNL A   1      33.332  26.412  26.181  1.00  0.00     0.230 C 
ATOM      6  O   UNL A   1      33.465  25.379  26.837  1.00  0.00    -0.274 OA
ATOM      7  H   UNL A   1      31.876  27.773  26.665  1.00  0.00     0.163 HD
BRANCH   5   8
ATOM      8  C   UNL A   1      33.671  26.467  24.684  1.00  0.00     0.137 C 
ATOM      9  C   UNL A   1      33.792  25.024  24.082  1.00  0.00     0.138 C 
ATOM     10  N   UNL A   1      32.449  24.524  23.737  1.00  0.00    -0.300 N 
ATOM     11  C   UNL A   1      32.748  27.299  23.780  1.00  0.00    -0.020 A 
ATOM     12  C   UNL A   1      31.974  25.192  22.597  1.00  0.00     0.259 C 
ATOM     13  C   UNL A   1      32.672  28.691  23.915  1.00  0.00     0.005 A 
ATOM     14  C   UNL A   1      31.976  26.684  22.763  1.00  0.00     0.044 A 
ATOM     15  O   UNL A   1      31.524  24.651  21.596  1.00  0.00    -0.269 OA
ATOM     16  C   UNL A   1      31.783  29.434  23.130  1.00  0.00     0.000 A 
ATOM     17  C   UNL A   1      31.126  27.439  21.947  1.00  0.00     0.014 A 
ATOM     18  C   UNL A   1      31.012  28.811  22.150  1.00  0.00     0.001 A 
BRANCH   9  19
ATOM     19  C   UNL A   1      34.893  24.104  24.597  1.00  0.00    -0.024 A 
ATOM     20  C   UNL A   1      38.226  21.441  25.266  1.00  0.00     0.044 C 
ATOM     21  C   UNL A   1      37.011  22.316  25.185  1.00  0.00    -0.051 A 
ATOM     22  C   UNL A   1      37.044  23.639  25.631  1.00  0.00     0.004 A 
ATOM     23  C   UNL A   1      35.855  21.849  24.562  1.00  0.00     0.004 A 
ATOM     24  C   UNL A   1      35.969  24.504  25.393  1.00  0.00     0.006 A 
ATOM     25  C   UNL A   1      34.815  22.733  24.269  1.00  0.00     0.006 A 
ENDBRANCH   9  19
BRANCH  10  26
ATOM     26  C   UNL A   1      31.442  24.166  24.723  1.00  0.00     0.045 A 
ATOM     27  C   UNL A   1      30.456  25.110  25.085  1.00  0.00     0.026 A 
ATOM     28  C   UNL A   1      31.443  22.963  25.436  1.00  0.00     0.026 A 
ATOM     29  C   UNL A   1      29.582  24.896  26.155  1.00  0.00     0.002 A 
ATOM     30  C   UNL A   1      30.534  22.724  26.477  1.00  0.00     0.002 A 
ATOM     31  C   UNL A   1      29.622  23.700  26.854  1.00  0.00     0.000 A 
ENDBRANCH  10  26
ENDBRANCH   5   8
ENDBRANCH   3   4
ENDBRANCH   2   3
ENDBRANCH   1   2
BRANCH   1  32
ATOM     32  N   UNL A   1      34.878  31.640  27.860  1.00  0.00    -0.352 N 
ATOM     33  C   UNL A   1      35.920  31.397  28.733  1.00  0.00     0.251 C 
ATOM     34  H   UNL A   1      34.519  32.556  27.884  1.00  0.00     0.163 HD
ATOM     35  O   UNL A   1      36.209  32.249  29.573  1.00  0.00    -0.269 OA
BRANCH  33  36
ATOM     36  C   UNL A   1      36.743  30.183  28.558  1.00  0.00     0.039 A 
ATOM     37  C   UNL A   1      36.892  29.331  29.658  1.00  0.00     0.014 A 
ATOM     38  C   UNL A   1      37.534  30.014  27.426  1.00  0.00     0.014 A 
ATOM     39  C   UNL A   1      37.995  28.485  29.725  1.00  0.00     0.010 A 
ATOM     40  C   UNL A   1      38.677  29.253  27.525  1.00  0.00     0.010 A 
ATOM     41  C   UNL A   1      38.934  28.542  28.699  1.00  0.00    -0.014 A 
BRANCH  41  42
ATOM     42  C   UNL A   1      40.243  27.921  28.760  1.00  0.00     0.031 A 
ATOM     43  C   UNL A   1      40.383  26.478  28.522  1.00  0.00     0.074 A 
ATOM     44  C   UNL A   1      41.329  28.713  28.889  1.00  0.00     0.049 A 
ATOM     45  N   UNL A   1      41.367  25.771  28.959  1.00  0.00    -0.248 NA
ATOM     46  C   UNL A   1      39.392  25.717  27.775  1.00  0.00     0.031 C 
ATOM     47  C   UNL A   1      42.718  28.365  28.627  1.00  0.00     0.029 A 
ATOM     48  N   UNL A   1      41.396  29.971  29.497  1.00  0.00    -0.354 N 
ATOM     49  C   UNL A   1      41.289  24.547  28.333  1.00  0.00     0.074 A 
ATOM     50  C   UNL A   1      40.004  24.534  27.670  1.00  0.00     0.031 C 
ATOM     51  C   UNL A   1      43.507  29.218  29.299  1.00  0.00     0.029 A 
ATOM     52  C   UNL A   1      42.642  30.025  30.144  1.00  0.00     0.049 A 
ATOM     53  H   UNL A   1      40.709  30.676  29.476  1.00  0.00     0.167 HD
ATOM     54  C   UNL A   1      42.390  23.746  28.287  1.00  0.00     0.034 A 
ATOM     55  C   UNL A   1      42.786  30.208  31.490  1.00  0.00     0.034 A 
ATOM     56  C   UNL A   1      43.528  24.375  28.965  1.00  0.00     0.049 A 
ATOM     57  C   UNL A   1      43.546  29.077  32.160  1.00  0.00     0.074 A 
ATOM     58  C   UNL A   1      44.575  25.154  28.497  1.00  0.00     0.029 A 
ATOM     59  N   UNL A   1      43.520  24.518  30.347  1.00  0.00    -0.354 N 
ATOM     60  N   UNL A   1      43.858  27.957  31.569  1.00  0.00    -0.248 NA
ATOM     61  C   UNL A   1      43.988  29.105  33.551  1.00  0.00     0.031 C 
ATOM     62  C   UNL A   1      45.156  25.824  29.603  1.00  0.00     0.029 A 
ATOM     63  C   UNL A   1      44.482  25.436  30.747  1.00  0.00     0.049 A 
ATOM     64  H   UNL A   1      42.917  24.036  30.957  1.00  0.00     0.167 HD
ATOM     65  C   UNL A   1      44.404  27.083  32.476  1.00  0.00     0.074 A 
ATOM     66  C   UNL A   1      44.536  27.883  33.683  1.00  0.00     0.031 C 
ATOM     67  C   UNL A   1      44.642  25.771  32.159  1.00  0.00     0.034 A 
BRANCH  54  68
ATOM     68  C   UNL A   1      42.528  22.600  27.306  1.00  0.00     0.023 A 
ATOM     69  C   UNL A   1      41.788  21.426  27.566  1.00  0.00     0.012 A 
ATOM     70  C   UNL A   1      43.386  22.567  26.184  1.00  0.00     0.148 A 
ATOM     71  C   UNL A   1      41.972  20.248  26.837  1.00  0.00     0.002 A 
ATOM     72  C   UNL A   1      43.624  21.370  25.500  1.00  0.00     0.091 A 
ATOM     73  F   UNL A   1      43.930  23.706  25.738  1.00  0.00    -0.205 F 
ATOM     74  C   UNL A   1      42.921  20.207  25.829  1.00  0.00     0.022 A 
BRANCH  72  75
ATOM     75  S   UNL A   1      44.925  21.209  24.265  1.00  0.00     0.127 S 
ATOM     76  O   UNL A   1      44.554  22.231  23.284  1.00  0.00    -0.237 OA
ATOM     77  O   UNL A   1      46.131  21.514  25.030  1.00  0.00    -0.237 OA
ATOM     78  O   UNL A   1      44.820  19.845  23.759  1.00  0.00    -0.744 OA
ENDBRANCH  72  75
ENDBRANCH  54  68
BRANCH  55  79
ATOM     79  C   UNL A   1      41.677  30.996  32.106  1.00  0.00     0.023 A 
ATOM     80  C   UNL A   1      41.488  32.314  31.624  1.00  0.00     0.012 A 
ATOM     81  C   UNL A   1      40.621  30.369  32.791  1.00  0.00     0.148 A 
ATOM     82  C   UNL A   1      40.237  32.929  31.679  1.00  0.00     0.002 A 
ATOM     83  C   UNL A   1      39.376  30.996  32.852  1.00  0.00     0.091 A 
ATOM     84  F   UNL A   1      40.819  29.148  33.302  1.00  0.00    -0.205 F 
ATOM     85  C   UNL A   1      39.170  32.251  32.259  1.00  0.00     0.022 A 
BRANCH  83  86
ATOM     86  S   UNL A   1      37.955  30.165  33.578  1.00  0.00     0.127 S 
ATOM     87  O   UNL A   1      38.196  30.366  35.003  1.00  0.00    -0.237 OA
ATOM     88  O   UNL A   1      36.830  30.925  33.034  1.00  0.00    -0.237 OA
ATOM     89  O   UNL A   1      38.044  28.798  33.086  1.00  0.00    -0.744 OA
ENDBRANCH  83  86
ENDBRANCH  55  79
BRANCH  67  90
ATOM     90  C   UNL A   1      45.042  24.666  33.127  1.00  0.00     0.023 A 
ATOM     91  C   UNL A   1      44.231  23.546  33.379  1.00  0.00     0.012 A 
ATOM     92  C   UNL A   1      46.338  24.650  33.713  1.00  0.00     0.148 A 
ATOM     93  C   UNL A   1      44.652  22.492  34.202  1.00  0.00     0.002 A 
ATOM     94  C   UNL A   1      46.796  23.548  34.430  1.00  0.00     0.091 A 
ATOM     95  F   UNL A   1      47.138  25.720  33.604  1.00  0.00    -0.205 F 
ATOM     96  C   UNL A   1      45.945  22.478  34.704  1.00  0.00     0.022 A 
BRANCH  94  97
ATOM     97  S   UNL A   1      48.532  23.391  34.875  1.00  0.00     0.127 S 
ATOM     98  O   UNL A   1      48.650  24.336  35.982  1.00  0.00    -0.237 OA
ATOM     99  O   UNL A   1      48.634  21.983  35.264  1.00  0.00    -0.237 OA
ATOM    100  O   UNL A   1      49.263  23.725  33.660  1.00  0.00    -0.744 OA
ENDBRANCH  94  97
ENDBRANCH  67  90
ENDBRANCH  41  42
ENDBRANCH  33  36
ENDBRANCH   1  32
TORSDOF 15
ENDMDL
MODEL 3
REMARK VINA RESULT:     -12.5      5.109      8.979
REMARK SMILES Cc1ccc([C@@H]2[C@H](C(=O)NCCCNC(=O)c3ccc(-c4c5nc(c(-c6cccc(S(=O)(=O)[O-])c6F)c6ccc([nH]6)c(-c6cccc(S(=O)(=O)[O-])c6F)c6nc(c(-c7cccc(S(=O)(=O)[O-])c7F)c7ccc4[nH]7)C=C6)C=C5)cc3)c3ccccc3C(=O)N2c2ccccc2)cc1
REMARK SMILES IDX 13 1 12 2 11 3 10 4 8 5 9 6 7 8 6 9 88 10 80 11 86 12 81 13
REMARK SMILES IDX 85 14 87 15 82 16 84 17 83 18 5 19 1 20 2 21 3 22 96 23 4 24
REMARK SMILES IDX 95 25 89 26 90 27 94 28 91 29 93 30 92 31 14 32 15 33 16 35
REMARK SMILES IDX 17 36 18 37 79 38 19 39 78 40 20 41 21 42 22 43 72 44 23 45
REMARK SMILES IDX 77 46 71 47 73 48 24 49 76 50 70 51 69 52 25 54 57 55 37 56
REMARK SMILES IDX 56 57 38 58 41 59 55 60 74 61 39 62 40 63 54 65 75 66 42 67
REMARK SMILES IDX 26 68 27 69 35 70 28 71 30 72 36 73 29 74 31 75 32 76 33 77
REMARK SMILES IDX 34 78 58 79 59 80 67 81 60 82 62 83 68 84 61 85 63 86 64 87
REMARK SMILES IDX 65 88 66 89 43 90 44 91 52 92 45 93 47 94 53 95 46 96 48 97
REMARK SMILES IDX 49 98 50 99 51 100
REMARK H PARENT 10 7 14 34 73 53 41 64
REMARK Flexibility Score: inf
ROOT
ATOM      1  C   UNL A   1      38.567  31.713  29.723  1.00  0.00     0.118 C 
ENDROOT
BRANCH   1   2
ATOM      2  C   UNL A   1      39.225  32.835  30.509  1.00  0.00     0.042 C 
BRANCH   2   3
ATOM      3  C   UNL A   1      38.257  33.744  31.248  1.00  0.00     0.117 C 
BRANCH   3   4
ATOM      4  N   UNL A   1      38.968  34.635  32.152  1.00  0.00    -0.355 N 
ATOM      5  C   UNL A   1      39.234  34.237  33.440  1.00  0.00     0.230 C 
ATOM      6  O   UNL A   1      40.182  33.481  33.648  1.00  0.00    -0.274 OA
ATOM      7  H   UNL A   1      39.258  35.523  31.841  1.00  0.00     0.163 HD
BRANCH   5   8
ATOM      8  C   UNL A   1      38.374  34.789  34.586  1.00  0.00     0.137 C 
ATOM      9  C   UNL A   1      37.073  33.935  34.775  1.00  0.00     0.138 C 
ATOM     10  N   UNL A   1      37.378  32.755  35.603  1.00  0.00    -0.300 N 
ATOM     11  C   UNL A   1      39.049  34.962  35.957  1.00  0.00    -0.020 A 
ATOM     12  C   UNL A   1      37.571  33.149  36.937  1.00  0.00     0.259 C 
ATOM     13  C   UNL A   1      40.074  35.900  36.140  1.00  0.00     0.005 A 
ATOM     14  C   UNL A   1      38.629  34.204  37.077  1.00  0.00     0.044 A 
ATOM     15  O   UNL A   1      37.016  32.652  37.907  1.00  0.00    -0.269 OA
ATOM     16  C   UNL A   1      40.724  36.008  37.374  1.00  0.00     0.000 A 
ATOM     17  C   UNL A   1      39.251  34.351  38.322  1.00  0.00     0.014 A 
ATOM     18  C   UNL A   1      40.316  35.236  38.461  1.00  0.00     0.001 A 
BRANCH   9  19
ATOM     19  C   UNL A   1      36.054  33.889  33.642  1.00  0.00    -0.024 A 
ATOM     20  C   UNL A   1      33.777  34.072  29.977  1.00  0.00     0.044 C 
ATOM     21  C   UNL A   1      34.419  34.003  31.331  1.00  0.00    -0.051 A 
ATOM     22  C   UNL A   1      34.777  32.777  31.896  1.00  0.00     0.004 A 
ATOM     23  C   UNL A   1      34.765  35.175  32.000  1.00  0.00     0.004 A 
ATOM     24  C   UNL A   1      35.534  32.724  33.074  1.00  0.00     0.006 A 
ATOM     25  C   UNL A   1      35.575  35.116  33.135  1.00  0.00     0.006 A 
ENDBRANCH   9  19
BRANCH  10  26
ATOM     26  C   UNL A   1      38.197  31.641  35.151  1.00  0.00     0.045 A 
ATOM     27  C   UNL A   1      39.348  31.280  35.885  1.00  0.00     0.026 A 
ATOM     28  C   UNL A   1      37.982  30.952  33.953  1.00  0.00     0.026 A 
ATOM     29  C   UNL A   1      40.274  30.349  35.403  1.00  0.00     0.002 A 
ATOM     30  C   UNL A   1      38.882  29.980  33.491  1.00  0.00     0.002 A 
ATOM     31  C   UNL A   1      40.040  29.697  34.202  1.00  0.00     0.000 A 
ENDBRANCH  10  26
ENDBRANCH   5   8
ENDBRANCH   3   4
ENDBRANCH   2   3
ENDBRANCH   1   2
BRANCH   1  32
ATOM     32  N   UNL A   1      37.459  31.110  30.455  1.00  0.00    -0.352 N 
ATOM     33  C   UNL A   1      36.959  29.824  30.407  1.00  0.00     0.251 C 
ATOM     34  H   UNL A   1      36.997  31.713  31.082  1.00  0.00     0.163 HD
ATOM     35  O   UNL A   1      35.907  29.568  30.991  1.00  0.00    -0.269 OA
BRANCH  33  36
ATOM     36  C   UNL A   1      37.759  28.760  29.765  1.00  0.00     0.039 A 
ATOM     37  C   UNL A   1      38.617  28.010  30.575  1.00  0.00     0.014 A 
ATOM     38  C   UNL A   1      37.838  28.664  28.379  1.00  0.00     0.014 A 
ATOM     39  C   UNL A   1      39.713  27.369  30.005  1.00  0.00     0.010 A 
ATOM     40  C   UNL A   1      38.969  28.116  27.818  1.00  0.00     0.010 A 
ATOM     41  C   UNL A   1      39.933  27.527  28.639  1.00  0.00    -0.014 A 
BRANCH  41  42
ATOM     42  C   UNL A   1      41.156  27.144  27.962  1.00  0.00     0.031 A 
ATOM     43  C   UNL A   1      41.553  25.730  27.908  1.00  0.00     0.074 A 
ATOM     44  C   UNL A   1      41.832  28.083  27.267  1.00  0.00     0.049 A 
ATOM     45  N   UNL A   1      42.765  25.331  27.735  1.00  0.00    -0.248 NA
ATOM     46  C   UNL A   1      40.589  24.649  28.065  1.00  0.00     0.031 C 
ATOM     47  C   UNL A   1      42.855  27.872  26.252  1.00  0.00     0.029 A 
ATOM     48  N   UNL A   1      41.860  29.461  27.504  1.00  0.00    -0.354 N 
ATOM     49  C   UNL A   1      42.709  23.978  27.485  1.00  0.00     0.074 A 
ATOM     50  C   UNL A   1      41.348  23.587  27.779  1.00  0.00     0.031 C 
ATOM     51  C   UNL A   1      43.592  28.989  26.149  1.00  0.00     0.029 A 
ATOM     52  C   UNL A   1      43.169  29.880  27.217  1.00  0.00     0.049 A 
ATOM     53  H   UNL A   1      41.112  30.023  27.811  1.00  0.00     0.167 HD
ATOM     54  C   UNL A   1      43.765  23.363  26.883  1.00  0.00     0.034 A 
ATOM     55  C   UNL A   1      43.990  30.474  28.134  1.00  0.00     0.034 A 
ATOM     56  C   UNL A   1      44.840  24.319  26.601  1.00  0.00     0.049 A 
ATOM     57  C   UNL A   1      45.287  29.712  28.342  1.00  0.00     0.074 A 
ATOM     58  C   UNL A   1      45.152  25.063  25.473  1.00  0.00     0.029 A 
ATOM     59  N   UNL A   1      45.577  24.864  27.645  1.00  0.00    -0.354 N 
ATOM     60  N   UNL A   1      45.521  28.522  27.861  1.00  0.00    -0.248 NA
ATOM     61  C   UNL A   1      46.408  30.215  29.131  1.00  0.00     0.031 C 
ATOM     62  C   UNL A   1      46.029  26.107  25.861  1.00  0.00     0.029 A 
ATOM     63  C   UNL A   1      46.274  25.985  27.217  1.00  0.00     0.049 A 
ATOM     64  H   UNL A   1      45.600  24.506  28.561  1.00  0.00     0.167 HD
ATOM     65  C   UNL A   1      46.712  28.044  28.347  1.00  0.00     0.074 A 
ATOM     66  C   UNL A   1      47.263  29.177  29.072  1.00  0.00     0.031 C 
ATOM     67  C   UNL A   1      47.101  26.744  28.151  1.00  0.00     0.034 A 
BRANCH  54  68
ATOM     68  C   UNL A   1      43.650  22.008  26.215  1.00  0.00     0.023 A 
ATOM     69  C   UNL A   1      42.429  21.313  26.354  1.00  0.00     0.012 A 
ATOM     70  C   UNL A   1      44.680  21.337  25.519  1.00  0.00     0.148 A 
ATOM     71  C   UNL A   1      42.269  19.989  25.939  1.00  0.00     0.002 A 
ATOM     72  C   UNL A   1      44.547  19.988  25.169  1.00  0.00     0.091 A 
ATOM     73  F   UNL A   1      45.771  22.015  25.142  1.00  0.00    -0.205 F 
ATOM     74  C   UNL A   1      43.342  19.311  25.383  1.00  0.00     0.022 A 
BRANCH  72  75
ATOM     75  S   UNL A   1      45.930  19.010  24.557  1.00  0.00     0.127 S 
ATOM     76  O   UNL A   1      45.863  17.812  25.398  1.00  0.00    -0.237 OA
ATOM     77  O   UNL A   1      45.570  18.790  23.159  1.00  0.00    -0.237 OA
ATOM     78  O   UNL A   1      47.119  19.823  24.789  1.00  0.00    -0.744 OA
ENDBRANCH  72  75
ENDBRANCH  54  68
BRANCH  55  79
ATOM     79  C   UNL A   1      43.255  31.244  29.180  1.00  0.00     0.023 A 
ATOM     80  C   UNL A   1      42.808  30.516  30.310  1.00  0.00     0.012 A 
ATOM     81  C   UNL A   1      43.363  32.642  29.277  1.00  0.00     0.148 A 
ATOM     82  C   UNL A   1      42.629  31.141  31.545  1.00  0.00     0.002 A 
ATOM     83  C   UNL A   1      43.170  33.261  30.513  1.00  0.00     0.091 A 
ATOM     84  F   UNL A   1      43.725  33.337  28.192  1.00  0.00    -0.205 F 
ATOM     85  C   UNL A   1      42.849  32.509  31.654  1.00  0.00     0.022 A 
BRANCH  83  86
ATOM     86  S   UNL A   1      43.453  35.025  30.719  1.00  0.00     0.127 S 
ATOM     87  O   UNL A   1      42.432  35.589  29.842  1.00  0.00    -0.237 OA
ATOM     88  O   UNL A   1      43.209  35.222  32.148  1.00  0.00    -0.237 OA
ATOM     89  O   UNL A   1      44.838  35.220  30.319  1.00  0.00    -0.744 OA
ENDBRANCH  83  86
ENDBRANCH  55  79
BRANCH  67  90
ATOM     90  C   UNL A   1      48.282  26.045  28.809  1.00  0.00     0.023 A 
ATOM     91  C   UNL A   1      49.433  25.665  28.097  1.00  0.00     0.012 A 
ATOM     92  C   UNL A   1      48.330  25.876  30.220  1.00  0.00     0.148 A 
ATOM     93  C   UNL A   1      50.550  25.105  28.732  1.00  0.00     0.002 A 
ATOM     94  C   UNL A   1      49.485  25.433  30.858  1.00  0.00     0.091 A 
ATOM     95  F   UNL A   1      47.241  26.121  30.964  1.00  0.00    -0.205 F 
ATOM     96  C   UNL A   1      50.588  25.016  30.116  1.00  0.00     0.022 A 
BRANCH  94  97
ATOM     97  S   UNL A   1      49.653  25.543  32.647  1.00  0.00     0.127 S 
ATOM     98  O   UNL A   1      49.689  26.987  32.862  1.00  0.00    -0.237 OA
ATOM     99  O   UNL A   1      48.432  24.888  33.121  1.00  0.00    -0.237 OA
ATOM    100  O   UNL A   1      50.876  24.813  32.954  1.00  0.00    -0.744 OA
ENDBRANCH  94  97
ENDBRANCH  67  90
ENDBRANCH  41  42
ENDBRANCH  33  36
ENDBRANCH   1  32
TORSDOF 15
ENDMDL
