MODEL 1
REMARK VINA RESULT:     -11.7      0.000      0.000
REMARK SMILES CC[C@H](C(=O)NCCCNC(=O)c1ccc(-c2c3nc(c(-c4cccc(S(=O)(=O)[O-])c4F)c4ccc([nH]4)c(-c4cccc(S(=O)(=O)[O-])c4F)c4nc(c(-c5cccc(S(=O)(=O)[O-])c5F)c5ccc2[nH]5)C=C4)C=C3)cc1)N1C(=O)/C(=C\c2cccs2)SC1=S
REMARK SMILES IDX 8 1 7 2 6 3 4 4 5 5 3 7 2 8 1 9 76 10 77 11 87 12 78 13
REMARK SMILES IDX 79 14 86 15 88 16 80 17 81 18 82 19 85 20 83 21 84 22 9 23
REMARK SMILES IDX 10 24 11 25 12 27 13 28 14 29 75 30 15 31 74 32 16 33 17 34
REMARK SMILES IDX 18 35 68 36 19 37 73 38 67 39 69 40 20 41 72 42 66 43 65 44
REMARK SMILES IDX 21 46 53 47 33 48 52 49 34 50 37 51 51 52 70 53 35 54 36 55
REMARK SMILES IDX 50 57 71 58 38 59 22 60 23 61 31 62 24 63 26 64 32 65 25 66
REMARK SMILES IDX 27 67 28 68 29 69 30 70 54 71 55 72 63 73 56 74 58 75 64 76
REMARK SMILES IDX 57 77 59 78 60 79 61 80 62 81 39 82 40 83 48 84 41 85 43 86
REMARK SMILES IDX 49 87 42 88 44 89 45 90 46 91 47 92
REMARK H PARENT 6 6 10 26 69 45 37 56
REMARK Flexibility Score: inf
ROOT
ATOM      1  C   UNL A   1      31.467  32.044  26.971  1.00  0.00     0.042 C 
ENDROOT
BRANCH   1   2
ATOM      2  C   UNL A   1      31.665  30.848  26.051  1.00  0.00     0.117 C 
BRANCH   2   3
ATOM      3  N   UNL A   1      32.708  29.942  26.510  1.00  0.00    -0.354 N 
ATOM      4  C   UNL A   1      33.303  28.904  25.842  1.00  0.00     0.243 C 
ATOM      5  O   UNL A   1      34.256  28.328  26.372  1.00  0.00    -0.273 OA
ATOM      6  H   UNL A   1      33.030  30.096  27.428  1.00  0.00     0.163 HD
BRANCH   4   7
ATOM      7  C   UNL A   1      32.832  28.573  24.410  1.00  0.00     0.181 C 
BRANCH   7   8
ATOM      8  C   UNL A   1      34.147  28.201  23.654  1.00  0.00     0.032 C 
ATOM      9  C   UNL A   1      34.061  28.294  22.131  1.00  0.00     0.006 C 
ENDBRANCH   7   8
BRANCH   7  10
ATOM     10  N   UNL A   1      31.760  27.544  24.387  1.00  0.00    -0.280 N 
ATOM     11  C   UNL A   1      32.084  26.217  24.588  1.00  0.00     0.266 C 
ATOM     12  C   UNL A   1      30.534  27.700  23.763  1.00  0.00     0.149 C 
ATOM     13  O   UNL A   1      33.213  25.750  24.571  1.00  0.00    -0.268 OA
ATOM     14  C   UNL A   1      30.863  25.372  24.661  1.00  0.00     0.081 C 
ATOM     15  S   UNL A   1      29.540  26.258  24.023  1.00  0.00    -0.054 SA
ATOM     16  S   UNL A   1      29.973  28.969  22.834  1.00  0.00    -0.052 S 
ATOM     17  C   UNL A   1      30.785  24.114  25.119  1.00  0.00     0.040 C 
BRANCH  17  18
ATOM     18  C   UNL A   1      31.909  23.440  25.675  1.00  0.00     0.028 A 
ATOM     19  C   UNL A   1      32.418  23.499  26.963  1.00  0.00     0.020 A 
ATOM     20  S   UNL A   1      32.862  22.401  24.694  1.00  0.00    -0.144 S 
ATOM     21  C   UNL A   1      33.641  22.783  27.107  1.00  0.00     0.012 A 
ATOM     22  C   UNL A   1      34.007  22.156  25.939  1.00  0.00     0.065 A 
ENDBRANCH  17  18
ENDBRANCH   7  10
ENDBRANCH   4   7
ENDBRANCH   2   3
ENDBRANCH   1   2
BRANCH   1  23
ATOM     23  C   UNL A   1      32.752  32.789  27.313  1.00  0.00     0.118 C 
BRANCH  23  24
ATOM     24  N   UNL A   1      32.516  34.176  27.700  1.00  0.00    -0.352 N 
ATOM     25  C   UNL A   1      33.106  34.930  28.684  1.00  0.00     0.251 C 
ATOM     26  H   UNL A   1      31.828  34.642  27.174  1.00  0.00     0.163 HD
ATOM     27  O   UNL A   1      32.649  36.040  28.946  1.00  0.00    -0.269 OA
BRANCH  25  28
ATOM     28  C   UNL A   1      34.269  34.411  29.437  1.00  0.00     0.039 A 
ATOM     29  C   UNL A   1      34.044  33.722  30.634  1.00  0.00     0.014 A 
ATOM     30  C   UNL A   1      35.575  34.619  28.984  1.00  0.00     0.014 A 
ATOM     31  C   UNL A   1      35.124  33.184  31.339  1.00  0.00     0.010 A 
ATOM     32  C   UNL A   1      36.642  34.026  29.653  1.00  0.00     0.010 A 
ATOM     33  C   UNL A   1      36.430  33.306  30.838  1.00  0.00    -0.014 A 
BRANCH  33  34
ATOM     34  C   UNL A   1      37.586  32.676  31.521  1.00  0.00     0.031 A 
ATOM     35  C   UNL A   1      38.303  31.517  30.885  1.00  0.00     0.074 A 
ATOM     36  C   UNL A   1      37.913  33.070  32.768  1.00  0.00     0.049 A 
ATOM     37  N   UNL A   1      39.276  30.788  31.366  1.00  0.00    -0.248 NA
ATOM     38  C   UNL A   1      37.847  31.102  29.548  1.00  0.00     0.031 C 
ATOM     39  C   UNL A   1      37.227  34.116  33.531  1.00  0.00     0.029 A 
ATOM     40  N   UNL A   1      38.878  32.611  33.628  1.00  0.00    -0.354 N 
ATOM     41  C   UNL A   1      39.513  29.800  30.420  1.00  0.00     0.074 A 
ATOM     42  C   UNL A   1      38.575  30.013  29.340  1.00  0.00     0.031 C 
ATOM     43  C   UNL A   1      37.785  34.209  34.749  1.00  0.00     0.029 A 
ATOM     44  C   UNL A   1      38.857  33.224  34.859  1.00  0.00     0.049 A 
ATOM     45  H   UNL A   1      39.525  31.910  33.387  1.00  0.00     0.167 HD
ATOM     46  C   UNL A   1      40.449  28.821  30.434  1.00  0.00     0.034 A 
ATOM     47  C   UNL A   1      39.613  33.013  35.955  1.00  0.00     0.034 A 
ATOM     48  C   UNL A   1      41.436  28.665  31.467  1.00  0.00     0.049 A 
ATOM     49  C   UNL A   1      40.710  31.987  35.901  1.00  0.00     0.074 A 
ATOM     50  C   UNL A   1      42.511  27.795  31.503  1.00  0.00     0.029 A 
ATOM     51  N   UNL A   1      41.471  29.396  32.642  1.00  0.00    -0.354 N 
ATOM     52  N   UNL A   1      41.050  31.197  34.912  1.00  0.00    -0.248 NA
ATOM     53  C   UNL A   1      41.555  31.850  37.097  1.00  0.00     0.031 C 
ATOM     54  C   UNL A   1      43.199  28.001  32.704  1.00  0.00     0.029 A 
ATOM     55  C   UNL A   1      42.547  28.997  33.414  1.00  0.00     0.049 A 
ATOM     56  H   UNL A   1      40.826  30.096  32.892  1.00  0.00     0.167 HD
ATOM     57  C   UNL A   1      42.164  30.491  35.353  1.00  0.00     0.074 A 
ATOM     58  C   UNL A   1      42.456  30.963  36.691  1.00  0.00     0.031 C 
ATOM     59  C   UNL A   1      42.867  29.524  34.716  1.00  0.00     0.034 A 
BRANCH  46  60
ATOM     60  C   UNL A   1      40.505  27.887  29.257  1.00  0.00     0.023 A 
ATOM     61  C   UNL A   1      39.596  26.813  29.189  1.00  0.00     0.012 A 
ATOM     62  C   UNL A   1      41.396  28.111  28.190  1.00  0.00     0.148 A 
ATOM     63  C   UNL A   1      39.587  25.961  28.087  1.00  0.00     0.002 A 
ATOM     64  C   UNL A   1      41.360  27.274  27.079  1.00  0.00     0.091 A 
ATOM     65  F   UNL A   1      42.271  29.122  28.286  1.00  0.00    -0.205 F 
ATOM     66  C   UNL A   1      40.461  26.197  27.029  1.00  0.00     0.022 A 
BRANCH  64  67
ATOM     67  S   UNL A   1      42.402  27.540  25.640  1.00  0.00     0.127 S 
ATOM     68  O   UNL A   1      43.735  27.553  26.239  1.00  0.00    -0.237 OA
ATOM     69  O   UNL A   1      42.113  26.362  24.822  1.00  0.00    -0.237 OA
ATOM     70  O   UNL A   1      41.961  28.800  25.058  1.00  0.00    -0.744 OA
ENDBRANCH  64  67
ENDBRANCH  46  60
BRANCH  47  71
ATOM     71  C   UNL A   1      39.411  33.858  37.164  1.00  0.00     0.023 A 
ATOM     72  C   UNL A   1      39.826  35.204  37.136  1.00  0.00     0.012 A 
ATOM     73  C   UNL A   1      38.779  33.361  38.318  1.00  0.00     0.148 A 
ATOM     74  C   UNL A   1      39.636  36.031  38.244  1.00  0.00     0.002 A 
ATOM     75  C   UNL A   1      38.548  34.204  39.401  1.00  0.00     0.091 A 
ATOM     76  F   UNL A   1      38.407  32.072  38.340  1.00  0.00    -0.205 F 
ATOM     77  C   UNL A   1      38.988  35.535  39.372  1.00  0.00     0.022 A 
BRANCH  75  78
ATOM     78  S   UNL A   1      37.595  33.655  40.822  1.00  0.00     0.127 S 
ATOM     79  O   UNL A   1      38.504  32.699  41.446  1.00  0.00    -0.237 OA
ATOM     80  O   UNL A   1      37.399  34.896  41.572  1.00  0.00    -0.237 OA
ATOM     81  O   UNL A   1      36.368  33.110  40.255  1.00  0.00    -0.744 OA
ENDBRANCH  75  78
ENDBRANCH  47  71
BRANCH  59  82
ATOM     82  C   UNL A   1      44.034  28.915  35.442  1.00  0.00     0.023 A 
ATOM     83  C   UNL A   1      45.317  29.472  35.272  1.00  0.00     0.012 A 
ATOM     84  C   UNL A   1      43.852  27.858  36.354  1.00  0.00     0.148 A 
ATOM     85  C   UNL A   1      46.405  28.973  35.985  1.00  0.00     0.002 A 
ATOM     86  C   UNL A   1      44.935  27.389  37.089  1.00  0.00     0.091 A 
ATOM     87  F   UNL A   1      42.629  27.324  36.484  1.00  0.00    -0.205 F 
ATOM     88  C   UNL A   1      46.213  27.940  36.902  1.00  0.00     0.022 A 
BRANCH  86  89
ATOM     89  S   UNL A   1      44.742  26.122  38.349  1.00  0.00     0.127 S 
ATOM     90  O   UNL A   1      43.977  25.102  37.634  1.00  0.00    -0.237 OA
ATOM     91  O   UNL A   1      46.127  25.749  38.643  1.00  0.00    -0.237 OA
ATOM     92  O   UNL A   1      44.053  26.777  39.453  1.00  0.00    -0.744 OA
ENDBRANCH  86  89
ENDBRANCH  59  82
ENDBRANCH  33  34
ENDBRANCH  25  28
ENDBRANCH  23  24
ENDBRANCH   1  23
TORSDOF 16
ENDMDL
MODEL 2
REMARK VINA RESULT:     -11.5      1.490      1.948
REMARK SMILES CC[C@H](C(=O)NCCCNC(=O)c1ccc(-c2c3nc(c(-c4cccc(S(=O)(=O)[O-])c4F)c4ccc([nH]4)c(-c4cccc(S(=O)(=O)[O-])c4F)c4nc(c(-c5cccc(S(=O)(=O)[O-])c5F)c5ccc2[nH]5)C=C4)C=C3)cc1)N1C(=O)/C(=C\c2cccs2)SC1=S
REMARK SMILES IDX 8 1 7 2 6 3 4 4 5 5 3 7 2 8 1 9 76 10 77 11 87 12 78 13
REMARK SMILES IDX 79 14 86 15 88 16 80 17 81 18 82 19 85 20 83 21 84 22 9 23
REMARK SMILES IDX 10 24 11 25 12 27 13 28 14 29 75 30 15 31 74 32 16 33 17 34
REMARK SMILES IDX 18 35 68 36 19 37 73 38 67 39 69 40 20 41 72 42 66 43 65 44
REMARK SMILES IDX 21 46 53 47 33 48 52 49 34 50 37 51 51 52 70 53 35 54 36 55
REMARK SMILES IDX 50 57 71 58 38 59 22 60 23 61 31 62 24 63 26 64 32 65 25 66
REMARK SMILES IDX 27 67 28 68 29 69 30 70 54 71 55 72 63 73 56 74 58 75 64 76
REMARK SMILES IDX 57 77 59 78 60 79 61 80 62 81 39 82 40 83 48 84 41 85 43 86
REMARK SMILES IDX 49 87 42 88 44 89 45 90 46 91 47 92
REMARK H PARENT 6 6 10 26 69 45 37 56
REMARK Flexibility Score: inf
ROOT
ATOM      1  C   UNL A   1      31.248  32.153  26.626  1.00  0.00     0.042 C 
ENDROOT
BRANCH   1   2
ATOM      2  C   UNL A   1      31.337  30.795  25.947  1.00  0.00     0.117 C 
BRANCH   2   3
ATOM      3  N   UNL A   1      32.456  29.993  26.419  1.00  0.00    -0.354 N 
ATOM      4  C   UNL A   1      33.149  29.010  25.763  1.00  0.00     0.243 C 
ATOM      5  O   UNL A   1      34.148  28.528  26.304  1.00  0.00    -0.273 OA
ATOM      6  H   UNL A   1      32.757  30.182  27.338  1.00  0.00     0.163 HD
BRANCH   4   7
ATOM      7  C   UNL A   1      32.721  28.625  24.331  1.00  0.00     0.181 C 
BRANCH   7   8
ATOM      8  C   UNL A   1      34.066  28.308  23.605  1.00  0.00     0.032 C 
ATOM      9  C   UNL A   1      33.988  28.309  22.078  1.00  0.00     0.006 C 
ENDBRANCH   7   8
BRANCH   7  10
ATOM     10  N   UNL A   1      31.704  27.542  24.313  1.00  0.00    -0.280 N 
ATOM     11  C   UNL A   1      32.098  26.234  24.517  1.00  0.00     0.266 C 
ATOM     12  C   UNL A   1      30.471  27.631  23.690  1.00  0.00     0.149 C 
ATOM     13  O   UNL A   1      33.250  25.827  24.501  1.00  0.00    -0.268 OA
ATOM     14  C   UNL A   1      30.924  25.326  24.594  1.00  0.00     0.081 C 
ATOM     15  S   UNL A   1      29.555  26.140  23.955  1.00  0.00    -0.054 SA
ATOM     16  S   UNL A   1      29.843  28.866  22.757  1.00  0.00    -0.052 S 
ATOM     17  C   UNL A   1      30.912  24.067  25.056  1.00  0.00     0.040 C 
BRANCH  17  18
ATOM     18  C   UNL A   1      32.070  23.455  25.613  1.00  0.00     0.028 A 
ATOM     19  C   UNL A   1      32.582  23.553  26.897  1.00  0.00     0.020 A 
ATOM     20  S   UNL A   1      33.068  22.453  24.637  1.00  0.00    -0.144 S 
ATOM     21  C   UNL A   1      33.840  22.898  27.042  1.00  0.00     0.012 A 
ATOM     22  C   UNL A   1      34.230  22.278  25.878  1.00  0.00     0.065 A 
ENDBRANCH  17  18
ENDBRANCH   7  10
ENDBRANCH   4   7
ENDBRANCH   2   3
ENDBRANCH   1   2
BRANCH   1  23
ATOM     23  C   UNL A   1      32.597  32.822  26.864  1.00  0.00     0.118 C 
BRANCH  23  24
ATOM     24  N   UNL A   1      32.480  34.098  27.562  1.00  0.00    -0.352 N 
ATOM     25  C   UNL A   1      33.186  34.585  28.636  1.00  0.00     0.251 C 
ATOM     26  H   UNL A   1      31.788  34.703  27.210  1.00  0.00     0.163 HD
ATOM     27  O   UNL A   1      32.821  35.629  29.170  1.00  0.00    -0.269 OA
BRANCH  25  28
ATOM     28  C   UNL A   1      34.362  33.856  29.158  1.00  0.00     0.039 A 
ATOM     29  C   UNL A   1      35.641  34.298  28.802  1.00  0.00     0.014 A 
ATOM     30  C   UNL A   1      34.213  32.731  29.973  1.00  0.00     0.014 A 
ATOM     31  C   UNL A   1      36.768  33.653  29.318  1.00  0.00     0.010 A 
ATOM     32  C   UNL A   1      35.334  32.131  30.539  1.00  0.00     0.010 A 
ATOM     33  C   UNL A   1      36.623  32.583  30.216  1.00  0.00    -0.014 A 
BRANCH  33  34
ATOM     34  C   UNL A   1      37.799  31.931  30.843  1.00  0.00     0.031 A 
ATOM     35  C   UNL A   1      38.561  30.867  30.103  1.00  0.00     0.074 A 
ATOM     36  C   UNL A   1      38.105  32.212  32.125  1.00  0.00     0.049 A 
ATOM     37  N   UNL A   1      39.558  30.131  30.518  1.00  0.00    -0.248 NA
ATOM     38  C   UNL A   1      38.127  30.569  28.727  1.00  0.00     0.031 C 
ATOM     39  C   UNL A   1      37.378  33.152  32.982  1.00  0.00     0.029 A 
ATOM     40  N   UNL A   1      39.083  31.706  32.944  1.00  0.00    -0.354 N 
ATOM     41  C   UNL A   1      39.836  29.249  29.480  1.00  0.00     0.074 A 
ATOM     42  C   UNL A   1      38.896  29.533  28.419  1.00  0.00     0.031 C 
ATOM     43  C   UNL A   1      37.927  33.145  34.208  1.00  0.00     0.029 A 
ATOM     44  C   UNL A   1      39.034  32.193  34.229  1.00  0.00     0.049 A 
ATOM     45  H   UNL A   1      39.757  31.056  32.640  1.00  0.00     0.167 HD
ATOM     46  C   UNL A   1      40.807  28.309  29.406  1.00  0.00     0.034 A 
ATOM     47  C   UNL A   1      39.792  31.903  35.305  1.00  0.00     0.034 A 
ATOM     48  C   UNL A   1      41.795  28.088  30.427  1.00  0.00     0.049 A 
ATOM     49  C   UNL A   1      40.927  30.929  35.160  1.00  0.00     0.074 A 
ATOM     50  C   UNL A   1      42.901  27.258  30.385  1.00  0.00     0.029 A 
ATOM     51  N   UNL A   1      41.797  28.700  31.668  1.00  0.00    -0.354 N 
ATOM     52  N   UNL A   1      41.300  30.252  34.101  1.00  0.00    -0.248 NA
ATOM     53  C   UNL A   1      41.771  30.705  36.343  1.00  0.00     0.031 C 
ATOM     54  C   UNL A   1      43.575  27.370  31.607  1.00  0.00     0.029 A 
ATOM     55  C   UNL A   1      42.884  28.266  32.406  1.00  0.00     0.049 A 
ATOM     56  H   UNL A   1      41.126  29.349  31.980  1.00  0.00     0.167 HD
ATOM     57  C   UNL A   1      42.437  29.548  34.479  1.00  0.00     0.074 A 
ATOM     58  C   UNL A   1      42.706  29.896  35.860  1.00  0.00     0.031 C 
ATOM     59  C   UNL A   1      43.178  28.674  33.756  1.00  0.00     0.034 A 
BRANCH  46  60
ATOM     60  C   UNL A   1      40.903  27.498  28.143  1.00  0.00     0.023 A 
ATOM     61  C   UNL A   1      41.550  28.050  27.020  1.00  0.00     0.012 A 
ATOM     62  C   UNL A   1      40.425  26.175  28.088  1.00  0.00     0.148 A 
ATOM     63  C   UNL A   1      41.701  27.306  25.852  1.00  0.00     0.002 A 
ATOM     64  C   UNL A   1      40.608  25.428  26.929  1.00  0.00     0.091 A 
ATOM     65  F   UNL A   1      39.788  25.678  29.158  1.00  0.00    -0.205 F 
ATOM     66  C   UNL A   1      41.240  25.993  25.810  1.00  0.00     0.022 A 
BRANCH  64  67
ATOM     67  S   UNL A   1      40.105  23.707  26.804  1.00  0.00     0.127 S 
ATOM     68  O   UNL A   1      38.724  23.836  26.343  1.00  0.00    -0.237 OA
ATOM     69  O   UNL A   1      41.035  23.181  25.805  1.00  0.00    -0.237 OA
ATOM     70  O   UNL A   1      40.274  23.147  28.138  1.00  0.00    -0.744 OA
ENDBRANCH  64  67
ENDBRANCH  46  60
BRANCH  47  71
ATOM     71  C   UNL A   1      39.554  32.618  36.590  1.00  0.00     0.023 A 
ATOM     72  C   UNL A   1      40.289  33.786  36.870  1.00  0.00     0.012 A 
ATOM     73  C   UNL A   1      38.584  32.181  37.511  1.00  0.00     0.148 A 
ATOM     74  C   UNL A   1      40.078  34.492  38.055  1.00  0.00     0.002 A 
ATOM     75  C   UNL A   1      38.346  32.917  38.667  1.00  0.00     0.091 A 
ATOM     76  F   UNL A   1      37.905  31.055  37.242  1.00  0.00    -0.205 F 
ATOM     77  C   UNL A   1      39.100  34.065  38.949  1.00  0.00     0.022 A 
BRANCH  75  78
ATOM     78  S   UNL A   1      37.003  32.489  39.783  1.00  0.00     0.127 S 
ATOM     79  O   UNL A   1      35.844  32.541  38.897  1.00  0.00    -0.237 OA
ATOM     80  O   UNL A   1      37.376  31.145  40.229  1.00  0.00    -0.237 OA
ATOM     81  O   UNL A   1      37.061  33.496  40.834  1.00  0.00    -0.744 OA
ENDBRANCH  75  78
ENDBRANCH  47  71
BRANCH  59  82
ATOM     82  C   UNL A   1      44.364  28.040  34.428  1.00  0.00     0.023 A 
ATOM     83  C   UNL A   1      45.610  28.697  34.390  1.00  0.00     0.012 A 
ATOM     84  C   UNL A   1      44.230  26.850  35.167  1.00  0.00     0.148 A 
ATOM     85  C   UNL A   1      46.710  28.167  35.062  1.00  0.00     0.002 A 
ATOM     86  C   UNL A   1      45.322  26.346  35.866  1.00  0.00     0.091 A 
ATOM     87  F   UNL A   1      43.043  26.225  35.172  1.00  0.00    -0.205 F 
ATOM     88  C   UNL A   1      46.564  26.999  35.810  1.00  0.00     0.022 A 
BRANCH  86  89
ATOM     89  S   UNL A   1      45.181  24.897  36.919  1.00  0.00     0.127 S 
ATOM     90  O   UNL A   1      46.546  24.757  37.421  1.00  0.00    -0.237 OA
ATOM     91  O   UNL A   1      44.204  25.323  37.922  1.00  0.00    -0.237 OA
ATOM     92  O   UNL A   1      44.712  23.829  36.045  1.00  0.00    -0.744 OA
ENDBRANCH  86  89
ENDBRANCH  59  82
ENDBRANCH  33  34
ENDBRANCH  25  28
ENDBRANCH  23  24
ENDBRANCH   1  23
TORSDOF 16
ENDMDL
MODEL 3
REMARK VINA RESULT:     -11.5      3.799      9.101
REMARK SMILES CC[C@H](C(=O)NCCCNC(=O)c1ccc(-c2c3nc(c(-c4cccc(S(=O)(=O)[O-])c4F)c4ccc([nH]4)c(-c4cccc(S(=O)(=O)[O-])c4F)c4nc(c(-c5cccc(S(=O)(=O)[O-])c5F)c5ccc2[nH]5)C=C4)C=C3)cc1)N1C(=O)/C(=C\c2cccs2)SC1=S
REMARK SMILES IDX 8 1 7 2 6 3 4 4 5 5 3 7 2 8 1 9 76 10 77 11 87 12 78 13
REMARK SMILES IDX 79 14 86 15 88 16 80 17 81 18 82 19 85 20 83 21 84 22 9 23
REMARK SMILES IDX 10 24 11 25 12 27 13 28 14 29 75 30 15 31 74 32 16 33 17 34
REMARK SMILES IDX 18 35 68 36 19 37 73 38 67 39 69 40 20 41 72 42 66 43 65 44
REMARK SMILES IDX 21 46 53 47 33 48 52 49 34 50 37 51 51 52 70 53 35 54 36 55
REMARK SMILES IDX 50 57 71 58 38 59 22 60 23 61 31 62 24 63 26 64 32 65 25 66
REMARK SMILES IDX 27 67 28 68 29 69 30 70 54 71 55 72 63 73 56 74 58 75 64 76
REMARK SMILES IDX 57 77 59 78 60 79 61 80 62 81 39 82 40 83 48 84 41 85 43 86
REMARK SMILES IDX 49 87 42 88 44 89 45 90 46 91 47 92
REMARK H PARENT 6 6 10 26 69 45 37 56
REMARK Flexibility Score: inf
ROOT
ATOM      1  C   UNL A   1      33.210  27.468  26.285  1.00  0.00     0.042 C 
ENDROOT
BRANCH   1   2
ATOM      2  C   UNL A   1      33.578  26.078  25.788  1.00  0.00     0.117 C 
BRANCH   2   3
ATOM      3  N   UNL A   1      32.913  25.014  26.526  1.00  0.00    -0.354 N 
ATOM      4  C   UNL A   1      33.034  23.657  26.377  1.00  0.00     0.243 C 
ATOM      5  O   UNL A   1      32.465  22.920  27.186  1.00  0.00    -0.273 OA
ATOM      6  H   UNL A   1      32.290  25.310  27.228  1.00  0.00     0.163 HD
BRANCH   4   7
ATOM      7  C   UNL A   1      33.964  23.108  25.274  1.00  0.00     0.181 C 
BRANCH   7   8
ATOM      8  C   UNL A   1      35.117  22.411  26.062  1.00  0.00     0.032 C 
ATOM      9  C   UNL A   1      36.475  23.104  25.962  1.00  0.00     0.006 C 
ENDBRANCH   7   8
BRANCH   7  10
ATOM     10  N   UNL A   1      33.243  22.256  24.293  1.00  0.00    -0.280 N 
ATOM     11  C   UNL A   1      33.568  20.918  24.184  1.00  0.00     0.266 C 
ATOM     12  C   UNL A   1      32.582  22.733  23.174  1.00  0.00     0.149 C 
ATOM     13  O   UNL A   1      34.555  20.384  24.667  1.00  0.00    -0.268 OA
ATOM     14  C   UNL A   1      32.647  20.217  23.251  1.00  0.00     0.081 C 
ATOM     15  S   UNL A   1      31.819  21.389  22.310  1.00  0.00    -0.054 SA
ATOM     16  S   UNL A   1      32.488  24.292  22.584  1.00  0.00    -0.052 S 
ATOM     17  C   UNL A   1      32.489  18.892  23.125  1.00  0.00     0.040 C 
BRANCH  17  18
ATOM     18  C   UNL A   1      33.174  17.965  23.961  1.00  0.00     0.028 A 
ATOM     19  C   UNL A   1      34.372  17.306  23.741  1.00  0.00     0.020 A 
ATOM     20  S   UNL A   1      32.494  17.502  25.469  1.00  0.00    -0.144 S 
ATOM     21  C   UNL A   1      34.671  16.350  24.754  1.00  0.00     0.012 A 
ATOM     22  C   UNL A   1      33.717  16.339  25.744  1.00  0.00     0.065 A 
ENDBRANCH  17  18
ENDBRANCH   7  10
ENDBRANCH   4   7
ENDBRANCH   2   3
ENDBRANCH   1   2
BRANCH   1  23
ATOM     23  C   UNL A   1      34.229  28.547  25.939  1.00  0.00     0.118 C 
BRANCH  23  24
ATOM     24  N   UNL A   1      33.876  29.855  26.481  1.00  0.00    -0.352 N 
ATOM     25  C   UNL A   1      34.484  30.595  27.465  1.00  0.00     0.251 C 
ATOM     26  H   UNL A   1      33.079  30.269  26.080  1.00  0.00     0.163 HD
ATOM     27  O   UNL A   1      33.931  31.610  27.881  1.00  0.00    -0.269 OA
BRANCH  25  28
ATOM     28  C   UNL A   1      35.783  30.172  28.034  1.00  0.00     0.039 A 
ATOM     29  C   UNL A   1      35.801  29.573  29.298  1.00  0.00     0.014 A 
ATOM     30  C   UNL A   1      36.979  30.383  27.342  1.00  0.00     0.014 A 
ATOM     31  C   UNL A   1      37.010  29.125  29.837  1.00  0.00     0.010 A 
ATOM     32  C   UNL A   1      38.171  29.877  27.851  1.00  0.00     0.010 A 
ATOM     33  C   UNL A   1      38.201  29.246  29.103  1.00  0.00    -0.014 A 
BRANCH  33  34
ATOM     34  C   UNL A   1      39.485  28.707  29.614  1.00  0.00     0.031 A 
ATOM     35  C   UNL A   1      40.215  29.411  30.724  1.00  0.00     0.074 A 
ATOM     36  C   UNL A   1      40.053  27.652  28.995  1.00  0.00     0.049 A 
ATOM     37  N   UNL A   1      41.384  29.138  31.242  1.00  0.00    -0.248 NA
ATOM     38  C   UNL A   1      39.562  30.594  31.308  1.00  0.00     0.031 C 
ATOM     39  C   UNL A   1      39.491  26.945  27.841  1.00  0.00     0.029 A 
ATOM     40  N   UNL A   1      41.246  27.015  29.225  1.00  0.00    -0.354 N 
ATOM     41  C   UNL A   1      41.630  30.141  32.172  1.00  0.00     0.074 A 
ATOM     42  C   UNL A   1      40.496  31.037  32.140  1.00  0.00     0.031 C 
ATOM     43  C   UNL A   1      40.344  25.983  27.457  1.00  0.00     0.029 A 
ATOM     44  C   UNL A   1      41.518  26.010  28.325  1.00  0.00     0.049 A 
ATOM     45  H   UNL A   1      41.851  27.254  29.963  1.00  0.00     0.167 HD
ATOM     46  C   UNL A   1      42.692  30.285  33.000  1.00  0.00     0.034 A 
ATOM     47  C   UNL A   1      42.592  25.205  28.210  1.00  0.00     0.034 A 
ATOM     48  C   UNL A   1      43.777  29.347  33.091  1.00  0.00     0.049 A 
ATOM     49  C   UNL A   1      43.708  25.326  29.210  1.00  0.00     0.074 A 
ATOM     50  C   UNL A   1      44.825  29.331  33.994  1.00  0.00     0.029 A 
ATOM     51  N   UNL A   1      43.951  28.258  32.253  1.00  0.00    -0.354 N 
ATOM     52  N   UNL A   1      43.826  26.159  30.216  1.00  0.00    -0.248 NA
ATOM     53  C   UNL A   1      44.821  24.374  29.087  1.00  0.00     0.031 C 
ATOM     54  C   UNL A   1      45.635  28.228  33.701  1.00  0.00     0.029 A 
ATOM     55  C   UNL A   1      45.091  27.563  32.614  1.00  0.00     0.049 A 
ATOM     56  H   UNL A   1      43.352  28.014  31.511  1.00  0.00     0.167 HD
ATOM     57  C   UNL A   1      45.006  25.813  30.862  1.00  0.00     0.074 A 
ATOM     58  C   UNL A   1      45.559  24.680  30.147  1.00  0.00     0.031 C 
ATOM     59  C   UNL A   1      45.592  26.395  31.936  1.00  0.00     0.034 A 
BRANCH  46  60
ATOM     60  C   UNL A   1      42.697  31.463  33.935  1.00  0.00     0.023 A 
ATOM     61  C   UNL A   1      43.226  32.690  33.490  1.00  0.00     0.012 A 
ATOM     62  C   UNL A   1      42.117  31.380  35.214  1.00  0.00     0.148 A 
ATOM     63  C   UNL A   1      43.199  33.814  34.314  1.00  0.00     0.002 A 
ATOM     64  C   UNL A   1      42.064  32.514  36.018  1.00  0.00     0.091 A 
ATOM     65  F   UNL A   1      41.642  30.196  35.629  1.00  0.00    -0.205 F 
ATOM     66  C   UNL A   1      42.609  33.729  35.572  1.00  0.00     0.022 A 
BRANCH  64  67
ATOM     67  S   UNL A   1      41.265  32.517  37.628  1.00  0.00     0.127 S 
ATOM     68  O   UNL A   1      41.316  33.934  37.980  1.00  0.00    -0.237 OA
ATOM     69  O   UNL A   1      39.928  32.014  37.315  1.00  0.00    -0.237 OA
ATOM     70  O   UNL A   1      42.061  31.630  38.467  1.00  0.00    -0.744 OA
ENDBRANCH  64  67
ENDBRANCH  46  60
BRANCH  47  71
ATOM     71  C   UNL A   1      42.616  24.152  27.158  1.00  0.00     0.023 A 
ATOM     72  C   UNL A   1      43.317  24.396  25.961  1.00  0.00     0.012 A 
ATOM     73  C   UNL A   1      41.993  22.905  27.345  1.00  0.00     0.148 A 
ATOM     74  C   UNL A   1      43.376  23.424  24.961  1.00  0.00     0.002 A 
ATOM     75  C   UNL A   1      42.098  21.923  26.365  1.00  0.00     0.091 A 
ATOM     76  F   UNL A   1      41.311  22.693  28.481  1.00  0.00    -0.205 F 
ATOM     77  C   UNL A   1      42.777  22.184  25.166  1.00  0.00     0.022 A 
BRANCH  75  78
ATOM     78  S   UNL A   1      41.463  20.264  26.637  1.00  0.00     0.127 S 
ATOM     79  O   UNL A   1      41.873  19.578  25.415  1.00  0.00    -0.237 OA
ATOM     80  O   UNL A   1      42.175  19.845  27.845  1.00  0.00    -0.237 OA
ATOM     81  O   UNL A   1      40.030  20.443  26.830  1.00  0.00    -0.744 OA
ENDBRANCH  75  78
ENDBRANCH  47  71
BRANCH  59  82
ATOM     82  C   UNL A   1      46.890  25.814  32.425  1.00  0.00     0.023 A 
ATOM     83  C   UNL A   1      48.102  26.289  31.888  1.00  0.00     0.012 A 
ATOM     84  C   UNL A   1      46.916  24.870  33.469  1.00  0.00     0.148 A 
ATOM     85  C   UNL A   1      49.323  25.819  32.371  1.00  0.00     0.002 A 
ATOM     86  C   UNL A   1      48.137  24.433  33.971  1.00  0.00     0.091 A 
ATOM     87  F   UNL A   1      45.752  24.410  33.951  1.00  0.00    -0.205 F 
ATOM     88  C   UNL A   1      49.341  24.900  33.420  1.00  0.00     0.022 A 
BRANCH  86  89
ATOM     89  S   UNL A   1      48.234  23.318  35.378  1.00  0.00     0.127 S 
ATOM     90  O   UNL A   1      49.678  23.198  35.567  1.00  0.00    -0.237 OA
ATOM     91  O   UNL A   1      47.543  24.068  36.428  1.00  0.00    -0.237 OA
ATOM     92  O   UNL A   1      47.544  22.106  34.958  1.00  0.00    -0.744 OA
ENDBRANCH  86  89
ENDBRANCH  59  82
ENDBRANCH  33  34
ENDBRANCH  25  28
ENDBRANCH  23  24
ENDBRANCH   1  23
TORSDOF 16
ENDMDL
