MODEL 1
REMARK VINA RESULT:     -12.6      0.000      0.000
REMARK SMILES O=C(NCCCNC(=O)c1ccc(Br)c(NC(=S)NC(=O)c2cccs2)c1)c1ccc(-c2c3nc(c(-c4cccc(S(=O)(=O)[O-])c4F)c4ccc([nH]4)c(-c4cccc(S(=O)(=O)[O-])c4F)c4nc(c(-c5cccc(S(=O)(=O)[O-])c5F)c5ccc2[nH]5)C=C4)C=C3)cc1
REMARK SMILES IDX 5 1 4 2 3 3 1 4 2 5 28 7 29 8 90 9 30 10 89 11 31 12 32 13
REMARK SMILES IDX 33 14 83 15 34 16 88 17 82 18 84 19 35 20 87 21 81 22 80 23
REMARK SMILES IDX 36 25 68 26 48 27 67 28 49 29 52 30 66 31 85 32 50 33 51 34
REMARK SMILES IDX 65 36 86 37 53 38 37 39 38 40 46 41 39 42 41 43 47 44 40 45
REMARK SMILES IDX 42 46 43 47 44 48 45 49 69 50 70 51 78 52 71 53 73 54 79 55
REMARK SMILES IDX 72 56 74 57 75 58 76 59 77 60 54 61 55 62 63 63 56 64 58 65
REMARK SMILES IDX 64 66 57 67 59 68 60 69 61 70 62 71 6 72 7 73 8 74 9 76
REMARK SMILES IDX 10 77 11 78 27 79 12 80 15 81 13 82 14 83 16 84 17 86 18 87
REMARK SMILES IDX 19 88 20 89 21 91 22 92 23 93 26 94 24 95 25 96
REMARK H PARENT 3 6 84 24 52 35 7 75 16 85 19 90
REMARK Flexibility Score: inf
ROOT
ATOM      1  C   UNL A   1      31.442  31.580  26.662  1.00  0.00     0.042 C 
ENDROOT
BRANCH   1   2
ATOM      2  C   UNL A   1      32.743  32.285  26.994  1.00  0.00     0.118 C 
BRANCH   2   3
ATOM      3  N   UNL A   1      32.537  33.651  27.466  1.00  0.00    -0.352 N 
ATOM      4  O   UNL A   1      32.697  35.390  28.893  1.00  0.00    -0.269 OA
ATOM      5  C   UNL A   1      33.157  34.328  28.492  1.00  0.00     0.251 C 
ATOM      6  H   UNL A   1      31.852  34.164  26.980  1.00  0.00     0.163 HD
BRANCH   5   7
ATOM      7  C   UNL A   1      34.360  33.737  29.108  1.00  0.00     0.039 A 
ATOM      8  C   UNL A   1      34.212  32.714  30.043  1.00  0.00     0.014 A 
ATOM      9  C   UNL A   1      35.628  34.225  28.789  1.00  0.00     0.014 A 
ATOM     10  C   UNL A   1      35.293  32.334  30.816  1.00  0.00     0.010 A 
ATOM     11  C   UNL A   1      36.744  33.718  29.458  1.00  0.00     0.010 A 
ATOM     12  C   UNL A   1      36.581  32.787  30.496  1.00  0.00    -0.014 A 
BRANCH  12  13
ATOM     13  C   UNL A   1      37.731  32.147  31.176  1.00  0.00     0.031 A 
ATOM     14  C   UNL A   1      38.504  31.026  30.547  1.00  0.00     0.074 A 
ATOM     15  C   UNL A   1      38.079  32.621  32.392  1.00  0.00     0.049 A 
ATOM     16  N   UNL A   1      39.536  30.382  31.025  1.00  0.00    -0.248 NA
ATOM     17  C   UNL A   1      38.070  30.560  29.219  1.00  0.00     0.031 C 
ATOM     18  C   UNL A   1      37.379  33.695  33.110  1.00  0.00     0.029 A 
ATOM     19  N   UNL A   1      39.098  32.275  33.238  1.00  0.00    -0.354 N 
ATOM     20  C   UNL A   1      39.851  29.409  30.087  1.00  0.00     0.074 A 
ATOM     21  C   UNL A   1      38.901  29.548  29.003  1.00  0.00     0.031 C 
ATOM     22  C   UNL A   1      38.009  33.943  34.263  1.00  0.00     0.029 A 
ATOM     23  C   UNL A   1      39.090  32.983  34.417  1.00  0.00     0.049 A 
ATOM     24  H   UNL A   1      39.770  31.587  33.024  1.00  0.00     0.167 HD
ATOM     25  C   UNL A   1      40.840  28.486  30.134  1.00  0.00     0.034 A 
ATOM     26  C   UNL A   1      39.833  32.843  35.528  1.00  0.00     0.034 A 
ATOM     27  C   UNL A   1      41.779  28.363  31.218  1.00  0.00     0.049 A 
ATOM     28  C   UNL A   1      40.893  31.786  35.553  1.00  0.00     0.074 A 
ATOM     29  C   UNL A   1      42.853  27.496  31.325  1.00  0.00     0.029 A 
ATOM     30  N   UNL A   1      41.742  29.096  32.394  1.00  0.00    -0.354 N 
ATOM     31  N   UNL A   1      41.248  30.952  34.606  1.00  0.00    -0.248 NA
ATOM     32  C   UNL A   1      41.675  31.663  36.790  1.00  0.00     0.031 C 
ATOM     33  C   UNL A   1      43.420  27.656  32.591  1.00  0.00     0.029 A 
ATOM     34  C   UNL A   1      42.752  28.678  33.243  1.00  0.00     0.049 A 
ATOM     35  H   UNL A   1      41.093  29.808  32.595  1.00  0.00     0.167 HD
ATOM     36  C   UNL A   1      42.317  30.232  35.121  1.00  0.00     0.074 A 
ATOM     37  C   UNL A   1      42.572  30.749  36.449  1.00  0.00     0.031 C 
ATOM     38  C   UNL A   1      43.019  29.225  34.548  1.00  0.00     0.034 A 
BRANCH  25  39
ATOM     39  C   UNL A   1      40.966  27.513  28.991  1.00  0.00     0.023 A 
ATOM     40  C   UNL A   1      40.101  26.407  28.899  1.00  0.00     0.012 A 
ATOM     41  C   UNL A   1      41.875  27.771  27.944  1.00  0.00     0.148 A 
ATOM     42  C   UNL A   1      40.150  25.560  27.791  1.00  0.00     0.002 A 
ATOM     43  C   UNL A   1      41.885  26.952  26.823  1.00  0.00     0.091 A 
ATOM     44  F   UNL A   1      42.698  28.823  28.058  1.00  0.00    -0.205 F 
ATOM     45  C   UNL A   1      41.030  25.841  26.749  1.00  0.00     0.022 A 
BRANCH  43  46
ATOM     46  S   UNL A   1      42.923  27.277  25.393  1.00  0.00     0.127 S 
ATOM     47  O   UNL A   1      42.839  26.004  24.677  1.00  0.00    -0.237 OA
ATOM     48  O   UNL A   1      42.217  28.385  24.751  1.00  0.00    -0.237 OA
ATOM     49  O   UNL A   1      44.242  27.607  25.914  1.00  0.00    -0.744 OA
ENDBRANCH  43  46
ENDBRANCH  25  39
BRANCH  26  50
ATOM     50  C   UNL A   1      39.574  33.699  36.719  1.00  0.00     0.023 A 
ATOM     51  C   UNL A   1      40.020  35.034  36.737  1.00  0.00     0.012 A 
ATOM     52  C   UNL A   1      38.910  33.181  37.848  1.00  0.00     0.148 A 
ATOM     53  C   UNL A   1      39.863  35.818  37.880  1.00  0.00     0.002 A 
ATOM     54  C   UNL A   1      38.696  33.986  38.957  1.00  0.00     0.091 A 
ATOM     55  F   UNL A   1      38.493  31.907  37.812  1.00  0.00    -0.205 F 
ATOM     56  C   UNL A   1      39.196  35.297  38.987  1.00  0.00     0.022 A 
BRANCH  54  57
ATOM     57  S   UNL A   1      37.739  33.438  40.373  1.00  0.00     0.127 S 
ATOM     58  O   UNL A   1      38.600  32.397  40.927  1.00  0.00    -0.237 OA
ATOM     59  O   UNL A   1      37.657  34.662  41.170  1.00  0.00    -0.237 OA
ATOM     60  O   UNL A   1      36.463  32.982  39.837  1.00  0.00    -0.744 OA
ENDBRANCH  54  57
ENDBRANCH  26  50
BRANCH  38  61
ATOM     61  C   UNL A   1      44.175  28.657  35.328  1.00  0.00     0.023 A 
ATOM     62  C   UNL A   1      45.480  29.151  35.136  1.00  0.00     0.012 A 
ATOM     63  C   UNL A   1      43.950  27.654  36.291  1.00  0.00     0.148 A 
ATOM     64  C   UNL A   1      46.550  28.622  35.855  1.00  0.00     0.002 A 
ATOM     65  C   UNL A   1      45.010  27.175  37.048  1.00  0.00     0.091 A 
ATOM     66  F   UNL A   1      42.703  27.187  36.449  1.00  0.00    -0.205 F 
ATOM     67  C   UNL A   1      46.314  27.644  36.819  1.00  0.00     0.022 A 
BRANCH  65  68
ATOM     68  S   UNL A   1      44.788  25.987  38.374  1.00  0.00     0.127 S 
ATOM     69  O   UNL A   1      44.243  24.836  37.656  1.00  0.00    -0.237 OA
ATOM     70  O   UNL A   1      46.156  25.812  38.861  1.00  0.00    -0.237 OA
ATOM     71  O   UNL A   1      43.878  26.608  39.328  1.00  0.00    -0.744 OA
ENDBRANCH  65  68
ENDBRANCH  38  61
ENDBRANCH  12  13
ENDBRANCH   5   7
ENDBRANCH   2   3
ENDBRANCH   1   2
BRANCH   1  72
ATOM     72  C   UNL A   1      31.615  30.423  25.698  1.00  0.00     0.118 C 
BRANCH  72  73
ATOM     73  N   UNL A   1      30.640  30.445  24.621  1.00  0.00    -0.352 N 
ATOM     74  C   UNL A   1      30.319  29.540  23.639  1.00  0.00     0.251 C 
ATOM     75  H   UNL A   1      30.104  31.271  24.588  1.00  0.00     0.163 HD
ATOM     76  O   UNL A   1      29.528  29.937  22.788  1.00  0.00    -0.269 OA
BRANCH  74  77
ATOM     77  C   UNL A   1      30.954  28.104  23.699  1.00  0.00     0.041 A 
ATOM     78  C   UNL A   1      32.330  28.023  22.514  1.00  0.00     0.015 A 
ATOM     79  C   UNL A   1      30.579  26.319  24.652  1.00  0.00     0.041 A 
ATOM     80  C   UNL A   1      33.113  26.440  22.291  1.00  0.00     0.018 A 
ATOM     81  C   UNL A   1      31.304  24.882  24.291  1.00  0.00     0.055 A 
ATOM     82  C   UNL A   1      32.594  24.952  23.142  1.00  0.00     0.041 A 
ATOM     83  Br  UNL A   1      33.394  23.324  22.590  1.00  0.00    -0.049 Br
BRANCH  81  84
ATOM     84  N   UNL A   1      30.470  23.850  24.774  1.00  0.00    -0.331 N 
ATOM     85  H   UNL A   1      29.557  23.847  24.408  1.00  0.00     0.169 HD
BRANCH  84  86
ATOM     86  C   UNL A   1      30.745  22.834  25.694  1.00  0.00     0.177 C 
ATOM     87  S   UNL A   1      29.879  22.889  27.136  1.00  0.00    -0.040 S 
BRANCH  86  88
ATOM     88  N   UNL A   1      31.660  21.710  25.562  1.00  0.00    -0.298 N 
ATOM     89  C   UNL A   1      33.042  21.038  25.641  1.00  0.00     0.267 C 
ATOM     90  H   UNL A   1      31.075  20.980  25.255  1.00  0.00     0.172 HD
ATOM     91  O   UNL A   1      33.179  19.958  25.069  1.00  0.00    -0.268 OA
BRANCH  89  92
ATOM     92  C   UNL A   1      34.171  21.733  26.418  1.00  0.00     0.092 A 
ATOM     93  C   UNL A   1      33.903  23.407  26.601  1.00  0.00     0.025 A 
ATOM     94  S   UNL A   1      36.221  21.172  25.504  1.00  0.00    -0.139 S 
ATOM     95  C   UNL A   1      35.140  24.489  25.626  1.00  0.00     0.012 A 
ATOM     96  C   UNL A   1      36.594  23.383  24.844  1.00  0.00     0.065 A 
ENDBRANCH  89  92
ENDBRANCH  86  88
ENDBRANCH  84  86
ENDBRANCH  81  84
ENDBRANCH  74  77
ENDBRANCH  72  73
ENDBRANCH   1  72
TORSDOF 17
ENDMDL
MODEL 2
REMARK VINA RESULT:     -12.4      6.193     11.466
REMARK SMILES O=C(NCCCNC(=O)c1ccc(Br)c(NC(=S)NC(=O)c2cccs2)c1)c1ccc(-c2c3nc(c(-c4cccc(S(=O)(=O)[O-])c4F)c4ccc([nH]4)c(-c4cccc(S(=O)(=O)[O-])c4F)c4nc(c(-c5cccc(S(=O)(=O)[O-])c5F)c5ccc2[nH]5)C=C4)C=C3)cc1
REMARK SMILES IDX 5 1 4 2 3 3 1 4 2 5 28 7 29 8 90 9 30 10 89 11 31 12 32 13
REMARK SMILES IDX 33 14 83 15 34 16 88 17 82 18 84 19 35 20 87 21 81 22 80 23
REMARK SMILES IDX 36 25 68 26 48 27 67 28 49 29 52 30 66 31 85 32 50 33 51 34
REMARK SMILES IDX 65 36 86 37 53 38 37 39 38 40 46 41 39 42 41 43 47 44 40 45
REMARK SMILES IDX 42 46 43 47 44 48 45 49 69 50 70 51 78 52 71 53 73 54 79 55
REMARK SMILES IDX 72 56 74 57 75 58 76 59 77 60 54 61 55 62 63 63 56 64 58 65
REMARK SMILES IDX 64 66 57 67 59 68 60 69 61 70 62 71 6 72 7 73 8 74 9 76
REMARK SMILES IDX 10 77 11 78 27 79 12 80 15 81 13 82 14 83 16 84 17 86 18 87
REMARK SMILES IDX 19 88 20 89 21 91 22 92 23 93 26 94 24 95 25 96
REMARK H PARENT 3 6 84 24 52 35 7 75 16 85 19 90
REMARK Flexibility Score: inf
ROOT
ATOM      1  C   UNL A   1      38.297  19.777  24.926  1.00  0.00     0.042 C 
ENDROOT
BRANCH   1   2
ATOM      2  C   UNL A   1      39.173  19.940  26.154  1.00  0.00     0.118 C 
BRANCH   2   3
ATOM      3  N   UNL A   1      40.355  19.084  26.117  1.00  0.00    -0.352 N 
ATOM      4  O   UNL A   1      42.536  18.582  25.826  1.00  0.00    -0.269 OA
ATOM      5  C   UNL A   1      41.688  19.428  26.085  1.00  0.00     0.251 C 
ATOM      6  H   UNL A   1      40.173  18.117  26.114  1.00  0.00     0.163 HD
BRANCH   5   7
ATOM      7  C   UNL A   1      42.065  20.831  26.341  1.00  0.00     0.039 A 
ATOM      8  C   UNL A   1      42.316  21.241  27.649  1.00  0.00     0.014 A 
ATOM      9  C   UNL A   1      42.128  21.747  25.289  1.00  0.00     0.014 A 
ATOM     10  C   UNL A   1      42.409  22.589  27.938  1.00  0.00     0.010 A 
ATOM     11  C   UNL A   1      42.389  23.091  25.568  1.00  0.00     0.010 A 
ATOM     12  C   UNL A   1      42.506  23.526  26.898  1.00  0.00    -0.014 A 
BRANCH  12  13
ATOM     13  C   UNL A   1      42.873  24.917  27.249  1.00  0.00     0.031 A 
ATOM     14  C   UNL A   1      41.916  25.842  27.940  1.00  0.00     0.074 A 
ATOM     15  C   UNL A   1      44.120  25.330  26.938  1.00  0.00     0.049 A 
ATOM     16  N   UNL A   1      42.109  27.080  28.314  1.00  0.00    -0.248 NA
ATOM     17  C   UNL A   1      40.573  25.325  28.251  1.00  0.00     0.031 C 
ATOM     18  C   UNL A   1      45.127  24.518  26.240  1.00  0.00     0.029 A 
ATOM     19  N   UNL A   1      44.760  26.519  27.162  1.00  0.00    -0.354 N 
ATOM     20  C   UNL A   1      40.907  27.508  28.862  1.00  0.00     0.074 A 
ATOM     21  C   UNL A   1      39.987  26.393  28.777  1.00  0.00     0.031 C 
ATOM     22  C   UNL A   1      46.262  25.217  26.130  1.00  0.00     0.029 A 
ATOM     23  C   UNL A   1      46.036  26.555  26.651  1.00  0.00     0.049 A 
ATOM     24  H   UNL A   1      44.348  27.274  27.642  1.00  0.00     0.167 HD
ATOM     25  C   UNL A   1      40.607  28.721  29.381  1.00  0.00     0.034 A 
ATOM     26  C   UNL A   1      46.915  27.568  26.558  1.00  0.00     0.034 A 
ATOM     27  C   UNL A   1      41.535  29.819  29.461  1.00  0.00     0.049 A 
ATOM     28  C   UNL A   1      46.530  28.904  27.113  1.00  0.00     0.074 A 
ATOM     29  C   UNL A   1      41.337  31.066  30.026  1.00  0.00     0.029 A 
ATOM     30  N   UNL A   1      42.818  29.819  28.935  1.00  0.00    -0.354 N 
ATOM     31  N   UNL A   1      45.428  29.253  27.731  1.00  0.00    -0.248 NA
ATOM     32  C   UNL A   1      47.517  29.983  26.982  1.00  0.00     0.031 C 
ATOM     33  C   UNL A   1      42.472  31.843  29.780  1.00  0.00     0.029 A 
ATOM     34  C   UNL A   1      43.409  31.055  29.134  1.00  0.00     0.049 A 
ATOM     35  H   UNL A   1      43.245  29.054  28.487  1.00  0.00     0.167 HD
ATOM     36  C   UNL A   1      45.605  30.581  28.094  1.00  0.00     0.074 A 
ATOM     37  C   UNL A   1      46.931  30.963  27.655  1.00  0.00     0.031 C 
ATOM     38  C   UNL A   1      44.743  31.413  28.725  1.00  0.00     0.034 A 
BRANCH  25  39
ATOM     39  C   UNL A   1      39.212  28.952  29.900  1.00  0.00     0.023 A 
ATOM     40  C   UNL A   1      38.892  28.651  31.238  1.00  0.00     0.012 A 
ATOM     41  C   UNL A   1      38.250  29.580  29.083  1.00  0.00     0.148 A 
ATOM     42  C   UNL A   1      37.630  28.954  31.749  1.00  0.00     0.002 A 
ATOM     43  C   UNL A   1      37.013  29.922  29.612  1.00  0.00     0.091 A 
ATOM     44  F   UNL A   1      38.572  29.845  27.808  1.00  0.00    -0.205 F 
ATOM     45  C   UNL A   1      36.698  29.602  30.942  1.00  0.00     0.022 A 
BRANCH  43  46
ATOM     46  S   UNL A   1      35.777  30.830  28.678  1.00  0.00     0.127 S 
ATOM     47  O   UNL A   1      35.143  31.626  29.730  1.00  0.00    -0.237 OA
ATOM     48  O   UNL A   1      36.602  31.598  27.746  1.00  0.00    -0.237 OA
ATOM     49  O   UNL A   1      34.918  29.830  28.059  1.00  0.00    -0.744 OA
ENDBRANCH  43  46
ENDBRANCH  25  39
BRANCH  26  50
ATOM     50  C   UNL A   1      48.226  27.367  25.880  1.00  0.00     0.023 A 
ATOM     51  C   UNL A   1      49.379  27.098  26.642  1.00  0.00     0.012 A 
ATOM     52  C   UNL A   1      48.336  27.471  24.479  1.00  0.00     0.148 A 
ATOM     53  C   UNL A   1      50.626  26.997  26.027  1.00  0.00     0.002 A 
ATOM     54  C   UNL A   1      49.569  27.301  23.866  1.00  0.00     0.091 A 
ATOM     55  F   UNL A   1      47.227  27.727  23.771  1.00  0.00    -0.205 F 
ATOM     56  C   UNL A   1      50.721  27.093  24.640  1.00  0.00     0.022 A 
BRANCH  54  57
ATOM     57  S   UNL A   1      49.761  27.284  22.083  1.00  0.00     0.127 S 
ATOM     58  O   UNL A   1      48.806  26.251  21.691  1.00  0.00    -0.237 OA
ATOM     59  O   UNL A   1      49.376  28.650  21.727  1.00  0.00    -0.237 OA
ATOM     60  O   UNL A   1      51.163  26.972  21.838  1.00  0.00    -0.744 OA
ENDBRANCH  54  57
ENDBRANCH  26  50
BRANCH  38  61
ATOM     61  C   UNL A   1      45.228  32.803  29.040  1.00  0.00     0.023 A 
ATOM     62  C   UNL A   1      45.887  33.072  30.256  1.00  0.00     0.012 A 
ATOM     63  C   UNL A   1      45.065  33.837  28.098  1.00  0.00     0.148 A 
ATOM     64  C   UNL A   1      46.332  34.361  30.549  1.00  0.00     0.002 A 
ATOM     65  C   UNL A   1      45.566  35.103  28.369  1.00  0.00     0.091 A 
ATOM     66  F   UNL A   1      44.423  33.563  26.953  1.00  0.00    -0.205 F 
ATOM     67  C   UNL A   1      46.183  35.372  29.602  1.00  0.00     0.022 A 
BRANCH  65  68
ATOM     68  S   UNL A   1      45.505  36.440  27.174  1.00  0.00     0.127 S 
ATOM     69  O   UNL A   1      46.178  35.841  26.023  1.00  0.00    -0.237 OA
ATOM     70  O   UNL A   1      44.065  36.635  27.007  1.00  0.00    -0.237 OA
ATOM     71  O   UNL A   1      46.204  37.563  27.784  1.00  0.00    -0.744 OA
ENDBRANCH  65  68
ENDBRANCH  38  61
ENDBRANCH  12  13
ENDBRANCH   5   7
ENDBRANCH   2   3
ENDBRANCH   1   2
BRANCH   1  72
ATOM     72  C   UNL A   1      37.517  21.028  24.576  1.00  0.00     0.118 C 
BRANCH  72  73
ATOM     73  N   UNL A   1      38.061  22.219  25.208  1.00  0.00    -0.352 N 
ATOM     74  C   UNL A   1      37.488  23.397  25.618  1.00  0.00     0.251 C 
ATOM     75  H   UNL A   1      39.031  22.171  25.374  1.00  0.00     0.163 HD
ATOM     76  O   UNL A   1      38.269  24.266  25.994  1.00  0.00    -0.269 OA
BRANCH  74  77
ATOM     77  C   UNL A   1      35.922  23.523  25.596  1.00  0.00     0.041 A 
ATOM     78  C   UNL A   1      35.256  22.805  27.127  1.00  0.00     0.015 A 
ATOM     79  C   UNL A   1      34.470  24.165  24.284  1.00  0.00     0.041 A 
ATOM     80  C   UNL A   1      33.485  22.696  27.265  1.00  0.00     0.018 A 
ATOM     81  C   UNL A   1      32.851  23.919  24.471  1.00  0.00     0.055 A 
ATOM     82  C   UNL A   1      32.357  23.222  25.975  1.00  0.00     0.041 A 
ATOM     83  Br  UNL A   1      30.525  22.801  26.213  1.00  0.00    -0.049 Br
BRANCH  81  84
ATOM     84  N   UNL A   1      32.251  24.039  23.199  1.00  0.00    -0.331 N 
ATOM     85  H   UNL A   1      32.158  23.195  22.701  1.00  0.00     0.169 HD
BRANCH  84  86
ATOM     86  C   UNL A   1      31.771  25.174  22.539  1.00  0.00     0.177 C 
ATOM     87  S   UNL A   1      32.641  25.662  21.183  1.00  0.00    -0.040 S 
BRANCH  86  88
ATOM     88  N   UNL A   1      30.598  25.978  22.846  1.00  0.00    -0.298 N 
ATOM     89  C   UNL A   1      29.853  27.113  23.570  1.00  0.00     0.267 C 
ATOM     90  H   UNL A   1      29.897  25.576  22.282  1.00  0.00     0.172 HD
ATOM     91  O   UNL A   1      28.623  27.086  23.548  1.00  0.00    -0.268 OA
BRANCH  89  92
ATOM     92  C   UNL A   1      30.663  28.210  24.277  1.00  0.00     0.092 A 
ATOM     93  C   UNL A   1      31.851  28.900  23.266  1.00  0.00     0.025 A 
ATOM     94  S   UNL A   1      31.452  27.429  26.307  1.00  0.00    -0.139 S 
ATOM     95  C   UNL A   1      33.640  28.499  23.807  1.00  0.00     0.012 A 
ATOM     96  C   UNL A   1      33.664  27.585  25.572  1.00  0.00     0.065 A 
ENDBRANCH  89  92
ENDBRANCH  86  88
ENDBRANCH  84  86
ENDBRANCH  81  84
ENDBRANCH  74  77
ENDBRANCH  72  73
ENDBRANCH   1  72
TORSDOF 17
ENDMDL
MODEL 3
REMARK VINA RESULT:     -12.1      0.608      7.714
REMARK SMILES O=C(NCCCNC(=O)c1ccc(Br)c(NC(=S)NC(=O)c2cccs2)c1)c1ccc(-c2c3nc(c(-c4cccc(S(=O)(=O)[O-])c4F)c4ccc([nH]4)c(-c4cccc(S(=O)(=O)[O-])c4F)c4nc(c(-c5cccc(S(=O)(=O)[O-])c5F)c5ccc2[nH]5)C=C4)C=C3)cc1
REMARK SMILES IDX 5 1 4 2 3 3 1 4 2 5 28 7 29 8 90 9 30 10 89 11 31 12 32 13
REMARK SMILES IDX 33 14 83 15 34 16 88 17 82 18 84 19 35 20 87 21 81 22 80 23
REMARK SMILES IDX 36 25 68 26 48 27 67 28 49 29 52 30 66 31 85 32 50 33 51 34
REMARK SMILES IDX 65 36 86 37 53 38 37 39 38 40 46 41 39 42 41 43 47 44 40 45
REMARK SMILES IDX 42 46 43 47 44 48 45 49 69 50 70 51 78 52 71 53 73 54 79 55
REMARK SMILES IDX 72 56 74 57 75 58 76 59 77 60 54 61 55 62 63 63 56 64 58 65
REMARK SMILES IDX 64 66 57 67 59 68 60 69 61 70 62 71 6 72 7 73 8 74 9 76
REMARK SMILES IDX 10 77 11 78 27 79 12 80 15 81 13 82 14 83 16 84 17 86 18 87
REMARK SMILES IDX 19 88 20 89 21 91 22 92 23 93 26 94 24 95 25 96
REMARK H PARENT 3 6 84 24 52 35 7 75 16 85 19 90
REMARK Flexibility Score: inf
ROOT
ATOM      1  C   UNL A   1      31.554  31.488  26.704  1.00  0.00     0.042 C 
ENDROOT
BRANCH   1   2
ATOM      2  C   UNL A   1      32.845  32.213  27.033  1.00  0.00     0.118 C 
BRANCH   2   3
ATOM      3  N   UNL A   1      32.619  33.572  27.515  1.00  0.00    -0.352 N 
ATOM      4  O   UNL A   1      32.754  35.305  28.953  1.00  0.00    -0.269 OA
ATOM      5  C   UNL A   1      33.230  34.253  28.544  1.00  0.00     0.251 C 
ATOM      6  H   UNL A   1      31.925  34.078  27.033  1.00  0.00     0.163 HD
BRANCH   5   7
ATOM      7  C   UNL A   1      34.443  33.676  29.154  1.00  0.00     0.039 A 
ATOM      8  C   UNL A   1      34.311  32.670  30.110  1.00  0.00     0.014 A 
ATOM      9  C   UNL A   1      35.705  34.162  28.809  1.00  0.00     0.014 A 
ATOM     10  C   UNL A   1      35.403  32.307  30.876  1.00  0.00     0.010 A 
ATOM     11  C   UNL A   1      36.832  33.670  29.472  1.00  0.00     0.010 A 
ATOM     12  C   UNL A   1      36.685  32.758  30.529  1.00  0.00    -0.014 A 
BRANCH  12  13
ATOM     13  C   UNL A   1      37.846  32.134  31.205  1.00  0.00     0.031 A 
ATOM     14  C   UNL A   1      38.384  32.656  32.505  1.00  0.00     0.074 A 
ATOM     15  C   UNL A   1      38.405  31.055  30.617  1.00  0.00     0.049 A 
ATOM     16  N   UNL A   1      39.387  32.201  33.210  1.00  0.00    -0.248 NA
ATOM     17  C   UNL A   1      37.725  33.834  33.092  1.00  0.00     0.031 C 
ATOM     18  C   UNL A   1      37.976  30.477  29.336  1.00  0.00     0.029 A 
ATOM     19  N   UNL A   1      39.442  30.250  31.006  1.00  0.00    -0.354 N 
ATOM     20  C   UNL A   1      39.512  33.057  34.297  1.00  0.00     0.074 A 
ATOM     21  C   UNL A   1      38.476  34.060  34.162  1.00  0.00     0.031 C 
ATOM     22  C   UNL A   1      38.715  29.395  29.067  1.00  0.00     0.029 A 
ATOM     23  C   UNL A   1      39.733  29.261  30.096  1.00  0.00     0.049 A 
ATOM     24  H   UNL A   1      39.931  30.368  31.853  1.00  0.00     0.167 HD
ATOM     25  C   UNL A   1      40.412  33.005  35.306  1.00  0.00     0.034 A 
ATOM     26  C   UNL A   1      40.742  28.374  30.058  1.00  0.00     0.034 A 
ATOM     27  C   UNL A   1      41.434  31.998  35.427  1.00  0.00     0.049 A 
ATOM     28  C   UNL A   1      41.738  28.373  31.177  1.00  0.00     0.074 A 
ATOM     29  C   UNL A   1      42.353  31.832  36.449  1.00  0.00     0.029 A 
ATOM     30  N   UNL A   1      41.699  31.013  34.489  1.00  0.00    -0.354 N 
ATOM     31  N   UNL A   1      41.768  29.120  32.254  1.00  0.00    -0.248 NA
ATOM     32  C   UNL A   1      42.828  27.393  31.092  1.00  0.00     0.031 C 
ATOM     33  C   UNL A   1      43.216  30.792  36.095  1.00  0.00     0.029 A 
ATOM     34  C   UNL A   1      42.786  30.257  34.892  1.00  0.00     0.049 A 
ATOM     35  H   UNL A   1      41.189  30.871  33.660  1.00  0.00     0.167 HD
ATOM     36  C   UNL A   1      42.856  28.674  32.990  1.00  0.00     0.074 A 
ATOM     37  C   UNL A   1      43.440  27.573  32.252  1.00  0.00     0.031 C 
ATOM     38  C   UNL A   1      43.336  29.141  34.168  1.00  0.00     0.034 A 
BRANCH  25  39
ATOM     39  C   UNL A   1      40.358  34.072  36.368  1.00  0.00     0.023 A 
ATOM     40  C   UNL A   1      40.729  35.396  36.066  1.00  0.00     0.012 A 
ATOM     41  C   UNL A   1      39.823  33.775  37.638  1.00  0.00     0.148 A 
ATOM     42  C   UNL A   1      40.587  36.405  37.019  1.00  0.00     0.002 A 
ATOM     43  C   UNL A   1      39.640  34.793  38.565  1.00  0.00     0.091 A 
ATOM     44  F   UNL A   1      39.488  32.505  37.908  1.00  0.00    -0.205 F 
ATOM     45  C   UNL A   1      40.029  36.106  38.260  1.00  0.00     0.022 A 
BRANCH  43  46
ATOM     46  S   UNL A   1      38.856  34.525  40.158  1.00  0.00     0.127 S 
ATOM     47  O   UNL A   1      39.904  33.806  40.882  1.00  0.00    -0.237 OA
ATOM     48  O   UNL A   1      38.626  35.894  40.618  1.00  0.00    -0.237 OA
ATOM     49  O   UNL A   1      37.649  33.754  39.894  1.00  0.00    -0.744 OA
ENDBRANCH  43  46
ENDBRANCH  25  39
BRANCH  26  50
ATOM     50  C   UNL A   1      40.882  27.441  28.906  1.00  0.00     0.023 A 
ATOM     51  C   UNL A   1      40.134  26.248  28.871  1.00  0.00     0.012 A 
ATOM     52  C   UNL A   1      41.779  27.722  27.856  1.00  0.00     0.148 A 
ATOM     53  C   UNL A   1      40.322  25.325  27.842  1.00  0.00     0.002 A 
ATOM     54  C   UNL A   1      41.911  26.832  26.801  1.00  0.00     0.091 A 
ATOM     55  F   UNL A   1      42.482  28.862  27.909  1.00  0.00    -0.205 F 
ATOM     56  C   UNL A   1      41.206  25.619  26.805  1.00  0.00     0.022 A 
BRANCH  54  57
ATOM     57  S   UNL A   1      42.929  27.187  25.367  1.00  0.00     0.127 S 
ATOM     58  O   UNL A   1      42.840  25.934  24.622  1.00  0.00    -0.237 OA
ATOM     59  O   UNL A   1      42.217  28.315  24.767  1.00  0.00    -0.237 OA
ATOM     60  O   UNL A   1      44.249  27.517  25.889  1.00  0.00    -0.744 OA
ENDBRANCH  54  57
ENDBRANCH  26  50
BRANCH  38  61
ATOM     61  C   UNL A   1      44.515  28.422  34.768  1.00  0.00     0.023 A 
ATOM     62  C   UNL A   1      45.829  28.847  34.491  1.00  0.00     0.012 A 
ATOM     63  C   UNL A   1      44.308  27.342  35.648  1.00  0.00     0.148 A 
ATOM     64  C   UNL A   1      46.920  28.177  35.044  1.00  0.00     0.002 A 
ATOM     65  C   UNL A   1      45.397  26.719  36.243  1.00  0.00     0.091 A 
ATOM     66  F   UNL A   1      43.050  26.943  35.887  1.00  0.00    -0.205 F 
ATOM     67  C   UNL A   1      46.704  27.123  35.928  1.00  0.00     0.022 A 
BRANCH  65  68
ATOM     68  S   UNL A   1      45.213  25.417  37.465  1.00  0.00     0.127 S 
ATOM     69  O   UNL A   1      46.603  25.160  37.837  1.00  0.00    -0.237 OA
ATOM     70  O   UNL A   1      44.416  26.078  38.498  1.00  0.00    -0.237 OA
ATOM     71  O   UNL A   1      44.539  24.317  36.788  1.00  0.00    -0.744 OA
ENDBRANCH  65  68
ENDBRANCH  38  61
ENDBRANCH  12  13
ENDBRANCH   5   7
ENDBRANCH   2   3
ENDBRANCH   1   2
BRANCH   1  72
ATOM     72  C   UNL A   1      31.732  30.378  25.687  1.00  0.00     0.118 C 
BRANCH  72  73
ATOM     73  N   UNL A   1      30.707  30.397  24.657  1.00  0.00    -0.352 N 
ATOM     74  C   UNL A   1      30.340  29.491  23.694  1.00  0.00     0.251 C 
ATOM     75  H   UNL A   1      30.169  31.223  24.648  1.00  0.00     0.163 HD
ATOM     76  O   UNL A   1      29.510  29.885  22.880  1.00  0.00    -0.269 OA
BRANCH  74  77
ATOM     77  C   UNL A   1      30.979  28.055  23.726  1.00  0.00     0.041 A 
ATOM     78  C   UNL A   1      32.351  27.998  22.536  1.00  0.00     0.015 A 
ATOM     79  C   UNL A   1      30.609  26.252  24.648  1.00  0.00     0.041 A 
ATOM     80  C   UNL A   1      33.137  26.422  22.283  1.00  0.00     0.018 A 
ATOM     81  C   UNL A   1      31.336  24.824  24.259  1.00  0.00     0.055 A 
ATOM     82  C   UNL A   1      32.624  24.917  23.109  1.00  0.00     0.041 A 
ATOM     83  Br  UNL A   1      33.426  23.301  22.525  1.00  0.00    -0.049 Br
BRANCH  81  84
ATOM     84  N   UNL A   1      30.506  23.782  24.726  1.00  0.00    -0.331 N 
ATOM     85  H   UNL A   1      29.604  23.760  24.333  1.00  0.00     0.169 HD
BRANCH  84  86
ATOM     86  C   UNL A   1      30.771  22.777  25.660  1.00  0.00     0.177 C 
ATOM     87  S   UNL A   1      29.903  22.860  27.100  1.00  0.00    -0.040 S 
BRANCH  86  88
ATOM     88  N   UNL A   1      31.677  21.643  25.547  1.00  0.00    -0.298 N 
ATOM     89  C   UNL A   1      33.052  20.960  25.642  1.00  0.00     0.267 C 
ATOM     90  H   UNL A   1      31.086  20.915  25.245  1.00  0.00     0.172 HD
ATOM     91  O   UNL A   1      33.182  19.872  25.082  1.00  0.00    -0.268 OA
BRANCH  89  92
ATOM     92  C   UNL A   1      34.183  21.654  26.416  1.00  0.00     0.092 A 
ATOM     93  C   UNL A   1      33.861  23.305  26.703  1.00  0.00     0.025 A 
ATOM     94  S   UNL A   1      36.217  21.225  25.401  1.00  0.00    -0.139 S 
ATOM     95  C   UNL A   1      35.021  24.485  25.747  1.00  0.00     0.012 A 
ATOM     96  C   UNL A   1      36.484  23.481  24.853  1.00  0.00     0.065 A 
ENDBRANCH  89  92
ENDBRANCH  86  88
ENDBRANCH  84  86
ENDBRANCH  81  84
ENDBRANCH  74  77
ENDBRANCH  72  73
ENDBRANCH   1  72
TORSDOF 17
ENDMDL
