MODEL 1
REMARK VINA RESULT:     -10.4      0.000      0.000
REMARK SMILES C[C@H](CC[NH+](C)C)[NH2+][C@H](C)[C@@H](C)C(=O)NCCCNC(=O)c1ccc(-c2c3nc(c(-c4cccc(S(=O)(=O)[O-])c4F)c4ccc([nH]4)c(-c4cccc(S(=O)(=O)[O-])c4F)c4nc(c(-c5cccc(S(=O)(=O)[O-])c5F)c5ccc2[nH]5)C=C4)C=C3)cc1
REMARK SMILES IDX 13 1 14 2 15 3 11 5 12 6 9 7 10 8 8 9 2 12 1 13 3 14 4 15
REMARK SMILES IDX 5 16 6 17 7 18 16 20 17 21 18 22 19 23 20 24 21 26 22 27
REMARK SMILES IDX 23 28 84 29 24 30 83 31 25 32 26 33 27 34 77 35 28 36 82 37
REMARK SMILES IDX 76 38 78 39 29 40 81 41 75 42 74 43 30 45 62 46 42 47 61 48
REMARK SMILES IDX 43 49 46 50 60 51 79 52 44 53 45 54 59 56 80 57 47 58 31 59
REMARK SMILES IDX 32 60 40 61 33 62 35 63 41 64 34 65 36 66 37 67 38 68 39 69
REMARK SMILES IDX 63 70 64 71 72 72 65 73 67 74 73 75 66 76 68 77 69 78 70 79
REMARK SMILES IDX 71 80 48 81 49 82 57 83 50 84 52 85 58 86 51 87 53 88 54 89
REMARK SMILES IDX 55 90 56 91
REMARK H PARENT 15 4 8 10 8 11 5 19 19 25 78 44 46 55
REMARK Flexibility Score: inf
ROOT
ATOM      1  C   UNL A   1      33.566  28.910  26.552  1.00  0.00     0.228 C 
ATOM      2  O   UNL A   1      34.728  28.726  26.932  1.00  0.00    -0.275 OA
ATOM      3  N   UNL A   1      32.837  29.798  27.275  1.00  0.00    -0.356 N 
ATOM      4  H   UNL A   1      33.264  30.075  28.116  1.00  0.00     0.163 HD
ENDROOT
BRANCH   1   5
ATOM      5  C   UNL A   1      33.043  28.232  25.289  1.00  0.00     0.133 C 
ATOM      6  C   UNL A   1      33.727  26.861  25.172  1.00  0.00     0.024 C 
BRANCH   5   7
ATOM      7  C   UNL A   1      33.088  29.137  24.028  1.00  0.00     0.191 C 
ATOM      8  C   UNL A   1      34.131  28.653  23.003  1.00  0.00     0.076 C 
BRANCH   7   9
ATOM      9  N   UNL A   1      31.880  29.291  23.198  1.00  0.00    -0.341 N 
ATOM     10  H   UNL A   1      31.881  30.258  22.872  1.00  0.00     0.346 HD
ATOM     11  H   UNL A   1      31.994  28.532  22.525  1.00  0.00     0.346 HD
BRANCH   9  12
ATOM     12  C   UNL A   1      30.532  29.037  23.705  1.00  0.00     0.185 C 
ATOM     13  C   UNL A   1      29.812  27.851  23.059  1.00  0.00     0.075 C 
BRANCH  12  14
ATOM     14  C   UNL A   1      29.679  30.324  23.532  1.00  0.00     0.126 C 
BRANCH  14  15
ATOM     15  C   UNL A   1      28.697  30.441  22.341  1.00  0.00     0.268 C 
BRANCH  15  16
ATOM     16  N   UNL A   1      28.060  31.748  22.068  1.00  0.00    -0.340 N 
ATOM     17  C   UNL A   1      28.774  32.799  22.802  1.00  0.00     0.332 C 
ATOM     18  C   UNL A   1      28.070  32.085  20.640  1.00  0.00     0.332 C 
ATOM     19  H   UNL A   1      27.089  31.681  22.370  1.00  0.00     0.347 HD
ENDBRANCH  15  16
ENDBRANCH  14  15
ENDBRANCH  12  14
ENDBRANCH   9  12
ENDBRANCH   7   9
ENDBRANCH   5   7
ENDBRANCH   1   5
BRANCH   3  20
ATOM     20  C   UNL A   1      31.544  30.413  27.040  1.00  0.00     0.117 C 
BRANCH  20  21
ATOM     21  C   UNL A   1      31.647  31.887  26.671  1.00  0.00     0.042 C 
BRANCH  21  22
ATOM     22  C   UNL A   1      32.898  32.583  27.193  1.00  0.00     0.118 C 
BRANCH  22  23
ATOM     23  N   UNL A   1      32.648  33.957  27.608  1.00  0.00    -0.352 N 
ATOM     24  C   UNL A   1      33.179  34.686  28.645  1.00  0.00     0.251 C 
ATOM     25  H   UNL A   1      31.994  34.443  27.056  1.00  0.00     0.163 HD
ATOM     26  O   UNL A   1      32.675  35.765  28.944  1.00  0.00    -0.269 OA
BRANCH  24  27
ATOM     27  C   UNL A   1      34.336  34.173  29.410  1.00  0.00     0.039 A 
ATOM     28  C   UNL A   1      34.105  33.430  30.571  1.00  0.00     0.014 A 
ATOM     29  C   UNL A   1      35.644  34.442  29.003  1.00  0.00     0.014 A 
ATOM     30  C   UNL A   1      35.187  32.901  31.283  1.00  0.00     0.010 A 
ATOM     31  C   UNL A   1      36.712  33.840  29.657  1.00  0.00     0.010 A 
ATOM     32  C   UNL A   1      36.497  33.072  30.811  1.00  0.00    -0.014 A 
BRANCH  32  33
ATOM     33  C   UNL A   1      37.659  32.458  31.503  1.00  0.00     0.031 A 
ATOM     34  C   UNL A   1      38.409  31.320  30.861  1.00  0.00     0.074 A 
ATOM     35  C   UNL A   1      37.976  32.856  32.751  1.00  0.00     0.049 A 
ATOM     36  N   UNL A   1      39.394  30.608  31.341  1.00  0.00    -0.248 NA
ATOM     37  C   UNL A   1      37.973  30.907  29.516  1.00  0.00     0.031 C 
ATOM     38  C   UNL A   1      37.271  33.889  33.514  1.00  0.00     0.029 A 
ATOM     39  N   UNL A   1      38.954  32.419  33.610  1.00  0.00    -0.354 N 
ATOM     40  C   UNL A   1      39.666  29.640  30.382  1.00  0.00     0.074 A 
ATOM     41  C   UNL A   1      38.718  29.832  29.307  1.00  0.00     0.031 C 
ATOM     42  C   UNL A   1      37.840  34.008  34.724  1.00  0.00     0.029 A 
ATOM     43  C   UNL A   1      38.929  33.043  34.837  1.00  0.00     0.049 A 
ATOM     44  H   UNL A   1      39.610  31.725  33.372  1.00  0.00     0.167 HD
ATOM     45  C   UNL A   1      40.636  28.695  30.378  1.00  0.00     0.034 A 
ATOM     46  C   UNL A   1      39.693  32.853  35.930  1.00  0.00     0.034 A 
ATOM     47  C   UNL A   1      41.610  28.542  31.424  1.00  0.00     0.049 A 
ATOM     48  C   UNL A   1      40.800  31.835  35.880  1.00  0.00     0.074 A 
ATOM     49  C   UNL A   1      42.695  27.684  31.472  1.00  0.00     0.029 A 
ATOM     50  N   UNL A   1      41.617  29.260  32.610  1.00  0.00    -0.354 N 
ATOM     51  N   UNL A   1      41.145  31.041  34.895  1.00  0.00    -0.248 NA
ATOM     52  C   UNL A   1      41.646  31.714  37.075  1.00  0.00     0.031 C 
ATOM     53  C   UNL A   1      43.344  27.869  32.696  1.00  0.00     0.029 A 
ATOM     54  C   UNL A   1      42.680  28.861  33.401  1.00  0.00     0.049 A 
ATOM     55  H   UNL A   1      40.961  29.953  32.854  1.00  0.00     0.167 HD
ATOM     56  C   UNL A   1      42.268  30.352  35.338  1.00  0.00     0.074 A 
ATOM     57  C   UNL A   1      42.557  30.838  36.671  1.00  0.00     0.031 C 
ATOM     58  C   UNL A   1      42.986  29.392  34.704  1.00  0.00     0.034 A 
BRANCH  45  59
ATOM     59  C   UNL A   1      40.728  27.789  29.177  1.00  0.00     0.023 A 
ATOM     60  C   UNL A   1      39.902  26.649  29.099  1.00  0.00     0.012 A 
ATOM     61  C   UNL A   1      41.590  28.090  28.104  1.00  0.00     0.148 A 
ATOM     62  C   UNL A   1      39.958  25.803  27.993  1.00  0.00     0.002 A 
ATOM     63  C   UNL A   1      41.608  27.266  26.984  1.00  0.00     0.091 A 
ATOM     64  F   UNL A   1      42.385  29.165  28.203  1.00  0.00    -0.205 F 
ATOM     65  C   UNL A   1      40.802  26.116  26.933  1.00  0.00     0.022 A 
BRANCH  63  66
ATOM     66  S   UNL A   1      42.600  27.627  25.531  1.00  0.00     0.127 S 
ATOM     67  O   UNL A   1      41.837  28.709  24.914  1.00  0.00    -0.237 OA
ATOM     68  O   UNL A   1      43.874  28.039  26.122  1.00  0.00    -0.237 OA
ATOM     69  O   UNL A   1      42.659  26.387  24.767  1.00  0.00    -0.744 OA
ENDBRANCH  63  66
ENDBRANCH  45  59
BRANCH  46  70
ATOM     70  C   UNL A   1      39.482  33.700  37.139  1.00  0.00     0.023 A 
ATOM     71  C   UNL A   1      39.941  35.031  37.137  1.00  0.00     0.012 A 
ATOM     72  C   UNL A   1      38.800  33.210  38.270  1.00  0.00     0.148 A 
ATOM     73  C   UNL A   1      39.754  35.850  38.251  1.00  0.00     0.002 A 
ATOM     74  C   UNL A   1      38.568  34.048  39.354  1.00  0.00     0.091 A 
ATOM     75  F   UNL A   1      38.379  31.937  38.256  1.00  0.00    -0.205 F 
ATOM     76  C   UNL A   1      39.058  35.363  39.354  1.00  0.00     0.022 A 
BRANCH  74  77
ATOM     77  S   UNL A   1      37.565  33.550  40.759  1.00  0.00     0.127 S 
ATOM     78  O   UNL A   1      38.436  32.583  41.420  1.00  0.00    -0.237 OA
ATOM     79  O   UNL A   1      37.393  34.816  41.472  1.00  0.00    -0.237 OA
ATOM     80  O   UNL A   1      36.334  33.012  40.192  1.00  0.00    -0.744 OA
ENDBRANCH  74  77
ENDBRANCH  46  70
BRANCH  58  81
ATOM     81  C   UNL A   1      44.180  28.822  35.424  1.00  0.00     0.023 A 
ATOM     82  C   UNL A   1      45.449  29.406  35.247  1.00  0.00     0.012 A 
ATOM     83  C   UNL A   1      44.028  27.759  36.336  1.00  0.00     0.148 A 
ATOM     84  C   UNL A   1      46.556  28.920  35.942  1.00  0.00     0.002 A 
ATOM     85  C   UNL A   1      45.124  27.312  37.062  1.00  0.00     0.091 A 
ATOM     86  F   UNL A   1      42.814  27.205  36.476  1.00  0.00    -0.205 F 
ATOM     87  C   UNL A   1      46.391  27.884  36.859  1.00  0.00     0.022 A 
BRANCH  85  88
ATOM     88  S   UNL A   1      44.988  26.050  38.333  1.00  0.00     0.127 S 
ATOM     89  O   UNL A   1      46.380  25.900  38.754  1.00  0.00    -0.237 OA
ATOM     90  O   UNL A   1      44.118  26.692  39.318  1.00  0.00    -0.237 OA
ATOM     91  O   UNL A   1      44.403  24.886  37.680  1.00  0.00    -0.744 OA
ENDBRANCH  85  88
ENDBRANCH  58  81
ENDBRANCH  32  33
ENDBRANCH  24  27
ENDBRANCH  22  23
ENDBRANCH  21  22
ENDBRANCH  20  21
ENDBRANCH   3  20
TORSDOF 19
ENDMDL
MODEL 2
REMARK VINA RESULT:     -10.0      7.052     12.229
REMARK SMILES C[C@H](CC[NH+](C)C)[NH2+][C@H](C)[C@@H](C)C(=O)NCCCNC(=O)c1ccc(-c2c3nc(c(-c4cccc(S(=O)(=O)[O-])c4F)c4ccc([nH]4)c(-c4cccc(S(=O)(=O)[O-])c4F)c4nc(c(-c5cccc(S(=O)(=O)[O-])c5F)c5ccc2[nH]5)C=C4)C=C3)cc1
REMARK SMILES IDX 13 1 14 2 15 3 11 5 12 6 9 7 10 8 8 9 2 12 1 13 3 14 4 15
REMARK SMILES IDX 5 16 6 17 7 18 16 20 17 21 18 22 19 23 20 24 21 26 22 27
REMARK SMILES IDX 23 28 84 29 24 30 83 31 25 32 26 33 27 34 77 35 28 36 82 37
REMARK SMILES IDX 76 38 78 39 29 40 81 41 75 42 74 43 30 45 62 46 42 47 61 48
REMARK SMILES IDX 43 49 46 50 60 51 79 52 44 53 45 54 59 56 80 57 47 58 31 59
REMARK SMILES IDX 32 60 40 61 33 62 35 63 41 64 34 65 36 66 37 67 38 68 39 69
REMARK SMILES IDX 63 70 64 71 72 72 65 73 67 74 73 75 66 76 68 77 69 78 70 79
REMARK SMILES IDX 71 80 48 81 49 82 57 83 50 84 52 85 58 86 51 87 53 88 54 89
REMARK SMILES IDX 55 90 56 91
REMARK H PARENT 15 4 8 10 8 11 5 19 19 25 78 44 46 55
REMARK Flexibility Score: inf
ROOT
ATOM      1  C   UNL A   1      35.428  21.831  26.091  1.00  0.00     0.228 C 
ATOM      2  O   UNL A   1      34.598  21.683  26.995  1.00  0.00    -0.275 OA
ATOM      3  N   UNL A   1      36.122  20.722  25.732  1.00  0.00    -0.356 N 
ATOM      4  H   UNL A   1      36.001  19.959  26.341  1.00  0.00     0.163 HD
ENDROOT
BRANCH   1   5
ATOM      5  C   UNL A   1      35.573  23.174  25.380  1.00  0.00     0.133 C 
ATOM      6  C   UNL A   1      36.708  23.950  26.067  1.00  0.00     0.024 C 
BRANCH   5   7
ATOM      7  C   UNL A   1      34.231  23.932  25.194  1.00  0.00     0.191 C 
ATOM      8  C   UNL A   1      34.258  24.868  23.971  1.00  0.00     0.076 C 
BRANCH   7   9
ATOM      9  N   UNL A   1      32.987  23.170  24.979  1.00  0.00    -0.341 N 
ATOM     10  H   UNL A   1      33.204  22.203  25.221  1.00  0.00     0.346 HD
ATOM     11  H   UNL A   1      32.323  23.696  25.547  1.00  0.00     0.346 HD
BRANCH   9  12
ATOM     12  C   UNL A   1      32.301  23.121  23.689  1.00  0.00     0.185 C 
ATOM     13  C   UNL A   1      30.867  23.655  23.699  1.00  0.00     0.075 C 
BRANCH  12  14
ATOM     14  C   UNL A   1      32.309  21.656  23.171  1.00  0.00     0.126 C 
BRANCH  14  15
ATOM     15  C   UNL A   1      33.003  20.550  24.004  1.00  0.00     0.268 C 
BRANCH  15  16
ATOM     16  N   UNL A   1      32.286  19.277  24.235  1.00  0.00    -0.340 N 
ATOM     17  C   UNL A   1      32.398  18.432  23.041  1.00  0.00     0.332 C 
ATOM     18  C   UNL A   1      32.822  18.537  25.384  1.00  0.00     0.332 C 
ATOM     19  H   UNL A   1      31.313  19.508  24.434  1.00  0.00     0.347 HD
ENDBRANCH  15  16
ENDBRANCH  14  15
ENDBRANCH  12  14
ENDBRANCH   9  12
ENDBRANCH   7   9
ENDBRANCH   5   7
ENDBRANCH   1   5
BRANCH   3  20
ATOM     20  C   UNL A   1      37.012  20.450  24.618  1.00  0.00     0.117 C 
BRANCH  20  21
ATOM     21  C   UNL A   1      38.071  19.406  24.946  1.00  0.00     0.042 C 
BRANCH  21  22
ATOM     22  C   UNL A   1      39.037  19.812  26.053  1.00  0.00     0.118 C 
BRANCH  22  23
ATOM     23  N   UNL A   1      40.280  19.051  26.025  1.00  0.00    -0.352 N 
ATOM     24  C   UNL A   1      41.585  19.475  26.078  1.00  0.00     0.251 C 
ATOM     25  H   UNL A   1      40.165  18.076  25.959  1.00  0.00     0.163 HD
ATOM     26  O   UNL A   1      42.487  18.679  25.831  1.00  0.00    -0.269 OA
BRANCH  24  27
ATOM     27  C   UNL A   1      41.908  20.878  26.414  1.00  0.00     0.039 A 
ATOM     28  C   UNL A   1      42.269  21.195  27.726  1.00  0.00     0.014 A 
ATOM     29  C   UNL A   1      41.833  21.884  25.449  1.00  0.00     0.014 A 
ATOM     30  C   UNL A   1      42.619  22.510  28.051  1.00  0.00     0.010 A 
ATOM     31  C   UNL A   1      42.269  23.169  25.750  1.00  0.00     0.010 A 
ATOM     32  C   UNL A   1      42.657  23.499  27.057  1.00  0.00    -0.014 A 
BRANCH  32  33
ATOM     33  C   UNL A   1      43.098  24.886  27.356  1.00  0.00     0.031 A 
ATOM     34  C   UNL A   1      42.149  25.859  28.006  1.00  0.00     0.074 A 
ATOM     35  C   UNL A   1      44.315  25.299  26.951  1.00  0.00     0.049 A 
ATOM     36  N   UNL A   1      42.324  27.127  28.273  1.00  0.00    -0.248 NA
ATOM     37  C   UNL A   1      40.818  25.348  28.375  1.00  0.00     0.031 C 
ATOM     38  C   UNL A   1      45.292  24.476  26.233  1.00  0.00     0.029 A 
ATOM     39  N   UNL A   1      44.928  26.523  27.057  1.00  0.00    -0.354 N 
ATOM     40  C   UNL A   1      41.117  27.574  28.798  1.00  0.00     0.074 A 
ATOM     41  C   UNL A   1      40.206  26.452  28.779  1.00  0.00     0.031 C 
ATOM     42  C   UNL A   1      46.380  25.215  25.967  1.00  0.00     0.029 A 
ATOM     43  C   UNL A   1      46.170  26.571  26.466  1.00  0.00     0.049 A 
ATOM     44  H   UNL A   1      44.517  27.293  27.511  1.00  0.00     0.167 HD
ATOM     45  C   UNL A   1      40.803  28.799  29.282  1.00  0.00     0.034 A 
ATOM     46  C   UNL A   1      47.037  27.593  26.335  1.00  0.00     0.034 A 
ATOM     47  C   UNL A   1      41.729  29.897  29.349  1.00  0.00     0.049 A 
ATOM     48  C   UNL A   1      46.687  28.930  26.932  1.00  0.00     0.074 A 
ATOM     49  C   UNL A   1      41.543  31.147  29.911  1.00  0.00     0.029 A 
ATOM     50  N   UNL A   1      43.015  29.879  28.831  1.00  0.00    -0.354 N 
ATOM     51  N   UNL A   1      45.600  29.286  27.573  1.00  0.00    -0.248 NA
ATOM     52  C   UNL A   1      47.695  29.993  26.820  1.00  0.00     0.031 C 
ATOM     53  C   UNL A   1      42.710  31.892  29.715  1.00  0.00     0.029 A 
ATOM     54  C   UNL A   1      43.632  31.097  29.052  1.00  0.00     0.049 A 
ATOM     55  H   UNL A   1      43.429  29.111  28.373  1.00  0.00     0.167 HD
ATOM     56  C   UNL A   1      45.808  30.601  27.973  1.00  0.00     0.074 A 
ATOM     57  C   UNL A   1      47.133  30.970  27.519  1.00  0.00     0.031 C 
ATOM     58  C   UNL A   1      44.971  31.433  28.641  1.00  0.00     0.034 A 
BRANCH  45  59
ATOM     59  C   UNL A   1      39.415  29.000  29.833  1.00  0.00     0.023 A 
ATOM     60  C   UNL A   1      39.121  28.584  31.148  1.00  0.00     0.012 A 
ATOM     61  C   UNL A   1      38.417  29.643  29.074  1.00  0.00     0.148 A 
ATOM     62  C   UNL A   1      37.849  28.769  31.687  1.00  0.00     0.002 A 
ATOM     63  C   UNL A   1      37.163  29.866  29.635  1.00  0.00     0.091 A 
ATOM     64  F   UNL A   1      38.706  30.013  27.818  1.00  0.00    -0.205 F 
ATOM     65  C   UNL A   1      36.874  29.418  30.934  1.00  0.00     0.022 A 
BRANCH  63  66
ATOM     66  S   UNL A   1      35.866  30.764  28.778  1.00  0.00     0.127 S 
ATOM     67  O   UNL A   1      35.105  31.319  29.896  1.00  0.00    -0.237 OA
ATOM     68  O   UNL A   1      36.628  31.750  28.011  1.00  0.00    -0.237 OA
ATOM     69  O   UNL A   1      35.162  29.778  27.969  1.00  0.00    -0.744 OA
ENDBRANCH  63  66
ENDBRANCH  45  59
BRANCH  46  70
ATOM     70  C   UNL A   1      48.355  27.369  25.674  1.00  0.00     0.023 A 
ATOM     71  C   UNL A   1      49.445  26.920  26.443  1.00  0.00     0.012 A 
ATOM     72  C   UNL A   1      48.525  27.561  24.289  1.00  0.00     0.148 A 
ATOM     73  C   UNL A   1      50.689  26.695  25.853  1.00  0.00     0.002 A 
ATOM     74  C   UNL A   1      49.750  27.281  23.697  1.00  0.00     0.091 A 
ATOM     75  F   UNL A   1      47.477  27.998  23.576  1.00  0.00    -0.205 F 
ATOM     76  C   UNL A   1      50.839  26.865  24.479  1.00  0.00     0.022 A 
BRANCH  74  77
ATOM     77  S   UNL A   1      49.998  27.341  21.919  1.00  0.00     0.127 S 
ATOM     78  O   UNL A   1      51.385  26.902  21.794  1.00  0.00    -0.237 OA
ATOM     79  O   UNL A   1      49.001  26.382  21.442  1.00  0.00    -0.237 OA
ATOM     80  O   UNL A   1      49.732  28.721  21.532  1.00  0.00    -0.744 OA
ENDBRANCH  74  77
ENDBRANCH  46  70
BRANCH  58  81
ATOM     81  C   UNL A   1      45.470  32.818  28.959  1.00  0.00     0.023 A 
ATOM     82  C   UNL A   1      46.199  33.046  30.142  1.00  0.00     0.012 A 
ATOM     83  C   UNL A   1      45.283  33.875  28.045  1.00  0.00     0.148 A 
ATOM     84  C   UNL A   1      46.708  34.313  30.427  1.00  0.00     0.002 A 
ATOM     85  C   UNL A   1      45.835  35.122  28.313  1.00  0.00     0.091 A 
ATOM     86  F   UNL A   1      44.570  33.641  26.934  1.00  0.00    -0.205 F 
ATOM     87  C   UNL A   1      46.538  35.345  29.508  1.00  0.00     0.022 A 
BRANCH  85  88
ATOM     88  S   UNL A   1      45.750  36.482  27.143  1.00  0.00     0.127 S 
ATOM     89  O   UNL A   1      44.307  36.692  27.034  1.00  0.00    -0.237 OA
ATOM     90  O   UNL A   1      46.469  37.543  27.846  1.00  0.00    -0.237 OA
ATOM     91  O   UNL A   1      46.405  36.008  25.930  1.00  0.00    -0.744 OA
ENDBRANCH  85  88
ENDBRANCH  58  81
ENDBRANCH  32  33
ENDBRANCH  24  27
ENDBRANCH  22  23
ENDBRANCH  21  22
ENDBRANCH  20  21
ENDBRANCH   3  20
TORSDOF 19
ENDMDL
MODEL 3
REMARK VINA RESULT:     -10.0      3.799      9.362
REMARK SMILES C[C@H](CC[NH+](C)C)[NH2+][C@H](C)[C@@H](C)C(=O)NCCCNC(=O)c1ccc(-c2c3nc(c(-c4cccc(S(=O)(=O)[O-])c4F)c4ccc([nH]4)c(-c4cccc(S(=O)(=O)[O-])c4F)c4nc(c(-c5cccc(S(=O)(=O)[O-])c5F)c5ccc2[nH]5)C=C4)C=C3)cc1
REMARK SMILES IDX 13 1 14 2 15 3 11 5 12 6 9 7 10 8 8 9 2 12 1 13 3 14 4 15
REMARK SMILES IDX 5 16 6 17 7 18 16 20 17 21 18 22 19 23 20 24 21 26 22 27
REMARK SMILES IDX 23 28 84 29 24 30 83 31 25 32 26 33 27 34 77 35 28 36 82 37
REMARK SMILES IDX 76 38 78 39 29 40 81 41 75 42 74 43 30 45 62 46 42 47 61 48
REMARK SMILES IDX 43 49 46 50 60 51 79 52 44 53 45 54 59 56 80 57 47 58 31 59
REMARK SMILES IDX 32 60 40 61 33 62 35 63 41 64 34 65 36 66 37 67 38 68 39 69
REMARK SMILES IDX 63 70 64 71 72 72 65 73 67 74 73 75 66 76 68 77 69 78 70 79
REMARK SMILES IDX 71 80 48 81 49 82 57 83 50 84 52 85 58 86 51 87 53 88 54 89
REMARK SMILES IDX 55 90 56 91
REMARK H PARENT 15 4 8 10 8 11 5 19 19 25 78 44 46 55
REMARK Flexibility Score: inf
ROOT
ATOM      1  C   UNL A   1      30.884  25.800  25.987  1.00  0.00     0.228 C 
ATOM      2  O   UNL A   1      30.533  24.682  26.381  1.00  0.00    -0.275 OA
ATOM      3  N   UNL A   1      31.309  26.663  26.944  1.00  0.00    -0.356 N 
ATOM      4  H   UNL A   1      31.140  26.356  27.863  1.00  0.00     0.163 HD
ENDROOT
BRANCH   1   5
ATOM      5  C   UNL A   1      30.909  26.128  24.496  1.00  0.00     0.133 C 
ATOM      6  C   UNL A   1      29.478  25.980  23.956  1.00  0.00     0.024 C 
BRANCH   5   7
ATOM      7  C   UNL A   1      32.025  25.385  23.711  1.00  0.00     0.191 C 
ATOM      8  C   UNL A   1      33.294  26.244  23.554  1.00  0.00     0.076 C 
BRANCH   7   9
ATOM      9  N   UNL A   1      32.565  24.118  24.237  1.00  0.00    -0.341 N 
ATOM     10  H   UNL A   1      33.323  24.375  24.870  1.00  0.00     0.346 HD
ATOM     11  H   UNL A   1      31.725  23.675  24.609  1.00  0.00     0.346 HD
BRANCH   9  12
ATOM     12  C   UNL A   1      33.099  23.066  23.374  1.00  0.00     0.185 C 
ATOM     13  C   UNL A   1      32.068  22.044  22.888  1.00  0.00     0.075 C 
BRANCH  12  14
ATOM     14  C   UNL A   1      34.246  22.334  24.124  1.00  0.00     0.126 C 
BRANCH  14  15
ATOM     15  C   UNL A   1      35.664  22.955  24.154  1.00  0.00     0.268 C 
BRANCH  15  16
ATOM     16  N   UNL A   1      36.608  22.527  25.210  1.00  0.00    -0.340 N 
ATOM     17  C   UNL A   1      37.442  21.433  24.701  1.00  0.00     0.332 C 
ATOM     18  C   UNL A   1      37.484  23.619  25.650  1.00  0.00     0.332 C 
ATOM     19  H   UNL A   1      36.052  22.226  26.010  1.00  0.00     0.347 HD
ENDBRANCH  15  16
ENDBRANCH  14  15
ENDBRANCH  12  14
ENDBRANCH   9  12
ENDBRANCH   7   9
ENDBRANCH   5   7
ENDBRANCH   1   5
BRANCH   3  20
ATOM     20  C   UNL A   1      31.966  27.955  26.866  1.00  0.00     0.117 C 
BRANCH  20  21
ATOM     21  C   UNL A   1      33.484  27.851  26.912  1.00  0.00     0.042 C 
BRANCH  21  22
ATOM     22  C   UNL A   1      34.217  28.964  26.174  1.00  0.00     0.118 C 
BRANCH  22  23
ATOM     23  N   UNL A   1      33.933  30.286  26.718  1.00  0.00    -0.352 N 
ATOM     24  C   UNL A   1      34.551  30.990  27.722  1.00  0.00     0.251 C 
ATOM     25  H   UNL A   1      33.174  30.750  26.296  1.00  0.00     0.163 HD
ATOM     26  O   UNL A   1      34.019  32.005  28.163  1.00  0.00    -0.269 OA
BRANCH  24  27
ATOM     27  C   UNL A   1      35.838  30.526  28.283  1.00  0.00     0.039 A 
ATOM     28  C   UNL A   1      35.829  29.712  29.419  1.00  0.00     0.014 A 
ATOM     29  C   UNL A   1      37.053  30.910  27.710  1.00  0.00     0.014 A 
ATOM     30  C   UNL A   1      37.035  29.229  29.937  1.00  0.00     0.010 A 
ATOM     31  C   UNL A   1      38.242  30.356  28.169  1.00  0.00     0.010 A 
ATOM     32  C   UNL A   1      38.248  29.518  29.294  1.00  0.00    -0.014 A 
BRANCH  32  33
ATOM     33  C   UNL A   1      39.537  28.958  29.776  1.00  0.00     0.031 A 
ATOM     34  C   UNL A   1      40.282  29.630  30.899  1.00  0.00     0.074 A 
ATOM     35  C   UNL A   1      40.085  27.906  29.137  1.00  0.00     0.049 A 
ATOM     36  N   UNL A   1      41.453  29.337  31.402  1.00  0.00    -0.248 NA
ATOM     37  C   UNL A   1      39.644  30.805  31.515  1.00  0.00     0.031 C 
ATOM     38  C   UNL A   1      39.503  27.221  27.980  1.00  0.00     0.029 A 
ATOM     39  N   UNL A   1      41.270  27.246  29.349  1.00  0.00    -0.354 N 
ATOM     40  C   UNL A   1      41.709  30.312  32.359  1.00  0.00     0.074 A 
ATOM     41  C   UNL A   1      40.589  31.226  32.342  1.00  0.00     0.031 C 
ATOM     42  C   UNL A   1      40.328  26.238  27.588  1.00  0.00     0.029 A 
ATOM     43  C   UNL A   1      41.511  26.239  28.443  1.00  0.00     0.049 A 
ATOM     44  H   UNL A   1      41.889  27.472  30.081  1.00  0.00     0.167 HD
ATOM     45  C   UNL A   1      42.766  30.421  33.200  1.00  0.00     0.034 A 
ATOM     46  C   UNL A   1      42.569  25.415  28.311  1.00  0.00     0.034 A 
ATOM     47  C   UNL A   1      43.850  29.479  33.251  1.00  0.00     0.049 A 
ATOM     48  C   UNL A   1      43.704  25.520  29.293  1.00  0.00     0.074 A 
ATOM     49  C   UNL A   1      44.917  29.442  34.131  1.00  0.00     0.029 A 
ATOM     50  N   UNL A   1      44.012  28.411  32.382  1.00  0.00    -0.354 N 
ATOM     51  N   UNL A   1      43.849  26.349  30.299  1.00  0.00    -0.248 NA
ATOM     52  C   UNL A   1      44.802  24.555  29.147  1.00  0.00     0.031 C 
ATOM     53  C   UNL A   1      45.734  28.362  33.781  1.00  0.00     0.029 A 
ATOM     54  C   UNL A   1      45.163  27.712  32.698  1.00  0.00     0.049 A 
ATOM     55  H   UNL A   1      43.396  28.183  31.647  1.00  0.00     0.167 HD
ATOM     56  C   UNL A   1      45.033  25.983  30.926  1.00  0.00     0.074 A 
ATOM     57  C   UNL A   1      45.556  24.845  30.199  1.00  0.00     0.031 C 
ATOM     58  C   UNL A   1      45.643  26.548  31.998  1.00  0.00     0.034 A 
BRANCH  45  59
ATOM     59  C   UNL A   1      42.769  31.570  34.175  1.00  0.00     0.023 A 
ATOM     60  C   UNL A   1      43.395  32.783  33.820  1.00  0.00     0.012 A 
ATOM     61  C   UNL A   1      42.112  31.471  35.417  1.00  0.00     0.148 A 
ATOM     62  C   UNL A   1      43.401  33.865  34.699  1.00  0.00     0.002 A 
ATOM     63  C   UNL A   1      42.083  32.570  36.270  1.00  0.00     0.091 A 
ATOM     64  F   UNL A   1      41.541  30.305  35.749  1.00  0.00    -0.205 F 
ATOM     65  C   UNL A   1      42.738  33.762  35.917  1.00  0.00     0.022 A 
BRANCH  63  66
ATOM     66  S   UNL A   1      41.186  32.566  37.826  1.00  0.00     0.127 S 
ATOM     67  O   UNL A   1      39.897  32.009  37.421  1.00  0.00    -0.237 OA
ATOM     68  O   UNL A   1      42.004  31.675  38.650  1.00  0.00    -0.237 OA
ATOM     69  O   UNL A   1      41.157  33.951  38.275  1.00  0.00    -0.744 OA
ENDBRANCH  63  66
ENDBRANCH  45  59
BRANCH  46  70
ATOM     70  C   UNL A   1      42.566  24.367  27.250  1.00  0.00     0.023 A 
ATOM     71  C   UNL A   1      43.200  24.628  26.021  1.00  0.00     0.012 A 
ATOM     72  C   UNL A   1      41.975  23.106  27.464  1.00  0.00     0.148 A 
ATOM     73  C   UNL A   1      43.220  23.665  25.011  1.00  0.00     0.002 A 
ATOM     74  C   UNL A   1      42.047  22.132  26.476  1.00  0.00     0.091 A 
ATOM     75  F   UNL A   1      41.368  22.881  28.638  1.00  0.00    -0.205 F 
ATOM     76  C   UNL A   1      42.653  22.414  25.242  1.00  0.00     0.022 A 
BRANCH  74  77
ATOM     77  S   UNL A   1      41.466  20.452  26.735  1.00  0.00     0.127 S 
ATOM     78  O   UNL A   1      42.234  20.047  27.908  1.00  0.00    -0.237 OA
ATOM     79  O   UNL A   1      40.037  20.659  26.973  1.00  0.00    -0.237 OA
ATOM     80  O   UNL A   1      41.769  19.737  25.501  1.00  0.00    -0.744 OA
ENDBRANCH  74  77
ENDBRANCH  46  70
BRANCH  58  81
ATOM     81  C   UNL A   1      46.928  25.927  32.479  1.00  0.00     0.023 A 
ATOM     82  C   UNL A   1      48.161  26.408  31.999  1.00  0.00     0.012 A 
ATOM     83  C   UNL A   1      46.913  24.922  33.467  1.00  0.00     0.148 A 
ATOM     84  C   UNL A   1      49.361  25.876  32.469  1.00  0.00     0.002 A 
ATOM     85  C   UNL A   1      48.113  24.431  33.967  1.00  0.00     0.091 A 
ATOM     86  F   UNL A   1      45.728  24.465  33.897  1.00  0.00    -0.205 F 
ATOM     87  C   UNL A   1      49.337  24.898  33.461  1.00  0.00     0.022 A 
BRANCH  85  88
ATOM     88  S   UNL A   1      48.180  23.243  35.313  1.00  0.00     0.127 S 
ATOM     89  O   UNL A   1      49.621  23.062  35.478  1.00  0.00    -0.237 OA
ATOM     90  O   UNL A   1      47.527  23.969  36.402  1.00  0.00    -0.237 OA
ATOM     91  O   UNL A   1      47.452  22.070  34.847  1.00  0.00    -0.744 OA
ENDBRANCH  85  88
ENDBRANCH  58  81
ENDBRANCH  32  33
ENDBRANCH  24  27
ENDBRANCH  22  23
ENDBRANCH  21  22
ENDBRANCH  20  21
ENDBRANCH   3  20
TORSDOF 19
ENDMDL
