MODEL 1
REMARK VINA RESULT:     -11.6      0.000      0.000
REMARK SMILES CC[NH2+][C@]1(C(=O)NCCCNC(=O)c2ccc(-c3c4nc(c(-c5cccc(S(=O)(=O)[O-])c5F)c5ccc([nH]5)c(-c5cccc(S(=O)(=O)[O-])c5F)c5nc(c(-c6cccc(S(=O)(=O)[O-])c6F)c6ccc3[nH]6)C=C5)C=C4)cc2)CCC[C@@H]1CC[N@H+]1C[C@H](C)OC[C@@H]1C
REMARK SMILES IDX 9 1 8 2 7 3 5 4 6 5 4 7 77 8 80 9 78 10 79 11 3 12 2 15 1 16
REMARK SMILES IDX 81 17 82 18 83 19 84 20 89 21 85 23 88 24 90 25 87 26 86 27
REMARK SMILES IDX 10 28 11 29 12 30 13 32 14 33 15 34 76 35 16 36 75 37 17 38
REMARK SMILES IDX 18 39 19 40 69 41 20 42 74 43 68 44 70 45 21 46 73 47 67 48
REMARK SMILES IDX 66 49 22 51 54 52 34 53 53 54 35 55 38 56 52 57 71 58 36 59
REMARK SMILES IDX 37 60 51 62 72 63 39 64 23 65 24 66 32 67 25 68 27 69 33 70
REMARK SMILES IDX 26 71 28 72 29 73 30 74 31 75 55 76 56 77 64 78 57 79 59 80
REMARK SMILES IDX 65 81 58 82 60 83 61 84 62 85 63 86 40 87 41 88 49 89 42 90
REMARK SMILES IDX 44 91 50 92 43 93 45 94 46 95 47 96 48 97
REMARK H PARENT 7 6 3 13 3 14 83 22 11 31 70 50 38 61
REMARK Flexibility Score: inf
ROOT
ATOM      1  C   UNL A   1      33.199  29.110  24.060  1.00  0.00     0.042 C 
ENDROOT
BRANCH   1   2
ATOM      2  C   UNL A   1      32.086  28.870  23.046  1.00  0.00     0.118 C 
BRANCH   2   3
ATOM      3  N   UNL A   1      31.239  27.732  23.330  1.00  0.00    -0.351 N 
ATOM      4  C   UNL A   1      31.493  26.469  22.849  1.00  0.00     0.281 C 
ATOM      5  O   UNL A   1      31.461  26.238  21.640  1.00  0.00    -0.268 OA
ATOM      6  H   UNL A   1      30.443  27.868  23.894  1.00  0.00     0.163 HD
BRANCH   4   7
ATOM      7  C   UNL A   1      31.862  25.340  23.925  1.00  0.00     0.178 C 
ATOM      8  C   UNL A   1      31.147  25.984  25.148  1.00  0.00     0.079 C 
ATOM      9  C   UNL A   1      31.160  23.932  23.771  1.00  0.00     0.066 C 
ATOM     10  C   UNL A   1      30.744  24.876  26.076  1.00  0.00     0.008 C 
ATOM     11  C   UNL A   1      30.651  23.626  25.222  1.00  0.00     0.011 C 
BRANCH   7  12
ATOM     12  N   UNL A   1      33.330  25.355  24.081  1.00  0.00    -0.334 N 
ATOM     13  H   UNL A   1      33.672  24.471  23.704  1.00  0.00     0.347 HD
ATOM     14  H   UNL A   1      33.603  26.214  23.603  1.00  0.00     0.347 HD
BRANCH  12  15
ATOM     15  C   UNL A   1      33.927  25.507  25.387  1.00  0.00     0.257 C 
ATOM     16  C   UNL A   1      35.200  24.673  25.468  1.00  0.00     0.071 C 
ENDBRANCH  12  15
ENDBRANCH   7  12
BRANCH   9  17
ATOM     17  C   UNL A   1      31.676  22.536  23.182  1.00  0.00     0.072 C 
BRANCH  17  18
ATOM     18  C   UNL A   1      32.186  21.138  23.713  1.00  0.00     0.263 C 
BRANCH  18  19
ATOM     19  N   UNL A   1      32.605  20.624  25.032  1.00  0.00    -0.329 N 
ATOM     20  C   UNL A   1      32.848  19.171  25.082  1.00  0.00     0.294 C 
ATOM     21  C   UNL A   1      33.733  21.384  25.607  1.00  0.00     0.207 C 
ATOM     22  H   UNL A   1      31.791  20.781  25.626  1.00  0.00     0.348 HD
ATOM     23  C   UNL A   1      34.137  18.810  24.349  1.00  0.00     0.170 C 
ATOM     24  C   UNL A   1      35.046  20.890  25.025  1.00  0.00     0.225 C 
ATOM     25  C   UNL A   1      33.819  21.373  27.131  1.00  0.00     0.078 C 
ATOM     26  O   UNL A   1      35.243  19.465  24.997  1.00  0.00    -0.366 OA
ATOM     27  C   UNL A   1      34.423  17.321  24.269  1.00  0.00     0.045 C 
ENDBRANCH  18  19
ENDBRANCH  17  18
ENDBRANCH   9  17
ENDBRANCH   4   7
ENDBRANCH   2   3
ENDBRANCH   1   2
BRANCH   1  28
ATOM     28  C   UNL A   1      32.722  29.161  25.508  1.00  0.00     0.118 C 
BRANCH  28  29
ATOM     29  N   UNL A   1      32.306  30.501  25.920  1.00  0.00    -0.352 N 
ATOM     30  C   UNL A   1      32.837  31.343  26.869  1.00  0.00     0.251 C 
ATOM     31  H   UNL A   1      31.522  30.857  25.441  1.00  0.00     0.163 HD
ATOM     32  O   UNL A   1      32.211  32.348  27.209  1.00  0.00    -0.269 OA
BRANCH  30  33
ATOM     33  C   UNL A   1      34.141  31.041  27.495  1.00  0.00     0.039 A 
ATOM     34  C   UNL A   1      35.068  32.071  27.687  1.00  0.00     0.014 A 
ATOM     35  C   UNL A   1      34.461  29.738  27.878  1.00  0.00     0.014 A 
ATOM     36  C   UNL A   1      36.276  31.806  28.341  1.00  0.00     0.010 A 
ATOM     37  C   UNL A   1      35.623  29.493  28.602  1.00  0.00     0.010 A 
ATOM     38  C   UNL A   1      36.546  30.522  28.842  1.00  0.00    -0.014 A 
BRANCH  38  39
ATOM     39  C   UNL A   1      37.775  30.226  29.628  1.00  0.00     0.031 A 
ATOM     40  C   UNL A   1      38.808  29.273  29.085  1.00  0.00     0.074 A 
ATOM     41  C   UNL A   1      37.904  30.719  30.876  1.00  0.00     0.049 A 
ATOM     42  N   UNL A   1      39.885  28.806  29.662  1.00  0.00    -0.248 NA
ATOM     43  C   UNL A   1      38.583  28.752  27.726  1.00  0.00     0.031 C 
ATOM     44  C   UNL A   1      36.934  31.584  31.551  1.00  0.00     0.029 A 
ATOM     45  N   UNL A   1      38.889  30.535  31.816  1.00  0.00    -0.354 N 
ATOM     46  C   UNL A   1      40.437  27.903  28.761  1.00  0.00     0.074 A 
ATOM     47  C   UNL A   1      39.560  27.863  27.613  1.00  0.00     0.031 C 
ATOM     48  C   UNL A   1      37.371  31.855  32.791  1.00  0.00     0.029 A 
ATOM     49  C   UNL A   1      38.634  31.160  33.015  1.00  0.00     0.049 A 
ATOM     50  H   UNL A   1      39.702  30.005  31.647  1.00  0.00     0.167 HD
ATOM     51  C   UNL A   1      41.585  27.191  28.865  1.00  0.00     0.034 A 
ATOM     52  C   UNL A   1      39.333  31.165  34.168  1.00  0.00     0.034 A 
ATOM     53  C   UNL A   1      42.483  27.275  29.986  1.00  0.00     0.049 A 
ATOM     54  C   UNL A   1      40.634  30.411  34.237  1.00  0.00     0.074 A 
ATOM     55  C   UNL A   1      43.717  26.671  30.146  1.00  0.00     0.029 A 
ATOM     56  N   UNL A   1      42.241  28.004  31.139  1.00  0.00    -0.354 N 
ATOM     57  N   UNL A   1      41.220  29.690  33.312  1.00  0.00    -0.248 NA
ATOM     58  C   UNL A   1      41.390  30.501  35.495  1.00  0.00     0.031 C 
ATOM     59  C   UNL A   1      44.215  27.022  31.405  1.00  0.00     0.029 A 
ATOM     60  C   UNL A   1      43.301  27.863  32.019  1.00  0.00     0.049 A 
ATOM     61  H   UNL A   1      41.435  28.542  31.308  1.00  0.00     0.167 HD
ATOM     62  C   UNL A   1      42.428  29.273  33.861  1.00  0.00     0.074 A 
ATOM     63  C   UNL A   1      42.499  29.839  35.192  1.00  0.00     0.031 C 
ATOM     64  C   UNL A   1      43.385  28.482  33.317  1.00  0.00     0.034 A 
BRANCH  51  65
ATOM     65  C   UNL A   1      41.968  26.305  27.707  1.00  0.00     0.023 A 
ATOM     66  C   UNL A   1      42.745  26.833  26.654  1.00  0.00     0.012 A 
ATOM     67  C   UNL A   1      41.608  24.943  27.681  1.00  0.00     0.148 A 
ATOM     68  C   UNL A   1      43.121  26.034  25.577  1.00  0.00     0.002 A 
ATOM     69  C   UNL A   1      42.026  24.141  26.625  1.00  0.00     0.091 A 
ATOM     70  F   UNL A   1      40.854  24.462  28.679  1.00  0.00    -0.205 F 
ATOM     71  C   UNL A   1      42.771  24.687  25.567  1.00  0.00     0.022 A 
BRANCH  69  72
ATOM     72  S   UNL A   1      41.698  22.376  26.558  1.00  0.00     0.127 S 
ATOM     73  O   UNL A   1      42.317  21.913  27.799  1.00  0.00    -0.237 OA
ATOM     74  O   UNL A   1      40.234  22.334  26.554  1.00  0.00    -0.237 OA
ATOM     75  O   UNL A   1      42.321  21.897  25.332  1.00  0.00    -0.744 OA
ENDBRANCH  69  72
ENDBRANCH  51  65
BRANCH  52  76
ATOM     76  C   UNL A   1      38.855  31.972  35.328  1.00  0.00     0.023 A 
ATOM     77  C   UNL A   1      38.986  33.374  35.289  1.00  0.00     0.012 A 
ATOM     78  C   UNL A   1      38.254  31.370  36.449  1.00  0.00     0.148 A 
ATOM     79  C   UNL A   1      38.557  34.160  36.360  1.00  0.00     0.002 A 
ATOM     80  C   UNL A   1      37.779  32.163  37.489  1.00  0.00     0.091 A 
ATOM     81  F   UNL A   1      38.147  30.034  36.474  1.00  0.00    -0.205 F 
ATOM     82  C   UNL A   1      37.946  33.556  37.454  1.00  0.00     0.022 A 
BRANCH  80  83
ATOM     83  S   UNL A   1      36.865  31.487  38.880  1.00  0.00     0.127 S 
ATOM     84  O   UNL A   1      37.829  31.625  39.968  1.00  0.00    -0.237 OA
ATOM     85  O   UNL A   1      35.717  32.393  38.956  1.00  0.00    -0.237 OA
ATOM     86  O   UNL A   1      36.526  30.122  38.502  1.00  0.00    -0.744 OA
ENDBRANCH  80  83
ENDBRANCH  52  76
BRANCH  64  87
ATOM     87  C   UNL A   1      44.619  28.211  34.137  1.00  0.00     0.023 A 
ATOM     88  C   UNL A   1      45.724  29.080  34.053  1.00  0.00     0.012 A 
ATOM     89  C   UNL A   1      44.649  27.140  35.053  1.00  0.00     0.148 A 
ATOM     90  C   UNL A   1      46.853  28.871  34.846  1.00  0.00     0.002 A 
ATOM     91  C   UNL A   1      45.756  26.966  35.875  1.00  0.00     0.091 A 
ATOM     92  F   UNL A   1      43.595  26.312  35.103  1.00  0.00    -0.205 F 
ATOM     93  C   UNL A   1      46.863  27.824  35.764  1.00  0.00     0.022 A 
BRANCH  91  94
ATOM     94  S   UNL A   1      45.817  25.706  37.154  1.00  0.00     0.127 S 
ATOM     95  O   UNL A   1      44.627  26.025  37.943  1.00  0.00    -0.237 OA
ATOM     96  O   UNL A   1      45.720  24.470  36.377  1.00  0.00    -0.237 OA
ATOM     97  O   UNL A   1      47.089  25.891  37.839  1.00  0.00    -0.744 OA
ENDBRANCH  91  94
ENDBRANCH  64  87
ENDBRANCH  38  39
ENDBRANCH  30  33
ENDBRANCH  28  29
ENDBRANCH   1  28
TORSDOF 18
ENDMDL
MODEL 2
REMARK VINA RESULT:     -11.5      2.324      3.474
REMARK SMILES CC[NH2+][C@]1(C(=O)NCCCNC(=O)c2ccc(-c3c4nc(c(-c5cccc(S(=O)(=O)[O-])c5F)c5ccc([nH]5)c(-c5cccc(S(=O)(=O)[O-])c5F)c5nc(c(-c6cccc(S(=O)(=O)[O-])c6F)c6ccc3[nH]6)C=C5)C=C4)cc2)CCC[C@@H]1CC[N@H+]1C[C@H](C)OC[C@@H]1C
REMARK SMILES IDX 9 1 8 2 7 3 5 4 6 5 4 7 77 8 80 9 78 10 79 11 3 12 2 15 1 16
REMARK SMILES IDX 81 17 82 18 83 19 84 20 89 21 85 23 88 24 90 25 87 26 86 27
REMARK SMILES IDX 10 28 11 29 12 30 13 32 14 33 15 34 76 35 16 36 75 37 17 38
REMARK SMILES IDX 18 39 19 40 69 41 20 42 74 43 68 44 70 45 21 46 73 47 67 48
REMARK SMILES IDX 66 49 22 51 54 52 34 53 53 54 35 55 38 56 52 57 71 58 36 59
REMARK SMILES IDX 37 60 51 62 72 63 39 64 23 65 24 66 32 67 25 68 27 69 33 70
REMARK SMILES IDX 26 71 28 72 29 73 30 74 31 75 55 76 56 77 64 78 57 79 59 80
REMARK SMILES IDX 65 81 58 82 60 83 61 84 62 85 63 86 40 87 41 88 49 89 42 90
REMARK SMILES IDX 44 91 50 92 43 93 45 94 46 95 47 96 48 97
REMARK H PARENT 7 6 3 13 3 14 83 22 11 31 70 50 38 61
REMARK Flexibility Score: inf
ROOT
ATOM      1  C   UNL A   1      31.576  31.994  26.526  1.00  0.00     0.042 C 
ENDROOT
BRANCH   1   2
ATOM      2  C   UNL A   1      31.686  30.482  26.366  1.00  0.00     0.118 C 
BRANCH   2   3
ATOM      3  N   UNL A   1      32.381  30.046  25.173  1.00  0.00    -0.351 N 
ATOM      4  C   UNL A   1      33.130  28.894  25.121  1.00  0.00     0.281 C 
ATOM      5  O   UNL A   1      34.148  28.773  25.804  1.00  0.00    -0.268 OA
ATOM      6  H   UNL A   1      32.315  30.600  24.362  1.00  0.00     0.163 HD
BRANCH   4   7
ATOM      7  C   UNL A   1      32.597  27.722  24.168  1.00  0.00     0.178 C 
ATOM      8  C   UNL A   1      33.255  28.218  22.848  1.00  0.00     0.079 C 
ATOM      9  C   UNL A   1      33.208  26.278  24.378  1.00  0.00     0.066 C 
ATOM     10  C   UNL A   1      33.504  27.019  21.982  1.00  0.00     0.008 C 
ATOM     11  C   UNL A   1      33.577  25.831  22.922  1.00  0.00     0.011 C 
BRANCH   7  12
ATOM     12  N   UNL A   1      31.127  27.836  24.121  1.00  0.00    -0.334 N 
ATOM     13  H   UNL A   1      30.758  27.131  24.758  1.00  0.00     0.347 HD
ATOM     14  H   UNL A   1      30.965  28.817  24.353  1.00  0.00     0.347 HD
BRANCH  12  15
ATOM     15  C   UNL A   1      30.418  27.678  22.873  1.00  0.00     0.257 C 
ATOM     16  C   UNL A   1      29.714  28.982  22.515  1.00  0.00     0.071 C 
ENDBRANCH  12  15
ENDBRANCH   7  12
BRANCH   9  17
ATOM     17  C   UNL A   1      32.644  24.972  25.111  1.00  0.00     0.072 C 
BRANCH  17  18
ATOM     18  C   UNL A   1      32.500  23.423  24.836  1.00  0.00     0.263 C 
BRANCH  18  19
ATOM     19  N   UNL A   1      33.437  22.353  24.441  1.00  0.00    -0.329 N 
ATOM     20  C   UNL A   1      34.839  22.783  24.291  1.00  0.00     0.294 C 
ATOM     21  C   UNL A   1      33.324  21.154  25.294  1.00  0.00     0.207 C 
ATOM     22  H   UNL A   1      33.134  22.096  23.501  1.00  0.00     0.348 HD
ATOM     23  C   UNL A   1      35.472  23.059  25.652  1.00  0.00     0.170 C 
ATOM     24  C   UNL A   1      34.121  21.345  26.572  1.00  0.00     0.225 C 
ATOM     25  C   UNL A   1      33.737  19.840  24.632  1.00  0.00     0.078 C 
ATOM     26  O   UNL A   1      35.461  21.846  26.428  1.00  0.00    -0.366 OA
ATOM     27  C   UNL A   1      36.890  23.595  25.593  1.00  0.00     0.045 C 
ENDBRANCH  18  19
ENDBRANCH  17  18
ENDBRANCH   9  17
ENDBRANCH   4   7
ENDBRANCH   2   3
ENDBRANCH   1   2
BRANCH   1  28
ATOM     28  C   UNL A   1      32.721  32.621  27.315  1.00  0.00     0.118 C 
BRANCH  28  29
ATOM     29  N   UNL A   1      32.494  34.034  27.615  1.00  0.00    -0.352 N 
ATOM     30  C   UNL A   1      33.059  34.839  28.577  1.00  0.00     0.251 C 
ATOM     31  H   UNL A   1      31.832  34.479  27.038  1.00  0.00     0.163 HD
ATOM     32  O   UNL A   1      32.578  35.951  28.798  1.00  0.00    -0.269 OA
BRANCH  30  33
ATOM     33  C   UNL A   1      34.226  34.374  29.355  1.00  0.00     0.039 A 
ATOM     34  C   UNL A   1      34.026  33.755  30.594  1.00  0.00     0.014 A 
ATOM     35  C   UNL A   1      35.522  34.561  28.872  1.00  0.00     0.014 A 
ATOM     36  C   UNL A   1      35.121  33.250  31.303  1.00  0.00     0.010 A 
ATOM     37  C   UNL A   1      36.599  33.985  29.536  1.00  0.00     0.010 A 
ATOM     38  C   UNL A   1      36.414  33.323  30.760  1.00  0.00    -0.014 A 
BRANCH  38  39
ATOM     39  C   UNL A   1      37.588  32.710  31.439  1.00  0.00     0.031 A 
ATOM     40  C   UNL A   1      38.306  31.547  30.803  1.00  0.00     0.074 A 
ATOM     41  C   UNL A   1      37.935  33.120  32.675  1.00  0.00     0.049 A 
ATOM     42  N   UNL A   1      39.275  30.812  31.284  1.00  0.00    -0.248 NA
ATOM     43  C   UNL A   1      37.852  31.137  29.464  1.00  0.00     0.031 C 
ATOM     44  C   UNL A   1      37.266  34.178  33.436  1.00  0.00     0.029 A 
ATOM     45  N   UNL A   1      38.914  32.671  33.528  1.00  0.00    -0.354 N 
ATOM     46  C   UNL A   1      39.512  29.826  30.333  1.00  0.00     0.074 A 
ATOM     47  C   UNL A   1      38.565  30.038  29.262  1.00  0.00     0.031 C 
ATOM     48  C   UNL A   1      37.853  34.297  34.638  1.00  0.00     0.029 A 
ATOM     49  C   UNL A   1      38.917  33.305  34.749  1.00  0.00     0.049 A 
ATOM     50  H   UNL A   1      39.553  31.962  33.287  1.00  0.00     0.167 HD
ATOM     51  C   UNL A   1      40.452  28.851  30.335  1.00  0.00     0.034 A 
ATOM     52  C   UNL A   1      39.685  33.104  35.840  1.00  0.00     0.034 A 
ATOM     53  C   UNL A   1      41.428  28.677  31.378  1.00  0.00     0.049 A 
ATOM     54  C   UNL A   1      40.758  32.050  35.793  1.00  0.00     0.074 A 
ATOM     55  C   UNL A   1      42.482  27.783  31.429  1.00  0.00     0.029 A 
ATOM     56  N   UNL A   1      41.467  29.410  32.553  1.00  0.00    -0.354 N 
ATOM     57  N   UNL A   1      41.072  31.233  34.817  1.00  0.00    -0.248 NA
ATOM     58  C   UNL A   1      41.610  31.914  36.985  1.00  0.00     0.031 C 
ATOM     59  C   UNL A   1      43.149  27.963  32.645  1.00  0.00     0.029 A 
ATOM     60  C   UNL A   1      42.524  28.987  33.340  1.00  0.00     0.049 A 
ATOM     61  H   UNL A   1      40.836  30.126  32.793  1.00  0.00     0.167 HD
ATOM     62  C   UNL A   1      42.177  30.515  35.260  1.00  0.00     0.074 A 
ATOM     63  C   UNL A   1      42.492  31.008  36.585  1.00  0.00     0.031 C 
ATOM     64  C   UNL A   1      42.862  29.528  34.631  1.00  0.00     0.034 A 
BRANCH  51  65
ATOM     65  C   UNL A   1      40.509  27.931  29.142  1.00  0.00     0.023 A 
ATOM     66  C   UNL A   1      39.607  26.849  29.054  1.00  0.00     0.012 A 
ATOM     67  C   UNL A   1      41.413  28.161  28.086  1.00  0.00     0.148 A 
ATOM     68  C   UNL A   1      39.632  25.989  27.958  1.00  0.00     0.002 A 
ATOM     69  C   UNL A   1      41.401  27.325  26.975  1.00  0.00     0.091 A 
ATOM     70  F   UNL A   1      42.276  29.180  28.193  1.00  0.00    -0.205 F 
ATOM     71  C   UNL A   1      40.520  26.232  26.915  1.00  0.00     0.022 A 
BRANCH  69  72
ATOM     72  S   UNL A   1      42.447  27.601  25.541  1.00  0.00     0.127 S 
ATOM     73  O   UNL A   1      41.904  28.853  25.015  1.00  0.00    -0.237 OA
ATOM     74  O   UNL A   1      43.775  27.719  26.147  1.00  0.00    -0.237 OA
ATOM     75  O   UNL A   1      42.273  26.436  24.685  1.00  0.00    -0.744 OA
ENDBRANCH  69  72
ENDBRANCH  51  65
BRANCH  52  76
ATOM     76  C   UNL A   1      39.515  33.971  37.042  1.00  0.00     0.023 A 
ATOM     77  C   UNL A   1      39.963  35.305  36.995  1.00  0.00     0.012 A 
ATOM     78  C   UNL A   1      38.896  33.496  38.214  1.00  0.00     0.148 A 
ATOM     79  C   UNL A   1      39.829  36.142  38.104  1.00  0.00     0.002 A 
ATOM     80  C   UNL A   1      38.716  34.350  39.297  1.00  0.00     0.091 A 
ATOM     81  F   UNL A   1      38.486  32.220  38.245  1.00  0.00    -0.205 F 
ATOM     82  C   UNL A   1      39.197  35.668  39.250  1.00  0.00     0.022 A 
BRANCH  80  83
ATOM     83  S   UNL A   1      37.802  33.870  40.766  1.00  0.00     0.127 S 
ATOM     84  O   UNL A   1      36.610  33.253  40.190  1.00  0.00    -0.237 OA
ATOM     85  O   UNL A   1      38.729  32.936  41.407  1.00  0.00    -0.237 OA
ATOM     86  O   UNL A   1      37.582  35.100  41.513  1.00  0.00    -0.744 OA
ENDBRANCH  80  83
ENDBRANCH  52  76
BRANCH  64  87
ATOM     87  C   UNL A   1      44.050  28.937  35.343  1.00  0.00     0.023 A 
ATOM     88  C   UNL A   1      45.333  29.485  35.145  1.00  0.00     0.012 A 
ATOM     89  C   UNL A   1      43.881  27.891  36.272  1.00  0.00     0.148 A 
ATOM     90  C   UNL A   1      46.433  28.981  35.837  1.00  0.00     0.002 A 
ATOM     91  C   UNL A   1      44.973  27.427  36.996  1.00  0.00     0.091 A 
ATOM     92  F   UNL A   1      42.655  27.370  36.432  1.00  0.00    -0.205 F 
ATOM     93  C   UNL A   1      46.252  27.963  36.771  1.00  0.00     0.022 A 
BRANCH  91  94
ATOM     94  S   UNL A   1      44.816  26.189  38.288  1.00  0.00     0.127 S 
ATOM     95  O   UNL A   1      43.494  26.494  38.834  1.00  0.00    -0.237 OA
ATOM     96  O   UNL A   1      44.890  24.939  37.530  1.00  0.00    -0.237 OA
ATOM     97  O   UNL A   1      45.934  26.412  39.195  1.00  0.00    -0.744 OA
ENDBRANCH  91  94
ENDBRANCH  64  87
ENDBRANCH  38  39
ENDBRANCH  30  33
ENDBRANCH  28  29
ENDBRANCH   1  28
TORSDOF 18
ENDMDL
MODEL 3
REMARK VINA RESULT:     -11.4      5.261      8.152
REMARK SMILES CC[NH2+][C@]1(C(=O)NCCCNC(=O)c2ccc(-c3c4nc(c(-c5cccc(S(=O)(=O)[O-])c5F)c5ccc([nH]5)c(-c5cccc(S(=O)(=O)[O-])c5F)c5nc(c(-c6cccc(S(=O)(=O)[O-])c6F)c6ccc3[nH]6)C=C5)C=C4)cc2)CCC[C@@H]1CC[N@H+]1C[C@H](C)OC[C@@H]1C
REMARK SMILES IDX 9 1 8 2 7 3 5 4 6 5 4 7 77 8 80 9 78 10 79 11 3 12 2 15 1 16
REMARK SMILES IDX 81 17 82 18 83 19 84 20 89 21 85 23 88 24 90 25 87 26 86 27
REMARK SMILES IDX 10 28 11 29 12 30 13 32 14 33 15 34 76 35 16 36 75 37 17 38
REMARK SMILES IDX 18 39 19 40 69 41 20 42 74 43 68 44 70 45 21 46 73 47 67 48
REMARK SMILES IDX 66 49 22 51 54 52 34 53 53 54 35 55 38 56 52 57 71 58 36 59
REMARK SMILES IDX 37 60 51 62 72 63 39 64 23 65 24 66 32 67 25 68 27 69 33 70
REMARK SMILES IDX 26 71 28 72 29 73 30 74 31 75 55 76 56 77 64 78 57 79 59 80
REMARK SMILES IDX 65 81 58 82 60 83 61 84 62 85 63 86 40 87 41 88 49 89 42 90
REMARK SMILES IDX 44 91 50 92 43 93 45 94 46 95 47 96 48 97
REMARK H PARENT 7 6 3 13 3 14 83 22 11 31 70 50 38 61
REMARK Flexibility Score: inf
ROOT
ATOM      1  C   UNL A   1      36.616  20.265  24.889  1.00  0.00     0.042 C 
ENDROOT
BRANCH   1   2
ATOM      2  C   UNL A   1      35.449  21.025  25.507  1.00  0.00     0.118 C 
BRANCH   2   3
ATOM      3  N   UNL A   1      34.472  21.516  24.558  1.00  0.00    -0.351 N 
ATOM      4  C   UNL A   1      33.117  21.481  24.791  1.00  0.00     0.281 C 
ATOM      5  O   UNL A   1      32.525  20.407  24.900  1.00  0.00    -0.268 OA
ATOM      6  H   UNL A   1      34.792  21.893  23.707  1.00  0.00     0.163 HD
BRANCH   4   7
ATOM      7  C   UNL A   1      32.368  22.889  24.945  1.00  0.00     0.178 C 
ATOM      8  C   UNL A   1      31.138  22.377  25.750  1.00  0.00     0.079 C 
ATOM      9  C   UNL A   1      33.027  23.963  25.900  1.00  0.00     0.066 C 
ATOM     10  C   UNL A   1      30.642  23.512  26.596  1.00  0.00     0.008 C 
ATOM     11  C   UNL A   1      31.822  24.446  26.780  1.00  0.00     0.011 C 
BRANCH   7  12
ATOM     12  N   UNL A   1      31.988  23.327  23.588  1.00  0.00    -0.334 N 
ATOM     13  H   UNL A   1      32.628  24.080  23.334  1.00  0.00     0.347 HD
ATOM     14  H   UNL A   1      32.031  22.464  23.046  1.00  0.00     0.347 HD
BRANCH  12  15
ATOM     15  C   UNL A   1      30.654  23.811  23.320  1.00  0.00     0.257 C 
ATOM     16  C   UNL A   1      30.658  25.335  23.289  1.00  0.00     0.071 C 
ENDBRANCH  12  15
ENDBRANCH   7  12
BRANCH   9  17
ATOM     17  C   UNL A   1      33.904  25.268  25.600  1.00  0.00     0.072 C 
BRANCH  17  18
ATOM     18  C   UNL A   1      33.786  26.619  24.790  1.00  0.00     0.263 C 
BRANCH  18  19
ATOM     19  N   UNL A   1      33.914  28.047  25.140  1.00  0.00    -0.329 N 
ATOM     20  C   UNL A   1      32.996  28.946  24.418  1.00  0.00     0.294 C 
ATOM     21  C   UNL A   1      33.872  28.283  26.597  1.00  0.00     0.207 C 
ATOM     22  H   UNL A   1      34.847  28.297  24.812  1.00  0.00     0.348 HD
ATOM     23  C   UNL A   1      31.565  28.782  24.924  1.00  0.00     0.170 C 
ATOM     24  C   UNL A   1      32.433  28.320  27.078  1.00  0.00     0.225 C 
ATOM     25  C   UNL A   1      34.599  29.538  27.077  1.00  0.00     0.078 C 
ATOM     26  O   UNL A   1      31.519  29.132  26.320  1.00  0.00    -0.366 OA
ATOM     27  C   UNL A   1      30.532  29.604  24.175  1.00  0.00     0.045 C 
ENDBRANCH  18  19
ENDBRANCH  17  18
ENDBRANCH   9  17
ENDBRANCH   4   7
ENDBRANCH   2   3
ENDBRANCH   1   2
BRANCH   1  28
ATOM     28  C   UNL A   1      37.977  20.913  25.128  1.00  0.00     0.118 C 
BRANCH  28  29
ATOM     29  N   UNL A   1      38.932  20.005  25.762  1.00  0.00    -0.352 N 
ATOM     30  C   UNL A   1      40.102  20.275  26.432  1.00  0.00     0.251 C 
ATOM     31  H   UNL A   1      38.701  19.050  25.698  1.00  0.00     0.163 HD
ATOM     32  O   UNL A   1      40.870  19.353  26.711  1.00  0.00    -0.269 OA
BRANCH  30  33
ATOM     33  C   UNL A   1      40.451  21.662  26.805  1.00  0.00     0.039 A 
ATOM     34  C   UNL A   1      41.379  21.888  27.827  1.00  0.00     0.014 A 
ATOM     35  C   UNL A   1      39.850  22.743  26.159  1.00  0.00     0.014 A 
ATOM     36  C   UNL A   1      41.766  23.196  28.137  1.00  0.00     0.010 A 
ATOM     37  C   UNL A   1      40.297  24.036  26.410  1.00  0.00     0.010 A 
ATOM     38  C   UNL A   1      41.259  24.281  27.403  1.00  0.00    -0.014 A 
BRANCH  38  39
ATOM     39  C   UNL A   1      41.721  25.675  27.638  1.00  0.00     0.031 A 
ATOM     40  C   UNL A   1      43.084  26.110  27.165  1.00  0.00     0.074 A 
ATOM     41  C   UNL A   1      40.967  26.513  28.378  1.00  0.00     0.049 A 
ATOM     42  N   UNL A   1      43.707  27.243  27.368  1.00  0.00    -0.248 NA
ATOM     43  C   UNL A   1      43.862  25.131  26.388  1.00  0.00     0.031 C 
ATOM     44  C   UNL A   1      39.667  26.186  28.967  1.00  0.00     0.029 A 
ATOM     45  N   UNL A   1      41.201  27.801  28.793  1.00  0.00    -0.354 N 
ATOM     46  C   UNL A   1      44.962  27.095  26.790  1.00  0.00     0.074 A 
ATOM     47  C   UNL A   1      45.025  25.753  26.256  1.00  0.00     0.031 C 
ATOM     48  C   UNL A   1      39.219  27.243  29.664  1.00  0.00     0.029 A 
ATOM     49  C   UNL A   1      40.211  28.311  29.601  1.00  0.00     0.049 A 
ATOM     50  H   UNL A   1      42.003  28.313  28.535  1.00  0.00     0.167 HD
ATOM     51  C   UNL A   1      45.963  28.002  26.686  1.00  0.00     0.034 A 
ATOM     52  C   UNL A   1      40.116  29.501  30.229  1.00  0.00     0.034 A 
ATOM     53  C   UNL A   1      45.876  29.353  27.171  1.00  0.00     0.049 A 
ATOM     54  C   UNL A   1      41.218  30.510  30.050  1.00  0.00     0.074 A 
ATOM     55  C   UNL A   1      46.794  30.378  27.030  1.00  0.00     0.029 A 
ATOM     56  N   UNL A   1      44.811  29.867  27.893  1.00  0.00    -0.354 N 
ATOM     57  N   UNL A   1      42.329  30.407  29.362  1.00  0.00    -0.248 NA
ATOM     58  C   UNL A   1      41.037  31.816  30.702  1.00  0.00     0.031 C 
ATOM     59  C   UNL A   1      46.291  31.508  27.683  1.00  0.00     0.029 A 
ATOM     60  C   UNL A   1      45.048  31.193  28.210  1.00  0.00     0.049 A 
ATOM     61  H   UNL A   1      44.003  29.362  28.144  1.00  0.00     0.167 HD
ATOM     62  C   UNL A   1      42.960  31.642  29.466  1.00  0.00     0.074 A 
ATOM     63  C   UNL A   1      42.096  32.485  30.267  1.00  0.00     0.031 C 
ATOM     64  C   UNL A   1      44.152  32.038  28.956  1.00  0.00     0.034 A 
BRANCH  51  65
ATOM     65  C   UNL A   1      47.219  27.580  25.967  1.00  0.00     0.023 A 
ATOM     66  C   UNL A   1      48.249  26.936  26.686  1.00  0.00     0.012 A 
ATOM     67  C   UNL A   1      47.364  27.769  24.579  1.00  0.00     0.148 A 
ATOM     68  C   UNL A   1      49.416  26.527  26.044  1.00  0.00     0.002 A 
ATOM     69  C   UNL A   1      48.512  27.317  23.938  1.00  0.00     0.091 A 
ATOM     70  F   UNL A   1      46.385  28.399  23.914  1.00  0.00    -0.205 F 
ATOM     71  C   UNL A   1      49.544  26.708  24.670  1.00  0.00     0.022 A 
BRANCH  69  72
ATOM     72  S   UNL A   1      48.738  27.427  22.159  1.00  0.00     0.127 S 
ATOM     73  O   UNL A   1      49.958  28.228  22.065  1.00  0.00    -0.237 OA
ATOM     74  O   UNL A   1      48.900  26.022  21.781  1.00  0.00    -0.237 OA
ATOM     75  O   UNL A   1      47.534  28.060  21.638  1.00  0.00    -0.744 OA
ENDBRANCH  69  72
ENDBRANCH  51  65
BRANCH  52  76
ATOM     76  C   UNL A   1      38.897  29.831  31.023  1.00  0.00     0.023 A 
ATOM     77  C   UNL A   1      38.720  29.236  32.287  1.00  0.00     0.012 A 
ATOM     78  C   UNL A   1      37.933  30.742  30.553  1.00  0.00     0.148 A 
ATOM     79  C   UNL A   1      37.588  29.515  33.055  1.00  0.00     0.002 A 
ATOM     80  C   UNL A   1      36.834  31.058  31.345  1.00  0.00     0.091 A 
ATOM     81  F   UNL A   1      38.113  31.291  29.343  1.00  0.00    -0.205 F 
ATOM     82  C   UNL A   1      36.651  30.433  32.589  1.00  0.00     0.022 A 
BRANCH  80  83
ATOM     83  S   UNL A   1      35.642  32.321  30.886  1.00  0.00     0.127 S 
ATOM     84  O   UNL A   1      35.049  31.750  29.680  1.00  0.00    -0.237 OA
ATOM     85  O   UNL A   1      34.761  32.343  32.055  1.00  0.00    -0.237 OA
ATOM     86  O   UNL A   1      36.415  33.541  30.697  1.00  0.00    -0.744 OA
ENDBRANCH  80  83
ENDBRANCH  52  76
BRANCH  64  87
ATOM     87  C   UNL A   1      44.584  33.459  29.206  1.00  0.00     0.023 A 
ATOM     88  C   UNL A   1      45.216  33.799  30.417  1.00  0.00     0.012 A 
ATOM     89  C   UNL A   1      44.436  34.439  28.203  1.00  0.00     0.148 A 
ATOM     90  C   UNL A   1      45.667  35.100  30.640  1.00  0.00     0.002 A 
ATOM     91  C   UNL A   1      44.933  35.719  28.412  1.00  0.00     0.091 A 
ATOM     92  F   UNL A   1      43.814  34.100  27.064  1.00  0.00    -0.205 F 
ATOM     93  C   UNL A   1      45.539  36.055  29.635  1.00  0.00     0.022 A 
BRANCH  91  94
ATOM     94  S   UNL A   1      44.900  36.985  27.137  1.00  0.00     0.127 S 
ATOM     95  O   UNL A   1      43.480  37.017  26.787  1.00  0.00    -0.237 OA
ATOM     96  O   UNL A   1      45.378  38.165  27.858  1.00  0.00    -0.237 OA
ATOM     97  O   UNL A   1      45.793  36.518  26.085  1.00  0.00    -0.744 OA
ENDBRANCH  91  94
ENDBRANCH  64  87
ENDBRANCH  38  39
ENDBRANCH  30  33
ENDBRANCH  28  29
ENDBRANCH   1  28
TORSDOF 18
ENDMDL
