MODEL 1
REMARK VINA RESULT:     -12.6      0.000      0.000
REMARK SMILES Cc1nc(C)c(C(=O)N2CCC([C@H](C)C(=O)NCCCNC(=O)c3ccc(-c4c5nc(c(-c6cccc(S(=O)(=O)[O-])c6F)c6ccc([nH]6)c(-c6cccc(S(=O)(=O)[O-])c6F)c6nc(c(-c7cccc(S(=O)(=O)[O-])c7F)c7ccc4[nH]7)C=C6)C=C5)cc3)CC2)s1
REMARK SMILES IDX 19 1 18 2 17 3 15 4 16 5 13 7 14 8 12 9 7 10 8 11 9 12 10 13
REMARK SMILES IDX 88 14 11 15 87 16 6 17 1 18 2 19 3 20 89 21 4 22 5 23 20 24
REMARK SMILES IDX 21 25 22 26 23 28 24 29 25 30 86 31 26 32 85 33 27 34 28 35
REMARK SMILES IDX 29 36 79 37 30 38 84 39 78 40 80 41 31 42 83 43 77 44 76 45
REMARK SMILES IDX 32 47 64 48 44 49 63 50 45 51 48 52 62 53 81 54 46 55 47 56
REMARK SMILES IDX 61 58 82 59 49 60 33 61 34 62 42 63 35 64 37 65 43 66 36 67
REMARK SMILES IDX 38 68 39 69 40 70 41 71 65 72 66 73 74 74 67 75 69 76 75 77
REMARK SMILES IDX 68 78 70 79 71 80 72 81 73 82 50 83 51 84 59 85 52 86 54 87
REMARK SMILES IDX 60 88 53 89 55 90 56 91 57 92 58 93
REMARK H PARENT 17 6 21 27 80 46 48 57
REMARK Flexibility Score: inf
ROOT
ATOM      1  C   UNL A   1      31.513  29.197  25.427  1.00  0.00     0.042 C 
ENDROOT
BRANCH   1   2
ATOM      2  C   UNL A   1      31.390  29.169  23.921  1.00  0.00     0.117 C 
BRANCH   2   3
ATOM      3  N   UNL A   1      32.660  29.089  23.230  1.00  0.00    -0.356 N 
ATOM      4  C   UNL A   1      33.223  28.035  22.582  1.00  0.00     0.223 C 
ATOM      5  O   UNL A   1      34.227  28.256  21.899  1.00  0.00    -0.275 OA
ATOM      6  H   UNL A   1      33.191  29.917  23.229  1.00  0.00     0.163 HD
BRANCH   4   7
ATOM      7  C   UNL A   1      32.660  26.612  22.688  1.00  0.00     0.078 C 
ATOM      8  C   UNL A   1      31.814  26.289  21.452  1.00  0.00     0.018 C 
BRANCH   7   9
ATOM      9  C   UNL A   1      33.629  25.484  23.185  1.00  0.00     0.005 C 
ATOM     10  C   UNL A   1      33.893  22.031  25.538  1.00  0.00     0.265 C 
ATOM     11  O   UNL A   1      33.371  22.321  26.615  1.00  0.00    -0.268 OA
ATOM     12  N   UNL A   1      34.243  23.047  24.643  1.00  0.00    -0.338 N 
ATOM     13  C   UNL A   1      34.744  24.302  25.169  1.00  0.00     0.120 C 
ATOM     14  C   UNL A   1      34.150  22.959  23.192  1.00  0.00     0.120 C 
ATOM     15  C   UNL A   1      33.926  25.494  24.701  1.00  0.00     0.026 C 
ATOM     16  C   UNL A   1      33.271  24.080  22.641  1.00  0.00     0.026 C 
BRANCH  10  17
ATOM     17  C   UNL A   1      34.262  20.659  25.215  1.00  0.00     0.115 A 
ATOM     18  C   UNL A   1      33.911  17.019  23.888  1.00  0.00     0.079 C 
ATOM     19  C   UNL A   1      34.280  18.365  24.401  1.00  0.00     0.091 A 
ATOM     20  N   UNL A   1      35.513  18.787  24.559  1.00  0.00    -0.246 NA
ATOM     21  S   UNL A   1      33.064  19.500  24.778  1.00  0.00    -0.113 S 
ATOM     22  C   UNL A   1      35.520  20.112  24.989  1.00  0.00     0.061 A 
ATOM     23  C   UNL A   1      36.849  20.774  25.108  1.00  0.00     0.068 C 
ENDBRANCH  10  17
ENDBRANCH   7   9
ENDBRANCH   4   7
ENDBRANCH   2   3
ENDBRANCH   1   2
BRANCH   1  24
ATOM     24  C   UNL A   1      32.793  29.858  25.903  1.00  0.00     0.118 C 
BRANCH  24  25
ATOM     25  N   UNL A   1      32.593  31.240  26.334  1.00  0.00    -0.352 N 
ATOM     26  C   UNL A   1      33.305  31.991  27.238  1.00  0.00     0.251 C 
ATOM     27  H   UNL A   1      31.833  31.703  25.913  1.00  0.00     0.163 HD
ATOM     28  O   UNL A   1      32.880  33.087  27.596  1.00  0.00    -0.269 OA
BRANCH  26  29
ATOM     29  C   UNL A   1      34.571  31.466  27.785  1.00  0.00     0.039 A 
ATOM     30  C   UNL A   1      35.647  32.333  27.981  1.00  0.00     0.014 A 
ATOM     31  C   UNL A   1      34.677  30.119  28.135  1.00  0.00     0.014 A 
ATOM     32  C   UNL A   1      36.804  31.860  28.606  1.00  0.00     0.010 A 
ATOM     33  C   UNL A   1      35.776  29.682  28.858  1.00  0.00     0.010 A 
ATOM     34  C   UNL A   1      36.859  30.542  29.086  1.00  0.00    -0.014 A 
BRANCH  34  35
ATOM     35  C   UNL A   1      38.039  30.023  29.821  1.00  0.00     0.031 A 
ATOM     36  C   UNL A   1      38.308  30.491  31.227  1.00  0.00     0.074 A 
ATOM     37  C   UNL A   1      38.924  29.228  29.189  1.00  0.00     0.049 A 
ATOM     38  N   UNL A   1      39.330  30.235  32.000  1.00  0.00    -0.248 NA
ATOM     39  C   UNL A   1      37.318  31.402  31.828  1.00  0.00     0.031 C 
ATOM     40  C   UNL A   1      38.823  28.785  27.796  1.00  0.00     0.029 A 
ATOM     41  N   UNL A   1      40.100  28.675  29.627  1.00  0.00    -0.354 N 
ATOM     42  C   UNL A   1      39.132  30.990  33.150  1.00  0.00     0.074 A 
ATOM     43  C   UNL A   1      37.917  31.748  32.957  1.00  0.00     0.031 C 
ATOM     44  C   UNL A   1      39.883  28.017  27.499  1.00  0.00     0.029 A 
ATOM     45  C   UNL A   1      40.755  27.938  28.667  1.00  0.00     0.049 A 
ATOM     46  H   UNL A   1      40.443  28.793  30.543  1.00  0.00     0.167 HD
ATOM     47  C   UNL A   1      39.871  31.020  34.284  1.00  0.00     0.034 A 
ATOM     48  C   UNL A   1      41.926  27.274  28.725  1.00  0.00     0.034 A 
ATOM     49  C   UNL A   1      41.039  30.210  34.496  1.00  0.00     0.049 A 
ATOM     50  C   UNL A   1      42.693  27.266  30.018  1.00  0.00     0.074 A 
ATOM     51  C   UNL A   1      41.799  30.078  35.643  1.00  0.00     0.029 A 
ATOM     52  N   UNL A   1      41.615  29.392  33.536  1.00  0.00    -0.354 N 
ATOM     53  N   UNL A   1      42.402  27.852  31.155  1.00  0.00    -0.248 NA
ATOM     54  C   UNL A   1      43.932  26.473  30.051  1.00  0.00     0.031 C 
ATOM     55  C   UNL A   1      42.845  29.191  35.373  1.00  0.00     0.029 A 
ATOM     56  C   UNL A   1      42.725  28.756  34.062  1.00  0.00     0.049 A 
ATOM     57  H   UNL A   1      41.283  29.280  32.616  1.00  0.00     0.167 HD
ATOM     58  C   UNL A   1      43.400  27.475  32.046  1.00  0.00     0.074 A 
ATOM     59  C   UNL A   1      44.292  26.592  31.322  1.00  0.00     0.031 C 
ATOM     60  C   UNL A   1      43.572  27.839  33.342  1.00  0.00     0.034 A 
BRANCH  47  61
ATOM     61  C   UNL A   1      39.394  31.908  35.402  1.00  0.00     0.023 A 
ATOM     62  C   UNL A   1      38.461  31.410  36.336  1.00  0.00     0.012 A 
ATOM     63  C   UNL A   1      39.882  33.220  35.550  1.00  0.00     0.148 A 
ATOM     64  C   UNL A   1      37.988  32.216  37.370  1.00  0.00     0.002 A 
ATOM     65  C   UNL A   1      39.442  34.003  36.613  1.00  0.00     0.091 A 
ATOM     66  F   UNL A   1      40.750  33.688  34.641  1.00  0.00    -0.205 F 
ATOM     67  C   UNL A   1      38.485  33.508  37.514  1.00  0.00     0.022 A 
BRANCH  65  68
ATOM     68  S   UNL A   1      40.085  35.650  36.930  1.00  0.00     0.127 S 
ATOM     69  O   UNL A   1      39.619  36.379  35.751  1.00  0.00    -0.237 OA
ATOM     70  O   UNL A   1      39.409  36.012  38.176  1.00  0.00    -0.237 OA
ATOM     71  O   UNL A   1      41.528  35.498  37.046  1.00  0.00    -0.744 OA
ENDBRANCH  65  68
ENDBRANCH  47  61
BRANCH  48  72
ATOM     72  C   UNL A   1      42.390  26.489  27.547  1.00  0.00     0.023 A 
ATOM     73  C   UNL A   1      43.198  27.117  26.579  1.00  0.00     0.012 A 
ATOM     74  C   UNL A   1      42.082  25.122  27.402  1.00  0.00     0.148 A 
ATOM     75  C   UNL A   1      43.669  26.407  25.474  1.00  0.00     0.002 A 
ATOM     76  C   UNL A   1      42.597  24.407  26.326  1.00  0.00     0.091 A 
ATOM     77  F   UNL A   1      41.306  24.544  28.329  1.00  0.00    -0.205 F 
ATOM     78  C   UNL A   1      43.378  25.052  25.353  1.00  0.00     0.022 A 
BRANCH  76  79
ATOM     79  S   UNL A   1      42.383  22.631  26.154  1.00  0.00     0.127 S 
ATOM     80  O   UNL A   1      40.929  22.504  26.146  1.00  0.00    -0.237 OA
ATOM     81  O   UNL A   1      43.032  22.372  24.868  1.00  0.00    -0.237 OA
ATOM     82  O   UNL A   1      43.065  22.041  27.298  1.00  0.00    -0.744 OA
ENDBRANCH  76  79
ENDBRANCH  48  72
BRANCH  60  83
ATOM     83  C   UNL A   1      44.753  27.264  34.076  1.00  0.00     0.023 A 
ATOM     84  C   UNL A   1      45.978  27.961  34.081  1.00  0.00     0.012 A 
ATOM     85  C   UNL A   1      44.626  26.080  34.827  1.00  0.00     0.148 A 
ATOM     86  C   UNL A   1      47.067  27.472  34.800  1.00  0.00     0.002 A 
ATOM     87  C   UNL A   1      45.702  25.624  35.580  1.00  0.00     0.091 A 
ATOM     88  F   UNL A   1      43.459  25.422  34.794  1.00  0.00    -0.205 F 
ATOM     89  C   UNL A   1      46.926  26.312  35.559  1.00  0.00     0.022 A 
BRANCH  87  90
ATOM     90  S   UNL A   1      45.580  24.195  36.662  1.00  0.00     0.127 S 
ATOM     91  O   UNL A   1      46.948  24.084  37.164  1.00  0.00    -0.237 OA
ATOM     92  O   UNL A   1      44.600  24.638  37.654  1.00  0.00    -0.237 OA
ATOM     93  O   UNL A   1      45.129  23.094  35.821  1.00  0.00    -0.744 OA
ENDBRANCH  87  90
ENDBRANCH  60  83
ENDBRANCH  34  35
ENDBRANCH  26  29
ENDBRANCH  24  25
ENDBRANCH   1  24
TORSDOF 15
ENDMDL
MODEL 2
REMARK VINA RESULT:     -12.3      1.836      2.429
REMARK SMILES Cc1nc(C)c(C(=O)N2CCC([C@H](C)C(=O)NCCCNC(=O)c3ccc(-c4c5nc(c(-c6cccc(S(=O)(=O)[O-])c6F)c6ccc([nH]6)c(-c6cccc(S(=O)(=O)[O-])c6F)c6nc(c(-c7cccc(S(=O)(=O)[O-])c7F)c7ccc4[nH]7)C=C6)C=C5)cc3)CC2)s1
REMARK SMILES IDX 19 1 18 2 17 3 15 4 16 5 13 7 14 8 12 9 7 10 8 11 9 12 10 13
REMARK SMILES IDX 88 14 11 15 87 16 6 17 1 18 2 19 3 20 89 21 4 22 5 23 20 24
REMARK SMILES IDX 21 25 22 26 23 28 24 29 25 30 86 31 26 32 85 33 27 34 28 35
REMARK SMILES IDX 29 36 79 37 30 38 84 39 78 40 80 41 31 42 83 43 77 44 76 45
REMARK SMILES IDX 32 47 64 48 44 49 63 50 45 51 48 52 62 53 81 54 46 55 47 56
REMARK SMILES IDX 61 58 82 59 49 60 33 61 34 62 42 63 35 64 37 65 43 66 36 67
REMARK SMILES IDX 38 68 39 69 40 70 41 71 65 72 66 73 74 74 67 75 69 76 75 77
REMARK SMILES IDX 68 78 70 79 71 80 72 81 73 82 50 83 51 84 59 85 52 86 54 87
REMARK SMILES IDX 60 88 53 89 55 90 56 91 57 92 58 93
REMARK H PARENT 17 6 21 27 80 46 48 57
REMARK Flexibility Score: inf
ROOT
ATOM      1  C   UNL A   1      33.766  28.672  25.963  1.00  0.00     0.042 C 
ENDROOT
BRANCH   1   2
ATOM      2  C   UNL A   1      33.060  29.266  24.766  1.00  0.00     0.117 C 
BRANCH   2   3
ATOM      3  N   UNL A   1      33.748  29.048  23.511  1.00  0.00    -0.356 N 
ATOM      4  C   UNL A   1      33.650  28.005  22.645  1.00  0.00     0.223 C 
ATOM      5  O   UNL A   1      34.189  28.128  21.541  1.00  0.00    -0.275 OA
ATOM      6  H   UNL A   1      34.377  29.757  23.248  1.00  0.00     0.163 HD
BRANCH   4   7
ATOM      7  C   UNL A   1      32.913  26.708  23.004  1.00  0.00     0.078 C 
ATOM      8  C   UNL A   1      31.789  26.447  21.996  1.00  0.00     0.018 C 
BRANCH   7   9
ATOM      9  C   UNL A   1      33.783  25.470  23.415  1.00  0.00     0.005 C 
ATOM     10  C   UNL A   1      33.777  21.889  25.585  1.00  0.00     0.265 C 
ATOM     11  O   UNL A   1      33.311  22.170  26.690  1.00  0.00    -0.268 OA
ATOM     12  N   UNL A   1      34.199  22.914  24.732  1.00  0.00    -0.338 N 
ATOM     13  C   UNL A   1      34.830  24.087  25.305  1.00  0.00     0.120 C 
ATOM     14  C   UNL A   1      34.062  22.911  23.282  1.00  0.00     0.120 C 
ATOM     15  C   UNL A   1      34.117  25.373  24.920  1.00  0.00     0.026 C 
ATOM     16  C   UNL A   1      33.280  24.136  22.813  1.00  0.00     0.026 C 
BRANCH  10  17
ATOM     17  C   UNL A   1      34.005  20.507  25.184  1.00  0.00     0.115 A 
ATOM     18  C   UNL A   1      33.278  16.990  23.690  1.00  0.00     0.079 C 
ATOM     19  C   UNL A   1      33.786  18.268  24.257  1.00  0.00     0.091 A 
ATOM     20  N   UNL A   1      35.057  18.564  24.397  1.00  0.00    -0.246 NA
ATOM     21  S   UNL A   1      32.693  19.489  24.727  1.00  0.00    -0.113 S 
ATOM     22  C   UNL A   1      35.200  19.858  24.892  1.00  0.00     0.061 A 
ATOM     23  C   UNL A   1      36.589  20.387  25.003  1.00  0.00     0.068 C 
ENDBRANCH  10  17
ENDBRANCH   7   9
ENDBRANCH   4   7
ENDBRANCH   2   3
ENDBRANCH   1   2
BRANCH   1  24
ATOM     24  C   UNL A   1      33.263  29.226  27.282  1.00  0.00     0.118 C 
BRANCH  24  25
ATOM     25  N   UNL A   1      33.522  30.656  27.434  1.00  0.00    -0.352 N 
ATOM     26  C   UNL A   1      34.589  31.300  28.011  1.00  0.00     0.251 C 
ATOM     27  H   UNL A   1      32.825  31.247  27.069  1.00  0.00     0.163 HD
ATOM     28  O   UNL A   1      34.548  32.514  28.196  1.00  0.00    -0.269 OA
BRANCH  26  29
ATOM     29  C   UNL A   1      35.775  30.522  28.419  1.00  0.00     0.039 A 
ATOM     30  C   UNL A   1      36.895  30.487  27.586  1.00  0.00     0.014 A 
ATOM     31  C   UNL A   1      35.788  29.856  29.646  1.00  0.00     0.014 A 
ATOM     32  C   UNL A   1      38.057  29.848  28.025  1.00  0.00     0.010 A 
ATOM     33  C   UNL A   1      36.975  29.326  30.128  1.00  0.00     0.010 A 
ATOM     34  C   UNL A   1      38.118  29.300  29.316  1.00  0.00    -0.014 A 
BRANCH  34  35
ATOM     35  C   UNL A   1      39.355  28.679  29.849  1.00  0.00     0.031 A 
ATOM     36  C   UNL A   1      40.014  29.257  31.074  1.00  0.00     0.074 A 
ATOM     37  C   UNL A   1      39.946  27.676  29.170  1.00  0.00     0.049 A 
ATOM     38  N   UNL A   1      41.145  28.925  31.637  1.00  0.00    -0.248 NA
ATOM     39  C   UNL A   1      39.330  30.388  31.727  1.00  0.00     0.031 C 
ATOM     40  C   UNL A   1      39.456  27.095  27.918  1.00  0.00     0.029 A 
ATOM     41  N   UNL A   1      41.105  26.988  29.423  1.00  0.00    -0.354 N 
ATOM     42  C   UNL A   1      41.332  29.834  32.672  1.00  0.00     0.074 A 
ATOM     43  C   UNL A   1      40.222  30.758  32.633  1.00  0.00     0.031 C 
ATOM     44  C   UNL A   1      40.300  26.130  27.520  1.00  0.00     0.029 A 
ATOM     45  C   UNL A   1      41.405  26.043  28.469  1.00  0.00     0.049 A 
ATOM     46  H   UNL A   1      41.670  27.154  30.213  1.00  0.00     0.167 HD
ATOM     47  C   UNL A   1      42.317  29.872  33.600  1.00  0.00     0.034 A 
ATOM     48  C   UNL A   1      42.453  25.202  28.373  1.00  0.00     0.034 A 
ATOM     49  C   UNL A   1      43.379  28.907  33.677  1.00  0.00     0.049 A 
ATOM     50  C   UNL A   1      43.498  25.216  29.455  1.00  0.00     0.074 A 
ATOM     51  C   UNL A   1      44.364  28.785  34.638  1.00  0.00     0.029 A 
ATOM     52  N   UNL A   1      43.592  27.895  32.753  1.00  0.00    -0.354 N 
ATOM     53  N   UNL A   1      43.569  25.974  30.523  1.00  0.00    -0.248 NA
ATOM     54  C   UNL A   1      44.587  24.235  29.340  1.00  0.00     0.031 C 
ATOM     55  C   UNL A   1      45.184  27.707  34.287  1.00  0.00     0.029 A 
ATOM     56  C   UNL A   1      44.697  27.147  33.117  1.00  0.00     0.049 A 
ATOM     57  H   UNL A   1      43.038  27.733  31.955  1.00  0.00     0.167 HD
ATOM     58  C   UNL A   1      44.689  25.541  31.224  1.00  0.00     0.074 A 
ATOM     59  C   UNL A   1      45.253  24.441  30.469  1.00  0.00     0.031 C 
ATOM     60  C   UNL A   1      45.213  26.021  32.380  1.00  0.00     0.034 A 
BRANCH  47  61
ATOM     61  C   UNL A   1      42.246  30.954  34.645  1.00  0.00     0.023 A 
ATOM     62  C   UNL A   1      41.587  30.700  35.867  1.00  0.00     0.012 A 
ATOM     63  C   UNL A   1      42.851  32.208  34.437  1.00  0.00     0.148 A 
ATOM     64  C   UNL A   1      41.491  31.689  36.844  1.00  0.00     0.002 A 
ATOM     65  C   UNL A   1      42.793  33.174  35.437  1.00  0.00     0.091 A 
ATOM     66  F   UNL A   1      43.452  32.444  33.262  1.00  0.00    -0.205 F 
ATOM     67  C   UNL A   1      42.101  32.922  36.633  1.00  0.00     0.022 A 
BRANCH  65  68
ATOM     68  S   UNL A   1      43.617  34.764  35.292  1.00  0.00     0.127 S 
ATOM     69  O   UNL A   1      42.875  35.382  34.194  1.00  0.00    -0.237 OA
ATOM     70  O   UNL A   1      43.371  35.361  36.605  1.00  0.00    -0.237 OA
ATOM     71  O   UNL A   1      45.015  34.463  35.016  1.00  0.00    -0.744 OA
ENDBRANCH  65  68
ENDBRANCH  47  61
BRANCH  48  72
ATOM     72  C   UNL A   1      42.511  24.215  27.258  1.00  0.00     0.023 A 
ATOM     73  C   UNL A   1      43.211  24.549  26.082  1.00  0.00     0.012 A 
ATOM     74  C   UNL A   1      41.924  22.940  27.369  1.00  0.00     0.148 A 
ATOM     75  C   UNL A   1      43.305  23.643  25.026  1.00  0.00     0.002 A 
ATOM     76  C   UNL A   1      42.065  22.021  26.333  1.00  0.00     0.091 A 
ATOM     77  F   UNL A   1      41.255  22.643  28.491  1.00  0.00    -0.205 F 
ATOM     78  C   UNL A   1      42.742  22.376  25.155  1.00  0.00     0.022 A 
BRANCH  76  79
ATOM     79  S   UNL A   1      41.485  20.325  26.460  1.00  0.00     0.127 S 
ATOM     80  O   UNL A   1      41.911  19.964  27.809  1.00  0.00    -0.237 OA
ATOM     81  O   UNL A   1      40.040  20.487  26.292  1.00  0.00    -0.237 OA
ATOM     82  O   UNL A   1      42.137  19.605  25.375  1.00  0.00    -0.744 OA
ENDBRANCH  76  79
ENDBRANCH  48  72
BRANCH  60  83
ATOM     83  C   UNL A   1      46.444  25.346  32.920  1.00  0.00     0.023 A 
ATOM     84  C   UNL A   1      47.718  25.847  32.588  1.00  0.00     0.012 A 
ATOM     85  C   UNL A   1      46.337  24.269  33.821  1.00  0.00     0.148 A 
ATOM     86  C   UNL A   1      48.868  25.268  33.121  1.00  0.00     0.002 A 
ATOM     87  C   UNL A   1      47.486  23.728  34.387  1.00  0.00     0.091 A 
ATOM     88  F   UNL A   1      45.117  23.794  34.110  1.00  0.00    -0.205 F 
ATOM     89  C   UNL A   1      48.752  24.219  34.030  1.00  0.00     0.022 A 
BRANCH  87  90
ATOM     90  S   UNL A   1      47.425  22.440  35.638  1.00  0.00     0.127 S 
ATOM     91  O   UNL A   1      47.103  21.261  34.836  1.00  0.00    -0.237 OA
ATOM     92  O   UNL A   1      48.786  22.460  36.173  1.00  0.00    -0.237 OA
ATOM     93  O   UNL A   1      46.400  22.852  36.587  1.00  0.00    -0.744 OA
ENDBRANCH  87  90
ENDBRANCH  60  83
ENDBRANCH  34  35
ENDBRANCH  26  29
ENDBRANCH  24  25
ENDBRANCH   1  24
TORSDOF 15
ENDMDL
MODEL 3
REMARK VINA RESULT:     -12.2      1.415      7.660
REMARK SMILES Cc1nc(C)c(C(=O)N2CCC([C@H](C)C(=O)NCCCNC(=O)c3ccc(-c4c5nc(c(-c6cccc(S(=O)(=O)[O-])c6F)c6ccc([nH]6)c(-c6cccc(S(=O)(=O)[O-])c6F)c6nc(c(-c7cccc(S(=O)(=O)[O-])c7F)c7ccc4[nH]7)C=C6)C=C5)cc3)CC2)s1
REMARK SMILES IDX 19 1 18 2 17 3 15 4 16 5 13 7 14 8 12 9 7 10 8 11 9 12 10 13
REMARK SMILES IDX 88 14 11 15 87 16 6 17 1 18 2 19 3 20 89 21 4 22 5 23 20 24
REMARK SMILES IDX 21 25 22 26 23 28 24 29 25 30 86 31 26 32 85 33 27 34 28 35
REMARK SMILES IDX 29 36 79 37 30 38 84 39 78 40 80 41 31 42 83 43 77 44 76 45
REMARK SMILES IDX 32 47 64 48 44 49 63 50 45 51 48 52 62 53 81 54 46 55 47 56
REMARK SMILES IDX 61 58 82 59 49 60 33 61 34 62 42 63 35 64 37 65 43 66 36 67
REMARK SMILES IDX 38 68 39 69 40 70 41 71 65 72 66 73 74 74 67 75 69 76 75 77
REMARK SMILES IDX 68 78 70 79 71 80 72 81 73 82 50 83 51 84 59 85 52 86 54 87
REMARK SMILES IDX 60 88 53 89 55 90 56 91 57 92 58 93
REMARK H PARENT 17 6 21 27 80 46 48 57
REMARK Flexibility Score: inf
ROOT
ATOM      1  C   UNL A   1      31.700  28.692  25.395  1.00  0.00     0.042 C 
ENDROOT
BRANCH   1   2
ATOM      2  C   UNL A   1      31.495  28.953  23.921  1.00  0.00     0.117 C 
BRANCH   2   3
ATOM      3  N   UNL A   1      32.720  28.945  23.148  1.00  0.00    -0.356 N 
ATOM      4  C   UNL A   1      33.272  27.940  22.419  1.00  0.00     0.223 C 
ATOM      5  O   UNL A   1      34.222  28.223  21.685  1.00  0.00    -0.275 OA
ATOM      6  H   UNL A   1      33.225  29.790  23.152  1.00  0.00     0.163 HD
BRANCH   4   7
ATOM      7  C   UNL A   1      32.760  26.495  22.496  1.00  0.00     0.078 C 
ATOM      8  C   UNL A   1      31.954  26.157  21.238  1.00  0.00     0.018 C 
BRANCH   7   9
ATOM      9  C   UNL A   1      33.760  25.398  23.000  1.00  0.00     0.005 C 
ATOM     10  C   UNL A   1      34.154  22.053  25.489  1.00  0.00     0.265 C 
ATOM     11  O   UNL A   1      33.673  22.386  26.573  1.00  0.00    -0.268 OA
ATOM     12  N   UNL A   1      34.457  23.032  24.537  1.00  0.00    -0.338 N 
ATOM     13  C   UNL A   1      34.967  24.313  24.987  1.00  0.00     0.120 C 
ATOM     14  C   UNL A   1      34.305  22.880  23.096  1.00  0.00     0.120 C 
ATOM     15  C   UNL A   1      34.119  25.477  24.501  1.00  0.00     0.026 C 
ATOM     16  C   UNL A   1      33.394  23.969  22.534  1.00  0.00     0.026 C 
BRANCH  10  17
ATOM     17  C   UNL A   1      34.522  20.671  25.211  1.00  0.00     0.115 A 
ATOM     18  C   UNL A   1      34.155  16.976  24.052  1.00  0.00     0.079 C 
ATOM     19  C   UNL A   1      34.531  18.346  24.493  1.00  0.00     0.091 A 
ATOM     20  N   UNL A   1      35.765  18.782  24.588  1.00  0.00    -0.246 NA
ATOM     21  S   UNL A   1      33.319  19.487  24.867  1.00  0.00    -0.113 S 
ATOM     22  C   UNL A   1      35.776  20.124  24.962  1.00  0.00     0.061 A 
ATOM     23  C   UNL A   1      37.103  20.800  25.005  1.00  0.00     0.068 C 
ENDBRANCH  10  17
ENDBRANCH   7   9
ENDBRANCH   4   7
ENDBRANCH   2   3
ENDBRANCH   1   2
BRANCH   1  24
ATOM     24  C   UNL A   1      32.852  29.486  25.982  1.00  0.00     0.118 C 
BRANCH  24  25
ATOM     25  N   UNL A   1      32.477  30.850  26.344  1.00  0.00    -0.352 N 
ATOM     26  C   UNL A   1      33.097  31.738  27.189  1.00  0.00     0.251 C 
ATOM     27  H   UNL A   1      31.655  31.185  25.918  1.00  0.00     0.163 HD
ATOM     28  O   UNL A   1      32.536  32.786  27.500  1.00  0.00    -0.269 OA
BRANCH  26  29
ATOM     29  C   UNL A   1      34.431  31.416  27.733  1.00  0.00     0.039 A 
ATOM     30  C   UNL A   1      35.365  32.438  27.914  1.00  0.00     0.014 A 
ATOM     31  C   UNL A   1      34.742  30.105  28.095  1.00  0.00     0.014 A 
ATOM     32  C   UNL A   1      36.583  32.153  28.535  1.00  0.00     0.010 A 
ATOM     33  C   UNL A   1      35.898  29.847  28.814  1.00  0.00     0.010 A 
ATOM     34  C   UNL A   1      36.840  30.863  29.027  1.00  0.00    -0.014 A 
BRANCH  34  35
ATOM     35  C   UNL A   1      38.089  30.536  29.758  1.00  0.00     0.031 A 
ATOM     36  C   UNL A   1      39.096  29.604  29.137  1.00  0.00     0.074 A 
ATOM     37  C   UNL A   1      38.262  30.980  31.018  1.00  0.00     0.049 A 
ATOM     38  N   UNL A   1      40.195  29.117  29.649  1.00  0.00    -0.248 NA
ATOM     39  C   UNL A   1      38.805  29.119  27.776  1.00  0.00     0.031 C 
ATOM     40  C   UNL A   1      37.313  31.811  31.763  1.00  0.00     0.029 A 
ATOM     41  N   UNL A   1      39.286  30.772  31.907  1.00  0.00    -0.354 N 
ATOM     42  C   UNL A   1      40.697  28.236  28.698  1.00  0.00     0.074 A 
ATOM     43  C   UNL A   1      39.760  28.219  27.598  1.00  0.00     0.031 C 
ATOM     44  C   UNL A   1      37.805  32.052  32.989  1.00  0.00     0.029 A 
ATOM     45  C   UNL A   1      39.088  31.370  33.129  1.00  0.00     0.049 A 
ATOM     46  H   UNL A   1      40.089  30.242  31.690  1.00  0.00     0.167 HD
ATOM     47  C   UNL A   1      41.854  27.534  28.718  1.00  0.00     0.034 A 
ATOM     48  C   UNL A   1      39.855  31.369  34.237  1.00  0.00     0.034 A 
ATOM     49  C   UNL A   1      42.815  27.611  29.784  1.00  0.00     0.049 A 
ATOM     50  C   UNL A   1      41.170  30.639  34.209  1.00  0.00     0.074 A 
ATOM     51  C   UNL A   1      44.067  27.031  29.857  1.00  0.00     0.029 A 
ATOM     52  N   UNL A   1      42.628  28.314  30.964  1.00  0.00    -0.354 N 
ATOM     53  N   UNL A   1      41.708  29.946  33.234  1.00  0.00    -0.248 NA
ATOM     54  C   UNL A   1      42.001  30.721  35.418  1.00  0.00     0.031 C 
ATOM     55  C   UNL A   1      44.633  27.371  31.090  1.00  0.00     0.029 A 
ATOM     56  C   UNL A   1      43.739  28.179  31.776  1.00  0.00     0.049 A 
ATOM     57  H   UNL A   1      41.823  28.834  31.190  1.00  0.00     0.167 HD
ATOM     58  C   UNL A   1      42.953  29.537  33.698  1.00  0.00     0.074 A 
ATOM     59  C   UNL A   1      43.097  30.079  35.035  1.00  0.00     0.031 C 
ATOM     60  C   UNL A   1      43.886  28.769  33.082  1.00  0.00     0.034 A 
BRANCH  47  61
ATOM     61  C   UNL A   1      42.170  26.680  27.519  1.00  0.00     0.023 A 
ATOM     62  C   UNL A   1      42.825  27.254  26.409  1.00  0.00     0.012 A 
ATOM     63  C   UNL A   1      41.848  25.309  27.496  1.00  0.00     0.148 A 
ATOM     64  C   UNL A   1      43.113  26.490  25.279  1.00  0.00     0.002 A 
ATOM     65  C   UNL A   1      42.182  24.543  26.383  1.00  0.00     0.091 A 
ATOM     66  F   UNL A   1      41.203  24.784  28.547  1.00  0.00    -0.205 F 
ATOM     67  C   UNL A   1      42.801  25.134  25.270  1.00  0.00     0.022 A 
BRANCH  65  68
ATOM     68  S   UNL A   1      41.894  22.772  26.310  1.00  0.00     0.127 S 
ATOM     69  O   UNL A   1      42.521  22.423  25.036  1.00  0.00    -0.237 OA
ATOM     70  O   UNL A   1      42.609  22.292  27.493  1.00  0.00    -0.237 OA
ATOM     71  O   UNL A   1      40.448  22.601  26.368  1.00  0.00    -0.744 OA
ENDBRANCH  65  68
ENDBRANCH  47  61
BRANCH  48  72
ATOM     72  C   UNL A   1      39.437  32.162  35.427  1.00  0.00     0.023 A 
ATOM     73  C   UNL A   1      39.756  33.533  35.484  1.00  0.00     0.012 A 
ATOM     74  C   UNL A   1      38.690  31.586  36.473  1.00  0.00     0.148 A 
ATOM     75  C   UNL A   1      39.362  34.311  36.573  1.00  0.00     0.002 A 
ATOM     76  C   UNL A   1      38.256  32.379  37.530  1.00  0.00     0.091 A 
ATOM     77  F   UNL A   1      38.403  30.279  36.405  1.00  0.00    -0.205 F 
ATOM     78  C   UNL A   1      38.604  33.738  37.589  1.00  0.00     0.022 A 
BRANCH  76  79
ATOM     79  S   UNL A   1      37.168  31.760  38.819  1.00  0.00     0.127 S 
ATOM     80  O   UNL A   1      38.019  31.859  40.002  1.00  0.00    -0.237 OA
ATOM     81  O   UNL A   1      36.065  32.721  38.771  1.00  0.00    -0.237 OA
ATOM     82  O   UNL A   1      36.804  30.410  38.412  1.00  0.00    -0.744 OA
ENDBRANCH  76  79
ENDBRANCH  48  72
BRANCH  60  83
ATOM     83  C   UNL A   1      45.161  28.488  33.830  1.00  0.00     0.023 A 
ATOM     84  C   UNL A   1      46.266  29.348  33.675  1.00  0.00     0.012 A 
ATOM     85  C   UNL A   1      45.237  27.422  34.747  1.00  0.00     0.148 A 
ATOM     86  C   UNL A   1      47.437  29.135  34.400  1.00  0.00     0.002 A 
ATOM     87  C   UNL A   1      46.390  27.244  35.502  1.00  0.00     0.091 A 
ATOM     88  F   UNL A   1      44.182  26.603  34.866  1.00  0.00    -0.205 F 
ATOM     89  C   UNL A   1      47.495  28.093  35.322  1.00  0.00     0.022 A 
BRANCH  87  90
ATOM     90  S   UNL A   1      46.517  25.989  36.780  1.00  0.00     0.127 S 
ATOM     91  O   UNL A   1      47.855  26.239  37.313  1.00  0.00    -0.237 OA
ATOM     92  O   UNL A   1      45.424  26.351  37.683  1.00  0.00    -0.237 OA
ATOM     93  O   UNL A   1      46.340  24.710  36.105  1.00  0.00    -0.744 OA
ENDBRANCH  87  90
ENDBRANCH  60  83
ENDBRANCH  34  35
ENDBRANCH  26  29
ENDBRANCH  24  25
ENDBRANCH   1  24
TORSDOF 15
ENDMDL
