MODEL 1
REMARK VINA RESULT:     -12.1      0.000      0.000
REMARK SMILES O=C(CN(CC(=O)NCc1ccccc1)c1ccccc1)NCCCNC(=O)c1ccc(-c2c3nc(c(-c4cccc(S(=O)(=O)[O-])c4F)c4ccc([nH]4)c(-c4cccc(S(=O)(=O)[O-])c4F)c4nc(c(-c5cccc(S(=O)(=O)[O-])c5F)c5ccc2[nH]5)C=C4)C=C3)cc1
REMARK SMILES IDX 23 1 22 2 1 3 2 4 3 6 4 7 5 8 6 9 7 10 8 11 9 13 10 14 11 15
REMARK SMILES IDX 15 16 12 17 14 18 13 19 16 20 17 21 21 22 18 23 20 24 19 25
REMARK SMILES IDX 24 26 25 27 26 28 27 29 28 31 29 32 30 33 91 34 31 35 90 36
REMARK SMILES IDX 32 37 33 38 34 39 84 40 35 41 89 42 83 43 85 44 36 45 88 46
REMARK SMILES IDX 82 47 81 48 37 50 69 51 49 52 68 53 50 54 53 55 67 56 86 57
REMARK SMILES IDX 51 58 52 59 66 61 87 62 54 63 38 64 39 65 47 66 40 67 42 68
REMARK SMILES IDX 48 69 41 70 43 71 44 72 45 73 46 74 70 75 71 76 79 77 72 78
REMARK SMILES IDX 74 79 80 80 73 81 75 82 76 83 77 84 78 85 55 86 56 87 64 88
REMARK SMILES IDX 57 89 59 90 65 91 58 92 60 93 61 94 62 95 63 96
REMARK H PARENT 22 5 8 12 26 30 85 49 53 60
REMARK Flexibility Score: inf
ROOT
ATOM      1  C   UNL A   1      32.053  30.201  26.908  1.00  0.00     0.117 C 
ENDROOT
BRANCH   1   2
ATOM      2  N   UNL A   1      32.445  29.627  25.639  1.00  0.00    -0.354 N 
ATOM      3  O   UNL A   1      31.409  27.614  26.002  1.00  0.00    -0.273 OA
ATOM      4  C   UNL A   1      32.029  28.372  25.258  1.00  0.00     0.239 C 
ATOM      5  H   UNL A   1      33.022  30.145  25.033  1.00  0.00     0.163 HD
BRANCH   4   6
ATOM      6  C   UNL A   1      32.429  27.956  23.850  1.00  0.00     0.217 C 
BRANCH   6   7
ATOM      7  N   UNL A   1      31.342  27.537  22.916  1.00  0.00    -0.353 N 
BRANCH   7   8
ATOM      8  C   UNL A   1      31.439  26.144  22.393  1.00  0.00     0.217 C 
BRANCH   8   9
ATOM      9  C   UNL A   1      32.790  25.681  21.821  1.00  0.00     0.239 C 
ATOM     10  O   UNL A   1      33.337  26.323  20.915  1.00  0.00    -0.273 OA
ATOM     11  N   UNL A   1      33.453  24.582  22.276  1.00  0.00    -0.350 N 
ATOM     12  H   UNL A   1      34.207  24.292  21.714  1.00  0.00     0.163 HD
BRANCH  11  13
ATOM     13  C   UNL A   1      33.224  23.777  23.448  1.00  0.00     0.151 C 
BRANCH  13  14
ATOM     14  C   UNL A   1      34.400  22.903  23.804  1.00  0.00    -0.029 A 
ATOM     15  C   UNL A   1      34.240  21.763  24.603  1.00  0.00     0.005 A 
ATOM     16  C   UNL A   1      35.698  23.239  23.396  1.00  0.00     0.005 A 
ATOM     17  C   UNL A   1      35.334  21.017  25.041  1.00  0.00     0.000 A 
ATOM     18  C   UNL A   1      36.797  22.481  23.817  1.00  0.00     0.000 A 
ATOM     19  C   UNL A   1      36.617  21.381  24.652  1.00  0.00     0.000 A 
ENDBRANCH  13  14
ENDBRANCH  11  13
ENDBRANCH   8   9
ENDBRANCH   7   8
BRANCH   7  20
ATOM     20  C   UNL A   1      30.209  28.324  22.701  1.00  0.00     0.038 A 
ATOM     21  C   UNL A   1      28.928  27.965  23.160  1.00  0.00     0.026 A 
ATOM     22  C   UNL A   1      30.258  29.559  22.034  1.00  0.00     0.026 A 
ATOM     23  C   UNL A   1      27.796  28.781  23.001  1.00  0.00     0.002 A 
ATOM     24  C   UNL A   1      29.129  30.372  21.837  1.00  0.00     0.002 A 
ATOM     25  C   UNL A   1      27.895  29.988  22.332  1.00  0.00     0.000 A 
ENDBRANCH   7  20
ENDBRANCH   6   7
ENDBRANCH   4   6
ENDBRANCH   1   2
BRANCH   1  26
ATOM     26  C   UNL A   1      31.788  31.695  26.819  1.00  0.00     0.042 C 
BRANCH  26  27
ATOM     27  C   UNL A   1      33.003  32.554  27.144  1.00  0.00     0.118 C 
BRANCH  27  28
ATOM     28  N   UNL A   1      32.650  33.902  27.573  1.00  0.00    -0.352 N 
ATOM     29  C   UNL A   1      33.142  34.654  28.610  1.00  0.00     0.251 C 
ATOM     30  H   UNL A   1      31.951  34.340  27.036  1.00  0.00     0.163 HD
ATOM     31  O   UNL A   1      32.594  35.718  28.900  1.00  0.00    -0.269 OA
BRANCH  29  32
ATOM     32  C   UNL A   1      34.307  34.187  29.389  1.00  0.00     0.039 A 
ATOM     33  C   UNL A   1      34.086  33.497  30.584  1.00  0.00     0.014 A 
ATOM     34  C   UNL A   1      35.613  34.425  28.950  1.00  0.00     0.014 A 
ATOM     35  C   UNL A   1      35.171  32.989  31.301  1.00  0.00     0.010 A 
ATOM     36  C   UNL A   1      36.685  33.843  29.620  1.00  0.00     0.010 A 
ATOM     37  C   UNL A   1      36.478  33.122  30.805  1.00  0.00    -0.014 A 
BRANCH  37  38
ATOM     38  C   UNL A   1      37.635  32.501  31.501  1.00  0.00     0.031 A 
ATOM     39  C   UNL A   1      38.383  31.359  30.867  1.00  0.00     0.074 A 
ATOM     40  C   UNL A   1      37.962  32.911  32.744  1.00  0.00     0.049 A 
ATOM     41  N   UNL A   1      39.378  30.659  31.346  1.00  0.00    -0.248 NA
ATOM     42  C   UNL A   1      37.940  30.930  29.529  1.00  0.00     0.031 C 
ATOM     43  C   UNL A   1      37.267  33.955  33.500  1.00  0.00     0.029 A 
ATOM     44  N   UNL A   1      38.943  32.478  33.601  1.00  0.00    -0.354 N 
ATOM     45  C   UNL A   1      39.656  29.687  30.392  1.00  0.00     0.074 A 
ATOM     46  C   UNL A   1      38.701  29.866  29.319  1.00  0.00     0.031 C 
ATOM     47  C   UNL A   1      37.847  34.088  34.704  1.00  0.00     0.029 A 
ATOM     48  C   UNL A   1      38.928  33.115  34.822  1.00  0.00     0.049 A 
ATOM     49  H   UNL A   1      39.595  31.780  33.365  1.00  0.00     0.167 HD
ATOM     50  C   UNL A   1      40.632  28.749  30.393  1.00  0.00     0.034 A 
ATOM     51  C   UNL A   1      39.689  32.927  35.918  1.00  0.00     0.034 A 
ATOM     52  C   UNL A   1      41.600  28.594  31.445  1.00  0.00     0.049 A 
ATOM     53  C   UNL A   1      40.782  31.895  35.883  1.00  0.00     0.074 A 
ATOM     54  C   UNL A   1      42.680  27.730  31.499  1.00  0.00     0.029 A 
ATOM     55  N   UNL A   1      41.601  29.308  32.633  1.00  0.00    -0.354 N 
ATOM     56  N   UNL A   1      41.128  31.090  34.906  1.00  0.00    -0.248 NA
ATOM     57  C   UNL A   1      41.615  31.767  37.088  1.00  0.00     0.031 C 
ATOM     58  C   UNL A   1      43.312  27.897  32.736  1.00  0.00     0.029 A 
ATOM     59  C   UNL A   1      42.652  28.894  33.435  1.00  0.00     0.049 A 
ATOM     60  H   UNL A   1      40.949  30.006  32.873  1.00  0.00     0.167 HD
ATOM     61  C   UNL A   1      42.238  30.391  35.364  1.00  0.00     0.074 A 
ATOM     62  C   UNL A   1      42.520  30.881  36.697  1.00  0.00     0.031 C 
ATOM     63  C   UNL A   1      42.953  29.422  34.740  1.00  0.00     0.034 A 
BRANCH  50  64
ATOM     64  C   UNL A   1      40.729  27.835  29.197  1.00  0.00     0.023 A 
ATOM     65  C   UNL A   1      39.890  26.704  29.111  1.00  0.00     0.012 A 
ATOM     66  C   UNL A   1      41.603  28.129  28.131  1.00  0.00     0.148 A 
ATOM     67  C   UNL A   1      39.947  25.860  28.004  1.00  0.00     0.002 A 
ATOM     68  C   UNL A   1      41.619  27.309  27.008  1.00  0.00     0.091 A 
ATOM     69  F   UNL A   1      42.405  29.197  28.239  1.00  0.00    -0.205 F 
ATOM     70  C   UNL A   1      40.802  26.168  26.949  1.00  0.00     0.022 A 
BRANCH  68  71
ATOM     71  S   UNL A   1      42.623  27.665  25.563  1.00  0.00     0.127 S 
ATOM     72  O   UNL A   1      42.394  26.475  24.746  1.00  0.00    -0.237 OA
ATOM     73  O   UNL A   1      42.000  28.885  25.050  1.00  0.00    -0.237 OA
ATOM     74  O   UNL A   1      43.985  27.835  26.049  1.00  0.00    -0.744 OA
ENDBRANCH  68  71
ENDBRANCH  50  64
BRANCH  51  75
ATOM     75  C   UNL A   1      39.478  33.774  37.126  1.00  0.00     0.023 A 
ATOM     76  C   UNL A   1      39.959  35.097  37.140  1.00  0.00     0.012 A 
ATOM     77  C   UNL A   1      38.789  33.282  38.251  1.00  0.00     0.148 A 
ATOM     78  C   UNL A   1      39.792  35.903  38.266  1.00  0.00     0.002 A 
ATOM     79  C   UNL A   1      38.575  34.108  39.348  1.00  0.00     0.091 A 
ATOM     80  F   UNL A   1      38.346  32.017  38.222  1.00  0.00    -0.205 F 
ATOM     81  C   UNL A   1      39.092  35.413  39.366  1.00  0.00     0.022 A 
BRANCH  79  82
ATOM     82  S   UNL A   1      37.575  33.607  40.754  1.00  0.00     0.127 S 
ATOM     83  O   UNL A   1      37.403  34.872  41.464  1.00  0.00    -0.237 OA
ATOM     84  O   UNL A   1      36.371  33.098  40.099  1.00  0.00    -0.237 OA
ATOM     85  O   UNL A   1      38.356  32.594  41.451  1.00  0.00    -0.744 OA
ENDBRANCH  79  82
ENDBRANCH  51  75
BRANCH  63  86
ATOM     86  C   UNL A   1      44.144  28.853  35.467  1.00  0.00     0.023 A 
ATOM     87  C   UNL A   1      45.426  29.403  35.267  1.00  0.00     0.012 A 
ATOM     88  C   UNL A   1      43.978  27.815  36.406  1.00  0.00     0.148 A 
ATOM     89  C   UNL A   1      46.527  28.905  35.961  1.00  0.00     0.002 A 
ATOM     90  C   UNL A   1      45.071  27.361  37.134  1.00  0.00     0.091 A 
ATOM     91  F   UNL A   1      42.754  27.293  36.571  1.00  0.00    -0.205 F 
ATOM     92  C   UNL A   1      46.349  27.894  36.902  1.00  0.00     0.022 A 
BRANCH  90  93
ATOM     93  S   UNL A   1      44.919  26.134  38.436  1.00  0.00     0.127 S 
ATOM     94  O   UNL A   1      44.338  25.003  37.714  1.00  0.00    -0.237 OA
ATOM     95  O   UNL A   1      46.311  25.945  38.846  1.00  0.00    -0.237 OA
ATOM     96  O   UNL A   1      44.064  26.729  39.454  1.00  0.00    -0.744 OA
ENDBRANCH  90  93
ENDBRANCH  63  86
ENDBRANCH  37  38
ENDBRANCH  29  32
ENDBRANCH  27  28
ENDBRANCH  26  27
ENDBRANCH   1  26
TORSDOF 19
ENDMDL
MODEL 2
REMARK VINA RESULT:     -12.1      1.574      2.610
REMARK SMILES O=C(CN(CC(=O)NCc1ccccc1)c1ccccc1)NCCCNC(=O)c1ccc(-c2c3nc(c(-c4cccc(S(=O)(=O)[O-])c4F)c4ccc([nH]4)c(-c4cccc(S(=O)(=O)[O-])c4F)c4nc(c(-c5cccc(S(=O)(=O)[O-])c5F)c5ccc2[nH]5)C=C4)C=C3)cc1
REMARK SMILES IDX 23 1 22 2 1 3 2 4 3 6 4 7 5 8 6 9 7 10 8 11 9 13 10 14 11 15
REMARK SMILES IDX 15 16 12 17 14 18 13 19 16 20 17 21 21 22 18 23 20 24 19 25
REMARK SMILES IDX 24 26 25 27 26 28 27 29 28 31 29 32 30 33 91 34 31 35 90 36
REMARK SMILES IDX 32 37 33 38 34 39 84 40 35 41 89 42 83 43 85 44 36 45 88 46
REMARK SMILES IDX 82 47 81 48 37 50 69 51 49 52 68 53 50 54 53 55 67 56 86 57
REMARK SMILES IDX 51 58 52 59 66 61 87 62 54 63 38 64 39 65 47 66 40 67 42 68
REMARK SMILES IDX 48 69 41 70 43 71 44 72 45 73 46 74 70 75 71 76 79 77 72 78
REMARK SMILES IDX 74 79 80 80 73 81 75 82 76 83 77 84 78 85 55 86 56 87 64 88
REMARK SMILES IDX 57 89 59 90 65 91 58 92 60 93 61 94 62 95 63 96
REMARK H PARENT 22 5 8 12 26 30 85 49 53 60
REMARK Flexibility Score: inf
ROOT
ATOM      1  C   UNL A   1      34.327  30.472  27.531  1.00  0.00     0.117 C 
ENDROOT
BRANCH   1   2
ATOM      2  N   UNL A   1      34.320  29.717  26.296  1.00  0.00    -0.354 N 
ATOM      3  O   UNL A   1      33.090  27.973  27.134  1.00  0.00    -0.273 OA
ATOM      4  C   UNL A   1      33.634  28.530  26.182  1.00  0.00     0.239 C 
ATOM      5  H   UNL A   1      34.817  30.061  25.519  1.00  0.00     0.163 HD
BRANCH   4   6
ATOM      6  C   UNL A   1      33.628  27.916  24.790  1.00  0.00     0.217 C 
BRANCH   6   7
ATOM      7  N   UNL A   1      33.123  26.517  24.651  1.00  0.00    -0.353 N 
BRANCH   7   8
ATOM      8  C   UNL A   1      31.650  26.375  24.475  1.00  0.00     0.217 C 
BRANCH   8   9
ATOM      9  C   UNL A   1      30.865  25.610  25.555  1.00  0.00     0.239 C 
ATOM     10  O   UNL A   1      30.362  26.217  26.508  1.00  0.00    -0.273 OA
ATOM     11  N   UNL A   1      30.668  24.263  25.518  1.00  0.00    -0.350 N 
ATOM     12  H   UNL A   1      30.312  23.874  26.349  1.00  0.00     0.163 HD
BRANCH  11  13
ATOM     13  C   UNL A   1      30.902  23.318  24.456  1.00  0.00     0.151 C 
BRANCH  13  14
ATOM     14  C   UNL A   1      31.850  22.212  24.846  1.00  0.00    -0.029 A 
ATOM     15  C   UNL A   1      32.416  22.161  26.126  1.00  0.00     0.005 A 
ATOM     16  C   UNL A   1      32.239  21.236  23.919  1.00  0.00     0.005 A 
ATOM     17  C   UNL A   1      33.387  21.217  26.460  1.00  0.00     0.000 A 
ATOM     18  C   UNL A   1      33.198  20.274  24.255  1.00  0.00     0.000 A 
ATOM     19  C   UNL A   1      33.784  20.275  25.519  1.00  0.00     0.000 A 
ENDBRANCH  13  14
ENDBRANCH  11  13
ENDBRANCH   8   9
ENDBRANCH   7   8
BRANCH   7  20
ATOM     20  C   UNL A   1      33.988  25.432  24.500  1.00  0.00     0.038 A 
ATOM     21  C   UNL A   1      34.821  24.966  25.534  1.00  0.00     0.026 A 
ATOM     22  C   UNL A   1      34.078  24.693  23.308  1.00  0.00     0.026 A 
ATOM     23  C   UNL A   1      35.648  23.838  25.408  1.00  0.00     0.002 A 
ATOM     24  C   UNL A   1      34.925  23.582  23.154  1.00  0.00     0.002 A 
ATOM     25  C   UNL A   1      35.704  23.145  24.211  1.00  0.00     0.000 A 
ENDBRANCH   7  20
ENDBRANCH   6   7
ENDBRANCH   4   6
ENDBRANCH   1   2
BRANCH   1  26
ATOM     26  C   UNL A   1      34.089  31.957  27.312  1.00  0.00     0.042 C 
BRANCH  26  27
ATOM     27  C   UNL A   1      32.658  32.396  27.594  1.00  0.00     0.118 C 
BRANCH  27  28
ATOM     28  N   UNL A   1      32.528  33.838  27.767  1.00  0.00    -0.352 N 
ATOM     29  C   UNL A   1      33.203  34.689  28.605  1.00  0.00     0.251 C 
ATOM     30  H   UNL A   1      31.852  34.267  27.194  1.00  0.00     0.163 HD
ATOM     31  O   UNL A   1      32.830  35.858  28.710  1.00  0.00    -0.269 OA
BRANCH  29  32
ATOM     32  C   UNL A   1      34.356  34.208  29.394  1.00  0.00     0.039 A 
ATOM     33  C   UNL A   1      34.117  33.453  30.546  1.00  0.00     0.014 A 
ATOM     34  C   UNL A   1      35.668  34.497  29.007  1.00  0.00     0.014 A 
ATOM     35  C   UNL A   1      35.193  32.933  31.268  1.00  0.00     0.010 A 
ATOM     36  C   UNL A   1      36.733  33.906  29.678  1.00  0.00     0.010 A 
ATOM     37  C   UNL A   1      36.510  33.121  30.819  1.00  0.00    -0.014 A 
BRANCH  37  38
ATOM     38  C   UNL A   1      37.661  32.490  31.516  1.00  0.00     0.031 A 
ATOM     39  C   UNL A   1      38.404  31.346  30.880  1.00  0.00     0.074 A 
ATOM     40  C   UNL A   1      37.985  32.893  32.762  1.00  0.00     0.049 A 
ATOM     41  N   UNL A   1      39.393  30.638  31.361  1.00  0.00    -0.248 NA
ATOM     42  C   UNL A   1      37.963  30.924  29.540  1.00  0.00     0.031 C 
ATOM     43  C   UNL A   1      37.294  33.940  33.519  1.00  0.00     0.029 A 
ATOM     44  N   UNL A   1      38.961  32.453  33.621  1.00  0.00    -0.354 N 
ATOM     45  C   UNL A   1      39.669  29.668  30.404  1.00  0.00     0.074 A 
ATOM     46  C   UNL A   1      38.719  29.857  29.329  1.00  0.00     0.031 C 
ATOM     47  C   UNL A   1      37.871  34.064  34.725  1.00  0.00     0.029 A 
ATOM     48  C   UNL A   1      38.945  33.085  34.844  1.00  0.00     0.049 A 
ATOM     49  H   UNL A   1      39.610  31.751  33.385  1.00  0.00     0.167 HD
ATOM     50  C   UNL A   1      40.640  28.725  30.406  1.00  0.00     0.034 A 
ATOM     51  C   UNL A   1      39.701  32.889  35.942  1.00  0.00     0.034 A 
ATOM     52  C   UNL A   1      41.603  28.561  31.461  1.00  0.00     0.049 A 
ATOM     53  C   UNL A   1      40.788  31.850  35.907  1.00  0.00     0.074 A 
ATOM     54  C   UNL A   1      42.677  27.690  31.515  1.00  0.00     0.029 A 
ATOM     55  N   UNL A   1      41.604  29.270  32.651  1.00  0.00    -0.354 N 
ATOM     56  N   UNL A   1      41.133  31.047  34.929  1.00  0.00    -0.248 NA
ATOM     57  C   UNL A   1      41.616  31.713  37.115  1.00  0.00     0.031 C 
ATOM     58  C   UNL A   1      43.306  27.849  32.755  1.00  0.00     0.029 A 
ATOM     59  C   UNL A   1      42.649  28.847  33.455  1.00  0.00     0.049 A 
ATOM     60  H   UNL A   1      40.955  29.971  32.891  1.00  0.00     0.167 HD
ATOM     61  C   UNL A   1      42.237  30.339  35.388  1.00  0.00     0.074 A 
ATOM     62  C   UNL A   1      42.517  30.824  36.724  1.00  0.00     0.031 C 
ATOM     63  C   UNL A   1      42.949  29.369  34.763  1.00  0.00     0.034 A 
BRANCH  50  64
ATOM     64  C   UNL A   1      40.736  27.815  29.207  1.00  0.00     0.023 A 
ATOM     65  C   UNL A   1      39.897  26.684  29.118  1.00  0.00     0.012 A 
ATOM     66  C   UNL A   1      41.609  28.112  28.141  1.00  0.00     0.148 A 
ATOM     67  C   UNL A   1      39.953  25.843  28.008  1.00  0.00     0.002 A 
ATOM     68  C   UNL A   1      41.624  27.295  27.016  1.00  0.00     0.091 A 
ATOM     69  F   UNL A   1      42.411  29.180  28.251  1.00  0.00    -0.205 F 
ATOM     70  C   UNL A   1      40.806  26.154  26.953  1.00  0.00     0.022 A 
BRANCH  68  71
ATOM     71  S   UNL A   1      42.627  27.655  25.570  1.00  0.00     0.127 S 
ATOM     72  O   UNL A   1      42.409  26.461  24.756  1.00  0.00    -0.237 OA
ATOM     73  O   UNL A   1      41.994  28.869  25.053  1.00  0.00    -0.237 OA
ATOM     74  O   UNL A   1      43.987  27.839  26.058  1.00  0.00    -0.744 OA
ENDBRANCH  68  71
ENDBRANCH  50  64
BRANCH  51  75
ATOM     75  C   UNL A   1      39.490  33.732  37.153  1.00  0.00     0.023 A 
ATOM     76  C   UNL A   1      39.991  35.048  37.178  1.00  0.00     0.012 A 
ATOM     77  C   UNL A   1      38.783  33.245  38.268  1.00  0.00     0.148 A 
ATOM     78  C   UNL A   1      39.825  35.851  38.307  1.00  0.00     0.002 A 
ATOM     79  C   UNL A   1      38.571  34.069  39.367  1.00  0.00     0.091 A 
ATOM     80  F   UNL A   1      38.323  31.987  38.228  1.00  0.00    -0.205 F 
ATOM     81  C   UNL A   1      39.107  35.366  39.397  1.00  0.00     0.022 A 
BRANCH  79  82
ATOM     82  S   UNL A   1      37.550  33.576  40.761  1.00  0.00     0.127 S 
ATOM     83  O   UNL A   1      38.384  32.560  41.397  1.00  0.00    -0.237 OA
ATOM     84  O   UNL A   1      37.430  34.830  41.503  1.00  0.00    -0.237 OA
ATOM     85  O   UNL A   1      36.302  33.096  40.184  1.00  0.00    -0.744 OA
ENDBRANCH  79  82
ENDBRANCH  51  75
BRANCH  63  86
ATOM     86  C   UNL A   1      44.134  28.790  35.492  1.00  0.00     0.023 A 
ATOM     87  C   UNL A   1      45.417  29.346  35.314  1.00  0.00     0.012 A 
ATOM     88  C   UNL A   1      43.961  27.736  36.412  1.00  0.00     0.148 A 
ATOM     89  C   UNL A   1      46.512  28.839  36.011  1.00  0.00     0.002 A 
ATOM     90  C   UNL A   1      45.048  27.273  37.143  1.00  0.00     0.091 A 
ATOM     91  F   UNL A   1      42.737  27.209  36.556  1.00  0.00    -0.205 F 
ATOM     92  C   UNL A   1      46.327  27.812  36.933  1.00  0.00     0.022 A 
BRANCH  90  93
ATOM     93  S   UNL A   1      44.886  26.023  38.423  1.00  0.00     0.127 S 
ATOM     94  O   UNL A   1      46.281  25.797  38.798  1.00  0.00    -0.237 OA
ATOM     95  O   UNL A   1      44.089  26.719  39.434  1.00  0.00    -0.237 OA
ATOM     96  O   UNL A   1      44.217  24.890  37.799  1.00  0.00    -0.744 OA
ENDBRANCH  90  93
ENDBRANCH  63  86
ENDBRANCH  37  38
ENDBRANCH  29  32
ENDBRANCH  27  28
ENDBRANCH  26  27
ENDBRANCH   1  26
TORSDOF 19
ENDMDL
MODEL 3
REMARK VINA RESULT:     -12.1      5.789     11.838
REMARK SMILES O=C(CN(CC(=O)NCc1ccccc1)c1ccccc1)NCCCNC(=O)c1ccc(-c2c3nc(c(-c4cccc(S(=O)(=O)[O-])c4F)c4ccc([nH]4)c(-c4cccc(S(=O)(=O)[O-])c4F)c4nc(c(-c5cccc(S(=O)(=O)[O-])c5F)c5ccc2[nH]5)C=C4)C=C3)cc1
REMARK SMILES IDX 23 1 22 2 1 3 2 4 3 6 4 7 5 8 6 9 7 10 8 11 9 13 10 14 11 15
REMARK SMILES IDX 15 16 12 17 14 18 13 19 16 20 17 21 21 22 18 23 20 24 19 25
REMARK SMILES IDX 24 26 25 27 26 28 27 29 28 31 29 32 30 33 91 34 31 35 90 36
REMARK SMILES IDX 32 37 33 38 34 39 84 40 35 41 89 42 83 43 85 44 36 45 88 46
REMARK SMILES IDX 82 47 81 48 37 50 69 51 49 52 68 53 50 54 53 55 67 56 86 57
REMARK SMILES IDX 51 58 52 59 66 61 87 62 54 63 38 64 39 65 47 66 40 67 42 68
REMARK SMILES IDX 48 69 41 70 43 71 44 72 45 73 46 74 70 75 71 76 79 77 72 78
REMARK SMILES IDX 74 79 80 80 73 81 75 82 76 83 77 84 78 85 55 86 56 87 64 88
REMARK SMILES IDX 57 89 59 90 65 91 58 92 60 93 61 94 62 95 63 96
REMARK H PARENT 22 5 8 12 26 30 85 49 53 60
REMARK Flexibility Score: inf
ROOT
ATOM      1  C   UNL A   1      37.302  21.792  24.752  1.00  0.00     0.117 C 
ENDROOT
BRANCH   1   2
ATOM      2  N   UNL A   1      35.954  21.584  24.267  1.00  0.00    -0.354 N 
ATOM      3  O   UNL A   1      35.009  21.457  26.353  1.00  0.00    -0.273 OA
ATOM      4  C   UNL A   1      34.886  21.492  25.129  1.00  0.00     0.239 C 
ATOM      5  H   UNL A   1      35.797  21.507  23.299  1.00  0.00     0.163 HD
BRANCH   4   6
ATOM      6  C   UNL A   1      33.522  21.389  24.463  1.00  0.00     0.217 C 
BRANCH   6   7
ATOM      7  N   UNL A   1      32.604  22.561  24.578  1.00  0.00    -0.353 N 
BRANCH   7   8
ATOM      8  C   UNL A   1      31.461  22.398  25.521  1.00  0.00     0.217 C 
BRANCH   8   9
ATOM      9  C   UNL A   1      31.461  23.243  26.806  1.00  0.00     0.239 C 
ATOM     10  O   UNL A   1      32.205  22.946  27.750  1.00  0.00    -0.273 OA
ATOM     11  N   UNL A   1      30.680  24.346  26.972  1.00  0.00    -0.350 N 
ATOM     12  H   UNL A   1      30.638  24.690  27.893  1.00  0.00     0.163 HD
BRANCH  11  13
ATOM     13  C   UNL A   1      29.904  25.089  26.011  1.00  0.00     0.151 C 
BRANCH  13  14
ATOM     14  C   UNL A   1      30.549  26.392  25.611  1.00  0.00    -0.029 A 
ATOM     15  C   UNL A   1      31.390  27.085  26.492  1.00  0.00     0.005 A 
ATOM     16  C   UNL A   1      30.278  26.979  24.368  1.00  0.00     0.005 A 
ATOM     17  C   UNL A   1      31.893  28.349  26.183  1.00  0.00     0.000 A 
ATOM     18  C   UNL A   1      30.797  28.238  24.045  1.00  0.00     0.000 A 
ATOM     19  C   UNL A   1      31.589  28.930  24.958  1.00  0.00     0.000 A 
ENDBRANCH  13  14
ENDBRANCH  11  13
ENDBRANCH   8   9
ENDBRANCH   7   8
BRANCH   7  20
ATOM     20  C   UNL A   1      32.904  23.794  23.995  1.00  0.00     0.038 A 
ATOM     21  C   UNL A   1      33.661  24.785  24.646  1.00  0.00     0.026 A 
ATOM     22  C   UNL A   1      32.500  24.136  22.694  1.00  0.00     0.026 A 
ATOM     23  C   UNL A   1      34.018  26.002  24.042  1.00  0.00     0.002 A 
ATOM     24  C   UNL A   1      32.820  25.363  22.088  1.00  0.00     0.002 A 
ATOM     25  C   UNL A   1      33.591  26.295  22.759  1.00  0.00     0.000 A 
ENDBRANCH   7  20
ENDBRANCH   6   7
ENDBRANCH   4   6
ENDBRANCH   1   2
BRANCH   1  26
ATOM     26  C   UNL A   1      38.058  20.489  24.957  1.00  0.00     0.042 C 
BRANCH  26  27
ATOM     27  C   UNL A   1      39.085  20.547  26.081  1.00  0.00     0.118 C 
BRANCH  27  28
ATOM     28  N   UNL A   1      40.078  19.482  26.001  1.00  0.00    -0.352 N 
ATOM     29  C   UNL A   1      41.448  19.550  26.044  1.00  0.00     0.251 C 
ATOM     30  H   UNL A   1      39.709  18.575  25.901  1.00  0.00     0.163 HD
ATOM     31  O   UNL A   1      42.112  18.542  25.800  1.00  0.00    -0.269 OA
BRANCH  29  32
ATOM     32  C   UNL A   1      42.127  20.824  26.358  1.00  0.00     0.039 A 
ATOM     33  C   UNL A   1      42.484  21.674  25.308  1.00  0.00     0.014 A 
ATOM     34  C   UNL A   1      42.413  21.183  27.678  1.00  0.00     0.014 A 
ATOM     35  C   UNL A   1      43.066  22.913  25.588  1.00  0.00     0.010 A 
ATOM     36  C   UNL A   1      42.913  22.452  27.957  1.00  0.00     0.010 A 
ATOM     37  C   UNL A   1      43.249  23.330  26.916  1.00  0.00    -0.014 A 
BRANCH  37  38
ATOM     38  C   UNL A   1      43.772  24.684  27.235  1.00  0.00     0.031 A 
ATOM     39  C   UNL A   1      42.851  25.754  27.756  1.00  0.00     0.074 A 
ATOM     40  C   UNL A   1      45.063  24.976  26.976  1.00  0.00     0.049 A 
ATOM     41  N   UNL A   1      43.116  27.004  28.035  1.00  0.00    -0.248 NA
ATOM     42  C   UNL A   1      41.442  25.380  27.967  1.00  0.00     0.031 C 
ATOM     43  C   UNL A   1      46.041  24.050  26.399  1.00  0.00     0.029 A 
ATOM     44  N   UNL A   1      45.769  26.142  27.138  1.00  0.00    -0.354 N 
ATOM     45  C   UNL A   1      41.907  27.574  28.418  1.00  0.00     0.074 A 
ATOM     46  C   UNL A   1      40.900  26.541  28.302  1.00  0.00     0.031 C 
ATOM     47  C   UNL A   1      47.218  24.680  26.262  1.00  0.00     0.029 A 
ATOM     48  C   UNL A   1      47.073  26.063  26.704  1.00  0.00     0.049 A 
ATOM     49  H   UNL A   1      45.379  26.958  27.528  1.00  0.00     0.167 HD
ATOM     50  C   UNL A   1      41.661  28.833  28.852  1.00  0.00     0.034 A 
ATOM     51  C   UNL A   1      48.039  27.001  26.654  1.00  0.00     0.034 A 
ATOM     52  C   UNL A   1      42.669  29.847  28.997  1.00  0.00     0.049 A 
ATOM     53  C   UNL A   1      47.744  28.384  27.165  1.00  0.00     0.074 A 
ATOM     54  C   UNL A   1      42.534  31.126  29.510  1.00  0.00     0.029 A 
ATOM     55  N   UNL A   1      43.995  29.708  28.619  1.00  0.00    -0.354 N 
ATOM     56  N   UNL A   1      46.630  28.858  27.670  1.00  0.00    -0.248 NA
ATOM     57  C   UNL A   1      48.849  29.354  27.134  1.00  0.00     0.031 C 
ATOM     58  C   UNL A   1      43.770  31.771  29.408  1.00  0.00     0.029 A 
ATOM     59  C   UNL A   1      44.686  30.881  28.871  1.00  0.00     0.049 A 
ATOM     60  H   UNL A   1      44.388  28.894  28.227  1.00  0.00     0.167 HD
ATOM     61  C   UNL A   1      46.911  30.166  28.050  1.00  0.00     0.074 A 
ATOM     62  C   UNL A   1      48.305  30.401  27.738  1.00  0.00     0.031 C 
ATOM     63  C   UNL A   1      46.085  31.090  28.601  1.00  0.00     0.034 A 
BRANCH  50  64
ATOM     64  C   UNL A   1      40.245  29.175  29.242  1.00  0.00     0.023 A 
ATOM     65  C   UNL A   1      39.313  29.538  28.246  1.00  0.00     0.012 A 
ATOM     66  C   UNL A   1      39.819  29.079  30.582  1.00  0.00     0.148 A 
ATOM     67  C   UNL A   1      37.994  29.836  28.582  1.00  0.00     0.002 A 
ATOM     68  C   UNL A   1      38.490  29.331  30.902  1.00  0.00     0.091 A 
ATOM     69  F   UNL A   1      40.722  28.751  31.517  1.00  0.00    -0.205 F 
ATOM     70  C   UNL A   1      37.579  29.722  29.906  1.00  0.00     0.022 A 
BRANCH  68  71
ATOM     71  S   UNL A   1      37.838  29.131  32.563  1.00  0.00     0.127 S 
ATOM     72  O   UNL A   1      38.005  27.695  32.774  1.00  0.00    -0.237 OA
ATOM     73  O   UNL A   1      38.742  29.972  33.350  1.00  0.00    -0.237 OA
ATOM     74  O   UNL A   1      36.460  29.599  32.516  1.00  0.00    -0.744 OA
ENDBRANCH  68  71
ENDBRANCH  50  64
BRANCH  51  75
ATOM     75  C   UNL A   1      49.395  26.648  26.145  1.00  0.00     0.023 A 
ATOM     76  C   UNL A   1      50.238  25.833  26.925  1.00  0.00     0.012 A 
ATOM     77  C   UNL A   1      49.845  27.100  24.890  1.00  0.00     0.148 A 
ATOM     78  C   UNL A   1      51.520  25.506  26.481  1.00  0.00     0.002 A 
ATOM     79  C   UNL A   1      51.100  26.723  24.428  1.00  0.00     0.091 A 
ATOM     80  F   UNL A   1      49.030  27.881  24.167  1.00  0.00    -0.205 F 
ATOM     81  C   UNL A   1      51.947  25.942  25.229  1.00  0.00     0.022 A 
BRANCH  79  82
ATOM     82  S   UNL A   1      51.683  27.128  22.778  1.00  0.00     0.127 S 
ATOM     83  O   UNL A   1      52.889  26.311  22.678  1.00  0.00    -0.237 OA
ATOM     84  O   UNL A   1      50.564  26.684  21.947  1.00  0.00    -0.237 OA
ATOM     85  O   UNL A   1      51.896  28.569  22.779  1.00  0.00    -0.744 OA
ENDBRANCH  79  82
ENDBRANCH  51  75
BRANCH  63  86
ATOM     86  C   UNL A   1      46.671  32.434  28.947  1.00  0.00     0.023 A 
ATOM     87  C   UNL A   1      47.230  32.657  30.222  1.00  0.00     0.012 A 
ATOM     88  C   UNL A   1      46.732  33.457  27.979  1.00  0.00     0.148 A 
ATOM     89  C   UNL A   1      47.804  33.886  30.539  1.00  0.00     0.002 A 
ATOM     90  C   UNL A   1      47.356  34.660  28.285  1.00  0.00     0.091 A 
ATOM     91  F   UNL A   1      46.182  33.233  26.778  1.00  0.00    -0.205 F 
ATOM     92  C   UNL A   1      47.879  34.882  29.569  1.00  0.00     0.022 A 
BRANCH  90  93
ATOM     93  S   UNL A   1      47.587  35.963  27.070  1.00  0.00     0.127 S 
ATOM     94  O   UNL A   1      46.207  36.351  26.782  1.00  0.00    -0.237 OA
ATOM     95  O   UNL A   1      48.355  36.954  27.823  1.00  0.00    -0.237 OA
ATOM     96  O   UNL A   1      48.308  35.355  25.960  1.00  0.00    -0.744 OA
ENDBRANCH  90  93
ENDBRANCH  63  86
ENDBRANCH  37  38
ENDBRANCH  29  32
ENDBRANCH  27  28
ENDBRANCH  26  27
ENDBRANCH   1  26
TORSDOF 19
ENDMDL
