MODEL 1
REMARK VINA RESULT:     -13.5      0.000      0.000
REMARK SMILES Cc1ccc2c(=O)c3cccc(CC(=O)NCCCNC(=O)c4ccc(-c5c6nc(c(-c7cccc(S(=O)(=O)[O-])c7F)c7ccc([nH]7)c(-c7cccc(S(=O)(=O)[O-])c7F)c7nc(c(-c8cccc(S(=O)(=O)[O-])c8F)c8ccc5[nH]8)C=C7)C=C6)cc4)c3oc2c1C
REMARK SMILES IDX 19 1 18 2 17 3 16 4 14 5 15 6 13 8 12 9 1 10 2 11 3 12 89 13
REMARK SMILES IDX 4 14 88 15 90 16 5 17 87 18 6 19 86 20 7 21 8 22 9 23 11 24
REMARK SMILES IDX 10 25 20 26 21 27 22 29 23 30 24 31 85 32 25 33 84 34 26 35
REMARK SMILES IDX 27 36 28 37 78 38 29 39 83 40 77 41 79 42 30 43 82 44 76 45
REMARK SMILES IDX 75 46 31 48 63 49 43 50 62 51 44 52 47 53 61 54 80 55 45 56
REMARK SMILES IDX 46 57 60 59 81 60 48 61 32 62 33 63 41 64 34 65 36 66 42 67
REMARK SMILES IDX 35 68 37 69 38 70 39 71 40 72 64 73 65 74 73 75 66 76 68 77
REMARK SMILES IDX 74 78 67 79 69 80 70 81 71 82 72 83 49 84 50 85 58 86 51 87
REMARK SMILES IDX 53 88 59 89 52 90 54 91 55 92 56 93 57 94
REMARK H PARENT 16 7 20 28 79 47 47 58
REMARK Flexibility Score: inf
ROOT
ATOM      1  C   UNL A   1      32.990  32.751  27.318  1.00  0.00     0.118 C 
ENDROOT
BRANCH   1   2
ATOM      2  C   UNL A   1      31.780  31.892  26.973  1.00  0.00     0.042 C 
BRANCH   2   3
ATOM      3  C   UNL A   1      32.081  30.398  26.925  1.00  0.00     0.117 C 
BRANCH   3   4
ATOM      4  N   UNL A   1      33.468  30.107  27.233  1.00  0.00    -0.356 N 
ATOM      5  C   UNL A   1      34.172  28.951  27.060  1.00  0.00     0.224 C 
ATOM      6  O   UNL A   1      35.367  28.950  27.364  1.00  0.00    -0.275 OA
ATOM      7  H   UNL A   1      33.977  30.853  27.623  1.00  0.00     0.163 HD
BRANCH   5   8
ATOM      8  C   UNL A   1      33.517  27.735  26.428  1.00  0.00     0.139 C 
BRANCH   8   9
ATOM      9  C   UNL A   1      33.571  27.684  24.916  1.00  0.00     0.005 A 
ATOM     10  C   UNL A   1      32.358  20.454  25.162  1.00  0.00     0.045 C 
ATOM     11  C   UNL A   1      32.611  21.738  24.418  1.00  0.00    -0.044 A 
ATOM     12  C   UNL A   1      32.624  21.673  23.012  1.00  0.00     0.005 A 
ATOM     13  C   UNL A   1      32.766  22.992  25.055  1.00  0.00    -0.005 A 
ATOM     14  C   UNL A   1      32.820  22.815  22.242  1.00  0.00     0.016 A 
ATOM     15  C   UNL A   1      32.977  24.144  24.263  1.00  0.00     0.141 A 
ATOM     16  C   UNL A   1      32.705  23.156  26.553  1.00  0.00     0.049 C 
ATOM     17  C   UNL A   1      33.002  24.044  22.874  1.00  0.00     0.066 A 
ATOM     18  O   UNL A   1      33.152  25.342  24.927  1.00  0.00    -0.455 OA
ATOM     19  C   UNL A   1      33.226  25.252  22.074  1.00  0.00     0.200 A 
ATOM     20  C   UNL A   1      33.372  26.489  24.201  1.00  0.00     0.142 A 
ATOM     21  O   UNL A   1      33.277  25.214  20.851  1.00  0.00    -0.288 OA
ATOM     22  C   UNL A   1      33.413  26.509  22.807  1.00  0.00     0.066 A 
ATOM     23  C   UNL A   1      33.642  27.697  22.106  1.00  0.00     0.016 A 
ATOM     24  C   UNL A   1      33.845  28.867  24.202  1.00  0.00     0.008 A 
ATOM     25  C   UNL A   1      33.863  28.877  22.807  1.00  0.00     0.001 A 
ENDBRANCH   8   9
ENDBRANCH   5   8
ENDBRANCH   3   4
ENDBRANCH   2   3
ENDBRANCH   1   2
BRANCH   1  26
ATOM     26  N   UNL A   1      32.635  34.118  27.683  1.00  0.00    -0.352 N 
ATOM     27  C   UNL A   1      33.106  34.914  28.703  1.00  0.00     0.251 C 
ATOM     28  H   UNL A   1      31.952  34.537  27.111  1.00  0.00     0.163 HD
ATOM     29  O   UNL A   1      32.558  35.987  28.933  1.00  0.00    -0.269 OA
BRANCH  27  30
ATOM     30  C   UNL A   1      34.240  34.456  29.535  1.00  0.00     0.039 A 
ATOM     31  C   UNL A   1      35.552  34.574  29.076  1.00  0.00     0.014 A 
ATOM     32  C   UNL A   1      33.986  33.875  30.781  1.00  0.00     0.014 A 
ATOM     33  C   UNL A   1      36.580  33.934  29.758  1.00  0.00     0.010 A 
ATOM     34  C   UNL A   1      35.038  33.319  31.515  1.00  0.00     0.010 A 
ATOM     35  C   UNL A   1      36.336  33.289  30.981  1.00  0.00    -0.014 A 
BRANCH  35  36
ATOM     36  C   UNL A   1      37.450  32.587  31.672  1.00  0.00     0.031 A 
ATOM     37  C   UNL A   1      38.177  31.446  31.007  1.00  0.00     0.074 A 
ATOM     38  C   UNL A   1      37.844  33.014  32.889  1.00  0.00     0.049 A 
ATOM     39  N   UNL A   1      39.182  30.740  31.459  1.00  0.00    -0.248 NA
ATOM     40  C   UNL A   1      37.726  31.042  29.664  1.00  0.00     0.031 C 
ATOM     41  C   UNL A   1      37.217  34.103  33.643  1.00  0.00     0.029 A 
ATOM     42  N   UNL A   1      38.870  32.598  33.699  1.00  0.00    -0.354 N 
ATOM     43  C   UNL A   1      39.457  29.792  30.482  1.00  0.00     0.074 A 
ATOM     44  C   UNL A   1      38.509  30.002  29.410  1.00  0.00     0.031 C 
ATOM     45  C   UNL A   1      37.897  34.298  34.782  1.00  0.00     0.029 A 
ATOM     46  C   UNL A   1      38.968  33.311  34.870  1.00  0.00     0.049 A 
ATOM     47  H   UNL A   1      39.478  31.860  33.464  1.00  0.00     0.167 HD
ATOM     48  C   UNL A   1      40.425  28.846  30.467  1.00  0.00     0.034 A 
ATOM     49  C   UNL A   1      39.815  33.183  35.910  1.00  0.00     0.034 A 
ATOM     50  C   UNL A   1      41.402  28.669  31.506  1.00  0.00     0.049 A 
ATOM     51  C   UNL A   1      40.872  32.119  35.871  1.00  0.00     0.074 A 
ATOM     52  C   UNL A   1      42.447  27.763  31.552  1.00  0.00     0.029 A 
ATOM     53  N   UNL A   1      41.462  29.411  32.674  1.00  0.00    -0.354 N 
ATOM     54  N   UNL A   1      41.151  31.276  34.908  1.00  0.00    -0.248 NA
ATOM     55  C   UNL A   1      41.737  31.994  37.052  1.00  0.00     0.031 C 
ATOM     56  C   UNL A   1      43.131  27.946  32.756  1.00  0.00     0.029 A 
ATOM     57  C   UNL A   1      42.523  28.979  33.450  1.00  0.00     0.049 A 
ATOM     58  H   UNL A   1      40.843  30.137  32.916  1.00  0.00     0.167 HD
ATOM     59  C   UNL A   1      42.235  30.533  35.357  1.00  0.00     0.074 A 
ATOM     60  C   UNL A   1      42.572  31.034  36.673  1.00  0.00     0.031 C 
ATOM     61  C   UNL A   1      42.878  29.515  34.737  1.00  0.00     0.034 A 
BRANCH  48  62
ATOM     62  C   UNL A   1      40.527  27.943  29.267  1.00  0.00     0.023 A 
ATOM     63  C   UNL A   1      39.619  26.875  29.130  1.00  0.00     0.012 A 
ATOM     64  C   UNL A   1      41.426  28.231  28.222  1.00  0.00     0.148 A 
ATOM     65  C   UNL A   1      39.605  26.105  27.969  1.00  0.00     0.002 A 
ATOM     66  C   UNL A   1      41.387  27.478  27.055  1.00  0.00     0.091 A 
ATOM     67  F   UNL A   1      42.284  29.249  28.382  1.00  0.00    -0.205 F 
ATOM     68  C   UNL A   1      40.479  26.413  26.928  1.00  0.00     0.022 A 
BRANCH  66  69
ATOM     69  S   UNL A   1      42.431  27.821  25.634  1.00  0.00     0.127 S 
ATOM     70  O   UNL A   1      43.753  27.904  26.254  1.00  0.00    -0.237 OA
ATOM     71  O   UNL A   1      42.219  26.635  24.805  1.00  0.00    -0.237 OA
ATOM     72  O   UNL A   1      41.940  29.067  25.063  1.00  0.00    -0.744 OA
ENDBRANCH  66  69
ENDBRANCH  48  62
BRANCH  49  73
ATOM     73  C   UNL A   1      39.705  34.122  37.057  1.00  0.00     0.023 A 
ATOM     74  C   UNL A   1      40.110  35.460  36.894  1.00  0.00     0.012 A 
ATOM     75  C   UNL A   1      39.135  33.715  38.278  1.00  0.00     0.148 A 
ATOM     76  C   UNL A   1      39.953  36.379  37.932  1.00  0.00     0.002 A 
ATOM     77  C   UNL A   1      38.943  34.644  39.294  1.00  0.00     0.091 A 
ATOM     78  F   UNL A   1      38.760  32.434  38.406  1.00  0.00    -0.205 F 
ATOM     79  C   UNL A   1      39.361  35.974  39.127  1.00  0.00     0.022 A 
BRANCH  77  80
ATOM     80  S   UNL A   1      38.099  34.243  40.827  1.00  0.00     0.127 S 
ATOM     81  O   UNL A   1      39.111  33.457  41.527  1.00  0.00    -0.237 OA
ATOM     82  O   UNL A   1      37.853  35.572  41.388  1.00  0.00    -0.237 OA
ATOM     83  O   UNL A   1      36.897  33.516  40.441  1.00  0.00    -0.744 OA
ENDBRANCH  77  80
ENDBRANCH  49  73
BRANCH  61  84
ATOM     84  C   UNL A   1      44.031  28.867  35.451  1.00  0.00     0.023 A 
ATOM     85  C   UNL A   1      45.314  29.437  35.347  1.00  0.00     0.012 A 
ATOM     86  C   UNL A   1      43.816  27.783  36.323  1.00  0.00     0.148 A 
ATOM     87  C   UNL A   1      46.371  28.932  36.103  1.00  0.00     0.002 A 
ATOM     88  C   UNL A   1      44.866  27.307  37.097  1.00  0.00     0.091 A 
ATOM     89  F   UNL A   1      42.584  27.258  36.396  1.00  0.00    -0.205 F 
ATOM     90  C   UNL A   1      46.145  27.878  36.985  1.00  0.00     0.022 A 
BRANCH  88  91
ATOM     91  S   UNL A   1      44.661  26.002  38.314  1.00  0.00     0.127 S 
ATOM     92  O   UNL A   1      46.031  25.830  38.798  1.00  0.00    -0.237 OA
ATOM     93  O   UNL A   1      43.748  26.618  39.275  1.00  0.00    -0.237 OA
ATOM     94  O   UNL A   1      44.113  24.859  37.596  1.00  0.00    -0.744 OA
ENDBRANCH  88  91
ENDBRANCH  61  84
ENDBRANCH  35  36
ENDBRANCH  27  30
ENDBRANCH   1  26
TORSDOF 14
ENDMDL
MODEL 2
REMARK VINA RESULT:     -13.4      1.644      7.738
REMARK SMILES Cc1ccc2c(=O)c3cccc(CC(=O)NCCCNC(=O)c4ccc(-c5c6nc(c(-c7cccc(S(=O)(=O)[O-])c7F)c7ccc([nH]7)c(-c7cccc(S(=O)(=O)[O-])c7F)c7nc(c(-c8cccc(S(=O)(=O)[O-])c8F)c8ccc5[nH]8)C=C7)C=C6)cc4)c3oc2c1C
REMARK SMILES IDX 19 1 18 2 17 3 16 4 14 5 15 6 13 8 12 9 1 10 2 11 3 12 89 13
REMARK SMILES IDX 4 14 88 15 90 16 5 17 87 18 6 19 86 20 7 21 8 22 9 23 11 24
REMARK SMILES IDX 10 25 20 26 21 27 22 29 23 30 24 31 85 32 25 33 84 34 26 35
REMARK SMILES IDX 27 36 28 37 78 38 29 39 83 40 77 41 79 42 30 43 82 44 76 45
REMARK SMILES IDX 75 46 31 48 63 49 43 50 62 51 44 52 47 53 61 54 80 55 45 56
REMARK SMILES IDX 46 57 60 59 81 60 48 61 32 62 33 63 41 64 34 65 36 66 42 67
REMARK SMILES IDX 35 68 37 69 38 70 39 71 40 72 64 73 65 74 73 75 66 76 68 77
REMARK SMILES IDX 74 78 67 79 69 80 70 81 71 82 72 83 49 84 50 85 58 86 51 87
REMARK SMILES IDX 53 88 59 89 52 90 54 91 55 92 56 93 57 94
REMARK H PARENT 16 7 20 28 79 47 47 58
REMARK Flexibility Score: inf
ROOT
ATOM      1  C   UNL A   1      32.597  32.868  26.743  1.00  0.00     0.118 C 
ENDROOT
BRANCH   1   2
ATOM      2  C   UNL A   1      31.398  31.935  26.866  1.00  0.00     0.042 C 
BRANCH   2   3
ATOM      3  C   UNL A   1      31.768  30.456  26.865  1.00  0.00     0.117 C 
BRANCH   3   4
ATOM      4  N   UNL A   1      33.165  30.238  27.191  1.00  0.00    -0.356 N 
ATOM      5  C   UNL A   1      33.927  29.117  27.041  1.00  0.00     0.224 C 
ATOM      6  O   UNL A   1      35.118  29.180  27.356  1.00  0.00    -0.275 OA
ATOM      7  H   UNL A   1      33.632  31.014  27.575  1.00  0.00     0.163 HD
BRANCH   5   8
ATOM      8  C   UNL A   1      33.340  27.862  26.419  1.00  0.00     0.139 C 
BRANCH   8   9
ATOM      9  C   UNL A   1      33.456  27.770  24.913  1.00  0.00     0.005 A 
ATOM     10  C   UNL A   1      32.360  20.529  25.313  1.00  0.00     0.045 C 
ATOM     11  C   UNL A   1      32.621  21.796  24.544  1.00  0.00    -0.044 A 
ATOM     12  C   UNL A   1      32.692  21.693  23.142  1.00  0.00     0.005 A 
ATOM     13  C   UNL A   1      32.728  23.070  25.151  1.00  0.00    -0.005 A 
ATOM     14  C   UNL A   1      32.899  22.816  22.349  1.00  0.00     0.016 A 
ATOM     15  C   UNL A   1      32.951  24.203  24.337  1.00  0.00     0.141 A 
ATOM     16  C   UNL A   1      32.603  23.274  26.641  1.00  0.00     0.049 C 
ATOM     17  C   UNL A   1      33.035  24.065  22.953  1.00  0.00     0.066 A 
ATOM     18  O   UNL A   1      33.078  25.422  24.973  1.00  0.00    -0.455 OA
ATOM     19  C   UNL A   1      33.270  25.255  22.129  1.00  0.00     0.200 A 
ATOM     20  C   UNL A   1      33.308  26.552  24.224  1.00  0.00     0.142 A 
ATOM     21  O   UNL A   1      33.371  25.185  20.911  1.00  0.00    -0.288 OA
ATOM     22  C   UNL A   1      33.405  26.535  22.833  1.00  0.00     0.066 A 
ATOM     23  C   UNL A   1      33.641  27.707  22.109  1.00  0.00     0.016 A 
ATOM     24  C   UNL A   1      33.739  28.938  24.177  1.00  0.00     0.008 A 
ATOM     25  C   UNL A   1      33.814  28.910  22.784  1.00  0.00     0.001 A 
ENDBRANCH   8   9
ENDBRANCH   5   8
ENDBRANCH   3   4
ENDBRANCH   2   3
ENDBRANCH   1   2
BRANCH   1  26
ATOM     26  N   UNL A   1      32.502  34.037  27.609  1.00  0.00    -0.352 N 
ATOM     27  C   UNL A   1      33.259  34.394  28.702  1.00  0.00     0.251 C 
ATOM     28  H   UNL A   1      31.784  34.671  27.377  1.00  0.00     0.163 HD
ATOM     29  O   UNL A   1      32.912  35.348  29.392  1.00  0.00    -0.269 OA
BRANCH  27  30
ATOM     30  C   UNL A   1      34.459  33.607  29.060  1.00  0.00     0.039 A 
ATOM     31  C   UNL A   1      34.335  32.363  29.682  1.00  0.00     0.014 A 
ATOM     32  C   UNL A   1      35.728  34.132  28.798  1.00  0.00     0.014 A 
ATOM     33  C   UNL A   1      35.458  31.748  30.220  1.00  0.00     0.010 A 
ATOM     34  C   UNL A   1      36.866  33.458  29.252  1.00  0.00     0.010 A 
ATOM     35  C   UNL A   1      36.738  32.291  30.022  1.00  0.00    -0.014 A 
BRANCH  35  36
ATOM     36  C   UNL A   1      37.917  31.625  30.635  1.00  0.00     0.031 A 
ATOM     37  C   UNL A   1      38.324  31.927  32.056  1.00  0.00     0.074 A 
ATOM     38  C   UNL A   1      38.597  30.703  29.925  1.00  0.00     0.049 A 
ATOM     39  N   UNL A   1      39.312  31.421  32.749  1.00  0.00    -0.248 NA
ATOM     40  C   UNL A   1      37.526  32.919  32.796  1.00  0.00     0.031 C 
ATOM     41  C   UNL A   1      38.308  30.327  28.538  1.00  0.00     0.029 A 
ATOM     42  N   UNL A   1      39.658  29.905  30.270  1.00  0.00    -0.354 N 
ATOM     43  C   UNL A   1      39.278  32.055  33.985  1.00  0.00     0.074 A 
ATOM     44  C   UNL A   1      38.177  32.992  33.950  1.00  0.00     0.031 C 
ATOM     45  C   UNL A   1      39.140  29.343  28.166  1.00  0.00     0.029 A 
ATOM     46  C   UNL A   1      40.060  29.060  29.263  1.00  0.00     0.049 A 
ATOM     47  H   UNL A   1      40.090  29.934  31.154  1.00  0.00     0.167 HD
ATOM     48  C   UNL A   1      40.077  31.859  35.060  1.00  0.00     0.034 A 
ATOM     49  C   UNL A   1      41.064  28.164  29.214  1.00  0.00     0.034 A 
ATOM     50  C   UNL A   1      41.138  30.891  35.117  1.00  0.00     0.049 A 
ATOM     51  C   UNL A   1      41.940  27.974  30.417  1.00  0.00     0.074 A 
ATOM     52  C   UNL A   1      41.969  30.595  36.183  1.00  0.00     0.029 A 
ATOM     53  N   UNL A   1      41.511  30.060  34.074  1.00  0.00    -0.354 N 
ATOM     54  N   UNL A   1      41.848  28.541  31.595  1.00  0.00    -0.248 NA
ATOM     55  C   UNL A   1      43.048  27.018  30.292  1.00  0.00     0.031 C 
ATOM     56  C   UNL A   1      42.857  29.594  35.780  1.00  0.00     0.029 A 
ATOM     57  C   UNL A   1      42.564  29.254  34.469  1.00  0.00     0.049 A 
ATOM     58  H   UNL A   1      41.089  30.043  33.185  1.00  0.00     0.167 HD
ATOM     59  C   UNL A   1      42.873  27.997  32.358  1.00  0.00     0.074 A 
ATOM     60  C   UNL A   1      43.566  27.045  31.515  1.00  0.00     0.031 C 
ATOM     61  C   UNL A   1      43.216  28.278  33.638  1.00  0.00     0.034 A 
BRANCH  48  62
ATOM     62  C   UNL A   1      39.818  32.668  36.303  1.00  0.00     0.023 A 
ATOM     63  C   UNL A   1      40.433  33.927  36.445  1.00  0.00     0.012 A 
ATOM     64  C   UNL A   1      38.871  32.245  37.255  1.00  0.00     0.148 A 
ATOM     65  C   UNL A   1      40.111  34.754  37.519  1.00  0.00     0.002 A 
ATOM     66  C   UNL A   1      38.532  33.086  38.308  1.00  0.00     0.091 A 
ATOM     67  F   UNL A   1      38.305  31.039  37.099  1.00  0.00    -0.205 F 
ATOM     68  C   UNL A   1      39.153  34.340  38.443  1.00  0.00     0.022 A 
BRANCH  66  69
ATOM     69  S   UNL A   1      37.275  32.674  39.523  1.00  0.00     0.127 S 
ATOM     70  O   UNL A   1      37.397  33.788  40.463  1.00  0.00    -0.237 OA
ATOM     71  O   UNL A   1      36.055  32.687  38.717  1.00  0.00    -0.237 OA
ATOM     72  O   UNL A   1      37.643  31.372  40.061  1.00  0.00    -0.744 OA
ENDBRANCH  66  69
ENDBRANCH  48  62
BRANCH  49  73
ATOM     73  C   UNL A   1      41.259  27.356  27.981  1.00  0.00     0.023 A 
ATOM     74  C   UNL A   1      41.873  27.947  26.861  1.00  0.00     0.012 A 
ATOM     75  C   UNL A   1      40.908  25.993  27.941  1.00  0.00     0.148 A 
ATOM     76  C   UNL A   1      42.131  27.191  25.716  1.00  0.00     0.002 A 
ATOM     77  C   UNL A   1      41.205  25.237  26.813  1.00  0.00     0.091 A 
ATOM     78  F   UNL A   1      40.323  25.459  29.022  1.00  0.00    -0.205 F 
ATOM     79  C   UNL A   1      41.807  25.837  25.696  1.00  0.00     0.022 A 
BRANCH  77  80
ATOM     80  S   UNL A   1      40.920  23.466  26.733  1.00  0.00     0.127 S 
ATOM     81  O   UNL A   1      39.492  23.409  26.430  1.00  0.00    -0.237 OA
ATOM     82  O   UNL A   1      41.800  23.073  25.632  1.00  0.00    -0.237 OA
ATOM     83  O   UNL A   1      41.305  22.941  28.035  1.00  0.00    -0.744 OA
ENDBRANCH  77  80
ENDBRANCH  49  73
BRANCH  61  84
ATOM     84  C   UNL A   1      44.384  27.545  34.235  1.00  0.00     0.023 A 
ATOM     85  C   UNL A   1      45.664  28.128  34.182  1.00  0.00     0.012 A 
ATOM     86  C   UNL A   1      44.187  26.354  34.960  1.00  0.00     0.148 A 
ATOM     87  C   UNL A   1      46.737  27.531  34.843  1.00  0.00     0.002 A 
ATOM     88  C   UNL A   1      45.254  25.784  35.643  1.00  0.00     0.091 A 
ATOM     89  F   UNL A   1      42.958  25.820  34.988  1.00  0.00    -0.205 F 
ATOM     90  C   UNL A   1      46.530  26.369  35.582  1.00  0.00     0.022 A 
BRANCH  88  91
ATOM     91  S   UNL A   1      45.075  24.328  36.680  1.00  0.00     0.127 S 
ATOM     92  O   UNL A   1      46.454  24.097  37.109  1.00  0.00    -0.237 OA
ATOM     93  O   UNL A   1      44.180  24.807  37.732  1.00  0.00    -0.237 OA
ATOM     94  O   UNL A   1      44.513  23.288  35.828  1.00  0.00    -0.744 OA
ENDBRANCH  88  91
ENDBRANCH  61  84
ENDBRANCH  35  36
ENDBRANCH  27  30
ENDBRANCH   1  26
TORSDOF 14
ENDMDL
MODEL 3
REMARK VINA RESULT:     -13.3      0.248      7.701
REMARK SMILES Cc1ccc2c(=O)c3cccc(CC(=O)NCCCNC(=O)c4ccc(-c5c6nc(c(-c7cccc(S(=O)(=O)[O-])c7F)c7ccc([nH]7)c(-c7cccc(S(=O)(=O)[O-])c7F)c7nc(c(-c8cccc(S(=O)(=O)[O-])c8F)c8ccc5[nH]8)C=C7)C=C6)cc4)c3oc2c1C
REMARK SMILES IDX 19 1 18 2 17 3 16 4 14 5 15 6 13 8 12 9 1 10 2 11 3 12 89 13
REMARK SMILES IDX 4 14 88 15 90 16 5 17 87 18 6 19 86 20 7 21 8 22 9 23 11 24
REMARK SMILES IDX 10 25 20 26 21 27 22 29 23 30 24 31 85 32 25 33 84 34 26 35
REMARK SMILES IDX 27 36 28 37 78 38 29 39 83 40 77 41 79 42 30 43 82 44 76 45
REMARK SMILES IDX 75 46 31 48 63 49 43 50 62 51 44 52 47 53 61 54 80 55 45 56
REMARK SMILES IDX 46 57 60 59 81 60 48 61 32 62 33 63 41 64 34 65 36 66 42 67
REMARK SMILES IDX 35 68 37 69 38 70 39 71 40 72 64 73 65 74 73 75 66 76 68 77
REMARK SMILES IDX 74 78 67 79 69 80 70 81 71 82 72 83 49 84 50 85 58 86 51 87
REMARK SMILES IDX 53 88 59 89 52 90 54 91 55 92 56 93 57 94
REMARK H PARENT 16 7 20 28 79 47 47 58
REMARK Flexibility Score: inf
ROOT
ATOM      1  C   UNL A   1      32.945  32.806  27.350  1.00  0.00     0.118 C 
ENDROOT
BRANCH   1   2
ATOM      2  C   UNL A   1      31.750  31.978  26.894  1.00  0.00     0.042 C 
BRANCH   2   3
ATOM      3  C   UNL A   1      32.016  30.477  26.871  1.00  0.00     0.117 C 
BRANCH   3   4
ATOM      4  N   UNL A   1      33.399  30.159  27.172  1.00  0.00    -0.356 N 
ATOM      5  C   UNL A   1      34.077  28.986  27.009  1.00  0.00     0.224 C 
ATOM      6  O   UNL A   1      35.274  28.963  27.303  1.00  0.00    -0.275 OA
ATOM      7  H   UNL A   1      33.928  30.899  27.548  1.00  0.00     0.163 HD
BRANCH   5   8
ATOM      8  C   UNL A   1      33.390  27.777  26.398  1.00  0.00     0.139 C 
BRANCH   8   9
ATOM      9  C   UNL A   1      33.454  27.691  24.888  1.00  0.00     0.005 A 
ATOM     10  C   UNL A   1      32.520  20.428  25.305  1.00  0.00     0.045 C 
ATOM     11  C   UNL A   1      32.727  21.702  24.531  1.00  0.00    -0.044 A 
ATOM     12  C   UNL A   1      32.749  21.603  23.127  1.00  0.00     0.005 A 
ATOM     13  C   UNL A   1      32.830  22.977  25.138  1.00  0.00    -0.005 A 
ATOM     14  C   UNL A   1      32.905  22.733  22.331  1.00  0.00     0.016 A 
ATOM     15  C   UNL A   1      33.000  24.116  24.319  1.00  0.00     0.141 A 
ATOM     16  C   UNL A   1      32.755  23.174  26.631  1.00  0.00     0.049 C 
ATOM     17  C   UNL A   1      33.037  23.983  22.933  1.00  0.00     0.066 A 
ATOM     18  O   UNL A   1      33.126  25.336  24.954  1.00  0.00    -0.455 OA
ATOM     19  C   UNL A   1      33.218  25.179  22.105  1.00  0.00     0.200 A 
ATOM     20  C   UNL A   1      33.306  26.472  24.201  1.00  0.00     0.142 A 
ATOM     21  O   UNL A   1      33.277  25.114  20.884  1.00  0.00    -0.288 OA
ATOM     22  C   UNL A   1      33.353  26.460  22.807  1.00  0.00     0.066 A 
ATOM     23  C   UNL A   1      33.539  27.639  22.079  1.00  0.00     0.016 A 
ATOM     24  C   UNL A   1      33.686  28.866  24.146  1.00  0.00     0.008 A 
ATOM     25  C   UNL A   1      33.712  28.843  22.751  1.00  0.00     0.001 A 
ENDBRANCH   8   9
ENDBRANCH   5   8
ENDBRANCH   3   4
ENDBRANCH   2   3
ENDBRANCH   1   2
BRANCH   1  26
ATOM     26  N   UNL A   1      32.582  34.163  27.744  1.00  0.00    -0.352 N 
ATOM     27  C   UNL A   1      33.084  34.957  28.749  1.00  0.00     0.251 C 
ATOM     28  H   UNL A   1      31.866  34.575  27.207  1.00  0.00     0.163 HD
ATOM     29  O   UNL A   1      32.527  36.019  29.015  1.00  0.00    -0.269 OA
BRANCH  27  30
ATOM     30  C   UNL A   1      34.262  34.513  29.526  1.00  0.00     0.039 A 
ATOM     31  C   UNL A   1      35.553  34.701  29.030  1.00  0.00     0.014 A 
ATOM     32  C   UNL A   1      34.073  33.874  30.754  1.00  0.00     0.014 A 
ATOM     33  C   UNL A   1      36.627  34.076  29.651  1.00  0.00     0.010 A 
ATOM     34  C   UNL A   1      35.170  33.332  31.431  1.00  0.00     0.010 A 
ATOM     35  C   UNL A   1      36.449  33.375  30.855  1.00  0.00    -0.014 A 
BRANCH  35  36
ATOM     36  C   UNL A   1      37.612  32.691  31.481  1.00  0.00     0.031 A 
ATOM     37  C   UNL A   1      38.099  33.090  32.851  1.00  0.00     0.074 A 
ATOM     38  C   UNL A   1      38.203  31.668  30.832  1.00  0.00     0.049 A 
ATOM     39  N   UNL A   1      39.084  32.585  33.550  1.00  0.00    -0.248 NA
ATOM     40  C   UNL A   1      37.396  34.194  33.529  1.00  0.00     0.031 C 
ATOM     41  C   UNL A   1      37.831  31.190  29.497  1.00  0.00     0.029 A 
ATOM     42  N   UNL A   1      39.228  30.837  31.207  1.00  0.00    -0.354 N 
ATOM     43  C   UNL A   1      39.143  33.327  34.723  1.00  0.00     0.074 A 
ATOM     44  C   UNL A   1      38.100  34.326  34.645  1.00  0.00     0.031 C 
ATOM     45  C   UNL A   1      38.585  30.126  29.185  1.00  0.00     0.029 A 
ATOM     46  C   UNL A   1      39.533  29.883  30.266  1.00  0.00     0.049 A 
ATOM     47  H   UNL A   1      39.700  30.917  32.067  1.00  0.00     0.167 HD
ATOM     48  C   UNL A   1      39.975  33.176  35.780  1.00  0.00     0.034 A 
ATOM     49  C   UNL A   1      40.478  28.923  30.261  1.00  0.00     0.034 A 
ATOM     50  C   UNL A   1      40.976  32.151  35.884  1.00  0.00     0.049 A 
ATOM     51  C   UNL A   1      41.393  28.785  31.442  1.00  0.00     0.074 A 
ATOM     52  C   UNL A   1      41.834  31.898  36.940  1.00  0.00     0.029 A 
ATOM     53  N   UNL A   1      41.252  31.208  34.908  1.00  0.00    -0.354 N 
ATOM     54  N   UNL A   1      41.387  29.458  32.566  1.00  0.00    -0.248 NA
ATOM     55  C   UNL A   1      42.435  27.752  31.362  1.00  0.00     0.031 C 
ATOM     56  C   UNL A   1      42.641  30.810  36.596  1.00  0.00     0.029 A 
ATOM     57  C   UNL A   1      42.271  30.375  35.334  1.00  0.00     0.049 A 
ATOM     58  H   UNL A   1      40.791  31.140  34.040  1.00  0.00     0.167 HD
ATOM     59  C   UNL A   1      42.410  28.919  33.336  1.00  0.00     0.074 A 
ATOM     60  C   UNL A   1      43.006  27.854  32.557  1.00  0.00     0.031 C 
ATOM     61  C   UNL A   1      42.825  29.289  34.570  1.00  0.00     0.034 A 
BRANCH  48  62
ATOM     62  C   UNL A   1      39.820  34.107  36.953  1.00  0.00     0.023 A 
ATOM     63  C   UNL A   1      40.147  35.468  36.799  1.00  0.00     0.012 A 
ATOM     64  C   UNL A   1      39.230  33.664  38.153  1.00  0.00     0.148 A 
ATOM     65  C   UNL A   1      39.891  36.376  37.824  1.00  0.00     0.002 A 
ATOM     66  C   UNL A   1      38.950  34.580  39.160  1.00  0.00     0.091 A 
ATOM     67  F   UNL A   1      38.935  32.362  38.275  1.00  0.00    -0.205 F 
ATOM     68  C   UNL A   1      39.282  35.936  38.998  1.00  0.00     0.022 A 
BRANCH  66  69
ATOM     69  S   UNL A   1      38.122  34.129  40.688  1.00  0.00     0.127 S 
ATOM     70  O   UNL A   1      36.927  33.451  40.187  1.00  0.00    -0.237 OA
ATOM     71  O   UNL A   1      39.103  33.248  41.320  1.00  0.00    -0.237 OA
ATOM     72  O   UNL A   1      37.870  35.377  41.396  1.00  0.00    -0.744 OA
ENDBRANCH  66  69
ENDBRANCH  48  62
BRANCH  49  73
ATOM     73  C   UNL A   1      40.569  27.998  29.100  1.00  0.00     0.023 A 
ATOM     74  C   UNL A   1      39.639  26.949  28.980  1.00  0.00     0.012 A 
ATOM     75  C   UNL A   1      41.522  28.200  28.084  1.00  0.00     0.148 A 
ATOM     76  C   UNL A   1      39.659  26.111  27.864  1.00  0.00     0.002 A 
ATOM     77  C   UNL A   1      41.511  27.386  26.957  1.00  0.00     0.091 A 
ATOM     78  F   UNL A   1      42.397  29.205  28.226  1.00  0.00    -0.205 F 
ATOM     79  C   UNL A   1      40.587  26.335  26.850  1.00  0.00     0.022 A 
BRANCH  77  80
ATOM     80  S   UNL A   1      42.598  27.661  25.554  1.00  0.00     0.127 S 
ATOM     81  O   UNL A   1      43.915  27.612  26.184  1.00  0.00    -0.237 OA
ATOM     82  O   UNL A   1      42.279  26.515  24.702  1.00  0.00    -0.237 OA
ATOM     83  O   UNL A   1      42.216  28.953  25.001  1.00  0.00    -0.744 OA
ENDBRANCH  77  80
ENDBRANCH  49  73
BRANCH  61  84
ATOM     84  C   UNL A   1      43.972  28.538  35.187  1.00  0.00     0.023 A 
ATOM     85  C   UNL A   1      45.288  28.983  34.962  1.00  0.00     0.012 A 
ATOM     86  C   UNL A   1      43.735  27.484  36.090  1.00  0.00     0.148 A 
ATOM     87  C   UNL A   1      46.357  28.385  35.627  1.00  0.00     0.002 A 
ATOM     88  C   UNL A   1      44.801  26.915  36.773  1.00  0.00     0.091 A 
ATOM     89  F   UNL A   1      42.471  27.079  36.280  1.00  0.00    -0.205 F 
ATOM     90  C   UNL A   1      46.113  27.361  36.540  1.00  0.00     0.022 A 
BRANCH  88  91
ATOM     91  S   UNL A   1      44.585  25.642  38.022  1.00  0.00     0.127 S 
ATOM     92  O   UNL A   1      45.967  25.381  38.423  1.00  0.00    -0.237 OA
ATOM     93  O   UNL A   1      43.777  26.330  39.027  1.00  0.00    -0.237 OA
ATOM     94  O   UNL A   1      43.916  24.531  37.357  1.00  0.00    -0.744 OA
ENDBRANCH  88  91
ENDBRANCH  61  84
ENDBRANCH  35  36
ENDBRANCH  27  30
ENDBRANCH   1  26
TORSDOF 14
ENDMDL
