MODEL 1
REMARK VINA RESULT:     -11.6      0.000      0.000
REMARK SMILES O=C(CCNC(=O)CCc1nc2ccccc2[nH]1)NCCCNC(=O)c1ccc(-c2c3nc(c(-c4cccc(S(=O)(=O)[O-])c4F)c4ccc([nH]4)c(-c4cccc(S(=O)(=O)[O-])c4F)c4nc(c(-c5cccc(S(=O)(=O)[O-])c5F)c5ccc2[nH]5)C=C4)C=C3)cc1
REMARK SMILES IDX 20 1 19 2 1 3 2 4 3 6 4 7 5 8 6 9 7 11 8 12 9 13 10 14 11 15
REMARK SMILES IDX 18 16 12 17 17 18 13 20 16 21 14 22 15 23 21 24 22 25 23 26
REMARK SMILES IDX 24 27 25 29 26 30 27 31 88 32 28 33 87 34 29 35 30 36 31 37
REMARK SMILES IDX 81 38 32 39 86 40 80 41 82 42 33 43 85 44 79 45 78 46 34 48
REMARK SMILES IDX 66 49 46 50 65 51 47 52 50 53 64 54 83 55 48 56 49 57 63 59
REMARK SMILES IDX 84 60 51 61 35 62 36 63 44 64 37 65 39 66 45 67 38 68 40 69
REMARK SMILES IDX 41 70 42 71 43 72 67 73 68 74 76 75 69 76 71 77 77 78 70 79
REMARK SMILES IDX 72 80 73 81 74 82 75 83 52 84 53 85 61 86 54 87 56 88 62 89
REMARK SMILES IDX 55 90 57 91 58 92 59 93 60 94
REMARK H PARENT 19 5 5 10 18 19 23 28 82 47 50 58
REMARK Flexibility Score: inf
ROOT
ATOM      1  C   UNL A   1      34.373  21.734  24.220  1.00  0.00     0.117 C 
ENDROOT
BRANCH   1   2
ATOM      2  N   UNL A   1      33.132  22.419  24.509  1.00  0.00    -0.356 N 
ATOM      3  O   UNL A   1      32.098  21.896  22.532  1.00  0.00    -0.275 OA
ATOM      4  C   UNL A   1      32.093  22.463  23.620  1.00  0.00     0.221 C 
ATOM      5  H   UNL A   1      33.030  22.869  25.378  1.00  0.00     0.163 HD
BRANCH   4   6
ATOM      6  C   UNL A   1      30.954  23.344  24.057  1.00  0.00     0.121 C 
BRANCH   6   7
ATOM      7  C   UNL A   1      30.825  24.660  23.303  1.00  0.00     0.125 C 
BRANCH   7   8
ATOM      8  N   UNL A   1      31.747  24.741  22.178  1.00  0.00    -0.356 N 
ATOM      9  C   UNL A   1      32.748  25.626  21.920  1.00  0.00     0.220 C 
ATOM     10  H   UNL A   1      31.626  24.042  21.494  1.00  0.00     0.163 HD
ATOM     11  O   UNL A   1      33.278  25.577  20.807  1.00  0.00    -0.275 OA
BRANCH   9  12
ATOM     12  C   UNL A   1      33.225  26.623  22.957  1.00  0.00     0.108 C 
BRANCH  12  13
ATOM     13  C   UNL A   1      32.955  28.077  22.566  1.00  0.00     0.085 C 
BRANCH  13  14
ATOM     14  C   UNL A   1      31.593  28.523  22.982  1.00  0.00     0.107 A 
ATOM     15  N   UNL A   1      30.448  27.976  22.626  1.00  0.00    -0.233 NA
ATOM     16  N   UNL A   1      31.379  29.645  23.748  1.00  0.00    -0.342 N 
ATOM     17  C   UNL A   1      29.486  28.892  22.968  1.00  0.00     0.089 A 
ATOM     18  C   UNL A   1      30.050  29.972  23.638  1.00  0.00     0.065 A 
ATOM     19  H   UNL A   1      32.055  30.125  24.279  1.00  0.00     0.168 HD
ATOM     20  C   UNL A   1      28.128  28.930  22.613  1.00  0.00     0.030 A 
ATOM     21  C   UNL A   1      29.336  31.126  23.967  1.00  0.00     0.028 A 
ATOM     22  C   UNL A   1      27.406  30.102  22.876  1.00  0.00     0.002 A 
ATOM     23  C   UNL A   1      28.004  31.178  23.538  1.00  0.00     0.002 A 
ENDBRANCH  13  14
ENDBRANCH  12  13
ENDBRANCH   9  12
ENDBRANCH   7   8
ENDBRANCH   6   7
ENDBRANCH   4   6
ENDBRANCH   1   2
BRANCH   1  24
ATOM     24  C   UNL A   1      35.578  22.616  24.512  1.00  0.00     0.042 C 
BRANCH  24  25
ATOM     25  C   UNL A   1      36.230  22.354  25.867  1.00  0.00     0.118 C 
BRANCH  25  26
ATOM     26  N   UNL A   1      37.221  21.287  25.819  1.00  0.00    -0.352 N 
ATOM     27  C   UNL A   1      38.582  21.345  25.992  1.00  0.00     0.251 C 
ATOM     28  H   UNL A   1      36.860  20.389  25.635  1.00  0.00     0.163 HD
ATOM     29  O   UNL A   1      39.273  20.372  25.723  1.00  0.00    -0.269 OA
BRANCH  27  30
ATOM     30  C   UNL A   1      39.202  22.595  26.476  1.00  0.00     0.039 A 
ATOM     31  C   UNL A   1      40.275  22.516  27.364  1.00  0.00     0.014 A 
ATOM     32  C   UNL A   1      38.731  23.836  26.042  1.00  0.00     0.014 A 
ATOM     33  C   UNL A   1      40.921  23.687  27.767  1.00  0.00     0.010 A 
ATOM     34  C   UNL A   1      39.430  24.990  26.373  1.00  0.00     0.010 A 
ATOM     35  C   UNL A   1      40.526  24.930  27.246  1.00  0.00    -0.014 A 
BRANCH  35  36
ATOM     36  C   UNL A   1      41.246  26.179  27.600  1.00  0.00     0.031 A 
ATOM     37  C   UNL A   1      40.569  27.226  28.442  1.00  0.00     0.074 A 
ATOM     38  C   UNL A   1      42.474  26.407  27.093  1.00  0.00     0.049 A 
ATOM     39  N   UNL A   1      41.006  28.406  28.799  1.00  0.00    -0.248 NA
ATOM     40  C   UNL A   1      39.211  26.922  28.922  1.00  0.00     0.031 C 
ATOM     41  C   UNL A   1      43.205  25.504  26.202  1.00  0.00     0.029 A 
ATOM     42  N   UNL A   1      43.313  27.485  27.231  1.00  0.00    -0.354 N 
ATOM     43  C   UNL A   1      39.969  28.997  29.508  1.00  0.00     0.074 A 
ATOM     44  C   UNL A   1      38.865  28.062  29.501  1.00  0.00     0.031 C 
ATOM     45  C   UNL A   1      44.383  26.061  25.879  1.00  0.00     0.029 A 
ATOM     46  C   UNL A   1      44.478  27.373  26.508  1.00  0.00     0.049 A 
ATOM     47  H   UNL A   1      43.101  28.264  27.794  1.00  0.00     0.167 HD
ATOM     48  C   UNL A   1      39.945  30.197  30.135  1.00  0.00     0.034 A 
ATOM     49  C   UNL A   1      45.501  28.237  26.358  1.00  0.00     0.034 A 
ATOM     50  C   UNL A   1      41.058  31.105  30.174  1.00  0.00     0.049 A 
ATOM     51  C   UNL A   1      45.461  29.552  27.090  1.00  0.00     0.074 A 
ATOM     52  C   UNL A   1      41.165  32.305  30.856  1.00  0.00     0.029 A 
ATOM     53  N   UNL A   1      42.252  30.923  29.495  1.00  0.00    -0.354 N 
ATOM     54  N   UNL A   1      44.533  30.025  27.884  1.00  0.00    -0.248 NA
ATOM     55  C   UNL A   1      46.626  30.435  26.932  1.00  0.00     0.031 C 
ATOM     56  C   UNL A   1      42.413  32.864  30.562  1.00  0.00     0.029 A 
ATOM     57  C   UNL A   1      43.098  31.993  29.729  1.00  0.00     0.049 A 
ATOM     58  H   UNL A   1      42.468  30.146  28.930  1.00  0.00     0.167 HD
ATOM     59  C   UNL A   1      45.016  31.243  28.351  1.00  0.00     0.074 A 
ATOM     60  C   UNL A   1      46.329  31.422  27.767  1.00  0.00     0.031 C 
ATOM     61  C   UNL A   1      44.422  32.137  29.179  1.00  0.00     0.034 A 
BRANCH  48  62
ATOM     62  C   UNL A   1      38.684  30.578  30.870  1.00  0.00     0.023 A 
ATOM     63  C   UNL A   1      38.558  30.279  32.242  1.00  0.00     0.012 A 
ATOM     64  C   UNL A   1      37.652  31.279  30.218  1.00  0.00     0.148 A 
ATOM     65  C   UNL A   1      37.407  30.636  32.944  1.00  0.00     0.002 A 
ATOM     66  C   UNL A   1      36.530  31.676  30.937  1.00  0.00     0.091 A 
ATOM     67  F   UNL A   1      37.781  31.538  28.909  1.00  0.00    -0.205 F 
ATOM     68  C   UNL A   1      36.400  31.342  32.295  1.00  0.00     0.022 A 
BRANCH  66  69
ATOM     69  S   UNL A   1      35.215  32.662  30.213  1.00  0.00     0.127 S 
ATOM     70  O   UNL A   1      35.942  33.858  29.790  1.00  0.00    -0.237 OA
ATOM     71  O   UNL A   1      34.759  31.806  29.116  1.00  0.00    -0.237 OA
ATOM     72  O   UNL A   1      34.236  32.867  31.270  1.00  0.00    -0.744 OA
ENDBRANCH  66  69
ENDBRANCH  48  62
BRANCH  49  73
ATOM     73  C   UNL A   1      46.676  27.864  25.520  1.00  0.00     0.023 A 
ATOM     74  C   UNL A   1      46.623  28.058  24.126  1.00  0.00     0.012 A 
ATOM     75  C   UNL A   1      47.848  27.338  26.096  1.00  0.00     0.148 A 
ATOM     76  C   UNL A   1      47.702  27.700  23.316  1.00  0.00     0.002 A 
ATOM     77  C   UNL A   1      48.940  27.037  25.290  1.00  0.00     0.091 A 
ATOM     78  F   UNL A   1      47.876  27.153  27.423  1.00  0.00    -0.205 F 
ATOM     79  C   UNL A   1      48.863  27.199  23.898  1.00  0.00     0.022 A 
BRANCH  77  80
ATOM     80  S   UNL A   1      50.519  26.509  25.965  1.00  0.00     0.127 S 
ATOM     81  O   UNL A   1      50.153  25.275  26.654  1.00  0.00    -0.237 OA
ATOM     82  O   UNL A   1      51.318  26.326  24.753  1.00  0.00    -0.237 OA
ATOM     83  O   UNL A   1      50.968  27.601  26.819  1.00  0.00    -0.744 OA
ENDBRANCH  77  80
ENDBRANCH  49  73
BRANCH  61  84
ATOM     84  C   UNL A   1      45.198  33.376  29.543  1.00  0.00     0.023 A 
ATOM     85  C   UNL A   1      46.050  33.371  30.665  1.00  0.00     0.012 A 
ATOM     86  C   UNL A   1      45.137  34.522  28.726  1.00  0.00     0.148 A 
ATOM     87  C   UNL A   1      46.801  34.501  30.988  1.00  0.00     0.002 A 
ATOM     88  C   UNL A   1      45.929  35.625  29.024  1.00  0.00     0.091 A 
ATOM     89  F   UNL A   1      44.308  34.513  27.672  1.00  0.00    -0.205 F 
ATOM     90  C   UNL A   1      46.751  35.621  30.163  1.00  0.00     0.022 A 
BRANCH  88  91
ATOM     91  S   UNL A   1      46.005  37.072  27.963  1.00  0.00     0.127 S 
ATOM     92  O   UNL A   1      46.981  37.905  28.665  1.00  0.00    -0.237 OA
ATOM     93  O   UNL A   1      46.484  36.505  26.702  1.00  0.00    -0.237 OA
ATOM     94  O   UNL A   1      44.651  37.606  27.912  1.00  0.00    -0.744 OA
ENDBRANCH  88  91
ENDBRANCH  61  84
ENDBRANCH  35  36
ENDBRANCH  27  30
ENDBRANCH  25  26
ENDBRANCH  24  25
ENDBRANCH   1  24
TORSDOF 18
ENDMDL
MODEL 2
REMARK VINA RESULT:     -11.4      2.134      8.849
REMARK SMILES O=C(CCNC(=O)CCc1nc2ccccc2[nH]1)NCCCNC(=O)c1ccc(-c2c3nc(c(-c4cccc(S(=O)(=O)[O-])c4F)c4ccc([nH]4)c(-c4cccc(S(=O)(=O)[O-])c4F)c4nc(c(-c5cccc(S(=O)(=O)[O-])c5F)c5ccc2[nH]5)C=C4)C=C3)cc1
REMARK SMILES IDX 20 1 19 2 1 3 2 4 3 6 4 7 5 8 6 9 7 11 8 12 9 13 10 14 11 15
REMARK SMILES IDX 18 16 12 17 17 18 13 20 16 21 14 22 15 23 21 24 22 25 23 26
REMARK SMILES IDX 24 27 25 29 26 30 27 31 88 32 28 33 87 34 29 35 30 36 31 37
REMARK SMILES IDX 81 38 32 39 86 40 80 41 82 42 33 43 85 44 79 45 78 46 34 48
REMARK SMILES IDX 66 49 46 50 65 51 47 52 50 53 64 54 83 55 48 56 49 57 63 59
REMARK SMILES IDX 84 60 51 61 35 62 36 63 44 64 37 65 39 66 45 67 38 68 40 69
REMARK SMILES IDX 41 70 42 71 43 72 67 73 68 74 76 75 69 76 71 77 77 78 70 79
REMARK SMILES IDX 72 80 73 81 74 82 75 83 52 84 53 85 61 86 54 87 56 88 62 89
REMARK SMILES IDX 55 90 57 91 58 92 59 93 60 94
REMARK H PARENT 19 5 5 10 18 19 23 28 82 47 50 58
REMARK Flexibility Score: inf
ROOT
ATOM      1  C   UNL A   1      35.522  22.929  23.085  1.00  0.00     0.117 C 
ENDROOT
BRANCH   1   2
ATOM      2  N   UNL A   1      34.921  23.851  24.024  1.00  0.00    -0.356 N 
ATOM      3  O   UNL A   1      33.899  25.169  22.452  1.00  0.00    -0.275 OA
ATOM      4  C   UNL A   1      34.169  24.922  23.623  1.00  0.00     0.221 C 
ATOM      5  H   UNL A   1      35.057  23.703  24.987  1.00  0.00     0.163 HD
BRANCH   4   6
ATOM      6  C   UNL A   1      33.758  25.832  24.748  1.00  0.00     0.121 C 
BRANCH   6   7
ATOM      7  C   UNL A   1      32.311  25.692  25.201  1.00  0.00     0.125 C 
BRANCH   7   8
ATOM      8  N   UNL A   1      32.177  24.792  26.339  1.00  0.00    -0.356 N 
ATOM      9  C   UNL A   1      31.585  23.570  26.431  1.00  0.00     0.220 C 
ATOM     10  H   UNL A   1      32.580  25.120  27.176  1.00  0.00     0.163 HD
ATOM     11  O   UNL A   1      31.459  23.082  27.557  1.00  0.00    -0.275 OA
BRANCH   9  12
ATOM     12  C   UNL A   1      31.115  22.810  25.207  1.00  0.00     0.108 C 
BRANCH  12  13
ATOM     13  C   UNL A   1      32.262  22.224  24.384  1.00  0.00     0.085 C 
BRANCH  13  14
ATOM     14  C   UNL A   1      32.242  20.732  24.382  1.00  0.00     0.107 A 
ATOM     15  N   UNL A   1      32.222  19.948  25.442  1.00  0.00    -0.233 NA
ATOM     16  N   UNL A   1      32.324  19.987  23.228  1.00  0.00    -0.342 N 
ATOM     17  C   UNL A   1      32.537  18.697  24.975  1.00  0.00     0.089 A 
ATOM     18  C   UNL A   1      32.648  18.702  23.589  1.00  0.00     0.065 A 
ATOM     19  H   UNL A   1      32.178  20.315  22.312  1.00  0.00     0.168 HD
ATOM     20  C   UNL A   1      32.878  17.540  25.693  1.00  0.00     0.030 A 
ATOM     21  C   UNL A   1      33.110  17.608  22.854  1.00  0.00     0.028 A 
ATOM     22  C   UNL A   1      33.403  16.451  24.984  1.00  0.00     0.002 A 
ATOM     23  C   UNL A   1      33.519  16.491  23.592  1.00  0.00     0.002 A 
ENDBRANCH  13  14
ENDBRANCH  12  13
ENDBRANCH   9  12
ENDBRANCH   7   8
ENDBRANCH   6   7
ENDBRANCH   4   6
ENDBRANCH   1   2
BRANCH   1  24
ATOM     24  C   UNL A   1      36.859  22.409  23.593  1.00  0.00     0.042 C 
BRANCH  24  25
ATOM     25  C   UNL A   1      36.918  22.209  25.104  1.00  0.00     0.118 C 
BRANCH  25  26
ATOM     26  N   UNL A   1      37.814  21.128  25.496  1.00  0.00    -0.352 N 
ATOM     27  C   UNL A   1      39.062  21.186  26.067  1.00  0.00     0.251 C 
ATOM     28  H   UNL A   1      37.472  20.220  25.327  1.00  0.00     0.163 HD
ATOM     29  O   UNL A   1      39.743  20.173  26.146  1.00  0.00    -0.269 OA
BRANCH  27  30
ATOM     30  C   UNL A   1      39.580  22.480  26.554  1.00  0.00     0.039 A 
ATOM     31  C   UNL A   1      40.645  22.485  27.455  1.00  0.00     0.014 A 
ATOM     32  C   UNL A   1      39.022  23.681  26.110  1.00  0.00     0.014 A 
ATOM     33  C   UNL A   1      41.196  23.701  27.861  1.00  0.00     0.010 A 
ATOM     34  C   UNL A   1      39.629  24.886  26.445  1.00  0.00     0.010 A 
ATOM     35  C   UNL A   1      40.716  24.910  27.331  1.00  0.00    -0.014 A 
BRANCH  35  36
ATOM     36  C   UNL A   1      41.336  26.210  27.690  1.00  0.00     0.031 A 
ATOM     37  C   UNL A   1      42.766  26.493  27.317  1.00  0.00     0.074 A 
ATOM     38  C   UNL A   1      40.639  27.100  28.425  1.00  0.00     0.049 A 
ATOM     39  N   UNL A   1      43.500  27.537  27.600  1.00  0.00    -0.248 NA
ATOM     40  C   UNL A   1      43.474  25.453  26.552  1.00  0.00     0.031 C 
ATOM     41  C   UNL A   1      39.272  26.911  28.914  1.00  0.00     0.029 A 
ATOM     42  N   UNL A   1      40.998  28.332  28.916  1.00  0.00    -0.354 N 
ATOM     43  C   UNL A   1      44.761  27.266  27.084  1.00  0.00     0.074 A 
ATOM     44  C   UNL A   1      44.704  25.943  26.502  1.00  0.00     0.031 C 
ATOM     45  C   UNL A   1      38.905  27.987  29.627  1.00  0.00     0.029 A 
ATOM     46  C   UNL A   1      40.020  28.927  29.678  1.00  0.00     0.049 A 
ATOM     47  H   UNL A   1      41.871  28.749  28.738  1.00  0.00     0.167 HD
ATOM     48  C   UNL A   1      45.860  28.056  27.067  1.00  0.00     0.034 A 
ATOM     49  C   UNL A   1      40.025  30.093  30.353  1.00  0.00     0.034 A 
ATOM     50  C   UNL A   1      45.900  29.387  27.610  1.00  0.00     0.049 A 
ATOM     51  C   UNL A   1      41.250  30.966  30.294  1.00  0.00     0.074 A 
ATOM     52  C   UNL A   1      46.937  30.302  27.566  1.00  0.00     0.029 A 
ATOM     53  N   UNL A   1      44.864  29.989  28.307  1.00  0.00    -0.354 N 
ATOM     54  N   UNL A   1      42.382  30.757  29.667  1.00  0.00    -0.248 NA
ATOM     55  C   UNL A   1      41.185  32.250  31.006  1.00  0.00     0.031 C 
ATOM     56  C   UNL A   1      46.539  31.446  28.265  1.00  0.00     0.029 A 
ATOM     57  C   UNL A   1      45.240  31.258  28.711  1.00  0.00     0.049 A 
ATOM     58  H   UNL A   1      43.990  29.575  28.488  1.00  0.00     0.167 HD
ATOM     59  C   UNL A   1      43.150  31.898  29.877  1.00  0.00     0.074 A 
ATOM     60  C   UNL A   1      42.344  32.802  30.671  1.00  0.00     0.031 C 
ATOM     61  C   UNL A   1      44.411  32.168  29.460  1.00  0.00     0.034 A 
BRANCH  48  62
ATOM     62  C   UNL A   1      47.101  27.518  26.401  1.00  0.00     0.023 A 
ATOM     63  C   UNL A   1      47.363  27.834  25.052  1.00  0.00     0.012 A 
ATOM     64  C   UNL A   1      48.032  26.748  27.123  1.00  0.00     0.148 A 
ATOM     65  C   UNL A   1      48.512  27.359  24.421  1.00  0.00     0.002 A 
ATOM     66  C   UNL A   1      49.199  26.319  26.501  1.00  0.00     0.091 A 
ATOM     67  F   UNL A   1      47.756  26.440  28.399  1.00  0.00    -0.205 F 
ATOM     68  C   UNL A   1      49.433  26.613  25.148  1.00  0.00     0.022 A 
BRANCH  66  69
ATOM     69  S   UNL A   1      50.488  25.422  27.373  1.00  0.00     0.127 S 
ATOM     70  O   UNL A   1      50.903  26.403  28.376  1.00  0.00    -0.237 OA
ATOM     71  O   UNL A   1      49.754  24.276  27.909  1.00  0.00    -0.237 OA
ATOM     72  O   UNL A   1      51.493  25.087  26.374  1.00  0.00    -0.744 OA
ENDBRANCH  66  69
ENDBRANCH  48  62
BRANCH  49  73
ATOM     73  C   UNL A   1      38.812  30.528  31.101  1.00  0.00     0.023 A 
ATOM     74  C   UNL A   1      38.720  30.272  32.483  1.00  0.00     0.012 A 
ATOM     75  C   UNL A   1      37.761  31.209  30.458  1.00  0.00     0.148 A 
ATOM     76  C   UNL A   1      37.587  30.652  33.204  1.00  0.00     0.002 A 
ATOM     77  C   UNL A   1      36.661  31.636  31.192  1.00  0.00     0.091 A 
ATOM     78  F   UNL A   1      37.863  31.436  29.141  1.00  0.00    -0.205 F 
ATOM     79  C   UNL A   1      36.562  31.342  32.561  1.00  0.00     0.022 A 
BRANCH  77  80
ATOM     80  S   UNL A   1      35.356  32.642  30.477  1.00  0.00     0.127 S 
ATOM     81  O   UNL A   1      36.088  33.838  30.070  1.00  0.00    -0.237 OA
ATOM     82  O   UNL A   1      34.895  31.796  29.375  1.00  0.00    -0.237 OA
ATOM     83  O   UNL A   1      34.376  32.831  31.538  1.00  0.00    -0.744 OA
ENDBRANCH  77  80
ENDBRANCH  49  73
BRANCH  61  84
ATOM     84  C   UNL A   1      44.992  33.512  29.814  1.00  0.00     0.023 A 
ATOM     85  C   UNL A   1      45.810  33.648  30.953  1.00  0.00     0.012 A 
ATOM     86  C   UNL A   1      44.786  34.623  28.974  1.00  0.00     0.148 A 
ATOM     87  C   UNL A   1      46.385  34.879  31.269  1.00  0.00     0.002 A 
ATOM     88  C   UNL A   1      45.404  35.833  29.266  1.00  0.00     0.091 A 
ATOM     89  F   UNL A   1      43.991  34.477  27.903  1.00  0.00    -0.205 F 
ATOM     90  C   UNL A   1      46.193  35.967  30.420  1.00  0.00     0.022 A 
BRANCH  88  91
ATOM     91  S   UNL A   1      45.297  37.258  28.177  1.00  0.00     0.127 S 
ATOM     92  O   UNL A   1      46.118  38.238  28.888  1.00  0.00    -0.237 OA
ATOM     93  O   UNL A   1      45.890  36.748  26.941  1.00  0.00    -0.237 OA
ATOM     94  O   UNL A   1      43.881  37.585  28.081  1.00  0.00    -0.744 OA
ENDBRANCH  88  91
ENDBRANCH  61  84
ENDBRANCH  35  36
ENDBRANCH  27  30
ENDBRANCH  25  26
ENDBRANCH  24  25
ENDBRANCH   1  24
TORSDOF 18
ENDMDL
MODEL 3
REMARK VINA RESULT:     -11.4      2.062      7.972
REMARK SMILES O=C(CCNC(=O)CCc1nc2ccccc2[nH]1)NCCCNC(=O)c1ccc(-c2c3nc(c(-c4cccc(S(=O)(=O)[O-])c4F)c4ccc([nH]4)c(-c4cccc(S(=O)(=O)[O-])c4F)c4nc(c(-c5cccc(S(=O)(=O)[O-])c5F)c5ccc2[nH]5)C=C4)C=C3)cc1
REMARK SMILES IDX 20 1 19 2 1 3 2 4 3 6 4 7 5 8 6 9 7 11 8 12 9 13 10 14 11 15
REMARK SMILES IDX 18 16 12 17 17 18 13 20 16 21 14 22 15 23 21 24 22 25 23 26
REMARK SMILES IDX 24 27 25 29 26 30 27 31 88 32 28 33 87 34 29 35 30 36 31 37
REMARK SMILES IDX 81 38 32 39 86 40 80 41 82 42 33 43 85 44 79 45 78 46 34 48
REMARK SMILES IDX 66 49 46 50 65 51 47 52 50 53 64 54 83 55 48 56 49 57 63 59
REMARK SMILES IDX 84 60 51 61 35 62 36 63 44 64 37 65 39 66 45 67 38 68 40 69
REMARK SMILES IDX 41 70 42 71 43 72 67 73 68 74 76 75 69 76 71 77 77 78 70 79
REMARK SMILES IDX 72 80 73 81 74 82 75 83 52 84 53 85 61 86 54 87 56 88 62 89
REMARK SMILES IDX 55 90 57 91 58 92 59 93 60 94
REMARK H PARENT 19 5 5 10 18 19 23 28 82 47 50 58
REMARK Flexibility Score: inf
ROOT
ATOM      1  C   UNL A   1      34.487  22.178  25.785  1.00  0.00     0.117 C 
ENDROOT
BRANCH   1   2
ATOM      2  N   UNL A   1      33.304  22.656  25.103  1.00  0.00    -0.356 N 
ATOM      3  O   UNL A   1      32.916  20.737  23.912  1.00  0.00    -0.275 OA
ATOM      4  C   UNL A   1      32.621  21.894  24.194  1.00  0.00     0.221 C 
ATOM      5  H   UNL A   1      32.977  23.563  25.301  1.00  0.00     0.163 HD
BRANCH   4   6
ATOM      6  C   UNL A   1      31.507  22.629  23.498  1.00  0.00     0.121 C 
BRANCH   6   7
ATOM      7  C   UNL A   1      31.696  24.135  23.385  1.00  0.00     0.125 C 
BRANCH   7   8
ATOM      8  N   UNL A   1      32.251  24.523  22.095  1.00  0.00    -0.356 N 
ATOM      9  C   UNL A   1      32.944  25.638  21.733  1.00  0.00     0.220 C 
ATOM     10  H   UNL A   1      32.100  23.876  21.368  1.00  0.00     0.163 HD
ATOM     11  O   UNL A   1      33.161  25.807  20.530  1.00  0.00    -0.275 OA
BRANCH   9  12
ATOM     12  C   UNL A   1      33.462  26.628  22.756  1.00  0.00     0.108 C 
BRANCH  12  13
ATOM     13  C   UNL A   1      33.068  28.073  22.451  1.00  0.00     0.085 C 
BRANCH  13  14
ATOM     14  C   UNL A   1      31.695  28.393  22.941  1.00  0.00     0.107 A 
ATOM     15  N   UNL A   1      30.669  27.565  22.991  1.00  0.00    -0.233 NA
ATOM     16  N   UNL A   1      31.320  29.656  23.335  1.00  0.00    -0.342 N 
ATOM     17  C   UNL A   1      29.570  28.361  23.190  1.00  0.00     0.089 A 
ATOM     18  C   UNL A   1      29.947  29.688  23.367  1.00  0.00     0.065 A 
ATOM     19  H   UNL A   1      31.924  30.401  23.555  1.00  0.00     0.168 HD
ATOM     20  C   UNL A   1      28.208  28.036  23.092  1.00  0.00     0.030 A 
ATOM     21  C   UNL A   1      29.033  30.741  23.435  1.00  0.00     0.028 A 
ATOM     22  C   UNL A   1      27.275  29.081  23.094  1.00  0.00     0.002 A 
ATOM     23  C   UNL A   1      27.685  30.407  23.258  1.00  0.00     0.002 A 
ENDBRANCH  13  14
ENDBRANCH  12  13
ENDBRANCH   9  12
ENDBRANCH   7   8
ENDBRANCH   6   7
ENDBRANCH   4   6
ENDBRANCH   1   2
BRANCH   1  24
ATOM     24  C   UNL A   1      35.742  22.415  24.956  1.00  0.00     0.042 C 
BRANCH  24  25
ATOM     25  C   UNL A   1      36.849  23.158  25.697  1.00  0.00     0.118 C 
BRANCH  25  26
ATOM     26  N   UNL A   1      37.974  22.298  26.039  1.00  0.00    -0.352 N 
ATOM     27  C   UNL A   1      39.227  22.631  26.494  1.00  0.00     0.251 C 
ATOM     28  H   UNL A   1      37.812  21.333  25.928  1.00  0.00     0.163 HD
ATOM     29  O   UNL A   1      40.105  21.780  26.542  1.00  0.00    -0.269 OA
BRANCH  27  30
ATOM     30  C   UNL A   1      39.509  24.025  26.895  1.00  0.00     0.039 A 
ATOM     31  C   UNL A   1      39.282  24.405  28.219  1.00  0.00     0.014 A 
ATOM     32  C   UNL A   1      40.007  24.943  25.969  1.00  0.00     0.014 A 
ATOM     33  C   UNL A   1      39.620  25.696  28.629  1.00  0.00     0.010 A 
ATOM     34  C   UNL A   1      40.425  26.196  26.401  1.00  0.00     0.010 A 
ATOM     35  C   UNL A   1      40.228  26.590  27.733  1.00  0.00    -0.014 A 
BRANCH  35  36
ATOM     36  C   UNL A   1      40.665  27.940  28.167  1.00  0.00     0.031 A 
ATOM     37  C   UNL A   1      42.129  28.287  28.194  1.00  0.00     0.074 A 
ATOM     38  C   UNL A   1      39.751  28.824  28.616  1.00  0.00     0.049 A 
ATOM     39  N   UNL A   1      42.708  29.384  28.604  1.00  0.00    -0.248 NA
ATOM     40  C   UNL A   1      43.069  27.252  27.729  1.00  0.00     0.031 C 
ATOM     41  C   UNL A   1      38.311  28.579  28.711  1.00  0.00     0.029 A 
ATOM     42  N   UNL A   1      39.904  30.097  29.107  1.00  0.00    -0.354 N 
ATOM     43  C   UNL A   1      44.074  29.161  28.483  1.00  0.00     0.074 A 
ATOM     44  C   UNL A   1      44.241  27.810  27.997  1.00  0.00     0.031 C 
ATOM     45  C   UNL A   1      37.712  29.668  29.220  1.00  0.00     0.029 A 
ATOM     46  C   UNL A   1      38.725  30.673  29.522  1.00  0.00     0.049 A 
ATOM     47  H   UNL A   1      40.774  30.555  29.156  1.00  0.00     0.167 HD
ATOM     48  C   UNL A   1      45.098  30.013  28.726  1.00  0.00     0.034 A 
ATOM     49  C   UNL A   1      38.490  31.869  30.095  1.00  0.00     0.034 A 
ATOM     50  C   UNL A   1      44.926  31.369  29.171  1.00  0.00     0.049 A 
ATOM     51  C   UNL A   1      39.643  32.808  30.327  1.00  0.00     0.074 A 
ATOM     52  C   UNL A   1      45.894  32.340  29.362  1.00  0.00     0.029 A 
ATOM     53  N   UNL A   1      43.711  31.944  29.507  1.00  0.00    -0.354 N 
ATOM     54  N   UNL A   1      40.914  32.634  30.059  1.00  0.00    -0.248 NA
ATOM     55  C   UNL A   1      39.325  34.120  30.907  1.00  0.00     0.031 C 
ATOM     56  C   UNL A   1      45.266  33.493  29.845  1.00  0.00     0.029 A 
ATOM     57  C   UNL A   1      43.903  33.252  29.917  1.00  0.00     0.049 A 
ATOM     58  H   UNL A   1      42.839  31.490  29.461  1.00  0.00     0.167 HD
ATOM     59  C   UNL A   1      41.542  33.827  30.402  1.00  0.00     0.074 A 
ATOM     60  C   UNL A   1      40.507  34.721  30.877  1.00  0.00     0.031 C 
ATOM     61  C   UNL A   1      42.858  34.149  30.341  1.00  0.00     0.034 A 
BRANCH  48  62
ATOM     62  C   UNL A   1      46.499  29.515  28.474  1.00  0.00     0.023 A 
ATOM     63  C   UNL A   1      47.097  29.721  27.213  1.00  0.00     0.012 A 
ATOM     64  C   UNL A   1      47.241  28.895  29.497  1.00  0.00     0.148 A 
ATOM     65  C   UNL A   1      48.396  29.282  26.963  1.00  0.00     0.002 A 
ATOM     66  C   UNL A   1      48.553  28.505  29.254  1.00  0.00     0.091 A 
ATOM     67  F   UNL A   1      46.649  28.690  30.682  1.00  0.00    -0.205 F 
ATOM     68  C   UNL A   1      49.126  28.685  27.985  1.00  0.00     0.022 A 
BRANCH  66  69
ATOM     69  S   UNL A   1      49.606  27.802  30.529  1.00  0.00     0.127 S 
ATOM     70  O   UNL A   1      50.869  27.640  29.811  1.00  0.00    -0.237 OA
ATOM     71  O   UNL A   1      49.610  28.860  31.539  1.00  0.00    -0.237 OA
ATOM     72  O   UNL A   1      48.962  26.565  30.947  1.00  0.00    -0.744 OA
ENDBRANCH  66  69
ENDBRANCH  48  62
BRANCH  49  73
ATOM     73  C   UNL A   1      37.097  32.270  30.440  1.00  0.00     0.023 A 
ATOM     74  C   UNL A   1      36.613  32.044  31.744  1.00  0.00     0.012 A 
ATOM     75  C   UNL A   1      36.257  32.889  29.495  1.00  0.00     0.148 A 
ATOM     76  C   UNL A   1      35.307  32.392  32.089  1.00  0.00     0.002 A 
ATOM     77  C   UNL A   1      34.976  33.286  29.861  1.00  0.00     0.091 A 
ATOM     78  F   UNL A   1      36.733  33.088  28.257  1.00  0.00    -0.205 F 
ATOM     79  C   UNL A   1      34.492  33.021  31.151  1.00  0.00     0.022 A 
BRANCH  77  80
ATOM     80  S   UNL A   1      33.905  34.217  28.760  1.00  0.00     0.127 S 
ATOM     81  O   UNL A   1      33.511  33.197  27.792  1.00  0.00    -0.237 OA
ATOM     82  O   UNL A   1      32.842  34.647  29.669  1.00  0.00    -0.237 OA
ATOM     83  O   UNL A   1      34.723  35.303  28.238  1.00  0.00    -0.744 OA
ENDBRANCH  77  80
ENDBRANCH  49  73
BRANCH  61  84
ATOM     84  C   UNL A   1      43.258  35.540  30.758  1.00  0.00     0.023 A 
ATOM     85  C   UNL A   1      43.638  35.796  32.089  1.00  0.00     0.012 A 
ATOM     86  C   UNL A   1      43.328  36.577  29.807  1.00  0.00     0.148 A 
ATOM     87  C   UNL A   1      44.046  37.073  32.476  1.00  0.00     0.002 A 
ATOM     88  C   UNL A   1      43.786  37.833  30.188  1.00  0.00     0.091 A 
ATOM     89  F   UNL A   1      42.946  36.318  28.547  1.00  0.00    -0.205 F 
ATOM     90  C   UNL A   1      44.133  38.086  31.525  1.00  0.00     0.022 A 
BRANCH  88  91
ATOM     91  S   UNL A   1      44.027  39.169  29.012  1.00  0.00     0.127 S 
ATOM     92  O   UNL A   1      45.125  38.653  28.196  1.00  0.00    -0.237 OA
ATOM     93  O   UNL A   1      42.733  39.218  28.330  1.00  0.00    -0.237 OA
ATOM     94  O   UNL A   1      44.340  40.351  29.803  1.00  0.00    -0.744 OA
ENDBRANCH  88  91
ENDBRANCH  61  84
ENDBRANCH  35  36
ENDBRANCH  27  30
ENDBRANCH  25  26
ENDBRANCH  24  25
ENDBRANCH   1  24
TORSDOF 18
ENDMDL
