MODEL 1
REMARK VINA RESULT:     -10.8      0.000      0.000
REMARK SMILES CC[NH2+]C(C)(C)C(=O)N[C@@](C)(C(=O)NCCCNC(=O)c1ccc(-c2c3nc(c(-c4cccc(S(=O)(=O)[O-])c4F)c4ccc([nH]4)c(-c4cccc(S(=O)(=O)[O-])c4F)c4nc(c(-c5cccc(S(=O)(=O)[O-])c5F)c5ccc2[nH]5)C=C4)C=C3)cc1)C(F)(F)F
REMARK SMILES IDX 15 1 14 2 12 3 13 4 10 6 11 7 9 8 7 9 8 10 4 12 5 13 6 14
REMARK SMILES IDX 3 15 2 18 1 19 84 20 85 21 86 22 87 23 16 24 17 25 18 26
REMARK SMILES IDX 19 27 20 29 21 30 22 31 83 32 23 33 82 34 24 35 25 36 26 37
REMARK SMILES IDX 76 38 27 39 81 40 75 41 77 42 28 43 80 44 74 45 73 46 29 48
REMARK SMILES IDX 61 49 41 50 60 51 42 52 45 53 59 54 78 55 43 56 44 57 58 59
REMARK SMILES IDX 79 60 46 61 30 62 31 63 39 64 32 65 34 66 40 67 33 68 35 69
REMARK SMILES IDX 36 70 37 71 38 72 62 73 63 74 71 75 64 76 66 77 72 78 65 79
REMARK SMILES IDX 67 80 68 81 69 82 70 83 47 84 48 85 56 86 49 87 51 88 57 89
REMARK SMILES IDX 50 90 52 91 53 92 54 93 55 94
REMARK H PARENT 14 5 9 11 3 16 3 17 18 28 77 47 45 58
REMARK Flexibility Score: inf
ROOT
ATOM      1  C   UNL A   1      32.692  26.965  25.738  1.00  0.00     0.117 C 
ENDROOT
BRANCH   1   2
ATOM      2  N   UNL A   1      31.445  26.413  26.242  1.00  0.00    -0.354 N 
ATOM      3  C   UNL A   1      30.850  25.189  26.162  1.00  0.00     0.254 C 
ATOM      4  O   UNL A   1      29.766  25.106  26.748  1.00  0.00    -0.272 OA
ATOM      5  H   UNL A   1      30.914  27.066  26.753  1.00  0.00     0.163 HD
BRANCH   3   6
ATOM      6  C   UNL A   1      31.451  24.004  25.372  1.00  0.00     0.212 C 
ATOM      7  C   UNL A   1      30.753  22.665  25.711  1.00  0.00     0.056 C 
BRANCH   6   8
ATOM      8  N   UNL A   1      32.894  23.900  25.847  1.00  0.00    -0.329 N 
ATOM      9  C   UNL A   1      34.088  23.297  25.588  1.00  0.00     0.281 C 
ATOM     10  O   UNL A   1      35.022  23.776  26.242  1.00  0.00    -0.268 OA
ATOM     11  H   UNL A   1      33.005  24.485  26.631  1.00  0.00     0.165 HD
BRANCH   9  12
ATOM     12  C   UNL A   1      34.278  22.112  24.609  1.00  0.00     0.169 C 
ATOM     13  C   UNL A   1      35.584  21.384  24.941  1.00  0.00     0.090 C 
ATOM     14  C   UNL A   1      34.228  22.709  23.185  1.00  0.00     0.090 C 
BRANCH  12  15
ATOM     15  N   UNL A   1      33.141  21.145  24.568  1.00  0.00    -0.334 N 
ATOM     16  H   UNL A   1      32.570  21.319  25.395  1.00  0.00     0.347 HD
ATOM     17  H   UNL A   1      32.699  21.321  23.666  1.00  0.00     0.347 HD
BRANCH  15  18
ATOM     18  C   UNL A   1      33.436  19.714  24.543  1.00  0.00     0.257 C 
ATOM     19  C   UNL A   1      32.528  19.056  23.504  1.00  0.00     0.071 C 
ENDBRANCH  15  18
ENDBRANCH  12  15
ENDBRANCH   9  12
ENDBRANCH   6   8
BRANCH   6  20
ATOM     20  C   UNL A   1      31.027  24.269  23.892  1.00  0.00     0.420 C 
ATOM     21  F   UNL A   1      29.950  25.047  23.714  1.00  0.00    -0.168 F 
ATOM     22  F   UNL A   1      32.035  24.827  23.175  1.00  0.00    -0.168 F 
ATOM     23  F   UNL A   1      30.765  23.094  23.249  1.00  0.00    -0.168 F 
ENDBRANCH   6  20
ENDBRANCH   3   6
ENDBRANCH   1   2
BRANCH   1  24
ATOM     24  C   UNL A   1      32.473  27.962  24.612  1.00  0.00     0.042 C 
BRANCH  24  25
ATOM     25  C   UNL A   1      33.270  29.249  24.751  1.00  0.00     0.118 C 
BRANCH  25  26
ATOM     26  N   UNL A   1      32.524  30.308  25.419  1.00  0.00    -0.352 N 
ATOM     27  C   UNL A   1      32.770  30.931  26.617  1.00  0.00     0.251 C 
ATOM     28  H   UNL A   1      31.724  30.622  24.939  1.00  0.00     0.163 HD
ATOM     29  O   UNL A   1      31.913  31.672  27.100  1.00  0.00    -0.269 OA
BRANCH  27  30
ATOM     30  C   UNL A   1      34.046  30.704  27.326  1.00  0.00     0.039 A 
ATOM     31  C   UNL A   1      34.869  31.796  27.616  1.00  0.00     0.014 A 
ATOM     32  C   UNL A   1      34.435  29.417  27.701  1.00  0.00     0.014 A 
ATOM     33  C   UNL A   1      36.054  31.598  28.329  1.00  0.00     0.010 A 
ATOM     34  C   UNL A   1      35.555  29.237  28.504  1.00  0.00     0.010 A 
ATOM     35  C   UNL A   1      36.392  30.321  28.804  1.00  0.00    -0.014 A 
BRANCH  35  36
ATOM     36  C   UNL A   1      37.633  30.083  29.585  1.00  0.00     0.031 A 
ATOM     37  C   UNL A   1      38.702  29.173  29.038  1.00  0.00     0.074 A 
ATOM     38  C   UNL A   1      37.763  30.614  30.816  1.00  0.00     0.049 A 
ATOM     39  N   UNL A   1      39.819  28.786  29.594  1.00  0.00    -0.248 NA
ATOM     40  C   UNL A   1      38.466  28.595  27.703  1.00  0.00     0.031 C 
ATOM     41  C   UNL A   1      36.762  31.441  31.493  1.00  0.00     0.029 A 
ATOM     42  N   UNL A   1      38.782  30.511  31.729  1.00  0.00    -0.354 N 
ATOM     43  C   UNL A   1      40.398  27.893  28.700  1.00  0.00     0.074 A 
ATOM     44  C   UNL A   1      39.484  27.756  27.588  1.00  0.00     0.031 C 
ATOM     45  C   UNL A   1      37.218  31.775  32.710  1.00  0.00     0.029 A 
ATOM     46  C   UNL A   1      38.526  31.160  32.915  1.00  0.00     0.049 A 
ATOM     47  H   UNL A   1      39.617  30.020  31.554  1.00  0.00     0.167 HD
ATOM     48  C   UNL A   1      41.598  27.269  28.775  1.00  0.00     0.034 A 
ATOM     49  C   UNL A   1      39.258  31.244  34.042  1.00  0.00     0.034 A 
ATOM     50  C   UNL A   1      42.520  27.437  29.863  1.00  0.00     0.049 A 
ATOM     51  C   UNL A   1      40.608  30.579  34.088  1.00  0.00     0.074 A 
ATOM     52  C   UNL A   1      43.793  26.914  30.003  1.00  0.00     0.029 A 
ATOM     53  N   UNL A   1      42.267  28.183  31.006  1.00  0.00    -0.354 N 
ATOM     54  N   UNL A   1      41.202  29.854  33.171  1.00  0.00    -0.248 NA
ATOM     55  C   UNL A   1      41.407  30.782  35.304  1.00  0.00     0.031 C 
ATOM     56  C   UNL A   1      44.298  27.319  31.243  1.00  0.00     0.029 A 
ATOM     57  C   UNL A   1      43.357  28.131  31.856  1.00  0.00     0.049 A 
ATOM     58  H   UNL A   1      41.434  28.676  31.184  1.00  0.00     0.167 HD
ATOM     59  C   UNL A   1      42.459  29.549  33.680  1.00  0.00     0.074 A 
ATOM     60  C   UNL A   1      42.545  30.182  34.981  1.00  0.00     0.031 C 
ATOM     61  C   UNL A   1      43.449  28.808  33.125  1.00  0.00     0.034 A 
BRANCH  48  62
ATOM     62  C   UNL A   1      41.995  26.385  27.619  1.00  0.00     0.023 A 
ATOM     63  C   UNL A   1      42.671  26.942  26.512  1.00  0.00     0.012 A 
ATOM     64  C   UNL A   1      41.727  25.002  27.637  1.00  0.00     0.148 A 
ATOM     65  C   UNL A   1      43.027  26.150  25.422  1.00  0.00     0.002 A 
ATOM     66  C   UNL A   1      42.132  24.209  26.569  1.00  0.00     0.091 A 
ATOM     67  F   UNL A   1      41.067  24.491  28.685  1.00  0.00    -0.205 F 
ATOM     68  C   UNL A   1      42.766  24.783  25.454  1.00  0.00     0.022 A 
BRANCH  66  69
ATOM     69  S   UNL A   1      41.922  22.425  26.553  1.00  0.00     0.127 S 
ATOM     70  O   UNL A   1      42.592  22.062  25.304  1.00  0.00    -0.237 OA
ATOM     71  O   UNL A   1      42.632  22.020  27.766  1.00  0.00    -0.237 OA
ATOM     72  O   UNL A   1      40.486  22.191  26.582  1.00  0.00    -0.744 OA
ENDBRANCH  66  69
ENDBRANCH  48  62
BRANCH  49  73
ATOM     73  C   UNL A   1      38.753  32.039  35.196  1.00  0.00     0.023 A 
ATOM     74  C   UNL A   1      38.752  33.446  35.124  1.00  0.00     0.012 A 
ATOM     75  C   UNL A   1      38.239  31.410  36.345  1.00  0.00     0.148 A 
ATOM     76  C   UNL A   1      38.276  34.212  36.188  1.00  0.00     0.002 A 
ATOM     77  C   UNL A   1      37.715  32.177  37.378  1.00  0.00     0.091 A 
ATOM     78  F   UNL A   1      38.254  30.070  36.394  1.00  0.00    -0.205 F 
ATOM     79  C   UNL A   1      37.749  33.579  37.310  1.00  0.00     0.022 A 
BRANCH  77  80
ATOM     80  S   UNL A   1      36.897  31.452  38.803  1.00  0.00     0.127 S 
ATOM     81  O   UNL A   1      37.882  31.674  39.858  1.00  0.00    -0.237 OA
ATOM     82  O   UNL A   1      35.689  32.271  38.903  1.00  0.00    -0.237 OA
ATOM     83  O   UNL A   1      36.654  30.059  38.452  1.00  0.00    -0.744 OA
ENDBRANCH  77  80
ENDBRANCH  49  73
BRANCH  61  84
ATOM     84  C   UNL A   1      44.743  28.683  33.887  1.00  0.00     0.023 A 
ATOM     85  C   UNL A   1      45.772  29.627  33.700  1.00  0.00     0.012 A 
ATOM     86  C   UNL A   1      44.905  27.662  34.845  1.00  0.00     0.148 A 
ATOM     87  C   UNL A   1      46.958  29.533  34.428  1.00  0.00     0.002 A 
ATOM     88  C   UNL A   1      46.068  27.608  35.605  1.00  0.00     0.091 A 
ATOM     89  F   UNL A   1      43.922  26.762  34.995  1.00  0.00    -0.205 F 
ATOM     90  C   UNL A   1      47.100  28.534  35.387  1.00  0.00     0.022 A 
BRANCH  88  91
ATOM     91  S   UNL A   1      46.292  26.419  36.931  1.00  0.00     0.127 S 
ATOM     92  O   UNL A   1      45.945  25.163  36.268  1.00  0.00    -0.237 OA
ATOM     93  O   UNL A   1      47.714  26.569  37.245  1.00  0.00    -0.237 OA
ATOM     94  O   UNL A   1      45.393  26.832  37.999  1.00  0.00    -0.744 OA
ENDBRANCH  88  91
ENDBRANCH  61  84
ENDBRANCH  35  36
ENDBRANCH  27  30
ENDBRANCH  25  26
ENDBRANCH  24  25
ENDBRANCH   1  24
TORSDOF 18
ENDMDL
MODEL 2
REMARK VINA RESULT:     -10.8      5.255      7.737
REMARK SMILES CC[NH2+]C(C)(C)C(=O)N[C@@](C)(C(=O)NCCCNC(=O)c1ccc(-c2c3nc(c(-c4cccc(S(=O)(=O)[O-])c4F)c4ccc([nH]4)c(-c4cccc(S(=O)(=O)[O-])c4F)c4nc(c(-c5cccc(S(=O)(=O)[O-])c5F)c5ccc2[nH]5)C=C4)C=C3)cc1)C(F)(F)F
REMARK SMILES IDX 15 1 14 2 12 3 13 4 10 6 11 7 9 8 7 9 8 10 4 12 5 13 6 14
REMARK SMILES IDX 3 15 2 18 1 19 84 20 85 21 86 22 87 23 16 24 17 25 18 26
REMARK SMILES IDX 19 27 20 29 21 30 22 31 83 32 23 33 82 34 24 35 25 36 26 37
REMARK SMILES IDX 76 38 27 39 81 40 75 41 77 42 28 43 80 44 74 45 73 46 29 48
REMARK SMILES IDX 61 49 41 50 60 51 42 52 45 53 59 54 78 55 43 56 44 57 58 59
REMARK SMILES IDX 79 60 46 61 30 62 31 63 39 64 32 65 34 66 40 67 33 68 35 69
REMARK SMILES IDX 36 70 37 71 38 72 62 73 63 74 71 75 64 76 66 77 72 78 65 79
REMARK SMILES IDX 67 80 68 81 69 82 70 83 47 84 48 85 56 86 49 87 51 88 57 89
REMARK SMILES IDX 50 90 52 91 53 92 54 93 55 94
REMARK H PARENT 14 5 9 11 3 16 3 17 18 28 77 47 45 58
REMARK Flexibility Score: inf
ROOT
ATOM      1  C   UNL A   1      36.005  22.632  23.904  1.00  0.00     0.117 C 
ENDROOT
BRANCH   1   2
ATOM      2  N   UNL A   1      35.307  21.695  24.771  1.00  0.00    -0.354 N 
ATOM      3  C   UNL A   1      34.049  21.644  25.293  1.00  0.00     0.254 C 
ATOM      4  O   UNL A   1      33.825  20.653  25.995  1.00  0.00    -0.272 OA
ATOM      5  H   UNL A   1      35.866  20.931  25.040  1.00  0.00     0.163 HD
BRANCH   3   6
ATOM      6  C   UNL A   1      32.991  22.749  25.067  1.00  0.00     0.212 C 
ATOM      7  C   UNL A   1      31.560  22.257  25.386  1.00  0.00     0.056 C 
BRANCH   6   8
ATOM      8  N   UNL A   1      33.049  23.055  23.576  1.00  0.00    -0.329 N 
ATOM      9  C   UNL A   1      32.741  23.999  22.644  1.00  0.00     0.281 C 
ATOM     10  O   UNL A   1      33.226  23.755  21.532  1.00  0.00    -0.268 OA
ATOM     11  H   UNL A   1      33.460  22.287  23.118  1.00  0.00     0.165 HD
BRANCH   9  12
ATOM     12  C   UNL A   1      31.851  25.238  22.910  1.00  0.00     0.169 C 
ATOM     13  C   UNL A   1      30.482  24.778  23.424  1.00  0.00     0.090 C 
ATOM     14  C   UNL A   1      31.797  26.031  21.585  1.00  0.00     0.090 C 
BRANCH  12  15
ATOM     15  N   UNL A   1      32.441  26.247  23.840  1.00  0.00    -0.334 N 
ATOM     16  H   UNL A   1      32.334  25.881  24.786  1.00  0.00     0.347 HD
ATOM     17  H   UNL A   1      33.398  26.361  23.503  1.00  0.00     0.347 HD
BRANCH  15  18
ATOM     18  C   UNL A   1      31.902  27.604  23.839  1.00  0.00     0.257 C 
ATOM     19  C   UNL A   1      31.354  27.903  25.234  1.00  0.00     0.071 C 
ENDBRANCH  15  18
ENDBRANCH  12  15
ENDBRANCH   9  12
ENDBRANCH   6   8
BRANCH   6  20
ATOM     20  C   UNL A   1      33.274  23.794  26.194  1.00  0.00     0.420 C 
ATOM     21  F   UNL A   1      33.776  23.310  27.339  1.00  0.00    -0.168 F 
ATOM     22  F   UNL A   1      34.126  24.763  25.774  1.00  0.00    -0.168 F 
ATOM     23  F   UNL A   1      32.134  24.465  26.523  1.00  0.00    -0.168 F 
ENDBRANCH   6  20
ENDBRANCH   3   6
ENDBRANCH   1   2
BRANCH   1  24
ATOM     24  C   UNL A   1      36.941  23.549  24.673  1.00  0.00     0.042 C 
BRANCH  24  25
ATOM     25  C   UNL A   1      37.201  23.119  26.107  1.00  0.00     0.118 C 
BRANCH  25  26
ATOM     26  N   UNL A   1      38.314  22.185  26.226  1.00  0.00    -0.352 N 
ATOM     27  C   UNL A   1      39.639  22.429  26.488  1.00  0.00     0.251 C 
ATOM     28  H   UNL A   1      38.079  21.237  26.098  1.00  0.00     0.163 HD
ATOM     29  O   UNL A   1      40.458  21.519  26.359  1.00  0.00    -0.269 OA
BRANCH  27  30
ATOM     30  C   UNL A   1      40.079  23.775  26.908  1.00  0.00     0.039 A 
ATOM     31  C   UNL A   1      40.139  24.800  25.961  1.00  0.00     0.014 A 
ATOM     32  C   UNL A   1      40.439  24.026  28.234  1.00  0.00     0.014 A 
ATOM     33  C   UNL A   1      40.508  26.087  26.359  1.00  0.00     0.010 A 
ATOM     34  C   UNL A   1      40.698  25.326  28.648  1.00  0.00     0.010 A 
ATOM     35  C   UNL A   1      40.762  26.367  27.711  1.00  0.00    -0.014 A 
BRANCH  35  36
ATOM     36  C   UNL A   1      41.133  27.731  28.168  1.00  0.00     0.031 A 
ATOM     37  C   UNL A   1      42.582  28.142  28.205  1.00  0.00     0.074 A 
ATOM     38  C   UNL A   1      40.182  28.567  28.627  1.00  0.00     0.049 A 
ATOM     39  N   UNL A   1      43.113  29.257  28.634  1.00  0.00    -0.248 NA
ATOM     40  C   UNL A   1      43.567  27.157  27.728  1.00  0.00     0.031 C 
ATOM     41  C   UNL A   1      38.754  28.256  28.724  1.00  0.00     0.029 A 
ATOM     42  N   UNL A   1      40.279  29.842  29.127  1.00  0.00    -0.354 N 
ATOM     43  C   UNL A   1      44.488  29.092  28.517  1.00  0.00     0.074 A 
ATOM     44  C   UNL A   1      44.713  27.752  28.025  1.00  0.00     0.031 C 
ATOM     45  C   UNL A   1      38.109  29.312  29.245  1.00  0.00     0.029 A 
ATOM     46  C   UNL A   1      39.077  30.360  29.550  1.00  0.00     0.049 A 
ATOM     47  H   UNL A   1      41.128  30.339  29.178  1.00  0.00     0.167 HD
ATOM     48  C   UNL A   1      45.477  29.985  28.761  1.00  0.00     0.034 A 
ATOM     49  C   UNL A   1      38.789  31.543  30.127  1.00  0.00     0.034 A 
ATOM     50  C   UNL A   1      45.248  31.329  29.214  1.00  0.00     0.049 A 
ATOM     51  C   UNL A   1      39.897  32.537  30.348  1.00  0.00     0.074 A 
ATOM     52  C   UNL A   1      46.171  32.339  29.418  1.00  0.00     0.029 A 
ATOM     53  N   UNL A   1      44.005  31.852  29.539  1.00  0.00    -0.354 N 
ATOM     54  N   UNL A   1      41.178  32.415  30.096  1.00  0.00    -0.248 NA
ATOM     55  C   UNL A   1      39.514  33.849  30.890  1.00  0.00     0.031 C 
ATOM     56  C   UNL A   1      45.490  33.464  29.895  1.00  0.00     0.029 A 
ATOM     57  C   UNL A   1      44.136  33.168  29.945  1.00  0.00     0.049 A 
ATOM     58  H   UNL A   1      43.155  31.359  29.488  1.00  0.00     0.167 HD
ATOM     59  C   UNL A   1      41.748  33.644  30.407  1.00  0.00     0.074 A 
ATOM     60  C   UNL A   1      40.668  34.501  30.853  1.00  0.00     0.031 C 
ATOM     61  C   UNL A   1      43.047  34.026  30.337  1.00  0.00     0.034 A 
BRANCH  48  62
ATOM     62  C   UNL A   1      46.894  29.542  28.493  1.00  0.00     0.023 A 
ATOM     63  C   UNL A   1      47.481  29.801  27.236  1.00  0.00     0.012 A 
ATOM     64  C   UNL A   1      47.654  28.898  29.488  1.00  0.00     0.148 A 
ATOM     65  C   UNL A   1      48.781  29.381  26.957  1.00  0.00     0.002 A 
ATOM     66  C   UNL A   1      48.967  28.529  29.220  1.00  0.00     0.091 A 
ATOM     67  F   UNL A   1      47.075  28.640  30.670  1.00  0.00    -0.205 F 
ATOM     68  C   UNL A   1      49.526  28.754  27.950  1.00  0.00     0.022 A 
BRANCH  66  69
ATOM     69  S   UNL A   1      50.039  27.793  30.459  1.00  0.00     0.127 S 
ATOM     70  O   UNL A   1      49.431  26.474  30.629  1.00  0.00    -0.237 OA
ATOM     71  O   UNL A   1      51.334  27.784  29.779  1.00  0.00    -0.237 OA
ATOM     72  O   UNL A   1      49.969  28.668  31.620  1.00  0.00    -0.744 OA
ENDBRANCH  66  69
ENDBRANCH  48  62
BRANCH  49  73
ATOM     73  C   UNL A   1      37.379  31.872  30.476  1.00  0.00     0.023 A 
ATOM     74  C   UNL A   1      36.877  31.525  31.744  1.00  0.00     0.012 A 
ATOM     75  C   UNL A   1      36.548  32.563  29.573  1.00  0.00     0.148 A 
ATOM     76  C   UNL A   1      35.562  31.831  32.097  1.00  0.00     0.002 A 
ATOM     77  C   UNL A   1      35.258  32.914  29.951  1.00  0.00     0.091 A 
ATOM     78  F   UNL A   1      37.046  32.880  28.369  1.00  0.00    -0.205 F 
ATOM     79  C   UNL A   1      34.756  32.533  31.205  1.00  0.00     0.022 A 
BRANCH  77  80
ATOM     80  S   UNL A   1      34.192  33.932  28.923  1.00  0.00     0.127 S 
ATOM     81  O   UNL A   1      33.670  32.953  27.973  1.00  0.00    -0.237 OA
ATOM     82  O   UNL A   1      33.220  34.426  29.899  1.00  0.00    -0.237 OA
ATOM     83  O   UNL A   1      35.055  34.960  28.358  1.00  0.00    -0.744 OA
ENDBRANCH  77  80
ENDBRANCH  49  73
BRANCH  61  84
ATOM     84  C   UNL A   1      43.378  35.452  30.692  1.00  0.00     0.023 A 
ATOM     85  C   UNL A   1      43.780  35.784  32.001  1.00  0.00     0.012 A 
ATOM     86  C   UNL A   1      43.357  36.453  29.700  1.00  0.00     0.148 A 
ATOM     87  C   UNL A   1      44.119  37.098  32.324  1.00  0.00     0.002 A 
ATOM     88  C   UNL A   1      43.748  37.748  30.018  1.00  0.00     0.091 A 
ATOM     89  F   UNL A   1      42.952  36.121  28.464  1.00  0.00    -0.205 F 
ATOM     90  C   UNL A   1      44.116  38.075  31.332  1.00  0.00     0.022 A 
BRANCH  88  91
ATOM     91  S   UNL A   1      43.872  39.044  28.781  1.00  0.00     0.127 S 
ATOM     92  O   UNL A   1      42.472  39.225  28.399  1.00  0.00    -0.237 OA
ATOM     93  O   UNL A   1      44.443  40.151  29.548  1.00  0.00    -0.237 OA
ATOM     94  O   UNL A   1      44.742  38.522  27.736  1.00  0.00    -0.744 OA
ENDBRANCH  88  91
ENDBRANCH  61  84
ENDBRANCH  35  36
ENDBRANCH  27  30
ENDBRANCH  25  26
ENDBRANCH  24  25
ENDBRANCH   1  24
TORSDOF 18
ENDMDL
MODEL 3
REMARK VINA RESULT:     -10.6      2.844      8.159
REMARK SMILES CC[NH2+]C(C)(C)C(=O)N[C@@](C)(C(=O)NCCCNC(=O)c1ccc(-c2c3nc(c(-c4cccc(S(=O)(=O)[O-])c4F)c4ccc([nH]4)c(-c4cccc(S(=O)(=O)[O-])c4F)c4nc(c(-c5cccc(S(=O)(=O)[O-])c5F)c5ccc2[nH]5)C=C4)C=C3)cc1)C(F)(F)F
REMARK SMILES IDX 15 1 14 2 12 3 13 4 10 6 11 7 9 8 7 9 8 10 4 12 5 13 6 14
REMARK SMILES IDX 3 15 2 18 1 19 84 20 85 21 86 22 87 23 16 24 17 25 18 26
REMARK SMILES IDX 19 27 20 29 21 30 22 31 83 32 23 33 82 34 24 35 25 36 26 37
REMARK SMILES IDX 76 38 27 39 81 40 75 41 77 42 28 43 80 44 74 45 73 46 29 48
REMARK SMILES IDX 61 49 41 50 60 51 42 52 45 53 59 54 78 55 43 56 44 57 58 59
REMARK SMILES IDX 79 60 46 61 30 62 31 63 39 64 32 65 34 66 40 67 33 68 35 69
REMARK SMILES IDX 36 70 37 71 38 72 62 73 63 74 71 75 64 76 66 77 72 78 65 79
REMARK SMILES IDX 67 80 68 81 69 82 70 83 47 84 48 85 56 86 49 87 51 88 57 89
REMARK SMILES IDX 50 90 52 91 53 92 54 93 55 94
REMARK H PARENT 14 5 9 11 3 16 3 17 18 28 77 47 45 58
REMARK Flexibility Score: inf
ROOT
ATOM      1  C   UNL A   1      32.837  27.615  24.364  1.00  0.00     0.117 C 
ENDROOT
BRANCH   1   2
ATOM      2  N   UNL A   1      33.167  26.984  23.096  1.00  0.00    -0.354 N 
ATOM      3  C   UNL A   1      33.388  25.696  22.708  1.00  0.00     0.254 C 
ATOM      4  O   UNL A   1      33.637  25.558  21.506  1.00  0.00    -0.272 OA
ATOM      5  H   UNL A   1      33.249  27.628  22.356  1.00  0.00     0.163 HD
BRANCH   3   6
ATOM      6  C   UNL A   1      33.372  24.500  23.687  1.00  0.00     0.212 C 
ATOM      7  C   UNL A   1      33.078  24.943  25.140  1.00  0.00     0.056 C 
BRANCH   6   8
ATOM      8  N   UNL A   1      34.788  23.941  23.656  1.00  0.00    -0.329 N 
ATOM      9  C   UNL A   1      35.547  22.872  24.026  1.00  0.00     0.281 C 
ATOM     10  O   UNL A   1      36.681  22.892  23.532  1.00  0.00    -0.268 OA
ATOM     11  H   UNL A   1      35.368  24.592  23.200  1.00  0.00     0.165 HD
BRANCH   9  12
ATOM     12  C   UNL A   1      35.079  21.755  24.991  1.00  0.00     0.169 C 
ATOM     13  C   UNL A   1      34.857  22.349  26.386  1.00  0.00     0.090 C 
ATOM     14  C   UNL A   1      36.156  20.650  24.936  1.00  0.00     0.090 C 
BRANCH  12  15
ATOM     15  N   UNL A   1      33.863  21.011  24.545  1.00  0.00    -0.334 N 
ATOM     16  H   UNL A   1      33.068  21.639  24.662  1.00  0.00     0.347 HD
ATOM     17  H   UNL A   1      34.083  20.730  23.590  1.00  0.00     0.347 HD
BRANCH  15  18
ATOM     18  C   UNL A   1      33.522  19.757  25.212  1.00  0.00     0.257 C 
ATOM     19  C   UNL A   1      33.092  18.749  24.146  1.00  0.00     0.071 C 
ENDBRANCH  15  18
ENDBRANCH  12  15
ENDBRANCH   9  12
ENDBRANCH   6   8
BRANCH   6  20
ATOM     20  C   UNL A   1      32.095  23.691  23.291  1.00  0.00     0.420 C 
ATOM     21  F   UNL A   1      31.482  23.027  24.282  1.00  0.00    -0.168 F 
ATOM     22  F   UNL A   1      31.157  24.486  22.717  1.00  0.00    -0.168 F 
ATOM     23  F   UNL A   1      32.389  22.769  22.331  1.00  0.00    -0.168 F 
ENDBRANCH   6  20
ENDBRANCH   3   6
ENDBRANCH   1   2
BRANCH   1  24
ATOM     24  C   UNL A   1      34.072  28.057  25.133  1.00  0.00     0.042 C 
BRANCH  24  25
ATOM     25  C   UNL A   1      33.825  28.338  26.606  1.00  0.00     0.118 C 
BRANCH  25  26
ATOM     26  N   UNL A   1      33.640  29.756  26.888  1.00  0.00    -0.352 N 
ATOM     27  C   UNL A   1      34.399  30.602  27.658  1.00  0.00     0.251 C 
ATOM     28  H   UNL A   1      32.854  30.168  26.463  1.00  0.00     0.163 HD
ATOM     29  O   UNL A   1      33.970  31.725  27.926  1.00  0.00    -0.269 OA
BRANCH  27  30
ATOM     30  C   UNL A   1      35.714  30.165  28.171  1.00  0.00     0.039 A 
ATOM     31  C   UNL A   1      35.801  29.634  29.461  1.00  0.00     0.014 A 
ATOM     32  C   UNL A   1      36.862  30.283  27.385  1.00  0.00     0.014 A 
ATOM     33  C   UNL A   1      37.031  29.174  29.936  1.00  0.00     0.010 A 
ATOM     34  C   UNL A   1      38.058  29.725  27.816  1.00  0.00     0.010 A 
ATOM     35  C   UNL A   1      38.164  29.189  29.107  1.00  0.00    -0.014 A 
BRANCH  35  36
ATOM     36  C   UNL A   1      39.480  28.684  29.577  1.00  0.00     0.031 A 
ATOM     37  C   UNL A   1      40.217  29.413  30.670  1.00  0.00     0.074 A 
ATOM     38  C   UNL A   1      40.049  27.626  28.968  1.00  0.00     0.049 A 
ATOM     39  N   UNL A   1      41.401  29.174  31.168  1.00  0.00    -0.248 NA
ATOM     40  C   UNL A   1      39.549  30.589  31.256  1.00  0.00     0.031 C 
ATOM     41  C   UNL A   1      39.477  26.887  27.841  1.00  0.00     0.029 A 
ATOM     42  N   UNL A   1      41.252  27.007  29.195  1.00  0.00    -0.354 N 
ATOM     43  C   UNL A   1      41.635  30.185  32.093  1.00  0.00     0.074 A 
ATOM     44  C   UNL A   1      40.493  31.070  32.049  1.00  0.00     0.031 C 
ATOM     45  C   UNL A   1      40.325  25.912  27.479  1.00  0.00     0.029 A 
ATOM     46  C   UNL A   1      41.514  25.976  28.323  1.00  0.00     0.049 A 
ATOM     47  H   UNL A   1      41.871  27.274  29.913  1.00  0.00     0.167 HD
ATOM     48  C   UNL A   1      42.687  30.347  32.930  1.00  0.00     0.034 A 
ATOM     49  C   UNL A   1      42.593  25.178  28.209  1.00  0.00     0.034 A 
ATOM     50  C   UNL A   1      43.803  29.445  32.998  1.00  0.00     0.049 A 
ATOM     51  C   UNL A   1      43.732  25.347  29.179  1.00  0.00     0.074 A 
ATOM     52  C   UNL A   1      44.883  29.472  33.862  1.00  0.00     0.029 A 
ATOM     53  N   UNL A   1      43.987  28.352  32.163  1.00  0.00    -0.354 N 
ATOM     54  N   UNL A   1      43.871  26.224  30.144  1.00  0.00    -0.248 NA
ATOM     55  C   UNL A   1      44.841  24.389  29.074  1.00  0.00     0.031 C 
ATOM     56  C   UNL A   1      45.734  28.413  33.530  1.00  0.00     0.029 A 
ATOM     57  C   UNL A   1      45.162  27.700  32.488  1.00  0.00     0.049 A 
ATOM     58  H   UNL A   1      43.371  28.081  31.444  1.00  0.00     0.167 HD
ATOM     59  C   UNL A   1      45.059  25.899  30.788  1.00  0.00     0.074 A 
ATOM     60  C   UNL A   1      45.593  24.735  30.110  1.00  0.00     0.031 C 
ATOM     61  C   UNL A   1      45.656  26.512  31.839  1.00  0.00     0.034 A 
BRANCH  48  62
ATOM     62  C   UNL A   1      42.648  31.523  33.874  1.00  0.00     0.023 A 
ATOM     63  C   UNL A   1      43.147  32.775  33.454  1.00  0.00     0.012 A 
ATOM     64  C   UNL A   1      42.094  31.402  35.163  1.00  0.00     0.148 A 
ATOM     65  C   UNL A   1      43.144  33.870  34.316  1.00  0.00     0.002 A 
ATOM     66  C   UNL A   1      42.046  32.512  35.999  1.00  0.00     0.091 A 
ATOM     67  F   UNL A   1      41.643  30.202  35.557  1.00  0.00    -0.205 F 
ATOM     68  C   UNL A   1      42.586  33.741  35.584  1.00  0.00     0.022 A 
BRANCH  66  69
ATOM     69  S   UNL A   1      41.270  32.473  37.618  1.00  0.00     0.127 S 
ATOM     70  O   UNL A   1      39.937  31.965  37.293  1.00  0.00    -0.237 OA
ATOM     71  O   UNL A   1      42.120  31.531  38.345  1.00  0.00    -0.237 OA
ATOM     72  O   UNL A   1      41.313  33.840  38.116  1.00  0.00    -0.744 OA
ENDBRANCH  66  69
ENDBRANCH  48  62
BRANCH  49  73
ATOM     73  C   UNL A   1      42.617  24.107  27.174  1.00  0.00     0.023 A 
ATOM     74  C   UNL A   1      43.290  24.329  25.958  1.00  0.00     0.012 A 
ATOM     75  C   UNL A   1      42.011  22.858  27.406  1.00  0.00     0.148 A 
ATOM     76  C   UNL A   1      43.333  23.338  24.977  1.00  0.00     0.002 A 
ATOM     77  C   UNL A   1      42.105  21.855  26.450  1.00  0.00     0.091 A 
ATOM     78  F   UNL A   1      41.372  22.670  28.571  1.00  0.00    -0.205 F 
ATOM     79  C   UNL A   1      42.750  22.098  25.226  1.00  0.00     0.022 A 
BRANCH  77  80
ATOM     80  S   UNL A   1      41.501  20.187  26.733  1.00  0.00     0.127 S 
ATOM     81  O   UNL A   1      40.092  20.426  27.030  1.00  0.00    -0.237 OA
ATOM     82  O   UNL A   1      41.761  19.552  25.441  1.00  0.00    -0.237 OA
ATOM     83  O   UNL A   1      42.296  19.662  27.834  1.00  0.00    -0.744 OA
ENDBRANCH  77  80
ENDBRANCH  49  73
BRANCH  61  84
ATOM     84  C   UNL A   1      46.930  25.907  32.372  1.00  0.00     0.023 A 
ATOM     85  C   UNL A   1      46.895  25.047  33.487  1.00  0.00     0.012 A 
ATOM     86  C   UNL A   1      48.154  26.140  31.715  1.00  0.00     0.148 A 
ATOM     87  C   UNL A   1      48.067  24.460  33.963  1.00  0.00     0.002 A 
ATOM     88  C   UNL A   1      49.308  25.508  32.162  1.00  0.00     0.091 A 
ATOM     89  F   UNL A   1      48.170  26.977  30.666  1.00  0.00    -0.205 F 
ATOM     90  C   UNL A   1      49.269  24.679  33.294  1.00  0.00     0.022 A 
BRANCH  88  91
ATOM     91  S   UNL A   1      50.877  25.653  31.300  1.00  0.00     0.127 S 
ATOM     92  O   UNL A   1      51.187  27.070  31.483  1.00  0.00    -0.237 OA
ATOM     93  O   UNL A   1      51.733  24.739  32.058  1.00  0.00    -0.237 OA
ATOM     94  O   UNL A   1      50.621  25.240  29.927  1.00  0.00    -0.744 OA
ENDBRANCH  88  91
ENDBRANCH  61  84
ENDBRANCH  35  36
ENDBRANCH  27  30
ENDBRANCH  25  26
ENDBRANCH  24  25
ENDBRANCH   1  24
TORSDOF 18
ENDMDL
