MODEL 1
REMARK VINA RESULT:     -12.7      0.000      0.000
REMARK SMILES O=C(Cn1c2ccccc2c(=O)c2ccccc21)N[C@@H](Cc1ccccc1)C(=O)NCCCNC(=O)c1ccc(-c2c3nc(c(-c4cccc(S(=O)(=O)[O-])c4F)c4ccc([nH]4)c(-c4cccc(S(=O)(=O)[O-])c4F)c4nc(c(-c5cccc(S(=O)(=O)[O-])c5F)c5ccc2[nH]5)C=C4)C=C3)cc1
REMARK SMILES IDX 32 1 31 2 30 3 28 4 29 5 20 7 19 8 1 9 2 10 3 12 4 13 5 14
REMARK SMILES IDX 18 15 6 16 10 17 13 18 17 19 7 20 9 21 11 22 14 23 16 24
REMARK SMILES IDX 8 25 12 26 15 27 21 28 22 29 23 30 27 31 24 32 26 33 25 34
REMARK SMILES IDX 33 35 34 36 35 37 36 39 37 40 38 41 99 42 39 43 98 44 40 45
REMARK SMILES IDX 41 46 42 47 92 48 43 49 97 50 91 51 93 52 44 53 96 54 90 55
REMARK SMILES IDX 89 56 45 58 77 59 57 60 76 61 58 62 61 63 75 64 94 65 59 66
REMARK SMILES IDX 60 67 74 69 95 70 62 71 46 72 47 73 55 74 48 75 50 76 56 77
REMARK SMILES IDX 49 78 51 79 52 80 53 81 54 82 78 83 79 84 87 85 80 86 82 87
REMARK SMILES IDX 88 88 81 89 83 90 84 91 85 92 86 93 63 94 64 95 72 96 65 97
REMARK SMILES IDX 67 98 73 99 66 100 68 101 69 102 70 103 71 104
REMARK H PARENT 30 6 19 11 34 38 93 57 61 68
REMARK Flexibility Score: inf
ROOT
ATOM      1  C   UNL A   1      36.794  19.722  24.930  1.00  0.00     0.042 C 
ENDROOT
BRANCH   1   2
ATOM      2  C   UNL A   1      35.651  20.580  25.449  1.00  0.00     0.117 C 
BRANCH   2   3
ATOM      3  N   UNL A   1      34.360  19.946  25.305  1.00  0.00    -0.354 N 
ATOM      4  C   UNL A   1      33.092  20.419  25.255  1.00  0.00     0.242 C 
ATOM      5  O   UNL A   1      32.227  19.566  25.007  1.00  0.00    -0.273 OA
ATOM      6  H   UNL A   1      34.414  18.966  25.225  1.00  0.00     0.163 HD
BRANCH   4   7
ATOM      7  C   UNL A   1      32.669  21.877  25.554  1.00  0.00     0.175 C 
BRANCH   7   8
ATOM      8  N   UNL A   1      33.598  22.895  25.047  1.00  0.00    -0.342 N 
ATOM      9  O   UNL A   1      33.825  23.975  27.057  1.00  0.00    -0.273 OA
ATOM     10  C   UNL A   1      34.083  23.911  25.854  1.00  0.00     0.240 C 
ATOM     11  H   UNL A   1      33.885  22.853  24.106  1.00  0.00     0.164 HD
BRANCH  10  12
ATOM     12  C   UNL A   1      34.805  25.075  25.156  1.00  0.00     0.222 C 
BRANCH  12  13
ATOM     13  N   UNL A   1      33.904  26.041  24.489  1.00  0.00    -0.331 N 
ATOM     14  C   UNL A   1      33.477  27.196  25.196  1.00  0.00     0.053 A 
ATOM     15  C   UNL A   1      33.473  25.781  23.167  1.00  0.00     0.053 A 
ATOM     16  C   UNL A   1      33.633  27.387  26.580  1.00  0.00     0.027 A 
ATOM     17  C   UNL A   1      32.777  28.210  24.509  1.00  0.00     0.046 A 
ATOM     18  C   UNL A   1      32.888  26.811  22.407  1.00  0.00     0.046 A 
ATOM     19  C   UNL A   1      33.560  24.526  22.544  1.00  0.00     0.027 A 
ATOM     20  C   UNL A   1      33.061  28.484  27.245  1.00  0.00     0.002 A 
ATOM     21  C   UNL A   1      32.207  29.313  25.166  1.00  0.00     0.014 A 
ATOM     22  C   UNL A   1      32.632  28.115  23.045  1.00  0.00     0.197 A 
ATOM     23  C   UNL A   1      32.517  26.635  21.068  1.00  0.00     0.014 A 
ATOM     24  C   UNL A   1      33.172  24.334  21.213  1.00  0.00     0.002 A 
ATOM     25  C   UNL A   1      32.335  29.439  26.542  1.00  0.00     0.001 A 
ATOM     26  O   UNL A   1      32.306  29.089  22.378  1.00  0.00    -0.288 OA
ATOM     27  C   UNL A   1      32.686  25.397  20.467  1.00  0.00     0.001 A 
ENDBRANCH  12  13
ENDBRANCH  10  12
ENDBRANCH   7   8
BRANCH   7  28
ATOM     28  C   UNL A   1      31.163  22.239  25.485  1.00  0.00     0.070 C 
BRANCH  28  29
ATOM     29  C   UNL A   1      30.666  23.633  25.170  1.00  0.00    -0.045 A 
ATOM     30  C   UNL A   1      30.444  24.600  26.155  1.00  0.00     0.004 A 
ATOM     31  C   UNL A   1      30.355  23.971  23.840  1.00  0.00     0.004 A 
ATOM     32  C   UNL A   1      30.035  25.894  25.817  1.00  0.00     0.000 A 
ATOM     33  C   UNL A   1      29.925  25.258  23.503  1.00  0.00     0.000 A 
ATOM     34  C   UNL A   1      29.789  26.227  24.490  1.00  0.00     0.000 A 
ENDBRANCH  28  29
ENDBRANCH   7  28
ENDBRANCH   4   7
ENDBRANCH   2   3
ENDBRANCH   1   2
BRANCH   1  35
ATOM     35  C   UNL A   1      38.138  20.440  24.964  1.00  0.00     0.118 C 
BRANCH  35  36
ATOM     36  N   UNL A   1      39.224  19.625  25.499  1.00  0.00    -0.352 N 
ATOM     37  C   UNL A   1      40.304  19.953  26.288  1.00  0.00     0.251 C 
ATOM     38  H   UNL A   1      39.176  18.674  25.252  1.00  0.00     0.163 HD
ATOM     39  O   UNL A   1      41.126  19.084  26.552  1.00  0.00    -0.269 OA
BRANCH  37  40
ATOM     40  C   UNL A   1      40.518  21.344  26.760  1.00  0.00     0.039 A 
ATOM     41  C   UNL A   1      39.982  22.444  26.093  1.00  0.00     0.014 A 
ATOM     42  C   UNL A   1      41.303  21.550  27.900  1.00  0.00     0.014 A 
ATOM     43  C   UNL A   1      40.419  23.727  26.410  1.00  0.00     0.010 A 
ATOM     44  C   UNL A   1      41.643  22.850  28.293  1.00  0.00     0.010 A 
ATOM     45  C   UNL A   1      41.269  23.948  27.505  1.00  0.00    -0.014 A 
BRANCH  45  46
ATOM     46  C   UNL A   1      41.773  25.319  27.791  1.00  0.00     0.031 A 
ATOM     47  C   UNL A   1      43.158  25.741  27.365  1.00  0.00     0.074 A 
ATOM     48  C   UNL A   1      40.965  26.213  28.395  1.00  0.00     0.049 A 
ATOM     49  N   UNL A   1      43.749  26.899  27.509  1.00  0.00    -0.248 NA
ATOM     50  C   UNL A   1      43.989  24.737  26.682  1.00  0.00     0.031 C 
ATOM     51  C   UNL A   1      39.607  25.938  28.868  1.00  0.00     0.029 A 
ATOM     52  N   UNL A   1      41.165  27.534  28.708  1.00  0.00    -0.354 N 
ATOM     53  C   UNL A   1      45.016  26.758  26.954  1.00  0.00     0.074 A 
ATOM     54  C   UNL A   1      45.117  25.400  26.471  1.00  0.00     0.031 C 
ATOM     55  C   UNL A   1      39.082  27.062  29.377  1.00  0.00     0.029 A 
ATOM     56  C   UNL A   1      40.086  28.119  29.326  1.00  0.00     0.049 A 
ATOM     57  H   UNL A   1      42.000  28.015  28.510  1.00  0.00     0.167 HD
ATOM     58  C   UNL A   1      46.007  27.672  26.844  1.00  0.00     0.034 A 
ATOM     59  C   UNL A   1      39.923  29.360  29.824  1.00  0.00     0.034 A 
ATOM     60  C   UNL A   1      45.920  29.024  27.317  1.00  0.00     0.049 A 
ATOM     61  C   UNL A   1      41.046  30.347  29.725  1.00  0.00     0.074 A 
ATOM     62  C   UNL A   1      46.877  30.022  27.251  1.00  0.00     0.029 A 
ATOM     63  N   UNL A   1      44.814  29.568  27.950  1.00  0.00    -0.354 N 
ATOM     64  N   UNL A   1      42.216  30.203  29.151  1.00  0.00    -0.248 NA
ATOM     65  C   UNL A   1      40.831  31.664  30.339  1.00  0.00     0.031 C 
ATOM     66  C   UNL A   1      46.350  31.170  27.854  1.00  0.00     0.029 A 
ATOM     67  C   UNL A   1      45.065  30.887  28.287  1.00  0.00     0.049 A 
ATOM     68  H   UNL A   1      43.974  29.088  28.132  1.00  0.00     0.167 HD
ATOM     69  C   UNL A   1      42.880  31.409  29.339  1.00  0.00     0.074 A 
ATOM     70  C   UNL A   1      41.969  32.283  30.051  1.00  0.00     0.031 C 
ATOM     71  C   UNL A   1      44.141  31.750  28.975  1.00  0.00     0.034 A 
BRANCH  58  72
ATOM     72  C   UNL A   1      47.271  27.245  26.148  1.00  0.00     0.023 A 
ATOM     73  C   UNL A   1      47.431  27.536  24.778  1.00  0.00     0.012 A 
ATOM     74  C   UNL A   1      48.311  26.605  26.849  1.00  0.00     0.148 A 
ATOM     75  C   UNL A   1      48.604  27.186  24.111  1.00  0.00     0.002 A 
ATOM     76  C   UNL A   1      49.488  26.280  26.183  1.00  0.00     0.091 A 
ATOM     77  F   UNL A   1      48.125  26.316  28.144  1.00  0.00    -0.205 F 
ATOM     78  C   UNL A   1      49.633  26.566  24.814  1.00  0.00     0.022 A 
BRANCH  76  79
ATOM     79  S   UNL A   1      50.889  25.511  27.001  1.00  0.00     0.127 S 
ATOM     80  O   UNL A   1      50.268  24.325  27.593  1.00  0.00    -0.237 OA
ATOM     81  O   UNL A   1      51.786  25.233  25.880  1.00  0.00    -0.237 OA
ATOM     82  O   UNL A   1      51.387  26.491  27.955  1.00  0.00    -0.744 OA
ENDBRANCH  76  79
ENDBRANCH  58  72
BRANCH  59  83
ATOM     83  C   UNL A   1      38.621  29.716  30.449  1.00  0.00     0.023 A 
ATOM     84  C   UNL A   1      38.379  29.362  31.789  1.00  0.00     0.012 A 
ATOM     85  C   UNL A   1      37.678  30.498  29.756  1.00  0.00     0.148 A 
ATOM     86  C   UNL A   1      37.215  29.787  32.431  1.00  0.00     0.002 A 
ATOM     87  C   UNL A   1      36.545  30.957  30.415  1.00  0.00     0.091 A 
ATOM     88  F   UNL A   1      37.937  30.818  28.480  1.00  0.00    -0.205 F 
ATOM     89  C   UNL A   1      36.307  30.595  31.750  1.00  0.00     0.022 A 
BRANCH  87  90
ATOM     90  S   UNL A   1      35.383  32.102  29.663  1.00  0.00     0.127 S 
ATOM     91  O   UNL A   1      36.268  33.177  29.219  1.00  0.00    -0.237 OA
ATOM     92  O   UNL A   1      34.817  31.286  28.589  1.00  0.00    -0.237 OA
ATOM     93  O   UNL A   1      34.443  32.464  30.714  1.00  0.00    -0.744 OA
ENDBRANCH  87  90
ENDBRANCH  59  83
BRANCH  71  94
ATOM     94  C   UNL A   1      44.631  33.116  29.362  1.00  0.00     0.023 A 
ATOM     95  C   UNL A   1      45.269  33.286  30.607  1.00  0.00     0.012 A 
ATOM     96  C   UNL A   1      44.550  34.200  28.467  1.00  0.00     0.148 A 
ATOM     97  C   UNL A   1      45.807  34.521  30.961  1.00  0.00     0.002 A 
ATOM     98  C   UNL A   1      45.119  35.419  28.813  1.00  0.00     0.091 A 
ATOM     99  F   UNL A   1      43.927  34.014  27.294  1.00  0.00    -0.205 F 
ATOM    100  C   UNL A   1      45.743  35.583  30.061  1.00  0.00     0.022 A 
BRANCH  98 101
ATOM    101  S   UNL A   1      45.148  36.824  27.694  1.00  0.00     0.127 S 
ATOM    102  O   UNL A   1      45.966  36.313  26.596  1.00  0.00    -0.237 OA
ATOM    103  O   UNL A   1      43.730  36.993  27.371  1.00  0.00    -0.237 OA
ATOM    104  O   UNL A   1      45.731  37.925  28.448  1.00  0.00    -0.744 OA
ENDBRANCH  98 101
ENDBRANCH  71  94
ENDBRANCH  45  46
ENDBRANCH  37  40
ENDBRANCH  35  36
ENDBRANCH   1  35
TORSDOF 18
ENDMDL
MODEL 2
REMARK VINA RESULT:     -12.5      4.746      8.147
REMARK SMILES O=C(Cn1c2ccccc2c(=O)c2ccccc21)N[C@@H](Cc1ccccc1)C(=O)NCCCNC(=O)c1ccc(-c2c3nc(c(-c4cccc(S(=O)(=O)[O-])c4F)c4ccc([nH]4)c(-c4cccc(S(=O)(=O)[O-])c4F)c4nc(c(-c5cccc(S(=O)(=O)[O-])c5F)c5ccc2[nH]5)C=C4)C=C3)cc1
REMARK SMILES IDX 32 1 31 2 30 3 28 4 29 5 20 7 19 8 1 9 2 10 3 12 4 13 5 14
REMARK SMILES IDX 18 15 6 16 10 17 13 18 17 19 7 20 9 21 11 22 14 23 16 24
REMARK SMILES IDX 8 25 12 26 15 27 21 28 22 29 23 30 27 31 24 32 26 33 25 34
REMARK SMILES IDX 33 35 34 36 35 37 36 39 37 40 38 41 99 42 39 43 98 44 40 45
REMARK SMILES IDX 41 46 42 47 92 48 43 49 97 50 91 51 93 52 44 53 96 54 90 55
REMARK SMILES IDX 89 56 45 58 77 59 57 60 76 61 58 62 61 63 75 64 94 65 59 66
REMARK SMILES IDX 60 67 74 69 95 70 62 71 46 72 47 73 55 74 48 75 50 76 56 77
REMARK SMILES IDX 49 78 51 79 52 80 53 81 54 82 78 83 79 84 87 85 80 86 82 87
REMARK SMILES IDX 88 88 81 89 83 90 84 91 85 92 86 93 63 94 64 95 72 96 65 97
REMARK SMILES IDX 67 98 73 99 66 100 68 101 69 102 70 103 71 104
REMARK H PARENT 30 6 19 11 34 38 93 57 61 68
REMARK Flexibility Score: inf
ROOT
ATOM      1  C   UNL A   1      31.752  28.844  26.765  1.00  0.00     0.042 C 
ENDROOT
BRANCH   1   2
ATOM      2  C   UNL A   1      32.460  27.499  26.760  1.00  0.00     0.117 C 
BRANCH   2   3
ATOM      3  N   UNL A   1      31.550  26.381  26.862  1.00  0.00    -0.354 N 
ATOM      4  C   UNL A   1      30.878  25.643  25.948  1.00  0.00     0.242 C 
ATOM      5  O   UNL A   1      30.263  24.671  26.412  1.00  0.00    -0.273 OA
ATOM      6  H   UNL A   1      31.385  26.096  27.790  1.00  0.00     0.163 HD
BRANCH   4   7
ATOM      7  C   UNL A   1      30.770  25.969  24.439  1.00  0.00     0.175 C 
BRANCH   7   8
ATOM      8  N   UNL A   1      31.709  25.226  23.589  1.00  0.00    -0.342 N 
ATOM      9  O   UNL A   1      30.663  23.203  23.860  1.00  0.00    -0.273 OA
ATOM     10  C   UNL A   1      31.597  23.858  23.395  1.00  0.00     0.240 C 
ATOM     11  H   UNL A   1      32.439  25.714  23.144  1.00  0.00     0.164 HD
BRANCH  10  12
ATOM     12  C   UNL A   1      32.788  23.145  22.736  1.00  0.00     0.222 C 
BRANCH  12  13
ATOM     13  N   UNL A   1      33.568  22.283  23.651  1.00  0.00    -0.331 N 
ATOM     14  C   UNL A   1      33.307  20.888  23.685  1.00  0.00     0.053 A 
ATOM     15  C   UNL A   1      34.543  22.873  24.489  1.00  0.00     0.053 A 
ATOM     16  C   UNL A   1      32.187  20.272  23.097  1.00  0.00     0.027 A 
ATOM     17  C   UNL A   1      34.167  20.038  24.410  1.00  0.00     0.046 A 
ATOM     18  C   UNL A   1      35.501  22.062  25.126  1.00  0.00     0.046 A 
ATOM     19  C   UNL A   1      34.615  24.248  24.766  1.00  0.00     0.027 A 
ATOM     20  C   UNL A   1      31.908  18.909  23.288  1.00  0.00     0.002 A 
ATOM     21  C   UNL A   1      33.898  18.673  24.600  1.00  0.00     0.014 A 
ATOM     22  C   UNL A   1      35.399  20.597  24.997  1.00  0.00     0.197 A 
ATOM     23  C   UNL A   1      36.539  22.596  25.900  1.00  0.00     0.014 A 
ATOM     24  C   UNL A   1      35.635  24.789  25.556  1.00  0.00     0.002 A 
ATOM     25  C   UNL A   1      32.754  18.112  24.051  1.00  0.00     0.001 A 
ATOM     26  O   UNL A   1      36.310  19.867  25.369  1.00  0.00    -0.288 OA
ATOM     27  C   UNL A   1      36.615  23.968  26.091  1.00  0.00     0.001 A 
ENDBRANCH  12  13
ENDBRANCH  10  12
ENDBRANCH   7   8
BRANCH   7  28
ATOM     28  C   UNL A   1      29.365  26.222  23.835  1.00  0.00     0.070 C 
BRANCH  28  29
ATOM     29  C   UNL A   1      28.911  27.582  23.350  1.00  0.00    -0.045 A 
ATOM     30  C   UNL A   1      27.611  28.061  23.543  1.00  0.00     0.004 A 
ATOM     31  C   UNL A   1      29.804  28.390  22.624  1.00  0.00     0.004 A 
ATOM     32  C   UNL A   1      27.247  29.345  23.127  1.00  0.00     0.000 A 
ATOM     33  C   UNL A   1      29.434  29.666  22.188  1.00  0.00     0.000 A 
ATOM     34  C   UNL A   1      28.161  30.153  22.462  1.00  0.00     0.000 A 
ENDBRANCH  28  29
ENDBRANCH   7  28
ENDBRANCH   4   7
ENDBRANCH   2   3
ENDBRANCH   1   2
BRANCH   1  35
ATOM     35  C   UNL A   1      32.447  29.886  25.898  1.00  0.00     0.118 C 
BRANCH  35  36
ATOM     36  N   UNL A   1      32.319  31.248  26.403  1.00  0.00    -0.352 N 
ATOM     37  C   UNL A   1      33.144  32.001  27.210  1.00  0.00     0.251 C 
ATOM     38  H   UNL A   1      31.500  31.712  26.116  1.00  0.00     0.163 HD
ATOM     39  O   UNL A   1      32.773  33.117  27.553  1.00  0.00    -0.269 OA
BRANCH  37  40
ATOM     40  C   UNL A   1      34.427  31.457  27.720  1.00  0.00     0.039 A 
ATOM     41  C   UNL A   1      34.581  30.114  28.059  1.00  0.00     0.014 A 
ATOM     42  C   UNL A   1      35.508  32.332  27.881  1.00  0.00     0.014 A 
ATOM     43  C   UNL A   1      35.703  29.704  28.772  1.00  0.00     0.010 A 
ATOM     44  C   UNL A   1      36.686  31.886  28.490  1.00  0.00     0.010 A 
ATOM     45  C   UNL A   1      36.767  30.588  29.012  1.00  0.00    -0.014 A 
BRANCH  45  46
ATOM     46  C   UNL A   1      37.931  30.147  29.828  1.00  0.00     0.031 A 
ATOM     47  C   UNL A   1      38.958  29.195  29.264  1.00  0.00     0.074 A 
ATOM     48  C   UNL A   1      38.100  30.642  31.070  1.00  0.00     0.049 A 
ATOM     49  N   UNL A   1      40.045  28.727  29.822  1.00  0.00    -0.248 NA
ATOM     50  C   UNL A   1      38.743  28.707  27.892  1.00  0.00     0.031 C 
ATOM     51  C   UNL A   1      37.182  31.564  31.742  1.00  0.00     0.029 A 
ATOM     52  N   UNL A   1      39.104  30.448  31.984  1.00  0.00    -0.354 N 
ATOM     53  C   UNL A   1      40.628  27.884  28.884  1.00  0.00     0.074 A 
ATOM     54  C   UNL A   1      39.777  27.897  27.716  1.00  0.00     0.031 C 
ATOM     55  C   UNL A   1      37.681  31.883  32.945  1.00  0.00     0.029 A 
ATOM     56  C   UNL A   1      38.920  31.141  33.156  1.00  0.00     0.049 A 
ATOM     57  H   UNL A   1      39.881  29.868  31.817  1.00  0.00     0.167 HD
ATOM     58  C   UNL A   1      41.773  27.168  28.973  1.00  0.00     0.034 A 
ATOM     59  C   UNL A   1      39.647  31.164  34.290  1.00  0.00     0.034 A 
ATOM     60  C   UNL A   1      42.629  27.148  30.126  1.00  0.00     0.049 A 
ATOM     61  C   UNL A   1      40.892  30.335  34.383  1.00  0.00     0.074 A 
ATOM     62  C   UNL A   1      43.809  26.449  30.308  1.00  0.00     0.029 A 
ATOM     63  N   UNL A   1      42.394  27.854  31.295  1.00  0.00    -0.354 N 
ATOM     64  N   UNL A   1      41.449  29.585  33.463  1.00  0.00    -0.248 NA
ATOM     65  C   UNL A   1      41.610  30.354  35.664  1.00  0.00     0.031 C 
ATOM     66  C   UNL A   1      44.285  26.727  31.594  1.00  0.00     0.029 A 
ATOM     67  C   UNL A   1      43.404  27.603  32.207  1.00  0.00     0.049 A 
ATOM     68  H   UNL A   1      41.624  28.446  31.452  1.00  0.00     0.167 HD
ATOM     69  C   UNL A   1      42.580  29.038  34.055  1.00  0.00     0.074 A 
ATOM     70  C   UNL A   1      42.646  29.568  35.402  1.00  0.00     0.031 C 
ATOM     71  C   UNL A   1      43.468  28.155  33.534  1.00  0.00     0.034 A 
BRANCH  58  72
ATOM     72  C   UNL A   1      42.187  26.369  27.769  1.00  0.00     0.023 A 
ATOM     73  C   UNL A   1      42.959  26.990  26.766  1.00  0.00     0.012 A 
ATOM     74  C   UNL A   1      41.860  25.005  27.649  1.00  0.00     0.148 A 
ATOM     75  C   UNL A   1      43.390  26.268  25.653  1.00  0.00     0.002 A 
ATOM     76  C   UNL A   1      42.314  24.285  26.548  1.00  0.00     0.091 A 
ATOM     77  F   UNL A   1      41.105  24.443  28.602  1.00  0.00    -0.205 F 
ATOM     78  C   UNL A   1      43.074  24.916  25.549  1.00  0.00     0.022 A 
BRANCH  76  79
ATOM     79  S   UNL A   1      41.993  22.531  26.332  1.00  0.00     0.127 S 
ATOM     80  O   UNL A   1      42.655  22.268  25.055  1.00  0.00    -0.237 OA
ATOM     81  O   UNL A   1      42.661  21.950  27.497  1.00  0.00    -0.237 OA
ATOM     82  O   UNL A   1      40.544  22.384  26.322  1.00  0.00    -0.744 OA
ENDBRANCH  76  79
ENDBRANCH  58  72
BRANCH  59  83
ATOM     83  C   UNL A   1      39.193  32.024  35.415  1.00  0.00     0.023 A 
ATOM     84  C   UNL A   1      38.373  31.475  36.417  1.00  0.00     0.012 A 
ATOM     85  C   UNL A   1      39.664  33.344  35.549  1.00  0.00     0.148 A 
ATOM     86  C   UNL A   1      38.032  32.229  37.541  1.00  0.00     0.002 A 
ATOM     87  C   UNL A   1      39.360  34.072  36.692  1.00  0.00     0.091 A 
ATOM     88  F   UNL A   1      40.443  33.839  34.578  1.00  0.00    -0.205 F 
ATOM     89  C   UNL A   1      38.536  33.519  37.685  1.00  0.00     0.022 A 
BRANCH  87  90
ATOM     90  S   UNL A   1      40.063  35.691  37.027  1.00  0.00     0.127 S 
ATOM     91  O   UNL A   1      41.491  35.387  37.095  1.00  0.00    -0.237 OA
ATOM     92  O   UNL A   1      39.648  36.443  35.843  1.00  0.00    -0.237 OA
ATOM     93  O   UNL A   1      39.461  36.137  38.275  1.00  0.00    -0.744 OA
ENDBRANCH  87  90
ENDBRANCH  59  83
BRANCH  71  94
ATOM     94  C   UNL A   1      44.577  27.677  34.427  1.00  0.00     0.023 A 
ATOM     95  C   UNL A   1      45.736  28.468  34.561  1.00  0.00     0.012 A 
ATOM     96  C   UNL A   1      44.439  26.509  35.201  1.00  0.00     0.148 A 
ATOM     97  C   UNL A   1      46.748  28.094  35.443  1.00  0.00     0.002 A 
ATOM     98  C   UNL A   1      45.436  26.161  36.102  1.00  0.00     0.091 A 
ATOM     99  F   UNL A   1      43.331  25.768  35.045  1.00  0.00    -0.205 F 
ATOM    100  C   UNL A   1      46.593  26.949  36.221  1.00  0.00     0.022 A 
BRANCH  98 101
ATOM    101  S   UNL A   1      45.297  24.744  37.198  1.00  0.00     0.127 S 
ATOM    102  O   UNL A   1      46.614  24.726  37.831  1.00  0.00    -0.237 OA
ATOM    103  O   UNL A   1      44.200  25.142  38.082  1.00  0.00    -0.237 OA
ATOM    104  O   UNL A   1      45.000  23.603  36.342  1.00  0.00    -0.744 OA
ENDBRANCH  98 101
ENDBRANCH  71  94
ENDBRANCH  45  46
ENDBRANCH  37  40
ENDBRANCH  35  36
ENDBRANCH   1  35
TORSDOF 18
ENDMDL
MODEL 3
REMARK VINA RESULT:     -12.4      4.770      9.627
REMARK SMILES O=C(Cn1c2ccccc2c(=O)c2ccccc21)N[C@@H](Cc1ccccc1)C(=O)NCCCNC(=O)c1ccc(-c2c3nc(c(-c4cccc(S(=O)(=O)[O-])c4F)c4ccc([nH]4)c(-c4cccc(S(=O)(=O)[O-])c4F)c4nc(c(-c5cccc(S(=O)(=O)[O-])c5F)c5ccc2[nH]5)C=C4)C=C3)cc1
REMARK SMILES IDX 32 1 31 2 30 3 28 4 29 5 20 7 19 8 1 9 2 10 3 12 4 13 5 14
REMARK SMILES IDX 18 15 6 16 10 17 13 18 17 19 7 20 9 21 11 22 14 23 16 24
REMARK SMILES IDX 8 25 12 26 15 27 21 28 22 29 23 30 27 31 24 32 26 33 25 34
REMARK SMILES IDX 33 35 34 36 35 37 36 39 37 40 38 41 99 42 39 43 98 44 40 45
REMARK SMILES IDX 41 46 42 47 92 48 43 49 97 50 91 51 93 52 44 53 96 54 90 55
REMARK SMILES IDX 89 56 45 58 77 59 57 60 76 61 58 62 61 63 75 64 94 65 59 66
REMARK SMILES IDX 60 67 74 69 95 70 62 71 46 72 47 73 55 74 48 75 50 76 56 77
REMARK SMILES IDX 49 78 51 79 52 80 53 81 54 82 78 83 79 84 87 85 80 86 82 87
REMARK SMILES IDX 88 88 81 89 83 90 84 91 85 92 86 93 63 94 64 95 72 96 65 97
REMARK SMILES IDX 67 98 73 99 66 100 68 101 69 102 70 103 71 104
REMARK H PARENT 30 6 19 11 34 38 93 57 61 68
REMARK Flexibility Score: inf
ROOT
ATOM      1  C   UNL A   1      33.259  27.611  24.966  1.00  0.00     0.042 C 
ENDROOT
BRANCH   1   2
ATOM      2  C   UNL A   1      33.921  26.629  24.013  1.00  0.00     0.117 C 
BRANCH   2   3
ATOM      3  N   UNL A   1      33.124  26.359  22.838  1.00  0.00    -0.354 N 
ATOM      4  C   UNL A   1      31.878  25.860  22.655  1.00  0.00     0.242 C 
ATOM      5  O   UNL A   1      31.478  25.876  21.481  1.00  0.00    -0.273 OA
ATOM      6  H   UNL A   1      33.580  26.585  21.996  1.00  0.00     0.163 HD
BRANCH   4   7
ATOM      7  C   UNL A   1      30.995  25.228  23.758  1.00  0.00     0.175 C 
BRANCH   7   8
ATOM      8  N   UNL A   1      31.704  24.291  24.639  1.00  0.00    -0.342 N 
ATOM      9  O   UNL A   1      31.637  22.539  23.160  1.00  0.00    -0.273 OA
ATOM     10  C   UNL A   1      31.939  22.975  24.272  1.00  0.00     0.240 C 
ATOM     11  H   UNL A   1      32.022  24.607  25.515  1.00  0.00     0.164 HD
BRANCH  10  12
ATOM     12  C   UNL A   1      32.421  22.017  25.373  1.00  0.00     0.222 C 
BRANCH  12  13
ATOM     13  N   UNL A   1      33.696  21.330  25.070  1.00  0.00    -0.331 N 
ATOM     14  C   UNL A   1      34.920  22.033  25.230  1.00  0.00     0.053 A 
ATOM     15  C   UNL A   1      33.665  19.992  24.609  1.00  0.00     0.053 A 
ATOM     16  C   UNL A   1      35.022  23.423  25.414  1.00  0.00     0.027 A 
ATOM     17  C   UNL A   1      36.140  21.333  25.127  1.00  0.00     0.046 A 
ATOM     18  C   UNL A   1      34.845  19.223  24.617  1.00  0.00     0.046 A 
ATOM     19  C   UNL A   1      32.519  19.362  24.102  1.00  0.00     0.027 A 
ATOM     20  C   UNL A   1      36.264  24.078  25.420  1.00  0.00     0.002 A 
ATOM     21  C   UNL A   1      37.386  21.980  25.138  1.00  0.00     0.014 A 
ATOM     22  C   UNL A   1      36.115  19.864  25.001  1.00  0.00     0.197 A 
ATOM     23  C   UNL A   1      34.859  17.871  24.251  1.00  0.00     0.014 A 
ATOM     24  C   UNL A   1      32.527  18.018  23.712  1.00  0.00     0.002 A 
ATOM     25  C   UNL A   1      37.445  23.361  25.266  1.00  0.00     0.001 A 
ATOM     26  O   UNL A   1      37.121  19.195  25.206  1.00  0.00    -0.288 OA
ATOM     27  C   UNL A   1      33.687  17.265  23.822  1.00  0.00     0.001 A 
ENDBRANCH  12  13
ENDBRANCH  10  12
ENDBRANCH   7   8
BRANCH   7  28
ATOM     28  C   UNL A   1      29.913  26.108  24.434  1.00  0.00     0.070 C 
BRANCH  28  29
ATOM     29  C   UNL A   1      29.387  27.385  23.816  1.00  0.00    -0.045 A 
ATOM     30  C   UNL A   1      30.193  28.505  23.589  1.00  0.00     0.004 A 
ATOM     31  C   UNL A   1      28.021  27.488  23.501  1.00  0.00     0.004 A 
ATOM     32  C   UNL A   1      29.681  29.648  22.967  1.00  0.00     0.000 A 
ATOM     33  C   UNL A   1      27.502  28.638  22.898  1.00  0.00     0.000 A 
ATOM     34  C   UNL A   1      28.339  29.710  22.609  1.00  0.00     0.000 A 
ENDBRANCH  28  29
ENDBRANCH   7  28
ENDBRANCH   4   7
ENDBRANCH   2   3
ENDBRANCH   1   2
BRANCH   1  35
ATOM     35  C   UNL A   1      33.842  29.016  24.872  1.00  0.00     0.118 C 
BRANCH  35  36
ATOM     36  N   UNL A   1      32.961  30.053  25.398  1.00  0.00    -0.352 N 
ATOM     37  C   UNL A   1      33.053  30.840  26.526  1.00  0.00     0.251 C 
ATOM     38  H   UNL A   1      32.161  30.220  24.852  1.00  0.00     0.163 HD
ATOM     39  O   UNL A   1      32.132  31.604  26.787  1.00  0.00    -0.269 OA
BRANCH  37  40
ATOM     40  C   UNL A   1      34.207  30.724  27.452  1.00  0.00     0.039 A 
ATOM     41  C   UNL A   1      35.125  31.757  27.626  1.00  0.00     0.014 A 
ATOM     42  C   UNL A   1      34.383  29.526  28.155  1.00  0.00     0.014 A 
ATOM     43  C   UNL A   1      36.323  31.515  28.293  1.00  0.00     0.010 A 
ATOM     44  C   UNL A   1      35.533  29.328  28.927  1.00  0.00     0.010 A 
ATOM     45  C   UNL A   1      36.551  30.291  28.941  1.00  0.00    -0.014 A 
BRANCH  45  46
ATOM     46  C   UNL A   1      37.861  30.030  29.597  1.00  0.00     0.031 A 
ATOM     47  C   UNL A   1      38.179  30.610  30.954  1.00  0.00     0.074 A 
ATOM     48  C   UNL A   1      38.759  29.224  28.996  1.00  0.00     0.049 A 
ATOM     49  N   UNL A   1      39.256  30.466  31.683  1.00  0.00    -0.248 NA
ATOM     50  C   UNL A   1      37.153  31.459  31.582  1.00  0.00     0.031 C 
ATOM     51  C   UNL A   1      38.586  28.603  27.681  1.00  0.00     0.029 A 
ATOM     52  N   UNL A   1      39.989  28.783  29.413  1.00  0.00    -0.354 N 
ATOM     53  C   UNL A   1      39.045  31.212  32.836  1.00  0.00     0.074 A 
ATOM     54  C   UNL A   1      37.737  31.816  32.716  1.00  0.00     0.031 C 
ATOM     55  C   UNL A   1      39.652  27.834  27.415  1.00  0.00     0.029 A 
ATOM     56  C   UNL A   1      40.611  27.957  28.508  1.00  0.00     0.049 A 
ATOM     57  H   UNL A   1      40.388  29.035  30.276  1.00  0.00     0.167 HD
ATOM     58  C   UNL A   1      39.855  31.378  33.907  1.00  0.00     0.034 A 
ATOM     59  C   UNL A   1      41.827  27.379  28.533  1.00  0.00     0.034 A 
ATOM     60  C   UNL A   1      41.155  30.783  34.040  1.00  0.00     0.049 A 
ATOM     61  C   UNL A   1      42.725  27.605  29.712  1.00  0.00     0.074 A 
ATOM     62  C   UNL A   1      42.050  30.898  35.089  1.00  0.00     0.029 A 
ATOM     63  N   UNL A   1      41.749  29.966  33.091  1.00  0.00    -0.354 N 
ATOM     64  N   UNL A   1      42.482  28.275  30.812  1.00  0.00    -0.248 NA
ATOM     65  C   UNL A   1      44.062  26.998  29.656  1.00  0.00     0.031 C 
ATOM     66  C   UNL A   1      43.192  30.155  34.770  1.00  0.00     0.029 A 
ATOM     67  C   UNL A   1      43.003  29.574  33.526  1.00  0.00     0.049 A 
ATOM     68  H   UNL A   1      41.340  29.704  32.235  1.00  0.00     0.167 HD
ATOM     69  C   UNL A   1      43.636  28.176  31.578  1.00  0.00     0.074 A 
ATOM     70  C   UNL A   1      44.566  27.354  30.830  1.00  0.00     0.031 C 
ATOM     71  C   UNL A   1      43.907  28.738  32.782  1.00  0.00     0.034 A 
BRANCH  58  72
ATOM     72  C   UNL A   1      39.340  32.217  35.044  1.00  0.00     0.023 A 
ATOM     73  C   UNL A   1      39.473  33.619  34.976  1.00  0.00     0.012 A 
ATOM     74  C   UNL A   1      38.689  31.633  36.146  1.00  0.00     0.148 A 
ATOM     75  C   UNL A   1      38.975  34.428  35.996  1.00  0.00     0.002 A 
ATOM     76  C   UNL A   1      38.173  32.448  37.149  1.00  0.00     0.091 A 
ATOM     77  F   UNL A   1      38.597  30.298  36.200  1.00  0.00    -0.205 F 
ATOM     78  C   UNL A   1      38.320  33.845  37.076  1.00  0.00     0.022 A 
BRANCH  76  79
ATOM     79  S   UNL A   1      37.281  31.802  38.567  1.00  0.00     0.127 S 
ATOM     80  O   UNL A   1      36.096  32.659  38.583  1.00  0.00    -0.237 OA
ATOM     81  O   UNL A   1      37.028  30.418  38.167  1.00  0.00    -0.237 OA
ATOM     82  O   UNL A   1      38.173  31.955  39.708  1.00  0.00    -0.744 OA
ENDBRANCH  76  79
ENDBRANCH  58  72
BRANCH  59  83
ATOM     83  C   UNL A   1      42.237  26.521  27.390  1.00  0.00     0.023 A 
ATOM     84  C   UNL A   1      43.079  27.051  26.396  1.00  0.00     0.012 A 
ATOM     85  C   UNL A   1      41.886  25.158  27.349  1.00  0.00     0.148 A 
ATOM     86  C   UNL A   1      43.570  26.232  25.378  1.00  0.00     0.002 A 
ATOM     87  C   UNL A   1      42.417  24.339  26.361  1.00  0.00     0.091 A 
ATOM     88  F   UNL A   1      41.082  24.682  28.310  1.00  0.00    -0.205 F 
ATOM     89  C   UNL A   1      43.252  24.876  25.369  1.00  0.00     0.022 A 
BRANCH  87  90
ATOM     90  S   UNL A   1      42.167  22.560  26.338  1.00  0.00     0.127 S 
ATOM     91  O   UNL A   1      42.683  22.202  25.019  1.00  0.00    -0.237 OA
ATOM     92  O   UNL A   1      42.998  22.132  27.464  1.00  0.00    -0.237 OA
ATOM     93  O   UNL A   1      40.738  22.356  26.524  1.00  0.00    -0.744 OA
ENDBRANCH  87  90
ENDBRANCH  59  83
BRANCH  71  94
ATOM     94  C   UNL A   1      45.275  28.513  33.362  1.00  0.00     0.023 A 
ATOM     95  C   UNL A   1      46.295  29.444  33.088  1.00  0.00     0.012 A 
ATOM     96  C   UNL A   1      45.524  27.447  34.247  1.00  0.00     0.148 A 
ATOM     97  C   UNL A   1      47.551  29.309  33.676  1.00  0.00     0.002 A 
ATOM     98  C   UNL A   1      46.768  27.337  34.855  1.00  0.00     0.091 A 
ATOM     99  F   UNL A   1      44.538  26.567  34.480  1.00  0.00    -0.205 F 
ATOM    100  C   UNL A   1      47.784  28.264  34.567  1.00  0.00     0.022 A 
BRANCH  98 101
ATOM    101  S   UNL A   1      47.141  26.067  36.070  1.00  0.00     0.127 S 
ATOM    102  O   UNL A   1      48.513  26.406  36.443  1.00  0.00    -0.237 OA
ATOM    103  O   UNL A   1      46.144  26.329  37.109  1.00  0.00    -0.237 OA
ATOM    104  O   UNL A   1      46.977  24.794  35.382  1.00  0.00    -0.744 OA
ENDBRANCH  98 101
ENDBRANCH  71  94
ENDBRANCH  45  46
ENDBRANCH  37  40
ENDBRANCH  35  36
ENDBRANCH   1  35
TORSDOF 18
ENDMDL
