MODEL 1
REMARK VINA RESULT:     -10.8      0.000      0.000
REMARK SMILES CCC[NH2+][C@]1(C(=O)NCCCNC(=O)c2ccc(-c3c4nc(c(-c5cccc(S(=O)(=O)[O-])c5F)c5ccc([nH]5)c(-c5cccc(S(=O)(=O)[O-])c5F)c5nc(c(-c6cccc(S(=O)(=O)[O-])c6F)c6ccc3[nH]6)C=C5)C=C4)cc2)CCC[C@@H]([N@@H+](C)[C@@H](C)C2CC2)C1
REMARK SMILES IDX 10 1 9 2 8 3 6 4 7 5 5 7 78 8 89 9 79 10 81 11 80 12 4 13
REMARK SMILES IDX 3 16 2 17 1 18 82 19 83 20 84 22 85 23 86 24 87 25 88 26
REMARK SMILES IDX 11 27 12 28 13 29 14 31 15 32 16 33 77 34 17 35 76 36 18 37
REMARK SMILES IDX 19 38 20 39 70 40 21 41 75 42 69 43 71 44 22 45 74 46 68 47
REMARK SMILES IDX 67 48 23 50 55 51 35 52 54 53 36 54 39 55 53 56 72 57 37 58
REMARK SMILES IDX 38 59 52 61 73 62 40 63 24 64 25 65 33 66 26 67 28 68 34 69
REMARK SMILES IDX 27 70 29 71 30 72 31 73 32 74 56 75 57 76 65 77 58 78 60 79
REMARK SMILES IDX 66 80 59 81 61 82 62 83 63 84 64 85 41 86 42 87 50 88 43 89
REMARK SMILES IDX 45 90 51 91 44 92 46 93 47 94 48 95 49 96
REMARK H PARENT 8 6 4 14 4 15 82 21 12 30 71 49 39 60
REMARK Flexibility Score: inf
ROOT
ATOM      1  C   UNL A   1      37.450  19.407  25.012  1.00  0.00     0.042 C 
ENDROOT
BRANCH   1   2
ATOM      2  C   UNL A   1      36.323  20.355  24.619  1.00  0.00     0.118 C 
BRANCH   2   3
ATOM      3  N   UNL A   1      35.313  20.418  25.651  1.00  0.00    -0.351 N 
ATOM      4  C   UNL A   1      34.229  21.207  25.824  1.00  0.00     0.281 C 
ATOM      5  O   UNL A   1      33.722  21.148  26.957  1.00  0.00    -0.268 OA
ATOM      6  H   UNL A   1      35.439  19.756  26.369  1.00  0.00     0.163 HD
BRANCH   4   7
ATOM      7  C   UNL A   1      33.535  22.081  24.715  1.00  0.00     0.181 C 
ATOM      8  C   UNL A   1      32.979  21.438  23.437  1.00  0.00     0.079 C 
ATOM      9  C   UNL A   1      32.322  22.671  25.476  1.00  0.00     0.144 C 
ATOM     10  C   UNL A   1      32.237  22.445  22.555  1.00  0.00     0.013 C 
ATOM     11  C   UNL A   1      31.395  23.597  24.679  1.00  0.00     0.190 C 
ATOM     12  C   UNL A   1      31.026  23.013  23.298  1.00  0.00     0.065 C 
BRANCH   7  13
ATOM     13  N   UNL A   1      34.481  23.195  24.384  1.00  0.00    -0.333 N 
ATOM     14  H   UNL A   1      35.340  22.789  24.012  1.00  0.00     0.347 HD
ATOM     15  H   UNL A   1      34.011  23.796  23.707  1.00  0.00     0.347 HD
BRANCH  13  16
ATOM     16  C   UNL A   1      34.827  24.037  25.539  1.00  0.00     0.261 C 
BRANCH  16  17
ATOM     17  C   UNL A   1      34.528  25.515  25.270  1.00  0.00     0.058 C 
ATOM     18  C   UNL A   1      34.026  25.793  23.861  1.00  0.00     0.010 C 
ENDBRANCH  16  17
ENDBRANCH  13  16
ENDBRANCH   7  13
BRANCH  11  19
ATOM     19  N   UNL A   1      30.274  24.122  25.510  1.00  0.00    -0.332 N 
ATOM     20  C   UNL A   1      30.295  23.527  26.852  1.00  0.00     0.333 C 
ATOM     21  H   UNL A   1      29.486  23.812  24.942  1.00  0.00     0.348 HD
BRANCH  19  22
ATOM     22  C   UNL A   1      29.967  25.566  25.579  1.00  0.00     0.184 C 
ATOM     23  C   UNL A   1      31.053  26.455  26.202  1.00  0.00     0.075 C 
BRANCH  22  24
ATOM     24  C   UNL A   1      29.461  26.205  24.291  1.00  0.00     0.047 C 
ATOM     25  C   UNL A   1      29.618  27.657  23.884  1.00  0.00     0.010 C 
ATOM     26  C   UNL A   1      30.468  26.619  23.233  1.00  0.00     0.010 C 
ENDBRANCH  22  24
ENDBRANCH  19  22
ENDBRANCH  11  19
ENDBRANCH   4   7
ENDBRANCH   2   3
ENDBRANCH   1   2
BRANCH   1  27
ATOM     27  C   UNL A   1      38.577  20.127  25.746  1.00  0.00     0.118 C 
BRANCH  27  28
ATOM     28  N   UNL A   1      39.714  19.241  25.974  1.00  0.00    -0.352 N 
ATOM     29  C   UNL A   1      41.043  19.542  26.123  1.00  0.00     0.251 C 
ATOM     30  H   UNL A   1      39.494  18.283  26.030  1.00  0.00     0.163 HD
ATOM     31  O   UNL A   1      41.883  18.653  25.987  1.00  0.00    -0.269 OA
BRANCH  29  32
ATOM     32  C   UNL A   1      41.463  20.918  26.456  1.00  0.00     0.039 A 
ATOM     33  C   UNL A   1      41.823  21.223  27.771  1.00  0.00     0.014 A 
ATOM     34  C   UNL A   1      41.454  21.918  25.480  1.00  0.00     0.014 A 
ATOM     35  C   UNL A   1      42.220  22.522  28.095  1.00  0.00     0.010 A 
ATOM     36  C   UNL A   1      41.927  23.189  25.786  1.00  0.00     0.010 A 
ATOM     37  C   UNL A   1      42.301  23.509  27.098  1.00  0.00    -0.014 A 
BRANCH  37  38
ATOM     38  C   UNL A   1      42.779  24.880  27.400  1.00  0.00     0.031 A 
ATOM     39  C   UNL A   1      41.846  25.884  28.027  1.00  0.00     0.074 A 
ATOM     40  C   UNL A   1      44.014  25.251  27.011  1.00  0.00     0.049 A 
ATOM     41  N   UNL A   1      42.051  27.149  28.282  1.00  0.00    -0.248 NA
ATOM     42  C   UNL A   1      40.496  25.413  28.384  1.00  0.00     0.031 C 
ATOM     43  C   UNL A   1      44.974  24.393  26.312  1.00  0.00     0.029 A 
ATOM     44  N   UNL A   1      44.662  26.457  27.111  1.00  0.00    -0.354 N 
ATOM     45  C   UNL A   1      40.848  27.636  28.783  1.00  0.00     0.074 A 
ATOM     46  C   UNL A   1      39.910  26.536  28.775  1.00  0.00     0.031 C 
ATOM     47  C   UNL A   1      46.081  25.100  26.039  1.00  0.00     0.029 A 
ATOM     48  C   UNL A   1      45.902  26.468  26.517  1.00  0.00     0.049 A 
ATOM     49  H   UNL A   1      44.276  27.240  27.566  1.00  0.00     0.167 HD
ATOM     50  C   UNL A   1      40.560  28.880  29.233  1.00  0.00     0.034 A 
ATOM     51  C   UNL A   1      46.789  27.469  26.361  1.00  0.00     0.034 A 
ATOM     52  C   UNL A   1      41.518  29.951  29.296  1.00  0.00     0.049 A 
ATOM     53  C   UNL A   1      46.466  28.822  26.934  1.00  0.00     0.074 A 
ATOM     54  C   UNL A   1      41.360  31.211  29.844  1.00  0.00     0.029 A 
ATOM     55  N   UNL A   1      42.806  29.891  28.791  1.00  0.00    -0.354 N 
ATOM     56  N   UNL A   1      45.387  29.212  27.570  1.00  0.00    -0.248 NA
ATOM     57  C   UNL A   1      47.494  29.864  26.803  1.00  0.00     0.031 C 
ATOM     58  C   UNL A   1      42.548  31.923  29.648  1.00  0.00     0.029 A 
ATOM     59  C   UNL A   1      43.453  31.095  29.002  1.00  0.00     0.049 A 
ATOM     60  H   UNL A   1      43.203  29.107  28.346  1.00  0.00     0.167 HD
ATOM     61  C   UNL A   1      45.621  30.530  27.945  1.00  0.00     0.074 A 
ATOM     62  C   UNL A   1      46.954  30.863  27.487  1.00  0.00     0.031 C 
ATOM     63  C   UNL A   1      44.800  31.392  28.592  1.00  0.00     0.034 A 
BRANCH  50  64
ATOM     64  C   UNL A   1      39.172  29.145  29.751  1.00  0.00     0.023 A 
ATOM     65  C   UNL A   1      38.848  28.801  31.079  1.00  0.00     0.012 A 
ATOM     66  C   UNL A   1      38.220  29.814  28.958  1.00  0.00     0.148 A 
ATOM     67  C   UNL A   1      37.590  29.098  31.604  1.00  0.00     0.002 A 
ATOM     68  C   UNL A   1      36.983  30.146  29.502  1.00  0.00     0.091 A 
ATOM     69  F   UNL A   1      38.540  30.115  27.692  1.00  0.00    -0.205 F 
ATOM     70  C   UNL A   1      36.665  29.781  30.819  1.00  0.00     0.022 A 
BRANCH  68  71
ATOM     71  S   UNL A   1      35.750  31.095  28.603  1.00  0.00     0.127 S 
ATOM     72  O   UNL A   1      34.884  31.554  29.689  1.00  0.00    -0.237 OA
ATOM     73  O   UNL A   1      36.562  32.145  27.987  1.00  0.00    -0.237 OA
ATOM     74  O   UNL A   1      35.133  30.171  27.665  1.00  0.00    -0.744 OA
ENDBRANCH  68  71
ENDBRANCH  50  64
BRANCH  51  75
ATOM     75  C   UNL A   1      48.089  27.217  25.678  1.00  0.00     0.023 A 
ATOM     76  C   UNL A   1      49.188  26.752  26.429  1.00  0.00     0.012 A 
ATOM     77  C   UNL A   1      48.242  27.417  24.293  1.00  0.00     0.148 A 
ATOM     78  C   UNL A   1      50.423  26.528  25.819  1.00  0.00     0.002 A 
ATOM     79  C   UNL A   1      49.459  27.136  23.682  1.00  0.00     0.091 A 
ATOM     80  F   UNL A   1      47.191  27.874  23.595  1.00  0.00    -0.205 F 
ATOM     81  C   UNL A   1      50.556  26.711  24.445  1.00  0.00     0.022 A 
BRANCH  79  82
ATOM     82  S   UNL A   1      49.669  27.210  21.899  1.00  0.00     0.127 S 
ATOM     83  O   UNL A   1      48.660  26.257  21.439  1.00  0.00    -0.237 OA
ATOM     84  O   UNL A   1      49.364  28.614  21.613  1.00  0.00    -0.237 OA
ATOM     85  O   UNL A   1      51.055  26.841  21.656  1.00  0.00    -0.744 OA
ENDBRANCH  79  82
ENDBRANCH  51  75
BRANCH  63  86
ATOM     86  C   UNL A   1      45.325  32.773  28.880  1.00  0.00     0.023 A 
ATOM     87  C   UNL A   1      46.062  33.010  30.057  1.00  0.00     0.012 A 
ATOM     88  C   UNL A   1      45.157  33.814  27.946  1.00  0.00     0.148 A 
ATOM     89  C   UNL A   1      46.599  34.271  30.314  1.00  0.00     0.002 A 
ATOM     90  C   UNL A   1      45.737  35.053  28.185  1.00  0.00     0.091 A 
ATOM     91  F   UNL A   1      44.437  33.571  26.840  1.00  0.00    -0.205 F 
ATOM     92  C   UNL A   1      46.447  35.287  29.373  1.00  0.00     0.022 A 
BRANCH  90  93
ATOM     93  S   UNL A   1      45.676  36.390  26.985  1.00  0.00     0.127 S 
ATOM     94  O   UNL A   1      46.286  35.764  25.813  1.00  0.00    -0.237 OA
ATOM     95  O   UNL A   1      44.239  36.635  26.867  1.00  0.00    -0.237 OA
ATOM     96  O   UNL A   1      46.431  37.489  27.571  1.00  0.00    -0.744 OA
ENDBRANCH  90  93
ENDBRANCH  63  86
ENDBRANCH  37  38
ENDBRANCH  29  32
ENDBRANCH  27  28
ENDBRANCH   1  27
TORSDOF 19
ENDMDL
MODEL 2
REMARK VINA RESULT:     -10.7      3.047      8.514
REMARK SMILES CCC[NH2+][C@]1(C(=O)NCCCNC(=O)c2ccc(-c3c4nc(c(-c5cccc(S(=O)(=O)[O-])c5F)c5ccc([nH]5)c(-c5cccc(S(=O)(=O)[O-])c5F)c5nc(c(-c6cccc(S(=O)(=O)[O-])c6F)c6ccc3[nH]6)C=C5)C=C4)cc2)CCC[C@@H]([N@@H+](C)[C@@H](C)C2CC2)C1
REMARK SMILES IDX 10 1 9 2 8 3 6 4 7 5 5 7 78 8 89 9 79 10 81 11 80 12 4 13
REMARK SMILES IDX 3 16 2 17 1 18 82 19 83 20 84 22 85 23 86 24 87 25 88 26
REMARK SMILES IDX 11 27 12 28 13 29 14 31 15 32 16 33 77 34 17 35 76 36 18 37
REMARK SMILES IDX 19 38 20 39 70 40 21 41 75 42 69 43 71 44 22 45 74 46 68 47
REMARK SMILES IDX 67 48 23 50 55 51 35 52 54 53 36 54 39 55 53 56 72 57 37 58
REMARK SMILES IDX 38 59 52 61 73 62 40 63 24 64 25 65 33 66 26 67 28 68 34 69
REMARK SMILES IDX 27 70 29 71 30 72 31 73 32 74 56 75 57 76 65 77 58 78 60 79
REMARK SMILES IDX 66 80 59 81 61 82 62 83 63 84 64 85 41 86 42 87 50 88 43 89
REMARK SMILES IDX 45 90 51 91 44 92 46 93 47 94 48 95 49 96
REMARK H PARENT 8 6 4 14 4 15 82 21 12 30 71 49 39 60
REMARK Flexibility Score: inf
ROOT
ATOM      1  C   UNL A   1      35.581  23.594  25.890  1.00  0.00     0.042 C 
ENDROOT
BRANCH   1   2
ATOM      2  C   UNL A   1      34.856  24.915  25.663  1.00  0.00     0.118 C 
BRANCH   2   3
ATOM      3  N   UNL A   1      33.474  24.828  26.079  1.00  0.00    -0.351 N 
ATOM      4  C   UNL A   1      32.473  25.735  26.127  1.00  0.00     0.281 C 
ATOM      5  O   UNL A   1      31.477  25.373  26.775  1.00  0.00    -0.268 OA
ATOM      6  H   UNL A   1      33.211  23.932  26.389  1.00  0.00     0.163 HD
BRANCH   4   7
ATOM      7  C   UNL A   1      32.440  27.116  25.372  1.00  0.00     0.181 C 
ATOM      8  C   UNL A   1      33.545  27.498  24.378  1.00  0.00     0.079 C 
ATOM      9  C   UNL A   1      31.129  27.008  24.554  1.00  0.00     0.144 C 
ATOM     10  C   UNL A   1      33.254  28.820  23.665  1.00  0.00     0.013 C 
ATOM     11  C   UNL A   1      30.769  28.210  23.672  1.00  0.00     0.190 C 
ATOM     12  C   UNL A   1      31.970  28.709  22.840  1.00  0.00     0.065 C 
BRANCH   7  13
ATOM     13  N   UNL A   1      32.269  28.178  26.414  1.00  0.00    -0.333 N 
ATOM     14  H   UNL A   1      32.009  29.048  25.949  1.00  0.00     0.347 HD
ATOM     15  H   UNL A   1      31.549  27.852  27.059  1.00  0.00     0.347 HD
BRANCH  13  16
ATOM     16  C   UNL A   1      33.481  28.423  27.211  1.00  0.00     0.261 C 
BRANCH  16  17
ATOM     17  C   UNL A   1      33.802  29.918  27.305  1.00  0.00     0.058 C 
ATOM     18  C   UNL A   1      32.613  30.820  27.011  1.00  0.00     0.010 C 
ENDBRANCH  16  17
ENDBRANCH  13  16
ENDBRANCH   7  13
BRANCH  11  19
ATOM     19  N   UNL A   1      29.483  28.009  22.946  1.00  0.00    -0.332 N 
ATOM     20  C   UNL A   1      28.662  26.988  23.607  1.00  0.00     0.333 C 
ATOM     21  H   UNL A   1      29.847  27.713  22.040  1.00  0.00     0.348 HD
BRANCH  19  22
ATOM     22  C   UNL A   1      28.651  29.150  22.508  1.00  0.00     0.184 C 
ATOM     23  C   UNL A   1      27.227  29.202  23.081  1.00  0.00     0.075 C 
BRANCH  22  24
ATOM     24  C   UNL A   1      29.295  30.528  22.613  1.00  0.00     0.047 C 
ATOM     25  C   UNL A   1      28.587  31.863  22.496  1.00  0.00     0.010 C 
ATOM     26  C   UNL A   1      29.013  31.376  23.840  1.00  0.00     0.010 C 
ENDBRANCH  22  24
ENDBRANCH  19  22
ENDBRANCH  11  19
ENDBRANCH   4   7
ENDBRANCH   2   3
ENDBRANCH   1   2
BRANCH   1  27
ATOM     27  C   UNL A   1      36.929  23.549  25.176  1.00  0.00     0.118 C 
BRANCH  27  28
ATOM     28  N   UNL A   1      37.823  22.574  25.792  1.00  0.00    -0.352 N 
ATOM     29  C   UNL A   1      39.030  22.762  26.414  1.00  0.00     0.251 C 
ATOM     30  H   UNL A   1      37.514  21.640  25.755  1.00  0.00     0.163 HD
ATOM     31  O   UNL A   1      39.780  21.802  26.581  1.00  0.00    -0.269 OA
BRANCH  29  32
ATOM     32  C   UNL A   1      39.422  24.104  26.889  1.00  0.00     0.039 A 
ATOM     33  C   UNL A   1      39.110  24.484  28.197  1.00  0.00     0.014 A 
ATOM     34  C   UNL A   1      40.054  25.006  26.028  1.00  0.00     0.014 A 
ATOM     35  C   UNL A   1      39.476  25.752  28.655  1.00  0.00     0.010 A 
ATOM     36  C   UNL A   1      40.489  26.235  26.510  1.00  0.00     0.010 A 
ATOM     37  C   UNL A   1      40.192  26.627  27.822  1.00  0.00    -0.014 A 
BRANCH  37  38
ATOM     38  C   UNL A   1      40.648  27.955  28.301  1.00  0.00     0.031 A 
ATOM     39  C   UNL A   1      42.118  28.228  28.483  1.00  0.00     0.074 A 
ATOM     40  C   UNL A   1      39.735  28.873  28.674  1.00  0.00     0.049 A 
ATOM     41  N   UNL A   1      42.703  29.289  28.973  1.00  0.00    -0.248 NA
ATOM     42  C   UNL A   1      43.052  27.157  28.094  1.00  0.00     0.031 C 
ATOM     43  C   UNL A   1      38.282  28.687  28.630  1.00  0.00     0.029 A 
ATOM     44  N   UNL A   1      39.891  30.131  29.200  1.00  0.00    -0.354 N 
ATOM     45  C   UNL A   1      44.063  28.999  28.997  1.00  0.00     0.074 A 
ATOM     46  C   UNL A   1      44.217  27.652  28.491  1.00  0.00     0.031 C 
ATOM     47  C   UNL A   1      37.682  29.785  29.116  1.00  0.00     0.029 A 
ATOM     48  C   UNL A   1      38.703  30.740  29.533  1.00  0.00     0.049 A 
ATOM     49  H   UNL A   1      40.769  30.557  29.327  1.00  0.00     0.167 HD
ATOM     50  C   UNL A   1      45.091  29.791  29.378  1.00  0.00     0.034 A 
ATOM     51  C   UNL A   1      38.464  31.929  30.120  1.00  0.00     0.034 A 
ATOM     52  C   UNL A   1      44.935  31.151  29.819  1.00  0.00     0.049 A 
ATOM     53  C   UNL A   1      39.629  32.814  30.469  1.00  0.00     0.074 A 
ATOM     54  C   UNL A   1      45.920  32.076  30.114  1.00  0.00     0.029 A 
ATOM     55  N   UNL A   1      43.718  31.778  30.033  1.00  0.00    -0.354 N 
ATOM     56  N   UNL A   1      40.912  32.590  30.311  1.00  0.00    -0.248 NA
ATOM     57  C   UNL A   1      39.317  34.132  31.041  1.00  0.00     0.031 C 
ATOM     58  C   UNL A   1      45.298  33.257  30.530  1.00  0.00     0.029 A 
ATOM     59  C   UNL A   1      43.925  33.074  30.469  1.00  0.00     0.049 A 
ATOM     60  H   UNL A   1      42.836  31.362  29.896  1.00  0.00     0.167 HD
ATOM     61  C   UNL A   1      41.556  33.748  30.731  1.00  0.00     0.074 A 
ATOM     62  C   UNL A   1      40.520  34.681  31.126  1.00  0.00     0.031 C 
ATOM     63  C   UNL A   1      42.883  34.010  30.801  1.00  0.00     0.034 A 
BRANCH  50  64
ATOM     64  C   UNL A   1      46.488  29.238  29.283  1.00  0.00     0.023 A 
ATOM     65  C   UNL A   1      47.013  28.487  30.354  1.00  0.00     0.012 A 
ATOM     66  C   UNL A   1      47.244  29.383  28.103  1.00  0.00     0.148 A 
ATOM     67  C   UNL A   1      48.279  27.908  30.262  1.00  0.00     0.002 A 
ATOM     68  C   UNL A   1      48.487  28.767  28.003  1.00  0.00     0.091 A 
ATOM     69  F   UNL A   1      46.735  30.118  27.104  1.00  0.00    -0.205 F 
ATOM     70  C   UNL A   1      49.008  28.037  29.084  1.00  0.00     0.022 A 
BRANCH  68  71
ATOM     71  S   UNL A   1      49.472  28.805  26.500  1.00  0.00     0.127 S 
ATOM     72  O   UNL A   1      49.831  30.221  26.421  1.00  0.00    -0.237 OA
ATOM     73  O   UNL A   1      50.582  27.914  26.841  1.00  0.00    -0.237 OA
ATOM     74  O   UNL A   1      48.606  28.323  25.437  1.00  0.00    -0.744 OA
ENDBRANCH  68  71
ENDBRANCH  50  64
BRANCH  51  75
ATOM     75  C   UNL A   1      37.064  32.373  30.367  1.00  0.00     0.023 A 
ATOM     76  C   UNL A   1      36.470  32.130  31.622  1.00  0.00     0.012 A 
ATOM     77  C   UNL A   1      36.323  33.048  29.378  1.00  0.00     0.148 A 
ATOM     78  C   UNL A   1      35.153  32.516  31.873  1.00  0.00     0.002 A 
ATOM     79  C   UNL A   1      35.031  33.482  29.655  1.00  0.00     0.091 A 
ATOM     80  F   UNL A   1      36.897  33.258  28.185  1.00  0.00    -0.205 F 
ATOM     81  C   UNL A   1      34.437  33.200  30.894  1.00  0.00     0.022 A 
BRANCH  79  82
ATOM     82  S   UNL A   1      34.097  34.491  28.499  1.00  0.00     0.127 S 
ATOM     83  O   UNL A   1      34.258  33.744  27.252  1.00  0.00    -0.237 OA
ATOM     84  O   UNL A   1      32.750  34.446  29.072  1.00  0.00    -0.237 OA
ATOM     85  O   UNL A   1      34.719  35.805  28.542  1.00  0.00    -0.744 OA
ENDBRANCH  79  82
ENDBRANCH  51  75
BRANCH  63  86
ATOM     86  C   UNL A   1      43.302  35.370  31.291  1.00  0.00     0.023 A 
ATOM     87  C   UNL A   1      43.565  35.569  32.662  1.00  0.00     0.012 A 
ATOM     88  C   UNL A   1      43.514  36.426  30.385  1.00  0.00     0.148 A 
ATOM     89  C   UNL A   1      44.002  36.809  33.125  1.00  0.00     0.002 A 
ATOM     90  C   UNL A   1      43.999  37.644  30.847  1.00  0.00     0.091 A 
ATOM     91  F   UNL A   1      43.242  36.220  29.087  1.00  0.00    -0.205 F 
ATOM     92  C   UNL A   1      44.231  37.840  32.217  1.00  0.00     0.022 A 
BRANCH  90  93
ATOM     93  S   UNL A   1      44.415  38.995  29.739  1.00  0.00     0.127 S 
ATOM     94  O   UNL A   1      44.883  40.015  30.677  1.00  0.00    -0.237 OA
ATOM     95  O   UNL A   1      45.465  38.404  28.909  1.00  0.00    -0.237 OA
ATOM     96  O   UNL A   1      43.189  39.320  29.023  1.00  0.00    -0.744 OA
ENDBRANCH  90  93
ENDBRANCH  63  86
ENDBRANCH  37  38
ENDBRANCH  29  32
ENDBRANCH  27  28
ENDBRANCH   1  27
TORSDOF 19
ENDMDL
MODEL 3
REMARK VINA RESULT:     -10.6      3.358      8.532
REMARK SMILES CCC[NH2+][C@]1(C(=O)NCCCNC(=O)c2ccc(-c3c4nc(c(-c5cccc(S(=O)(=O)[O-])c5F)c5ccc([nH]5)c(-c5cccc(S(=O)(=O)[O-])c5F)c5nc(c(-c6cccc(S(=O)(=O)[O-])c6F)c6ccc3[nH]6)C=C5)C=C4)cc2)CCC[C@@H]([N@@H+](C)[C@@H](C)C2CC2)C1
REMARK SMILES IDX 10 1 9 2 8 3 6 4 7 5 5 7 78 8 89 9 79 10 81 11 80 12 4 13
REMARK SMILES IDX 3 16 2 17 1 18 82 19 83 20 84 22 85 23 86 24 87 25 88 26
REMARK SMILES IDX 11 27 12 28 13 29 14 31 15 32 16 33 77 34 17 35 76 36 18 37
REMARK SMILES IDX 19 38 20 39 70 40 21 41 75 42 69 43 71 44 22 45 74 46 68 47
REMARK SMILES IDX 67 48 23 50 55 51 35 52 54 53 36 54 39 55 53 56 72 57 37 58
REMARK SMILES IDX 38 59 52 61 73 62 40 63 24 64 25 65 33 66 26 67 28 68 34 69
REMARK SMILES IDX 27 70 29 71 30 72 31 73 32 74 56 75 57 76 65 77 58 78 60 79
REMARK SMILES IDX 66 80 59 81 61 82 62 83 63 84 64 85 41 86 42 87 50 88 43 89
REMARK SMILES IDX 45 90 51 91 44 92 46 93 47 94 48 95 49 96
REMARK H PARENT 8 6 4 14 4 15 82 21 12 30 71 49 39 60
REMARK Flexibility Score: inf
ROOT
ATOM      1  C   UNL A   1      35.625  23.202  26.751  1.00  0.00     0.042 C 
ENDROOT
BRANCH   1   2
ATOM      2  C   UNL A   1      34.294  23.693  26.196  1.00  0.00     0.118 C 
BRANCH   2   3
ATOM      3  N   UNL A   1      34.491  24.516  25.024  1.00  0.00    -0.351 N 
ATOM      4  C   UNL A   1      33.827  25.588  24.536  1.00  0.00     0.281 C 
ATOM      5  O   UNL A   1      34.126  25.894  23.369  1.00  0.00    -0.268 OA
ATOM      6  H   UNL A   1      35.260  24.243  24.474  1.00  0.00     0.163 HD
BRANCH   4   7
ATOM      7  C   UNL A   1      32.821  26.495  25.336  1.00  0.00     0.181 C 
ATOM      8  C   UNL A   1      33.319  27.461  26.421  1.00  0.00     0.079 C 
ATOM      9  C   UNL A   1      32.209  27.370  24.214  1.00  0.00     0.144 C 
ATOM     10  C   UNL A   1      32.196  28.334  26.982  1.00  0.00     0.013 C 
ATOM     11  C   UNL A   1      31.159  28.402  24.644  1.00  0.00     0.190 C 
ATOM     12  C   UNL A   1      31.604  29.215  25.879  1.00  0.00     0.065 C 
BRANCH   7  13
ATOM     13  N   UNL A   1      31.755  25.592  25.875  1.00  0.00    -0.333 N 
ATOM     14  H   UNL A   1      32.204  24.827  26.380  1.00  0.00     0.347 HD
ATOM     15  H   UNL A   1      31.159  26.159  26.479  1.00  0.00     0.347 HD
BRANCH  13  16
ATOM     16  C   UNL A   1      30.889  25.016  24.835  1.00  0.00     0.261 C 
BRANCH  16  17
ATOM     17  C   UNL A   1      30.929  23.484  24.852  1.00  0.00     0.058 C 
ATOM     18  C   UNL A   1      31.563  22.874  23.610  1.00  0.00     0.010 C 
ENDBRANCH  16  17
ENDBRANCH  13  16
ENDBRANCH   7  13
BRANCH  11  19
ATOM     19  N   UNL A   1      30.623  29.175  23.487  1.00  0.00    -0.332 N 
ATOM     20  C   UNL A   1      31.613  29.253  22.406  1.00  0.00     0.333 C 
ATOM     21  H   UNL A   1      30.454  30.070  23.948  1.00  0.00     0.348 HD
BRANCH  19  22
ATOM     22  C   UNL A   1      29.271  28.926  22.945  1.00  0.00     0.184 C 
ATOM     23  C   UNL A   1      28.615  27.600  23.357  1.00  0.00     0.075 C 
BRANCH  22  24
ATOM     24  C   UNL A   1      28.267  30.063  23.101  1.00  0.00     0.047 C 
ATOM     25  C   UNL A   1      28.539  31.427  23.703  1.00  0.00     0.010 C 
ATOM     26  C   UNL A   1      28.412  31.293  22.223  1.00  0.00     0.010 C 
ENDBRANCH  22  24
ENDBRANCH  19  22
ENDBRANCH  11  19
ENDBRANCH   4   7
ENDBRANCH   2   3
ENDBRANCH   1   2
BRANCH   1  27
ATOM     27  C   UNL A   1      36.738  23.256  25.709  1.00  0.00     0.118 C 
BRANCH  27  28
ATOM     28  N   UNL A   1      37.831  22.352  26.052  1.00  0.00    -0.352 N 
ATOM     29  C   UNL A   1      39.130  22.635  26.387  1.00  0.00     0.251 C 
ATOM     30  H   UNL A   1      37.603  21.395  26.041  1.00  0.00     0.163 HD
ATOM     31  O   UNL A   1      39.977  21.746  26.328  1.00  0.00    -0.269 OA
BRANCH  29  32
ATOM     32  C   UNL A   1      39.507  23.994  26.825  1.00  0.00     0.039 A 
ATOM     33  C   UNL A   1      39.303  24.364  28.157  1.00  0.00     0.014 A 
ATOM     34  C   UNL A   1      40.017  24.920  25.910  1.00  0.00     0.014 A 
ATOM     35  C   UNL A   1      39.655  25.647  28.580  1.00  0.00     0.010 A 
ATOM     36  C   UNL A   1      40.442  26.168  26.350  1.00  0.00     0.010 A 
ATOM     37  C   UNL A   1      40.253  26.550  27.685  1.00  0.00    -0.014 A 
BRANCH  37  38
ATOM     38  C   UNL A   1      40.694  27.898  28.121  1.00  0.00     0.031 A 
ATOM     39  C   UNL A   1      42.162  28.226  28.188  1.00  0.00     0.074 A 
ATOM     40  C   UNL A   1      39.779  28.784  28.559  1.00  0.00     0.049 A 
ATOM     41  N   UNL A   1      42.744  29.311  28.626  1.00  0.00    -0.248 NA
ATOM     42  C   UNL A   1      43.103  27.187  27.733  1.00  0.00     0.031 C 
ATOM     43  C   UNL A   1      38.335  28.545  28.628  1.00  0.00     0.029 A 
ATOM     44  N   UNL A   1      39.928  30.051  29.066  1.00  0.00    -0.354 N 
ATOM     45  C   UNL A   1      44.111  29.071  28.546  1.00  0.00     0.074 A 
ATOM     46  C   UNL A   1      44.276  27.728  28.037  1.00  0.00     0.031 C 
ATOM     47  C   UNL A   1      37.734  29.623  29.154  1.00  0.00     0.029 A 
ATOM     48  C   UNL A   1      38.748  30.619  29.486  1.00  0.00     0.049 A 
ATOM     49  H   UNL A   1      40.797  30.510  29.123  1.00  0.00     0.167 HD
ATOM     50  C   UNL A   1      45.136  29.904  28.843  1.00  0.00     0.034 A 
ATOM     51  C   UNL A   1      38.511  31.802  30.085  1.00  0.00     0.034 A 
ATOM     52  C   UNL A   1      44.963  31.260  29.288  1.00  0.00     0.049 A 
ATOM     53  C   UNL A   1      39.665  32.732  30.338  1.00  0.00     0.074 A 
ATOM     54  C   UNL A   1      45.933  32.223  29.503  1.00  0.00     0.029 A 
ATOM     55  N   UNL A   1      43.744  31.844  29.592  1.00  0.00    -0.354 N 
ATOM     56  N   UNL A   1      40.939  32.554  30.082  1.00  0.00    -0.248 NA
ATOM     57  C   UNL A   1      39.348  34.042  30.926  1.00  0.00     0.031 C 
ATOM     58  C   UNL A   1      45.301  33.384  29.960  1.00  0.00     0.029 A 
ATOM     59  C   UNL A   1      43.936  33.150  30.005  1.00  0.00     0.049 A 
ATOM     60  H   UNL A   1      42.870  31.395  29.526  1.00  0.00     0.167 HD
ATOM     61  C   UNL A   1      41.570  33.739  30.446  1.00  0.00     0.074 A 
ATOM     62  C   UNL A   1      40.534  34.636  30.915  1.00  0.00     0.031 C 
ATOM     63  C   UNL A   1      42.888  34.050  30.412  1.00  0.00     0.034 A 
BRANCH  50  64
ATOM     64  C   UNL A   1      46.541  29.402  28.644  1.00  0.00     0.023 A 
ATOM     65  C   UNL A   1      47.207  29.664  27.430  1.00  0.00     0.012 A 
ATOM     66  C   UNL A   1      47.232  28.754  29.686  1.00  0.00     0.148 A 
ATOM     67  C   UNL A   1      48.532  29.269  27.246  1.00  0.00     0.002 A 
ATOM     68  C   UNL A   1      48.566  28.402  29.512  1.00  0.00     0.091 A 
ATOM     69  F   UNL A   1      46.575  28.498  30.826  1.00  0.00    -0.205 F 
ATOM     70  C   UNL A   1      49.213  28.650  28.290  1.00  0.00     0.022 A 
BRANCH  68  71
ATOM     71  S   UNL A   1      49.558  27.674  30.821  1.00  0.00     0.127 S 
ATOM     72  O   UNL A   1      49.308  28.599  31.928  1.00  0.00    -0.237 OA
ATOM     73  O   UNL A   1      48.938  26.357  30.977  1.00  0.00    -0.237 OA
ATOM     74  O   UNL A   1      50.925  27.650  30.328  1.00  0.00    -0.744 OA
ENDBRANCH  68  71
ENDBRANCH  50  64
BRANCH  51  75
ATOM     75  C   UNL A   1      37.117  32.196  30.436  1.00  0.00     0.023 A 
ATOM     76  C   UNL A   1      36.643  31.971  31.744  1.00  0.00     0.012 A 
ATOM     77  C   UNL A   1      36.268  32.806  29.494  1.00  0.00     0.148 A 
ATOM     78  C   UNL A   1      35.335  32.312  32.095  1.00  0.00     0.002 A 
ATOM     79  C   UNL A   1      34.985  33.196  29.867  1.00  0.00     0.091 A 
ATOM     80  F   UNL A   1      36.729  33.000  28.250  1.00  0.00    -0.205 F 
ATOM     81  C   UNL A   1      34.511  32.931  31.160  1.00  0.00     0.022 A 
BRANCH  79  82
ATOM     82  S   UNL A   1      33.914  34.125  28.765  1.00  0.00     0.127 S 
ATOM     83  O   UNL A   1      34.811  35.180  28.295  1.00  0.00    -0.237 OA
ATOM     84  O   UNL A   1      33.566  33.121  27.757  1.00  0.00    -0.237 OA
ATOM     85  O   UNL A   1      32.794  34.557  29.586  1.00  0.00    -0.744 OA
ENDBRANCH  79  82
ENDBRANCH  51  75
BRANCH  63  86
ATOM     86  C   UNL A   1      43.293  35.427  30.862  1.00  0.00     0.023 A 
ATOM     87  C   UNL A   1      43.652  35.646  32.208  1.00  0.00     0.012 A 
ATOM     88  C   UNL A   1      43.395  36.484  29.937  1.00  0.00     0.148 A 
ATOM     89  C   UNL A   1      44.077  36.905  32.630  1.00  0.00     0.002 A 
ATOM     90  C   UNL A   1      43.868  37.722  30.355  1.00  0.00     0.091 A 
ATOM     91  F   UNL A   1      43.032  36.258  28.665  1.00  0.00    -0.205 F 
ATOM     92  C   UNL A   1      44.197  37.937  31.702  1.00  0.00     0.022 A 
BRANCH  90  93
ATOM     93  S   UNL A   1      44.148  39.079  29.211  1.00  0.00     0.127 S 
ATOM     94  O   UNL A   1      45.067  38.472  28.249  1.00  0.00    -0.237 OA
ATOM     95  O   UNL A   1      42.803  39.331  28.693  1.00  0.00    -0.237 OA
ATOM     96  O   UNL A   1      44.702  40.166  30.007  1.00  0.00    -0.744 OA
ENDBRANCH  90  93
ENDBRANCH  63  86
ENDBRANCH  37  38
ENDBRANCH  29  32
ENDBRANCH  27  28
ENDBRANCH   1  27
TORSDOF 19
ENDMDL
