MODEL 1
REMARK VINA RESULT:     -12.8      0.000      0.000
REMARK SMILES COc1cc(S(=O)(=O)Nc2cccc(C(=O)NCCCNC(=O)c3ccc(-c4c5nc(c(-c6cccc(S(=O)(=O)[O-])c6F)c6ccc([nH]6)c(-c6cccc(S(=O)(=O)[O-])c6F)c6nc(c(-c7cccc(S(=O)(=O)[O-])c7F)c7ccc4[nH]7)C=C6)C=C5)cc3)c2)c(OC)cc1C
REMARK SMILES IDX 18 1 17 2 15 3 16 4 14 6 10 7 11 8 87 9 12 10 13 11 9 12
REMARK SMILES IDX 6 14 7 15 8 16 5 17 3 18 4 19 92 20 91 21 93 22 88 23 2 24
REMARK SMILES IDX 1 25 89 26 90 27 19 28 20 29 21 30 22 31 23 33 24 34 25 35
REMARK SMILES IDX 86 36 26 37 85 38 27 39 28 40 29 41 79 42 30 43 84 44 78 45
REMARK SMILES IDX 80 46 31 47 83 48 77 49 76 50 32 52 64 53 44 54 63 55 45 56
REMARK SMILES IDX 48 57 62 58 81 59 46 60 47 61 61 63 82 64 49 65 33 66 34 67
REMARK SMILES IDX 42 68 35 69 37 70 43 71 36 72 38 73 39 74 40 75 41 76 65 77
REMARK SMILES IDX 66 78 74 79 67 80 69 81 75 82 68 83 70 84 71 85 72 86 73 87
REMARK SMILES IDX 50 88 51 89 59 90 52 91 54 92 60 93 53 94 55 95 56 96 57 97
REMARK SMILES IDX 58 98
REMARK H PARENT 17 5 9 13 21 32 80 51 48 62
REMARK Flexibility Score: inf
ROOT
ATOM      1  C   UNL A   1      31.816  29.561  25.973  1.00  0.00     0.118 C 
ENDROOT
BRANCH   1   2
ATOM      2  N   UNL A   1      30.943  30.085  24.936  1.00  0.00    -0.352 N 
ATOM      3  C   UNL A   1      30.404  29.473  23.830  1.00  0.00     0.251 C 
ATOM      4  O   UNL A   1      29.532  30.048  23.182  1.00  0.00    -0.269 OA
ATOM      5  H   UNL A   1      30.699  31.031  25.044  1.00  0.00     0.163 HD
BRANCH   3   6
ATOM      6  C   UNL A   1      30.771  28.091  23.443  1.00  0.00     0.041 A 
ATOM      7  C   UNL A   1      30.737  25.741  24.058  1.00  0.00     0.050 A 
ATOM      8  C   UNL A   1      31.458  25.428  22.908  1.00  0.00     0.027 A 
ATOM      9  C   UNL A   1      30.335  27.062  24.283  1.00  0.00     0.040 A 
ATOM     10  C   UNL A   1      31.839  26.445  22.029  1.00  0.00     0.003 A 
ATOM     11  C   UNL A   1      31.498  27.773  22.297  1.00  0.00     0.014 A 
BRANCH   7  12
ATOM     12  N   UNL A   1      30.397  24.799  25.067  1.00  0.00    -0.279 N 
ATOM     13  H   UNL A   1      29.504  24.389  25.020  1.00  0.00     0.180 HD
BRANCH  12  14
ATOM     14  S   UNL A   1      31.392  24.332  26.323  1.00  0.00     0.265 S 
ATOM     15  O   UNL A   1      30.622  23.474  27.203  1.00  0.00    -0.201 OA
ATOM     16  O   UNL A   1      31.966  25.563  26.833  1.00  0.00    -0.201 OA
BRANCH  14  17
ATOM     17  C   UNL A   1      32.763  23.352  25.756  1.00  0.00     0.133 A 
ATOM     18  C   UNL A   1      35.135  22.939  26.067  1.00  0.00     0.123 A 
ATOM     19  C   UNL A   1      34.002  23.707  26.316  1.00  0.00     0.073 A 
ATOM     20  C   UNL A   1      35.023  21.721  25.401  1.00  0.00    -0.005 A 
ATOM     21  C   UNL A   1      33.809  21.425  24.769  1.00  0.00     0.055 A 
ATOM     22  C   UNL A   1      36.159  20.748  25.291  1.00  0.00     0.048 C 
ATOM     23  C   UNL A   1      32.694  22.273  24.873  1.00  0.00     0.139 A 
BRANCH  18  24
ATOM     24  O   UNL A   1      36.332  23.419  26.522  1.00  0.00    -0.496 OA
ATOM     25  C   UNL A   1      37.121  23.899  25.425  1.00  0.00     0.278 C 
ENDBRANCH  18  24
BRANCH  23  26
ATOM     26  O   UNL A   1      31.584  22.120  24.099  1.00  0.00    -0.495 OA
ATOM     27  C   UNL A   1      31.776  21.885  22.707  1.00  0.00     0.278 C 
ENDBRANCH  23  26
ENDBRANCH  14  17
ENDBRANCH  12  14
ENDBRANCH   7  12
ENDBRANCH   3   6
ENDBRANCH   1   2
BRANCH   1  28
ATOM     28  C   UNL A   1      32.471  30.650  26.808  1.00  0.00     0.042 C 
BRANCH  28  29
ATOM     29  C   UNL A   1      33.814  30.241  27.391  1.00  0.00     0.118 C 
BRANCH  29  30
ATOM     30  N   UNL A   1      34.402  31.276  28.235  1.00  0.00    -0.352 N 
ATOM     31  C   UNL A   1      35.520  31.211  29.044  1.00  0.00     0.251 C 
ATOM     32  H   UNL A   1      33.937  32.144  28.227  1.00  0.00     0.163 HD
ATOM     33  O   UNL A   1      35.828  32.192  29.719  1.00  0.00    -0.269 OA
BRANCH  31  34
ATOM     34  C   UNL A   1      36.385  30.010  28.986  1.00  0.00     0.039 A 
ATOM     35  C   UNL A   1      36.826  29.450  30.189  1.00  0.00     0.014 A 
ATOM     36  C   UNL A   1      36.936  29.601  27.775  1.00  0.00     0.014 A 
ATOM     37  C   UNL A   1      37.983  28.672  30.199  1.00  0.00     0.010 A 
ATOM     38  C   UNL A   1      38.138  28.929  27.792  1.00  0.00     0.010 A 
ATOM     39  C   UNL A   1      38.693  28.518  29.011  1.00  0.00    -0.014 A 
BRANCH  39  40
ATOM     40  C   UNL A   1      40.067  28.042  28.930  1.00  0.00     0.031 A 
ATOM     41  C   UNL A   1      40.359  26.608  28.742  1.00  0.00     0.074 A 
ATOM     42  C   UNL A   1      41.060  28.953  28.831  1.00  0.00     0.049 A 
ATOM     43  N   UNL A   1      41.511  26.067  28.953  1.00  0.00    -0.248 NA
ATOM     44  C   UNL A   1      39.340  25.658  28.319  1.00  0.00     0.031 C 
ATOM     45  C   UNL A   1      42.414  28.730  28.339  1.00  0.00     0.029 A 
ATOM     46  N   UNL A   1      41.099  30.239  29.381  1.00  0.00    -0.354 N 
ATOM     47  C   UNL A   1      41.469  24.787  28.438  1.00  0.00     0.074 A 
ATOM     48  C   UNL A   1      40.078  24.562  28.122  1.00  0.00     0.031 C 
ATOM     49  C   UNL A   1      43.214  29.679  28.846  1.00  0.00     0.029 A 
ATOM     50  C   UNL A   1      42.425  30.435  29.804  1.00  0.00     0.049 A 
ATOM     51  H   UNL A   1      40.353  30.875  29.456  1.00  0.00     0.167 HD
ATOM     52  C   UNL A   1      42.638  24.127  28.199  1.00  0.00     0.034 A 
ATOM     53  C   UNL A   1      42.781  30.697  31.094  1.00  0.00     0.034 A 
ATOM     54  C   UNL A   1      43.793  24.910  28.661  1.00  0.00     0.049 A 
ATOM     55  C   UNL A   1      43.775  29.701  31.658  1.00  0.00     0.074 A 
ATOM     56  C   UNL A   1      44.689  25.744  28.009  1.00  0.00     0.029 A 
ATOM     57  N   UNL A   1      43.992  25.107  30.022  1.00  0.00    -0.354 N 
ATOM     58  N   UNL A   1      44.143  28.606  31.052  1.00  0.00    -0.248 NA
ATOM     59  C   UNL A   1      44.410  29.842  32.967  1.00  0.00     0.031 C 
ATOM     60  C   UNL A   1      45.376  26.504  28.992  1.00  0.00     0.029 A 
ATOM     61  C   UNL A   1      44.914  26.118  30.239  1.00  0.00     0.049 A 
ATOM     62  H   UNL A   1      43.539  24.599  30.733  1.00  0.00     0.167 HD
ATOM     63  C   UNL A   1      44.907  27.841  31.895  1.00  0.00     0.074 A 
ATOM     64  C   UNL A   1      45.118  28.701  33.047  1.00  0.00     0.031 C 
ATOM     65  C   UNL A   1      45.235  26.543  31.599  1.00  0.00     0.034 A 
BRANCH  52  66
ATOM     66  C   UNL A   1      42.781  22.935  27.261  1.00  0.00     0.023 A 
ATOM     67  C   UNL A   1      42.068  21.759  27.592  1.00  0.00     0.012 A 
ATOM     68  C   UNL A   1      43.617  22.844  26.128  1.00  0.00     0.148 A 
ATOM     69  C   UNL A   1      42.268  20.542  26.930  1.00  0.00     0.002 A 
ATOM     70  C   UNL A   1      43.883  21.614  25.516  1.00  0.00     0.091 A 
ATOM     71  F   UNL A   1      44.087  23.956  25.558  1.00  0.00    -0.205 F 
ATOM     72  C   UNL A   1      43.213  20.457  25.920  1.00  0.00     0.022 A 
BRANCH  70  73
ATOM     73  S   UNL A   1      45.166  21.421  24.266  1.00  0.00     0.127 S 
ATOM     74  O   UNL A   1      44.604  22.156  23.129  1.00  0.00    -0.237 OA
ATOM     75  O   UNL A   1      46.318  22.062  24.893  1.00  0.00    -0.237 OA
ATOM     76  O   UNL A   1      45.287  19.986  24.037  1.00  0.00    -0.744 OA
ENDBRANCH  70  73
ENDBRANCH  52  66
BRANCH  53  77
ATOM     77  C   UNL A   1      41.738  31.425  31.873  1.00  0.00     0.023 A 
ATOM     78  C   UNL A   1      41.394  32.721  31.417  1.00  0.00     0.012 A 
ATOM     79  C   UNL A   1      40.866  30.764  32.754  1.00  0.00     0.148 A 
ATOM     80  C   UNL A   1      40.162  33.292  31.733  1.00  0.00     0.002 A 
ATOM     81  C   UNL A   1      39.636  31.343  33.067  1.00  0.00     0.091 A 
ATOM     82  F   UNL A   1      41.208  29.549  33.204  1.00  0.00    -0.205 F 
ATOM     83  C   UNL A   1      39.270  32.590  32.533  1.00  0.00     0.022 A 
BRANCH  81  84
ATOM     84  S   UNL A   1      38.400  30.474  34.045  1.00  0.00     0.127 S 
ATOM     85  O   UNL A   1      38.319  29.196  33.343  1.00  0.00    -0.237 OA
ATOM     86  O   UNL A   1      39.031  30.415  35.363  1.00  0.00    -0.237 OA
ATOM     87  O   UNL A   1      37.219  31.323  33.987  1.00  0.00    -0.744 OA
ENDBRANCH  81  84
ENDBRANCH  53  77
BRANCH  65  88
ATOM     88  C   UNL A   1      45.858  25.541  32.556  1.00  0.00     0.023 A 
ATOM     89  C   UNL A   1      47.226  25.565  32.889  1.00  0.00     0.012 A 
ATOM     90  C   UNL A   1      45.049  24.626  33.281  1.00  0.00     0.148 A 
ATOM     91  C   UNL A   1      47.776  24.701  33.845  1.00  0.00     0.002 A 
ATOM     92  C   UNL A   1      45.581  23.844  34.306  1.00  0.00     0.091 A 
ATOM     93  F   UNL A   1      43.751  24.490  32.973  1.00  0.00    -0.205 F 
ATOM     94  C   UNL A   1      46.950  23.857  34.572  1.00  0.00     0.022 A 
BRANCH  92  95
ATOM     95  S   UNL A   1      44.496  22.930  35.413  1.00  0.00     0.127 S 
ATOM     96  O   UNL A   1      43.288  23.751  35.410  1.00  0.00    -0.237 OA
ATOM     97  O   UNL A   1      44.354  21.640  34.735  1.00  0.00    -0.237 OA
ATOM     98  O   UNL A   1      45.232  22.862  36.669  1.00  0.00    -0.744 OA
ENDBRANCH  92  95
ENDBRANCH  65  88
ENDBRANCH  39  40
ENDBRANCH  31  34
ENDBRANCH  29  30
ENDBRANCH  28  29
ENDBRANCH   1  28
TORSDOF 18
ENDMDL
MODEL 2
REMARK VINA RESULT:     -12.8      1.586      2.337
REMARK SMILES COc1cc(S(=O)(=O)Nc2cccc(C(=O)NCCCNC(=O)c3ccc(-c4c5nc(c(-c6cccc(S(=O)(=O)[O-])c6F)c6ccc([nH]6)c(-c6cccc(S(=O)(=O)[O-])c6F)c6nc(c(-c7cccc(S(=O)(=O)[O-])c7F)c7ccc4[nH]7)C=C6)C=C5)cc3)c2)c(OC)cc1C
REMARK SMILES IDX 18 1 17 2 15 3 16 4 14 6 10 7 11 8 87 9 12 10 13 11 9 12
REMARK SMILES IDX 6 14 7 15 8 16 5 17 3 18 4 19 92 20 91 21 93 22 88 23 2 24
REMARK SMILES IDX 1 25 89 26 90 27 19 28 20 29 21 30 22 31 23 33 24 34 25 35
REMARK SMILES IDX 86 36 26 37 85 38 27 39 28 40 29 41 79 42 30 43 84 44 78 45
REMARK SMILES IDX 80 46 31 47 83 48 77 49 76 50 32 52 64 53 44 54 63 55 45 56
REMARK SMILES IDX 48 57 62 58 81 59 46 60 47 61 61 63 82 64 49 65 33 66 34 67
REMARK SMILES IDX 42 68 35 69 37 70 43 71 36 72 38 73 39 74 40 75 41 76 65 77
REMARK SMILES IDX 66 78 74 79 67 80 69 81 75 82 68 83 70 84 71 85 72 86 73 87
REMARK SMILES IDX 50 88 51 89 59 90 52 91 54 92 60 93 53 94 55 95 56 96 57 97
REMARK SMILES IDX 58 98
REMARK H PARENT 17 5 9 13 21 32 80 51 48 62
REMARK Flexibility Score: inf
ROOT
ATOM      1  C   UNL A   1      32.282  29.916  26.118  1.00  0.00     0.118 C 
ENDROOT
BRANCH   1   2
ATOM      2  N   UNL A   1      32.718  29.763  24.740  1.00  0.00    -0.352 N 
ATOM      3  C   UNL A   1      32.333  28.862  23.776  1.00  0.00     0.251 C 
ATOM      4  O   UNL A   1      32.689  29.028  22.612  1.00  0.00    -0.269 OA
ATOM      5  H   UNL A   1      33.400  30.410  24.450  1.00  0.00     0.163 HD
BRANCH   3   6
ATOM      6  C   UNL A   1      31.415  27.739  24.078  1.00  0.00     0.041 A 
ATOM      7  C   UNL A   1      31.197  25.480  24.942  1.00  0.00     0.050 A 
ATOM      8  C   UNL A   1      29.838  25.492  24.636  1.00  0.00     0.027 A 
ATOM      9  C   UNL A   1      31.964  26.630  24.728  1.00  0.00     0.040 A 
ATOM     10  C   UNL A   1      29.269  26.625  24.047  1.00  0.00     0.003 A 
ATOM     11  C   UNL A   1      30.056  27.744  23.767  1.00  0.00     0.014 A 
BRANCH   7  12
ATOM     12  N   UNL A   1      31.892  24.344  25.440  1.00  0.00    -0.279 N 
ATOM     13  H   UNL A   1      32.531  24.491  26.173  1.00  0.00     0.180 HD
BRANCH  12  14
ATOM     14  S   UNL A   1      31.709  22.782  24.881  1.00  0.00     0.265 S 
ATOM     15  O   UNL A   1      31.505  22.845  23.447  1.00  0.00    -0.201 OA
ATOM     16  O   UNL A   1      30.694  22.188  25.731  1.00  0.00    -0.201 OA
BRANCH  14  17
ATOM     17  C   UNL A   1      33.180  21.812  25.128  1.00  0.00     0.133 A 
ATOM     18  C   UNL A   1      34.101  19.574  24.949  1.00  0.00     0.123 A 
ATOM     19  C   UNL A   1      33.007  20.432  24.924  1.00  0.00     0.073 A 
ATOM     20  C   UNL A   1      35.395  20.087  25.008  1.00  0.00    -0.005 A 
ATOM     21  C   UNL A   1      35.550  21.447  25.304  1.00  0.00     0.055 A 
ATOM     22  C   UNL A   1      36.616  19.237  24.820  1.00  0.00     0.048 C 
ATOM     23  C   UNL A   1      34.447  22.305  25.445  1.00  0.00     0.139 A 
BRANCH  18  24
ATOM     24  O   UNL A   1      33.847  18.231  24.888  1.00  0.00    -0.496 OA
ATOM     25  C   UNL A   1      32.507  17.961  25.323  1.00  0.00     0.278 C 
ENDBRANCH  18  24
BRANCH  23  26
ATOM     26  O   UNL A   1      34.562  23.568  25.943  1.00  0.00    -0.495 OA
ATOM     27  C   UNL A   1      35.492  24.445  25.316  1.00  0.00     0.278 C 
ENDBRANCH  23  26
ENDBRANCH  14  17
ENDBRANCH  12  14
ENDBRANCH   7  12
ENDBRANCH   3   6
ENDBRANCH   1   2
BRANCH   1  28
ATOM     28  C   UNL A   1      33.045  30.996  26.869  1.00  0.00     0.042 C 
BRANCH  28  29
ATOM     29  C   UNL A   1      34.250  30.468  27.630  1.00  0.00     0.118 C 
BRANCH  29  30
ATOM     30  N   UNL A   1      35.184  31.521  28.013  1.00  0.00    -0.352 N 
ATOM     31  C   UNL A   1      36.496  31.415  28.431  1.00  0.00     0.251 C 
ATOM     32  H   UNL A   1      34.829  32.438  27.966  1.00  0.00     0.163 HD
ATOM     33  O   UNL A   1      37.106  32.432  28.755  1.00  0.00    -0.269 OA
BRANCH  31  34
ATOM     34  C   UNL A   1      37.171  30.098  28.362  1.00  0.00     0.039 A 
ATOM     35  C   UNL A   1      37.201  29.305  29.515  1.00  0.00     0.014 A 
ATOM     36  C   UNL A   1      37.958  29.770  27.262  1.00  0.00     0.014 A 
ATOM     37  C   UNL A   1      38.196  28.340  29.656  1.00  0.00     0.010 A 
ATOM     38  C   UNL A   1      39.009  28.897  27.440  1.00  0.00     0.010 A 
ATOM     39  C   UNL A   1      39.164  28.228  28.661  1.00  0.00    -0.014 A 
BRANCH  39  40
ATOM     40  C   UNL A   1      40.431  27.529  28.821  1.00  0.00     0.031 A 
ATOM     41  C   UNL A   1      40.526  26.076  28.587  1.00  0.00     0.074 A 
ATOM     42  C   UNL A   1      41.553  28.262  28.992  1.00  0.00     0.049 A 
ATOM     43  N   UNL A   1      41.509  25.339  28.984  1.00  0.00    -0.248 NA
ATOM     44  C   UNL A   1      39.483  25.331  27.899  1.00  0.00     0.031 C 
ATOM     45  C   UNL A   1      42.928  27.834  28.766  1.00  0.00     0.029 A 
ATOM     46  N   UNL A   1      41.679  29.499  29.635  1.00  0.00    -0.354 N 
ATOM     47  C   UNL A   1      41.375  24.108  28.376  1.00  0.00     0.074 A 
ATOM     48  C   UNL A   1      40.064  24.135  27.771  1.00  0.00     0.031 C 
ATOM     49  C   UNL A   1      43.743  28.611  29.494  1.00  0.00     0.029 A 
ATOM     50  C   UNL A   1      42.900  29.450  30.328  1.00  0.00     0.049 A 
ATOM     51  H   UNL A   1      41.042  30.249  29.606  1.00  0.00     0.167 HD
ATOM     52  C   UNL A   1      42.450  23.269  28.327  1.00  0.00     0.034 A 
ATOM     53  C   UNL A   1      43.013  29.594  31.680  1.00  0.00     0.034 A 
ATOM     54  C   UNL A   1      43.590  23.825  29.069  1.00  0.00     0.049 A 
ATOM     55  C   UNL A   1      43.697  28.422  32.355  1.00  0.00     0.074 A 
ATOM     56  C   UNL A   1      44.723  24.521  28.675  1.00  0.00     0.029 A 
ATOM     57  N   UNL A   1      43.527  23.929  30.452  1.00  0.00    -0.354 N 
ATOM     58  N   UNL A   1      44.007  27.306  31.754  1.00  0.00    -0.248 NA
ATOM     59  C   UNL A   1      44.056  28.398  33.771  1.00  0.00     0.031 C 
ATOM     60  C   UNL A   1      45.299  25.112  29.830  1.00  0.00     0.029 A 
ATOM     61  C   UNL A   1      44.530  24.759  30.926  1.00  0.00     0.049 A 
ATOM     62  H   UNL A   1      42.860  23.476  31.018  1.00  0.00     0.167 HD
ATOM     63  C   UNL A   1      44.447  26.388  32.673  1.00  0.00     0.074 A 
ATOM     64  C   UNL A   1      44.544  27.151  33.905  1.00  0.00     0.031 C 
ATOM     65  C   UNL A   1      44.621  25.067  32.350  1.00  0.00     0.034 A 
BRANCH  52  66
ATOM     66  C   UNL A   1      42.596  22.110  27.349  1.00  0.00     0.023 A 
ATOM     67  C   UNL A   1      41.760  20.986  27.542  1.00  0.00     0.012 A 
ATOM     68  C   UNL A   1      43.540  21.996  26.306  1.00  0.00     0.148 A 
ATOM     69  C   UNL A   1      41.931  19.785  26.843  1.00  0.00     0.002 A 
ATOM     70  C   UNL A   1      43.771  20.775  25.664  1.00  0.00     0.091 A 
ATOM     71  F   UNL A   1      44.157  23.087  25.846  1.00  0.00    -0.205 F 
ATOM     72  C   UNL A   1      42.971  19.663  25.935  1.00  0.00     0.022 A 
BRANCH  70  73
ATOM     73  S   UNL A   1      45.163  20.526  24.546  1.00  0.00     0.127 S 
ATOM     74  O   UNL A   1      45.330  19.071  24.578  1.00  0.00    -0.237 OA
ATOM     75  O   UNL A   1      44.650  21.049  23.282  1.00  0.00    -0.237 OA
ATOM     76  O   UNL A   1      46.279  21.261  25.128  1.00  0.00    -0.744 OA
ENDBRANCH  70  73
ENDBRANCH  52  66
BRANCH  53  77
ATOM     77  C   UNL A   1      41.958  30.456  32.287  1.00  0.00     0.023 A 
ATOM     78  C   UNL A   1      41.964  31.822  31.917  1.00  0.00     0.012 A 
ATOM     79  C   UNL A   1      40.799  29.917  32.871  1.00  0.00     0.148 A 
ATOM     80  C   UNL A   1      40.811  32.600  32.016  1.00  0.00     0.002 A 
ATOM     81  C   UNL A   1      39.650  30.703  32.968  1.00  0.00     0.091 A 
ATOM     82  F   UNL A   1      40.807  28.631  33.244  1.00  0.00    -0.205 F 
ATOM     83  C   UNL A   1      39.646  32.032  32.512  1.00  0.00     0.022 A 
BRANCH  81  84
ATOM     84  S   UNL A   1      38.084  30.027  33.542  1.00  0.00     0.127 S 
ATOM     85  O   UNL A   1      38.181  30.250  34.982  1.00  0.00    -0.237 OA
ATOM     86  O   UNL A   1      37.109  30.869  32.851  1.00  0.00    -0.237 OA
ATOM     87  O   UNL A   1      38.095  28.641  33.098  1.00  0.00    -0.744 OA
ENDBRANCH  81  84
ENDBRANCH  53  77
BRANCH  65  88
ATOM     88  C   UNL A   1      44.864  23.935  33.335  1.00  0.00     0.023 A 
ATOM     89  C   UNL A   1      43.886  22.964  33.626  1.00  0.00     0.012 A 
ATOM     90  C   UNL A   1      46.152  23.719  33.892  1.00  0.00     0.148 A 
ATOM     91  C   UNL A   1      44.148  21.870  34.461  1.00  0.00     0.002 A 
ATOM     92  C   UNL A   1      46.437  22.573  34.633  1.00  0.00     0.091 A 
ATOM     93  F   UNL A   1      47.118  24.634  33.722  1.00  0.00    -0.205 F 
ATOM     94  C   UNL A   1      45.430  21.659  34.945  1.00  0.00     0.022 A 
BRANCH  92  95
ATOM     95  S   UNL A   1      48.137  22.162  35.062  1.00  0.00     0.127 S 
ATOM     96  O   UNL A   1      47.982  21.536  36.373  1.00  0.00    -0.237 OA
ATOM     97  O   UNL A   1      48.527  21.241  33.993  1.00  0.00    -0.237 OA
ATOM     98  O   UNL A   1      48.838  23.439  35.031  1.00  0.00    -0.744 OA
ENDBRANCH  92  95
ENDBRANCH  65  88
ENDBRANCH  39  40
ENDBRANCH  31  34
ENDBRANCH  29  30
ENDBRANCH  28  29
ENDBRANCH   1  28
TORSDOF 18
ENDMDL
MODEL 3
REMARK VINA RESULT:     -12.5      1.680      2.491
REMARK SMILES COc1cc(S(=O)(=O)Nc2cccc(C(=O)NCCCNC(=O)c3ccc(-c4c5nc(c(-c6cccc(S(=O)(=O)[O-])c6F)c6ccc([nH]6)c(-c6cccc(S(=O)(=O)[O-])c6F)c6nc(c(-c7cccc(S(=O)(=O)[O-])c7F)c7ccc4[nH]7)C=C6)C=C5)cc3)c2)c(OC)cc1C
REMARK SMILES IDX 18 1 17 2 15 3 16 4 14 6 10 7 11 8 87 9 12 10 13 11 9 12
REMARK SMILES IDX 6 14 7 15 8 16 5 17 3 18 4 19 92 20 91 21 93 22 88 23 2 24
REMARK SMILES IDX 1 25 89 26 90 27 19 28 20 29 21 30 22 31 23 33 24 34 25 35
REMARK SMILES IDX 86 36 26 37 85 38 27 39 28 40 29 41 79 42 30 43 84 44 78 45
REMARK SMILES IDX 80 46 31 47 83 48 77 49 76 50 32 52 64 53 44 54 63 55 45 56
REMARK SMILES IDX 48 57 62 58 81 59 46 60 47 61 61 63 82 64 49 65 33 66 34 67
REMARK SMILES IDX 42 68 35 69 37 70 43 71 36 72 38 73 39 74 40 75 41 76 65 77
REMARK SMILES IDX 66 78 74 79 67 80 69 81 75 82 68 83 70 84 71 85 72 86 73 87
REMARK SMILES IDX 50 88 51 89 59 90 52 91 54 92 60 93 53 94 55 95 56 96 57 97
REMARK SMILES IDX 58 98
REMARK H PARENT 17 5 9 13 21 32 80 51 48 62
REMARK Flexibility Score: inf
ROOT
ATOM      1  C   UNL A   1      31.981  30.225  26.842  1.00  0.00     0.118 C 
ENDROOT
BRANCH   1   2
ATOM      2  N   UNL A   1      31.529  30.153  25.462  1.00  0.00    -0.352 N 
ATOM      3  C   UNL A   1      31.294  29.067  24.654  1.00  0.00     0.251 C 
ATOM      4  O   UNL A   1      30.729  29.223  23.574  1.00  0.00    -0.269 OA
ATOM      5  H   UNL A   1      31.365  31.026  25.038  1.00  0.00     0.163 HD
BRANCH   3   6
ATOM      6  C   UNL A   1      31.614  27.686  25.087  1.00  0.00     0.041 A 
ATOM      7  C   UNL A   1      32.711  25.593  24.527  1.00  0.00     0.050 A 
ATOM      8  C   UNL A   1      32.241  25.028  25.711  1.00  0.00     0.027 A 
ATOM      9  C   UNL A   1      32.455  26.941  24.256  1.00  0.00     0.040 A 
ATOM     10  C   UNL A   1      31.455  25.790  26.580  1.00  0.00     0.003 A 
ATOM     11  C   UNL A   1      31.141  27.115  26.267  1.00  0.00     0.014 A 
BRANCH   7  12
ATOM     12  N   UNL A   1      33.423  24.874  23.529  1.00  0.00    -0.279 N 
ATOM     13  H   UNL A   1      34.302  25.226  23.258  1.00  0.00     0.180 HD
BRANCH  12  14
ATOM     14  S   UNL A   1      32.890  23.482  22.779  1.00  0.00     0.265 S 
ATOM     15  O   UNL A   1      33.511  23.416  21.471  1.00  0.00    -0.201 OA
ATOM     16  O   UNL A   1      31.444  23.516  22.893  1.00  0.00    -0.201 OA
BRANCH  14  17
ATOM     17  C   UNL A   1      33.412  22.019  23.646  1.00  0.00     0.133 A 
ATOM     18  C   UNL A   1      33.013  19.636  23.883  1.00  0.00     0.123 A 
ATOM     19  C   UNL A   1      32.636  20.878  23.381  1.00  0.00     0.073 A 
ATOM     20  C   UNL A   1      34.246  19.479  24.510  1.00  0.00    -0.005 A 
ATOM     21  C   UNL A   1      34.964  20.632  24.851  1.00  0.00     0.055 A 
ATOM     22  C   UNL A   1      34.805  18.137  24.877  1.00  0.00     0.048 C 
ATOM     23  C   UNL A   1      34.517  21.915  24.493  1.00  0.00     0.139 A 
BRANCH  18  24
ATOM     24  O   UNL A   1      32.139  18.598  23.711  1.00  0.00    -0.496 OA
ATOM     25  C   UNL A   1      32.225  18.097  22.370  1.00  0.00     0.278 C 
ENDBRANCH  18  24
BRANCH  23  26
ATOM     26  O   UNL A   1      35.077  23.050  24.996  1.00  0.00    -0.495 OA
ATOM     27  C   UNL A   1      35.960  22.918  26.105  1.00  0.00     0.278 C 
ENDBRANCH  23  26
ENDBRANCH  14  17
ENDBRANCH  12  14
ENDBRANCH   7  12
ENDBRANCH   3   6
ENDBRANCH   1   2
BRANCH   1  28
ATOM     28  C   UNL A   1      32.690  31.529  27.170  1.00  0.00     0.042 C 
BRANCH  28  29
ATOM     29  C   UNL A   1      34.168  31.354  27.479  1.00  0.00     0.118 C 
BRANCH  29  30
ATOM     30  N   UNL A   1      34.585  32.073  28.677  1.00  0.00    -0.352 N 
ATOM     31  C   UNL A   1      35.557  31.742  29.601  1.00  0.00     0.251 C 
ATOM     32  H   UNL A   1      34.106  32.916  28.853  1.00  0.00     0.163 HD
ATOM     33  O   UNL A   1      35.726  32.468  30.578  1.00  0.00    -0.269 OA
BRANCH  31  34
ATOM     34  C   UNL A   1      36.448  30.591  29.329  1.00  0.00     0.039 A 
ATOM     35  C   UNL A   1      36.774  29.737  30.388  1.00  0.00     0.014 A 
ATOM     36  C   UNL A   1      37.132  30.504  28.120  1.00  0.00     0.014 A 
ATOM     37  C   UNL A   1      37.940  28.977  30.321  1.00  0.00     0.010 A 
ATOM     38  C   UNL A   1      38.340  29.843  28.091  1.00  0.00     0.010 A 
ATOM     39  C   UNL A   1      38.774  29.129  29.216  1.00  0.00    -0.014 A 
BRANCH  39  40
ATOM     40  C   UNL A   1      40.158  28.681  29.162  1.00  0.00     0.031 A 
ATOM     41  C   UNL A   1      40.484  27.268  28.893  1.00  0.00     0.074 A 
ATOM     42  C   UNL A   1      41.137  29.613  29.165  1.00  0.00     0.049 A 
ATOM     43  N   UNL A   1      41.637  26.733  29.117  1.00  0.00    -0.248 NA
ATOM     44  C   UNL A   1      39.502  26.331  28.368  1.00  0.00     0.031 C 
ATOM     45  C   UNL A   1      42.514  29.445  28.716  1.00  0.00     0.029 A 
ATOM     46  N   UNL A   1      41.130  30.861  29.798  1.00  0.00    -0.354 N 
ATOM     47  C   UNL A   1      41.640  25.489  28.519  1.00  0.00     0.074 A 
ATOM     48  C   UNL A   1      40.268  25.263  28.130  1.00  0.00     0.031 C 
ATOM     49  C   UNL A   1      43.274  30.371  29.318  1.00  0.00     0.029 A 
ATOM     50  C   UNL A   1      42.433  31.049  30.288  1.00  0.00     0.049 A 
ATOM     51  H   UNL A   1      40.369  31.478  29.883  1.00  0.00     0.167 HD
ATOM     52  C   UNL A   1      42.831  24.865  28.287  1.00  0.00     0.034 A 
ATOM     53  C   UNL A   1      42.730  31.232  31.607  1.00  0.00     0.034 A 
ATOM     54  C   UNL A   1      43.951  25.635  28.847  1.00  0.00     0.049 A 
ATOM     55  C   UNL A   1      43.720  30.217  32.147  1.00  0.00     0.074 A 
ATOM     56  C   UNL A   1      44.856  26.524  28.289  1.00  0.00     0.029 A 
ATOM     57  N   UNL A   1      44.089  25.745  30.224  1.00  0.00    -0.354 N 
ATOM     58  N   UNL A   1      44.132  29.170  31.486  1.00  0.00    -0.248 NA
ATOM     59  C   UNL A   1      44.297  30.281  33.487  1.00  0.00     0.031 C 
ATOM     60  C   UNL A   1      45.488  27.228  29.347  1.00  0.00     0.029 A 
ATOM     61  C   UNL A   1      44.983  26.754  30.546  1.00  0.00     0.049 A 
ATOM     62  H   UNL A   1      43.617  25.184  30.881  1.00  0.00     0.167 HD
ATOM     63  C   UNL A   1      44.876  28.363  32.309  1.00  0.00     0.074 A 
ATOM     64  C   UNL A   1      45.023  29.149  33.522  1.00  0.00     0.031 C 
ATOM     65  C   UNL A   1      45.240  27.094  31.942  1.00  0.00     0.034 A 
BRANCH  52  66
ATOM     66  C   UNL A   1      43.033  23.740  27.280  1.00  0.00     0.023 A 
ATOM     67  C   UNL A   1      43.653  24.070  26.052  1.00  0.00     0.012 A 
ATOM     68  C   UNL A   1      42.596  22.404  27.403  1.00  0.00     0.148 A 
ATOM     69  C   UNL A   1      43.716  23.180  24.973  1.00  0.00     0.002 A 
ATOM     70  C   UNL A   1      42.581  21.538  26.304  1.00  0.00     0.091 A 
ATOM     71  F   UNL A   1      42.284  21.915  28.606  1.00  0.00    -0.205 F 
ATOM     72  C   UNL A   1      43.136  21.927  25.083  1.00  0.00     0.022 A 
BRANCH  70  73
ATOM     73  S   UNL A   1      41.759  19.935  26.355  1.00  0.00     0.127 S 
ATOM     74  O   UNL A   1      42.302  19.270  25.167  1.00  0.00    -0.237 OA
ATOM     75  O   UNL A   1      42.223  19.383  27.625  1.00  0.00    -0.237 OA
ATOM     76  O   UNL A   1      40.331  20.216  26.271  1.00  0.00    -0.744 OA
ENDBRANCH  70  73
ENDBRANCH  52  66
BRANCH  53  77
ATOM     77  C   UNL A   1      41.643  31.890  32.388  1.00  0.00     0.023 A 
ATOM     78  C   UNL A   1      41.381  33.249  32.089  1.00  0.00     0.012 A 
ATOM     79  C   UNL A   1      40.675  31.152  33.088  1.00  0.00     0.148 A 
ATOM     80  C   UNL A   1      40.143  33.823  32.374  1.00  0.00     0.002 A 
ATOM     81  C   UNL A   1      39.439  31.735  33.372  1.00  0.00     0.091 A 
ATOM     82  F   UNL A   1      40.938  29.874  33.392  1.00  0.00    -0.205 F 
ATOM     83  C   UNL A   1      39.161  33.057  32.987  1.00  0.00     0.022 A 
BRANCH  81  84
ATOM     84  S   UNL A   1      38.094  30.793  34.108  1.00  0.00     0.127 S 
ATOM     85  O   UNL A   1      38.267  31.097  35.526  1.00  0.00    -0.237 OA
ATOM     86  O   UNL A   1      36.915  31.397  33.487  1.00  0.00    -0.237 OA
ATOM     87  O   UNL A   1      38.340  29.417  33.703  1.00  0.00    -0.744 OA
ENDBRANCH  81  84
ENDBRANCH  53  77
BRANCH  65  88
ATOM     88  C   UNL A   1      45.842  26.041  32.858  1.00  0.00     0.023 A 
ATOM     89  C   UNL A   1      47.229  25.934  33.076  1.00  0.00     0.012 A 
ATOM     90  C   UNL A   1      45.012  25.213  33.660  1.00  0.00     0.148 A 
ATOM     91  C   UNL A   1      47.772  25.025  33.993  1.00  0.00     0.002 A 
ATOM     92  C   UNL A   1      45.551  24.389  34.648  1.00  0.00     0.091 A 
ATOM     93  F   UNL A   1      43.686  25.203  33.465  1.00  0.00    -0.205 F 
ATOM     94  C   UNL A   1      46.933  24.270  34.798  1.00  0.00     0.022 A 
BRANCH  92  95
ATOM     95  S   UNL A   1      44.480  23.591  35.855  1.00  0.00     0.127 S 
ATOM     96  O   UNL A   1      43.764  24.726  36.430  1.00  0.00    -0.237 OA
ATOM     97  O   UNL A   1      43.656  22.711  35.024  1.00  0.00    -0.237 OA
ATOM     98  O   UNL A   1      45.395  22.883  36.741  1.00  0.00    -0.744 OA
ENDBRANCH  92  95
ENDBRANCH  65  88
ENDBRANCH  39  40
ENDBRANCH  31  34
ENDBRANCH  29  30
ENDBRANCH  28  29
ENDBRANCH   1  28
TORSDOF 18
ENDMDL
