MODEL 1
REMARK VINA RESULT:     -10.4      0.000      0.000
REMARK SMILES CCCCCCNC(=O)Oc1cccc(-c2ccc([C@@H](C)C(=O)NCCCNC(=O)c3ccc(-c4c5nc(c(-c6cccc(S(=O)(=O)[O-])c6F)c6ccc([nH]6)c(-c6cccc(S(=O)(=O)[O-])c6F)c6nc(c(-c7cccc(S(=O)(=O)[O-])c7F)c7ccc4[nH]7)C=C6)C=C5)cc3)cc2F)c1
REMARK SMILES IDX 20 1 21 2 19 3 16 4 17 5 95 6 18 7 94 8 96 9 15 10 11 11
REMARK SMILES IDX 12 12 97 13 13 14 14 15 10 16 8 17 7 18 9 20 6 21 5 22 4 23
REMARK SMILES IDX 3 24 2 25 1 26 22 27 23 28 24 29 25 31 26 32 27 33 28 34
REMARK SMILES IDX 29 35 30 37 31 38 32 39 93 40 33 41 92 42 34 43 35 44 36 45
REMARK SMILES IDX 86 46 37 47 91 48 85 49 87 50 38 51 90 52 84 53 83 54 39 56
REMARK SMILES IDX 71 57 51 58 70 59 52 60 55 61 69 62 88 63 53 64 54 65 68 67
REMARK SMILES IDX 89 68 56 69 40 70 41 71 49 72 42 73 44 74 50 75 43 76 45 77
REMARK SMILES IDX 46 78 47 79 48 80 72 81 73 82 81 83 74 84 76 85 82 86 75 87
REMARK SMILES IDX 77 88 78 89 79 90 80 91 57 92 58 93 66 94 59 95 61 96 67 97
REMARK SMILES IDX 60 98 62 99 63 100 64 101 65 102
REMARK H PARENT 7 19 24 30 28 36 87 55 55 66
REMARK Flexibility Score: inf
ROOT
ATOM      1  C   UNL A   1      35.535  32.828  29.489  1.00  0.00     0.105 C 
ATOM      2  C   UNL A   1      36.674  33.653  28.892  1.00  0.00     0.023 C 
ENDROOT
BRANCH   1   3
ATOM      3  C   UNL A   1      35.063  31.666  28.632  1.00  0.00    -0.033 A 
ATOM      4  C   UNL A   1      34.155  29.562  26.915  1.00  0.00     0.018 A 
ATOM      5  C   UNL A   1      35.363  29.469  27.623  1.00  0.00     0.012 A 
ATOM      6  C   UNL A   1      33.407  30.733  27.111  1.00  0.00     0.131 A 
ATOM      7  C   UNL A   1      35.786  30.480  28.495  1.00  0.00     0.005 A 
ATOM      8  C   UNL A   1      33.857  31.773  27.928  1.00  0.00     0.044 A 
ATOM      9  F   UNL A   1      32.208  30.889  26.527  1.00  0.00    -0.206 F 
BRANCH   4  10
ATOM     10  C   UNL A   1      33.721  28.473  26.014  1.00  0.00    -0.012 A 
ATOM     11  C   UNL A   1      32.624  26.336  25.641  1.00  0.00     0.133 A 
ATOM     12  C   UNL A   1      32.871  26.409  24.276  1.00  0.00     0.047 A 
ATOM     13  C   UNL A   1      33.044  27.345  26.506  1.00  0.00     0.056 A 
ATOM     14  C   UNL A   1      33.523  27.521  23.762  1.00  0.00     0.004 A 
ATOM     15  C   UNL A   1      33.952  28.534  24.622  1.00  0.00     0.009 A 
BRANCH  11  16
ATOM     16  O   UNL A   1      32.039  25.156  26.115  1.00  0.00    -0.410 OA
BRANCH  16  17
ATOM     17  C   UNL A   1      30.685  24.956  25.893  1.00  0.00     0.412 C 
ATOM     18  N   UNL A   1      30.327  23.638  25.990  1.00  0.00    -0.321 N 
ATOM     19  H   UNL A   1      29.383  23.419  25.813  1.00  0.00     0.167 HD
ATOM     20  O   UNL A   1      29.841  25.820  25.691  1.00  0.00    -0.224 OA
BRANCH  18  21
ATOM     21  C   UNL A   1      31.201  22.536  26.330  1.00  0.00     0.119 C 
BRANCH  21  22
ATOM     22  C   UNL A   1      31.623  21.761  25.080  1.00  0.00     0.021 C 
BRANCH  22  23
ATOM     23  C   UNL A   1      31.638  22.593  23.792  1.00  0.00     0.002 C 
BRANCH  23  24
ATOM     24  C   UNL A   1      32.730  22.217  22.782  1.00  0.00    -0.000 C 
BRANCH  24  25
ATOM     25  C   UNL A   1      33.837  23.258  22.599  1.00  0.00    -0.003 C 
ATOM     26  C   UNL A   1      34.994  23.079  23.570  1.00  0.00     0.004 C 
ENDBRANCH  24  25
ENDBRANCH  23  24
ENDBRANCH  22  23
ENDBRANCH  21  22
ENDBRANCH  18  21
ENDBRANCH  16  17
ENDBRANCH  11  16
ENDBRANCH   4  10
ENDBRANCH   1   3
BRANCH   1  27
ATOM     27  C   UNL A   1      34.397  33.657  30.101  1.00  0.00     0.227 C 
ATOM     28  O   UNL A   1      33.732  34.412  29.380  1.00  0.00    -0.274 OA
ATOM     29  N   UNL A   1      34.034  33.606  31.410  1.00  0.00    -0.356 N 
ATOM     30  H   UNL A   1      33.255  34.167  31.632  1.00  0.00     0.163 HD
BRANCH  29  31
ATOM     31  C   UNL A   1      34.579  32.882  32.541  1.00  0.00     0.117 C 
BRANCH  31  32
ATOM     32  C   UNL A   1      35.921  33.442  32.999  1.00  0.00     0.042 C 
BRANCH  32  33
ATOM     33  C   UNL A   1      36.878  32.378  33.517  1.00  0.00     0.118 C 
BRANCH  33  34
ATOM     34  N   UNL A   1      36.518  31.042  33.052  1.00  0.00    -0.352 N 
ATOM     35  C   UNL A   1      37.123  30.246  32.109  1.00  0.00     0.251 C 
ATOM     36  H   UNL A   1      35.720  30.653  33.477  1.00  0.00     0.163 HD
ATOM     37  O   UNL A   1      36.545  29.241  31.705  1.00  0.00    -0.269 OA
BRANCH  35  38
ATOM     38  C   UNL A   1      38.457  30.600  31.575  1.00  0.00     0.039 A 
ATOM     39  C   UNL A   1      38.607  30.837  30.204  1.00  0.00     0.014 A 
ATOM     40  C   UNL A   1      39.565  30.676  32.421  1.00  0.00     0.014 A 
ATOM     41  C   UNL A   1      39.856  31.213  29.695  1.00  0.00     0.010 A 
ATOM     42  C   UNL A   1      40.781  31.136  31.929  1.00  0.00     0.010 A 
ATOM     43  C   UNL A   1      40.945  31.394  30.560  1.00  0.00    -0.014 A 
BRANCH  43  44
ATOM     44  C   UNL A   1      42.285  31.813  30.076  1.00  0.00     0.031 A 
ATOM     45  C   UNL A   1      42.554  33.276  29.829  1.00  0.00     0.074 A 
ATOM     46  C   UNL A   1      43.206  30.887  29.742  1.00  0.00     0.049 A 
ATOM     47  N   UNL A   1      43.569  33.842  29.232  1.00  0.00    -0.248 NA
ATOM     48  C   UNL A   1      41.520  34.224  30.281  1.00  0.00     0.031 C 
ATOM     49  C   UNL A   1      43.046  29.439  29.883  1.00  0.00     0.029 A 
ATOM     50  N   UNL A   1      44.449  31.029  29.176  1.00  0.00    -0.354 N 
ATOM     51  C   UNL A   1      43.270  35.199  29.184  1.00  0.00     0.074 A 
ATOM     52  C   UNL A   1      41.967  35.368  29.787  1.00  0.00     0.031 C 
ATOM     53  C   UNL A   1      44.143  28.826  29.408  1.00  0.00     0.029 A 
ATOM     54  C   UNL A   1      45.065  29.832  28.893  1.00  0.00     0.049 A 
ATOM     55  H   UNL A   1      44.859  31.905  28.989  1.00  0.00     0.167 HD
ATOM     56  C   UNL A   1      44.022  36.217  28.701  1.00  0.00     0.034 A 
ATOM     57  C   UNL A   1      46.231  29.576  28.267  1.00  0.00     0.034 A 
ATOM     58  C   UNL A   1      45.342  36.048  28.159  1.00  0.00     0.049 A 
ATOM     59  C   UNL A   1      47.062  30.729  27.771  1.00  0.00     0.074 A 
ATOM     60  C   UNL A   1      46.223  37.020  27.722  1.00  0.00     0.029 A 
ATOM     61  N   UNL A   1      45.973  34.826  27.984  1.00  0.00    -0.354 N 
ATOM     62  N   UNL A   1      46.819  32.015  27.843  1.00  0.00    -0.248 NA
ATOM     63  C   UNL A   1      48.345  30.397  27.132  1.00  0.00     0.031 C 
ATOM     64  C   UNL A   1      47.382  36.385  27.268  1.00  0.00     0.029 A 
ATOM     65  C   UNL A   1      47.233  35.019  27.450  1.00  0.00     0.049 A 
ATOM     66  H   UNL A   1      45.581  33.951  28.208  1.00  0.00     0.167 HD
ATOM     67  C   UNL A   1      47.935  32.646  27.307  1.00  0.00     0.074 A 
ATOM     68  C   UNL A   1      48.861  31.602  26.918  1.00  0.00     0.031 C 
ATOM     69  C   UNL A   1      48.172  33.970  27.144  1.00  0.00     0.034 A 
BRANCH  56  70
ATOM     70  C   UNL A   1      43.458  37.611  28.792  1.00  0.00     0.023 A 
ATOM     71  C   UNL A   1      43.717  38.393  29.936  1.00  0.00     0.012 A 
ATOM     72  C   UNL A   1      42.722  38.167  27.728  1.00  0.00     0.148 A 
ATOM     73  C   UNL A   1      43.217  39.690  30.038  1.00  0.00     0.002 A 
ATOM     74  C   UNL A   1      42.268  39.478  27.817  1.00  0.00     0.091 A 
ATOM     75  F   UNL A   1      42.468  37.404  26.656  1.00  0.00    -0.205 F 
ATOM     76  C   UNL A   1      42.503  40.236  28.977  1.00  0.00     0.022 A 
BRANCH  74  77
ATOM     77  S   UNL A   1      41.411  40.302  26.469  1.00  0.00     0.127 S 
ATOM     78  O   UNL A   1      42.524  40.914  25.744  1.00  0.00    -0.237 OA
ATOM     79  O   UNL A   1      40.776  39.181  25.776  1.00  0.00    -0.237 OA
ATOM     80  O   UNL A   1      40.484  41.234  27.094  1.00  0.00    -0.744 OA
ENDBRANCH  74  77
ENDBRANCH  56  70
BRANCH  57  81
ATOM     81  C   UNL A   1      46.717  28.174  28.121  1.00  0.00     0.023 A 
ATOM     82  C   UNL A   1      47.526  27.621  29.131  1.00  0.00     0.012 A 
ATOM     83  C   UNL A   1      46.393  27.392  26.996  1.00  0.00     0.148 A 
ATOM     84  C   UNL A   1      48.038  26.328  29.009  1.00  0.00     0.002 A 
ATOM     85  C   UNL A   1      46.876  26.092  26.897  1.00  0.00     0.091 A 
ATOM     86  F   UNL A   1      45.597  27.925  26.060  1.00  0.00    -0.205 F 
ATOM     87  C   UNL A   1      47.712  25.564  27.893  1.00  0.00     0.022 A 
BRANCH  85  88
ATOM     88  S   UNL A   1      46.476  25.015  25.518  1.00  0.00     0.127 S 
ATOM     89  O   UNL A   1      47.249  25.604  24.426  1.00  0.00    -0.237 OA
ATOM     90  O   UNL A   1      46.975  23.725  25.993  1.00  0.00    -0.237 OA
ATOM     91  O   UNL A   1      45.033  25.109  25.349  1.00  0.00    -0.744 OA
ENDBRANCH  85  88
ENDBRANCH  57  81
BRANCH  69  92
ATOM     92  C   UNL A   1      49.509  34.388  26.595  1.00  0.00     0.023 A 
ATOM     93  C   UNL A   1      49.657  34.657  25.221  1.00  0.00     0.012 A 
ATOM     94  C   UNL A   1      50.591  34.615  27.469  1.00  0.00     0.148 A 
ATOM     95  C   UNL A   1      50.870  35.129  24.722  1.00  0.00     0.002 A 
ATOM     96  C   UNL A   1      51.780  35.132  26.971  1.00  0.00     0.091 A 
ATOM     97  F   UNL A   1      50.431  34.333  28.770  1.00  0.00    -0.205 F 
ATOM     98  C   UNL A   1      51.926  35.380  25.597  1.00  0.00     0.022 A 
BRANCH  96  99
ATOM     99  S   UNL A   1      53.155  35.582  28.037  1.00  0.00     0.127 S 
ATOM    100  O   UNL A   1      52.514  36.500  28.977  1.00  0.00    -0.237 OA
ATOM    101  O   UNL A   1      53.536  34.290  28.610  1.00  0.00    -0.237 OA
ATOM    102  O   UNL A   1      54.160  36.180  27.170  1.00  0.00    -0.744 OA
ENDBRANCH  96  99
ENDBRANCH  69  92
ENDBRANCH  43  44
ENDBRANCH  35  38
ENDBRANCH  33  34
ENDBRANCH  32  33
ENDBRANCH  31  32
ENDBRANCH  29  31
ENDBRANCH   1  27
TORSDOF 22
ENDMDL
MODEL 2
REMARK VINA RESULT:     -10.3      5.357     10.428
REMARK SMILES CCCCCCNC(=O)Oc1cccc(-c2ccc([C@@H](C)C(=O)NCCCNC(=O)c3ccc(-c4c5nc(c(-c6cccc(S(=O)(=O)[O-])c6F)c6ccc([nH]6)c(-c6cccc(S(=O)(=O)[O-])c6F)c6nc(c(-c7cccc(S(=O)(=O)[O-])c7F)c7ccc4[nH]7)C=C6)C=C5)cc3)cc2F)c1
REMARK SMILES IDX 20 1 21 2 19 3 16 4 17 5 95 6 18 7 94 8 96 9 15 10 11 11
REMARK SMILES IDX 12 12 97 13 13 14 14 15 10 16 8 17 7 18 9 20 6 21 5 22 4 23
REMARK SMILES IDX 3 24 2 25 1 26 22 27 23 28 24 29 25 31 26 32 27 33 28 34
REMARK SMILES IDX 29 35 30 37 31 38 32 39 93 40 33 41 92 42 34 43 35 44 36 45
REMARK SMILES IDX 86 46 37 47 91 48 85 49 87 50 38 51 90 52 84 53 83 54 39 56
REMARK SMILES IDX 71 57 51 58 70 59 52 60 55 61 69 62 88 63 53 64 54 65 68 67
REMARK SMILES IDX 89 68 56 69 40 70 41 71 49 72 42 73 44 74 50 75 43 76 45 77
REMARK SMILES IDX 46 78 47 79 48 80 72 81 73 82 81 83 74 84 76 85 82 86 75 87
REMARK SMILES IDX 77 88 78 89 79 90 80 91 57 92 58 93 66 94 59 95 61 96 67 97
REMARK SMILES IDX 60 98 62 99 63 100 64 101 65 102
REMARK H PARENT 7 19 24 30 28 36 87 55 55 66
REMARK Flexibility Score: inf
ROOT
ATOM      1  C   UNL A   1      42.663  22.316  27.084  1.00  0.00     0.105 C 
ATOM      2  C   UNL A   1      41.756  21.090  27.163  1.00  0.00     0.023 C 
ENDROOT
BRANCH   1   3
ATOM      3  C   UNL A   1      42.019  23.623  27.512  1.00  0.00    -0.033 A 
ATOM      4  C   UNL A   1      40.726  26.017  28.405  1.00  0.00     0.018 A 
ATOM      5  C   UNL A   1      42.123  25.897  28.382  1.00  0.00     0.012 A 
ATOM      6  C   UNL A   1      39.997  24.909  27.947  1.00  0.00     0.131 A 
ATOM      7  C   UNL A   1      42.756  24.742  27.906  1.00  0.00     0.005 A 
ATOM      8  C   UNL A   1      40.622  23.730  27.534  1.00  0.00     0.044 A 
ATOM      9  F   UNL A   1      38.657  24.949  27.872  1.00  0.00    -0.206 F 
BRANCH   4  10
ATOM     10  C   UNL A   1      40.082  27.255  28.896  1.00  0.00    -0.012 A 
ATOM     11  C   UNL A   1      39.484  28.764  30.705  1.00  0.00     0.133 A 
ATOM     12  C   UNL A   1      38.872  29.639  29.818  1.00  0.00     0.047 A 
ATOM     13  C   UNL A   1      40.078  27.583  30.262  1.00  0.00     0.056 A 
ATOM     14  C   UNL A   1      38.878  29.348  28.461  1.00  0.00     0.004 A 
ATOM     15  C   UNL A   1      39.466  28.164  28.009  1.00  0.00     0.009 A 
BRANCH  11  16
ATOM     16  O   UNL A   1      39.375  29.066  32.068  1.00  0.00    -0.410 OA
BRANCH  16  17
ATOM     17  C   UNL A   1      38.388  28.432  32.806  1.00  0.00     0.412 C 
ATOM     18  N   UNL A   1      37.445  29.305  33.279  1.00  0.00    -0.321 N 
ATOM     19  H   UNL A   1      36.728  28.927  33.839  1.00  0.00     0.167 HD
ATOM     20  O   UNL A   1      38.275  27.227  32.998  1.00  0.00    -0.224 OA
BRANCH  18  21
ATOM     21  C   UNL A   1      37.398  30.731  33.034  1.00  0.00     0.119 C 
BRANCH  21  22
ATOM     22  C   UNL A   1      36.131  31.119  32.269  1.00  0.00     0.021 C 
BRANCH  22  23
ATOM     23  C   UNL A   1      35.991  32.621  31.993  1.00  0.00     0.002 C 
BRANCH  23  24
ATOM     24  C   UNL A   1      37.220  33.469  32.344  1.00  0.00    -0.000 C 
BRANCH  24  25
ATOM     25  C   UNL A   1      36.945  34.676  33.243  1.00  0.00    -0.003 C 
ATOM     26  C   UNL A   1      35.845  34.426  34.263  1.00  0.00     0.004 C 
ENDBRANCH  24  25
ENDBRANCH  23  24
ENDBRANCH  22  23
ENDBRANCH  21  22
ENDBRANCH  18  21
ENDBRANCH  16  17
ENDBRANCH  11  16
ENDBRANCH   4  10
ENDBRANCH   1   3
BRANCH   1  27
ATOM     27  C   UNL A   1      43.490  22.419  25.794  1.00  0.00     0.227 C 
ATOM     28  O   UNL A   1      42.946  22.220  24.700  1.00  0.00    -0.274 OA
ATOM     29  N   UNL A   1      44.809  22.748  25.757  1.00  0.00    -0.356 N 
ATOM     30  H   UNL A   1      45.179  22.814  24.846  1.00  0.00     0.163 HD
BRANCH  29  31
ATOM     31  C   UNL A   1      45.772  23.018  26.805  1.00  0.00     0.117 C 
BRANCH  31  32
ATOM     32  C   UNL A   1      46.673  24.203  26.477  1.00  0.00     0.042 C 
BRANCH  32  33
ATOM     33  C   UNL A   1      46.294  24.917  25.188  1.00  0.00     0.118 C 
BRANCH  33  34
ATOM     34  N   UNL A   1      47.300  25.895  24.786  1.00  0.00    -0.352 N 
ATOM     35  C   UNL A   1      47.404  27.229  25.100  1.00  0.00     0.251 C 
ATOM     36  H   UNL A   1      48.011  25.547  24.201  1.00  0.00     0.163 HD
ATOM     37  O   UNL A   1      48.205  27.933  24.491  1.00  0.00    -0.269 OA
BRANCH  35  38
ATOM     38  C   UNL A   1      46.552  27.819  26.156  1.00  0.00     0.039 A 
ATOM     39  C   UNL A   1      45.164  27.844  25.985  1.00  0.00     0.014 A 
ATOM     40  C   UNL A   1      47.123  28.368  27.307  1.00  0.00     0.014 A 
ATOM     41  C   UNL A   1      44.347  28.362  26.997  1.00  0.00     0.010 A 
ATOM     42  C   UNL A   1      46.306  28.798  28.347  1.00  0.00     0.010 A 
ATOM     43  C   UNL A   1      44.911  28.815  28.197  1.00  0.00    -0.014 A 
BRANCH  43  44
ATOM     44  C   UNL A   1      44.089  29.353  29.312  1.00  0.00     0.031 A 
ATOM     45  C   UNL A   1      43.667  30.799  29.283  1.00  0.00     0.074 A 
ATOM     46  C   UNL A   1      43.833  28.592  30.395  1.00  0.00     0.049 A 
ATOM     47  N   UNL A   1      43.122  31.522  30.225  1.00  0.00    -0.248 NA
ATOM     48  C   UNL A   1      43.930  31.540  28.037  1.00  0.00     0.031 C 
ATOM     49  C   UNL A   1      44.236  27.195  30.567  1.00  0.00     0.029 A 
ATOM     50  N   UNL A   1      43.206  28.903  31.576  1.00  0.00    -0.354 N 
ATOM     51  C   UNL A   1      43.033  32.810  29.710  1.00  0.00     0.074 A 
ATOM     52  C   UNL A   1      43.604  32.777  28.382  1.00  0.00     0.031 C 
ATOM     53  C   UNL A   1      43.853  26.773  31.784  1.00  0.00     0.029 A 
ATOM     54  C   UNL A   1      43.217  27.877  32.492  1.00  0.00     0.049 A 
ATOM     55  H   UNL A   1      42.789  29.778  31.750  1.00  0.00     0.167 HD
ATOM     56  C   UNL A   1      42.502  33.918  30.280  1.00  0.00     0.034 A 
ATOM     57  C   UNL A   1      42.785  27.841  33.768  1.00  0.00     0.034 A 
ATOM     58  C   UNL A   1      41.880  33.930  31.576  1.00  0.00     0.049 A 
ATOM     59  C   UNL A   1      42.168  29.079  34.366  1.00  0.00     0.074 A 
ATOM     60  C   UNL A   1      41.237  34.976  32.212  1.00  0.00     0.029 A 
ATOM     61  N   UNL A   1      41.822  32.841  32.432  1.00  0.00    -0.354 N 
ATOM     62  N   UNL A   1      41.983  30.256  33.820  1.00  0.00    -0.248 NA
ATOM     63  C   UNL A   1      41.675  28.974  35.748  1.00  0.00     0.031 C 
ATOM     64  C   UNL A   1      40.801  34.524  33.460  1.00  0.00     0.029 A 
ATOM     65  C   UNL A   1      41.148  33.188  33.589  1.00  0.00     0.049 A 
ATOM     66  H   UNL A   1      42.202  31.953  32.244  1.00  0.00     0.167 HD
ATOM     67  C   UNL A   1      41.308  31.015  34.770  1.00  0.00     0.074 A 
ATOM     68  C   UNL A   1      41.112  30.163  35.925  1.00  0.00     0.031 C 
ATOM     69  C   UNL A   1      40.894  32.303  34.696  1.00  0.00     0.034 A 
BRANCH  56  70
ATOM     70  C   UNL A   1      42.519  35.196  29.483  1.00  0.00     0.023 A 
ATOM     71  C   UNL A   1      41.531  35.416  28.501  1.00  0.00     0.012 A 
ATOM     72  C   UNL A   1      43.473  36.199  29.738  1.00  0.00     0.148 A 
ATOM     73  C   UNL A   1      41.517  36.596  27.759  1.00  0.00     0.002 A 
ATOM     74  C   UNL A   1      43.424  37.393  29.027  1.00  0.00     0.091 A 
ATOM     75  F   UNL A   1      44.418  35.966  30.661  1.00  0.00    -0.205 F 
ATOM     76  C   UNL A   1      42.455  37.587  28.028  1.00  0.00     0.022 A 
BRANCH  74  77
ATOM     77  S   UNL A   1      44.534  38.766  29.358  1.00  0.00     0.127 S 
ATOM     78  O   UNL A   1      44.266  39.029  30.771  1.00  0.00    -0.237 OA
ATOM     79  O   UNL A   1      45.845  38.175  29.087  1.00  0.00    -0.237 OA
ATOM     80  O   UNL A   1      44.145  39.827  28.440  1.00  0.00    -0.744 OA
ENDBRANCH  74  77
ENDBRANCH  56  70
BRANCH  57  81
ATOM     81  C   UNL A   1      42.863  26.579  34.556  1.00  0.00     0.023 A 
ATOM     82  C   UNL A   1      41.687  25.835  34.777  1.00  0.00     0.012 A 
ATOM     83  C   UNL A   1      44.079  26.113  35.091  1.00  0.00     0.148 A 
ATOM     84  C   UNL A   1      41.712  24.671  35.547  1.00  0.00     0.002 A 
ATOM     85  C   UNL A   1      44.104  24.934  35.828  1.00  0.00     0.091 A 
ATOM     86  F   UNL A   1      45.192  26.818  34.845  1.00  0.00    -0.205 F 
ATOM     87  C   UNL A   1      42.920  24.221  36.072  1.00  0.00     0.022 A 
BRANCH  85  88
ATOM     88  S   UNL A   1      45.617  24.251  36.507  1.00  0.00     0.127 S 
ATOM     89  O   UNL A   1      45.904  25.163  37.613  1.00  0.00    -0.237 OA
ATOM     90  O   UNL A   1      45.185  22.915  36.915  1.00  0.00    -0.237 OA
ATOM     91  O   UNL A   1      46.591  24.295  35.426  1.00  0.00    -0.744 OA
ENDBRANCH  85  88
ENDBRANCH  57  81
BRANCH  69  92
ATOM     92  C   UNL A   1      40.115  32.863  35.855  1.00  0.00     0.023 A 
ATOM     93  C   UNL A   1      38.721  32.681  35.924  1.00  0.00     0.012 A 
ATOM     94  C   UNL A   1      40.790  33.479  36.928  1.00  0.00     0.148 A 
ATOM     95  C   UNL A   1      38.007  33.121  37.038  1.00  0.00     0.002 A 
ATOM     96  C   UNL A   1      40.078  33.868  38.055  1.00  0.00     0.091 A 
ATOM     97  F   UNL A   1      42.115  33.658  36.830  1.00  0.00    -0.205 F 
ATOM     98  C   UNL A   1      38.686  33.701  38.108  1.00  0.00     0.022 A 
BRANCH  96  99
ATOM     99  S   UNL A   1      40.883  34.529  39.520  1.00  0.00     0.127 S 
ATOM    100  O   UNL A   1      40.450  35.924  39.493  1.00  0.00    -0.237 OA
ATOM    101  O   UNL A   1      40.288  33.725  40.588  1.00  0.00    -0.237 OA
ATOM    102  O   UNL A   1      42.311  34.317  39.326  1.00  0.00    -0.744 OA
ENDBRANCH  96  99
ENDBRANCH  69  92
ENDBRANCH  43  44
ENDBRANCH  35  38
ENDBRANCH  33  34
ENDBRANCH  32  33
ENDBRANCH  31  32
ENDBRANCH  29  31
ENDBRANCH   1  27
TORSDOF 22
ENDMDL
MODEL 3
REMARK VINA RESULT:     -10.3      1.520      2.065
REMARK SMILES CCCCCCNC(=O)Oc1cccc(-c2ccc([C@@H](C)C(=O)NCCCNC(=O)c3ccc(-c4c5nc(c(-c6cccc(S(=O)(=O)[O-])c6F)c6ccc([nH]6)c(-c6cccc(S(=O)(=O)[O-])c6F)c6nc(c(-c7cccc(S(=O)(=O)[O-])c7F)c7ccc4[nH]7)C=C6)C=C5)cc3)cc2F)c1
REMARK SMILES IDX 20 1 21 2 19 3 16 4 17 5 95 6 18 7 94 8 96 9 15 10 11 11
REMARK SMILES IDX 12 12 97 13 13 14 14 15 10 16 8 17 7 18 9 20 6 21 5 22 4 23
REMARK SMILES IDX 3 24 2 25 1 26 22 27 23 28 24 29 25 31 26 32 27 33 28 34
REMARK SMILES IDX 29 35 30 37 31 38 32 39 93 40 33 41 92 42 34 43 35 44 36 45
REMARK SMILES IDX 86 46 37 47 91 48 85 49 87 50 38 51 90 52 84 53 83 54 39 56
REMARK SMILES IDX 71 57 51 58 70 59 52 60 55 61 69 62 88 63 53 64 54 65 68 67
REMARK SMILES IDX 89 68 56 69 40 70 41 71 49 72 42 73 44 74 50 75 43 76 45 77
REMARK SMILES IDX 46 78 47 79 48 80 72 81 73 82 81 83 74 84 76 85 82 86 75 87
REMARK SMILES IDX 77 88 78 89 79 90 80 91 57 92 58 93 66 94 59 95 61 96 67 97
REMARK SMILES IDX 60 98 62 99 63 100 64 101 65 102
REMARK H PARENT 7 19 24 30 28 36 87 55 55 66
REMARK Flexibility Score: inf
ROOT
ATOM      1  C   UNL A   1      35.499  32.933  29.161  1.00  0.00     0.105 C 
ATOM      2  C   UNL A   1      36.573  33.634  28.330  1.00  0.00     0.023 C 
ENDROOT
BRANCH   1   3
ATOM      3  C   UNL A   1      34.881  31.707  28.513  1.00  0.00    -0.033 A 
ATOM      4  C   UNL A   1      33.686  29.471  27.182  1.00  0.00     0.018 A 
ATOM      5  C   UNL A   1      34.971  29.398  27.740  1.00  0.00     0.012 A 
ATOM      6  C   UNL A   1      33.010  30.692  27.329  1.00  0.00     0.131 A 
ATOM      7  C   UNL A   1      35.538  30.478  28.428  1.00  0.00     0.005 A 
ATOM      8  C   UNL A   1      33.598  31.793  27.956  1.00  0.00     0.044 A 
ATOM      9  F   UNL A   1      31.752  30.840  26.884  1.00  0.00    -0.206 F 
BRANCH   4  10
ATOM     10  C   UNL A   1      33.102  28.309  26.476  1.00  0.00    -0.012 A 
ATOM     11  C   UNL A   1      33.270  26.503  24.858  1.00  0.00     0.133 A 
ATOM     12  C   UNL A   1      31.984  26.072  25.156  1.00  0.00     0.047 A 
ATOM     13  C   UNL A   1      33.828  27.608  25.499  1.00  0.00     0.056 A 
ATOM     14  C   UNL A   1      31.252  26.736  26.129  1.00  0.00     0.004 A 
ATOM     15  C   UNL A   1      31.801  27.848  26.773  1.00  0.00     0.009 A 
BRANCH  11  16
ATOM     16  O   UNL A   1      33.930  25.850  23.811  1.00  0.00    -0.410 OA
BRANCH  16  17
ATOM     17  C   UNL A   1      33.514  26.101  22.513  1.00  0.00     0.412 C 
ATOM     18  N   UNL A   1      32.838  25.044  21.965  1.00  0.00    -0.321 N 
ATOM     19  H   UNL A   1      32.540  25.141  21.031  1.00  0.00     0.167 HD
ATOM     20  O   UNL A   1      33.647  27.148  21.890  1.00  0.00    -0.224 OA
BRANCH  18  21
ATOM     21  C   UNL A   1      32.517  23.797  22.626  1.00  0.00     0.119 C 
BRANCH  21  22
ATOM     22  C   UNL A   1      33.618  22.758  22.409  1.00  0.00     0.021 C 
BRANCH  22  23
ATOM     23  C   UNL A   1      34.557  22.568  23.606  1.00  0.00     0.002 C 
BRANCH  23  24
ATOM     24  C   UNL A   1      36.014  22.985  23.369  1.00  0.00    -0.000 C 
BRANCH  24  25
ATOM     25  C   UNL A   1      36.772  23.451  24.614  1.00  0.00    -0.003 C 
ATOM     26  C   UNL A   1      35.858  23.768  25.788  1.00  0.00     0.004 C 
ENDBRANCH  24  25
ENDBRANCH  23  24
ENDBRANCH  22  23
ENDBRANCH  21  22
ENDBRANCH  18  21
ENDBRANCH  16  17
ENDBRANCH  11  16
ENDBRANCH   4  10
ENDBRANCH   1   3
BRANCH   1  27
ATOM     27  C   UNL A   1      34.480  33.876  29.816  1.00  0.00     0.227 C 
ATOM     28  O   UNL A   1      33.927  34.749  29.135  1.00  0.00    -0.274 OA
ATOM     29  N   UNL A   1      34.106  33.808  31.122  1.00  0.00    -0.356 N 
ATOM     30  H   UNL A   1      33.409  34.457  31.373  1.00  0.00     0.163 HD
BRANCH  29  31
ATOM     31  C   UNL A   1      34.543  32.961  32.214  1.00  0.00     0.117 C 
BRANCH  31  32
ATOM     32  C   UNL A   1      35.920  33.352  32.739  1.00  0.00     0.042 C 
BRANCH  32  33
ATOM     33  C   UNL A   1      36.597  32.254  33.544  1.00  0.00     0.118 C 
BRANCH  33  34
ATOM     34  N   UNL A   1      36.366  30.931  32.971  1.00  0.00    -0.352 N 
ATOM     35  C   UNL A   1      37.064  30.262  31.994  1.00  0.00     0.251 C 
ATOM     36  H   UNL A   1      35.593  30.445  33.339  1.00  0.00     0.163 HD
ATOM     37  O   UNL A   1      36.586  29.245  31.499  1.00  0.00    -0.269 OA
BRANCH  35  38
ATOM     38  C   UNL A   1      38.377  30.765  31.533  1.00  0.00     0.039 A 
ATOM     39  C   UNL A   1      39.381  31.026  32.472  1.00  0.00     0.014 A 
ATOM     40  C   UNL A   1      38.612  31.000  30.177  1.00  0.00     0.014 A 
ATOM     41  C   UNL A   1      40.639  31.463  32.042  1.00  0.00     0.010 A 
ATOM     42  C   UNL A   1      39.888  31.346  29.746  1.00  0.00     0.010 A 
ATOM     43  C   UNL A   1      40.910  31.597  30.673  1.00  0.00    -0.014 A 
BRANCH  43  44
ATOM     44  C   UNL A   1      42.235  32.034  30.162  1.00  0.00     0.031 A 
ATOM     45  C   UNL A   1      42.443  33.484  29.804  1.00  0.00     0.074 A 
ATOM     46  C   UNL A   1      43.195  31.126  29.901  1.00  0.00     0.049 A 
ATOM     47  N   UNL A   1      43.436  34.045  29.167  1.00  0.00    -0.248 NA
ATOM     48  C   UNL A   1      41.368  34.419  30.181  1.00  0.00     0.031 C 
ATOM     49  C   UNL A   1      43.095  29.686  30.151  1.00  0.00     0.029 A 
ATOM     50  N   UNL A   1      44.434  31.276  29.327  1.00  0.00    -0.354 N 
ATOM     51  C   UNL A   1      43.080  35.381  29.015  1.00  0.00     0.074 A 
ATOM     52  C   UNL A   1      41.768  35.540  29.602  1.00  0.00     0.031 C 
ATOM     53  C   UNL A   1      44.220  29.086  29.727  1.00  0.00     0.029 A 
ATOM     54  C   UNL A   1      45.101  30.088  29.138  1.00  0.00     0.049 A 
ATOM     55  H   UNL A   1      44.808  32.151  29.075  1.00  0.00     0.167 HD
ATOM     56  C   UNL A   1      43.791  36.390  28.458  1.00  0.00     0.034 A 
ATOM     57  C   UNL A   1      46.279  29.835  28.535  1.00  0.00     0.034 A 
ATOM     58  C   UNL A   1      45.120  36.237  27.932  1.00  0.00     0.049 A 
ATOM     59  C   UNL A   1      47.064  30.981  27.954  1.00  0.00     0.074 A 
ATOM     60  C   UNL A   1      45.961  37.209  27.423  1.00  0.00     0.029 A 
ATOM     61  N   UNL A   1      45.802  35.032  27.852  1.00  0.00    -0.354 N 
ATOM     62  N   UNL A   1      46.766  32.257  27.927  1.00  0.00    -0.248 NA
ATOM     63  C   UNL A   1      48.363  30.656  27.344  1.00  0.00     0.031 C 
ATOM     64  C   UNL A   1      47.148  36.591  27.022  1.00  0.00     0.029 A 
ATOM     65  C   UNL A   1      47.056  35.237  27.307  1.00  0.00     0.049 A 
ATOM     66  H   UNL A   1      45.446  34.161  28.141  1.00  0.00     0.167 HD
ATOM     67  C   UNL A   1      47.858  32.892  27.346  1.00  0.00     0.074 A 
ATOM     68  C   UNL A   1      48.828  31.861  27.040  1.00  0.00     0.031 C 
ATOM     69  C   UNL A   1      48.039  34.209  27.083  1.00  0.00     0.034 A 
BRANCH  56  70
ATOM     70  C   UNL A   1      43.169  37.762  28.441  1.00  0.00     0.023 A 
ATOM     71  C   UNL A   1      42.351  38.141  27.357  1.00  0.00     0.012 A 
ATOM     72  C   UNL A   1      43.347  38.653  29.516  1.00  0.00     0.148 A 
ATOM     73  C   UNL A   1      41.754  39.401  27.324  1.00  0.00     0.002 A 
ATOM     74  C   UNL A   1      42.710  39.889  29.498  1.00  0.00     0.091 A 
ATOM     75  F   UNL A   1      44.144  38.285  30.530  1.00  0.00    -0.205 F 
ATOM     76  C   UNL A   1      41.924  40.269  28.397  1.00  0.00     0.022 A 
BRANCH  74  77
ATOM     77  S   UNL A   1      42.796  41.046  30.871  1.00  0.00     0.127 S 
ATOM     78  O   UNL A   1      42.737  40.144  32.021  1.00  0.00    -0.237 OA
ATOM     79  O   UNL A   1      44.099  41.678  30.660  1.00  0.00    -0.237 OA
ATOM     80  O   UNL A   1      41.656  41.937  30.716  1.00  0.00    -0.744 OA
ENDBRANCH  74  77
ENDBRANCH  56  70
BRANCH  57  81
ATOM     81  C   UNL A   1      46.825  28.448  28.497  1.00  0.00     0.023 A 
ATOM     82  C   UNL A   1      47.666  28.014  29.540  1.00  0.00     0.012 A 
ATOM     83  C   UNL A   1      46.526  27.564  27.443  1.00  0.00     0.148 A 
ATOM     84  C   UNL A   1      48.232  26.738  29.516  1.00  0.00     0.002 A 
ATOM     85  C   UNL A   1      47.065  26.281  27.443  1.00  0.00     0.091 A 
ATOM     86  F   UNL A   1      45.701  27.985  26.475  1.00  0.00    -0.205 F 
ATOM     87  C   UNL A   1      47.931  25.873  28.469  1.00  0.00     0.022 A 
BRANCH  85  88
ATOM     88  S   UNL A   1      46.701  25.081  26.161  1.00  0.00     0.127 S 
ATOM     89  O   UNL A   1      47.312  23.862  26.689  1.00  0.00    -0.237 OA
ATOM     90  O   UNL A   1      45.238  25.079  26.160  1.00  0.00    -0.237 OA
ATOM     91  O   UNL A   1      47.330  25.591  24.952  1.00  0.00    -0.744 OA
ENDBRANCH  85  88
ENDBRANCH  57  81
BRANCH  69  92
ATOM     92  C   UNL A   1      49.360  34.640  26.506  1.00  0.00     0.023 A 
ATOM     93  C   UNL A   1      49.486  34.875  25.124  1.00  0.00     0.012 A 
ATOM     94  C   UNL A   1      50.448  34.914  27.360  1.00  0.00     0.148 A 
ATOM     95  C   UNL A   1      50.683  35.358  24.597  1.00  0.00     0.002 A 
ATOM     96  C   UNL A   1      51.620  35.442  26.833  1.00  0.00     0.091 A 
ATOM     97  F   UNL A   1      50.310  34.664  28.670  1.00  0.00    -0.205 F 
ATOM     98  C   UNL A   1      51.743  35.655  25.451  1.00  0.00     0.022 A 
BRANCH  96  99
ATOM     99  S   UNL A   1      52.997  35.950  27.869  1.00  0.00     0.127 S 
ATOM    100  O   UNL A   1      53.968  36.399  26.873  1.00  0.00    -0.237 OA
ATOM    101  O   UNL A   1      52.403  37.021  28.670  1.00  0.00    -0.237 OA
ATOM    102  O   UNL A   1      53.386  34.770  28.630  1.00  0.00    -0.744 OA
ENDBRANCH  96  99
ENDBRANCH  69  92
ENDBRANCH  43  44
ENDBRANCH  35  38
ENDBRANCH  33  34
ENDBRANCH  32  33
ENDBRANCH  31  32
ENDBRANCH  29  31
ENDBRANCH   1  27
TORSDOF 22
ENDMDL
