MODEL 1
REMARK VINA RESULT:      -8.2      0.000      0.000
REMARK SMILES CCCCCCNC(=O)Oc1cccc(-c2ccc([C@@H](C)C(=O)NCCCNC(=O)c3ccc(-c4c5nc(c(-c6cccc(S(=O)(=O)[O-])c6F)c6ccc([nH]6)c(-c6cccc(S(=O)(=O)[O-])c6F)c6nc(c(-c7cccc(S(=O)(=O)[O-])c7F)c7ccc4[nH]7)C=C6)C=C5)cc3)cc2[N+](=O)[O-])c1
REMARK SMILES IDX 20 1 21 2 19 3 16 4 17 5 95 6 18 7 94 8 15 9 11 10 12 11
REMARK SMILES IDX 99 12 13 13 14 14 10 15 8 16 7 17 9 19 6 20 5 21 4 22 3 23
REMARK SMILES IDX 2 24 1 25 96 26 97 27 98 28 22 29 23 30 24 31 25 33 26 34
REMARK SMILES IDX 27 35 28 36 29 37 30 39 31 40 32 41 93 42 33 43 92 44 34 45
REMARK SMILES IDX 35 46 36 47 86 48 37 49 91 50 85 51 87 52 38 53 90 54 84 55
REMARK SMILES IDX 83 56 39 58 71 59 51 60 70 61 52 62 55 63 69 64 88 65 53 66
REMARK SMILES IDX 54 67 68 69 89 70 56 71 40 72 41 73 49 74 42 75 44 76 50 77
REMARK SMILES IDX 43 78 45 79 46 80 47 81 48 82 72 83 73 84 81 85 74 86 76 87
REMARK SMILES IDX 82 88 75 89 77 90 78 91 79 92 80 93 57 94 58 95 66 96 59 97
REMARK SMILES IDX 61 98 67 99 60 100 62 101 63 102 64 103 65 104
REMARK H PARENT 7 18 24 32 28 38 87 57 55 68
REMARK Flexibility Score: inf
ROOT
ATOM      1  C   UNL A   1      45.717  22.882  25.149  1.00  0.00     0.105 C 
ATOM      2  C   UNL A   1      45.470  22.075  26.423  1.00  0.00     0.023 C 
ENDROOT
BRANCH   1   3
ATOM      3  C   UNL A   1      45.649  24.393  25.311  1.00  0.00    -0.029 A 
ATOM      4  C   UNL A   1      45.423  27.203  25.879  1.00  0.00     0.060 A 
ATOM      5  C   UNL A   1      46.658  26.530  25.897  1.00  0.00     0.016 A 
ATOM      6  C   UNL A   1      44.315  26.442  25.460  1.00  0.00     0.277 A 
ATOM      7  C   UNL A   1      46.773  25.175  25.570  1.00  0.00     0.005 A 
ATOM      8  C   UNL A   1      44.413  25.053  25.226  1.00  0.00     0.090 A 
BRANCH   4   9
ATOM      9  C   UNL A   1      45.380  28.604  26.353  1.00  0.00    -0.008 A 
ATOM     10  C   UNL A   1      46.272  30.865  26.386  1.00  0.00     0.133 A 
ATOM     11  C   UNL A   1      45.209  31.309  27.167  1.00  0.00     0.047 A 
ATOM     12  C   UNL A   1      46.362  29.534  25.972  1.00  0.00     0.056 A 
ATOM     13  C   UNL A   1      44.220  30.408  27.539  1.00  0.00     0.004 A 
ATOM     14  C   UNL A   1      44.312  29.068  27.147  1.00  0.00     0.009 A 
BRANCH  10  15
ATOM     15  O   UNL A   1      47.310  31.783  26.155  1.00  0.00    -0.410 OA
BRANCH  15  16
ATOM     16  C   UNL A   1      47.939  32.394  27.228  1.00  0.00     0.412 C 
ATOM     17  N   UNL A   1      48.087  33.744  27.053  1.00  0.00    -0.321 N 
ATOM     18  H   UNL A   1      48.588  34.228  27.749  1.00  0.00     0.167 HD
ATOM     19  O   UNL A   1      48.322  31.843  28.252  1.00  0.00    -0.224 OA
BRANCH  17  20
ATOM     20  C   UNL A   1      47.581  34.531  25.948  1.00  0.00     0.119 C 
BRANCH  20  21
ATOM     21  C   UNL A   1      48.718  35.146  25.128  1.00  0.00     0.021 C 
BRANCH  21  22
ATOM     22  C   UNL A   1      50.096  34.516  25.372  1.00  0.00     0.002 C 
BRANCH  22  23
ATOM     23  C   UNL A   1      51.153  35.459  25.958  1.00  0.00    -0.000 C 
BRANCH  23  24
ATOM     24  C   UNL A   1      51.357  36.769  25.193  1.00  0.00    -0.003 C 
ATOM     25  C   UNL A   1      52.151  36.594  23.907  1.00  0.00     0.004 C 
ENDBRANCH  23  24
ENDBRANCH  22  23
ENDBRANCH  21  22
ENDBRANCH  20  21
ENDBRANCH  17  20
ENDBRANCH  15  16
ENDBRANCH  10  15
ENDBRANCH   4   9
BRANCH   6  26
ATOM     26  N   UNL A   1      43.025  27.068  25.162  1.00  0.00     0.063 N 
ATOM     27  O   UNL A   1      42.942  27.731  24.117  1.00  0.00    -0.258 OA
ATOM     28  O   UNL A   1      42.124  26.975  26.008  1.00  0.00    -0.258 OA
ENDBRANCH   6  26
ENDBRANCH   1   3
BRANCH   1  29
ATOM     29  C   UNL A   1      44.983  22.354  23.905  1.00  0.00     0.227 C 
ATOM     30  O   UNL A   1      44.480  23.153  23.106  1.00  0.00    -0.274 OA
ATOM     31  N   UNL A   1      44.853  21.036  23.594  1.00  0.00    -0.356 N 
ATOM     32  H   UNL A   1      44.402  20.871  22.734  1.00  0.00     0.163 HD
BRANCH  31  33
ATOM     33  C   UNL A   1      45.250  19.827  24.289  1.00  0.00     0.117 C 
BRANCH  33  34
ATOM     34  C   UNL A   1      44.073  18.891  24.543  1.00  0.00     0.042 C 
BRANCH  34  35
ATOM     35  C   UNL A   1      43.406  19.084  25.895  1.00  0.00     0.118 C 
BRANCH  35  36
ATOM     36  N   UNL A   1      41.961  19.200  25.778  1.00  0.00    -0.352 N 
ATOM     37  C   UNL A   1      41.092  20.133  26.285  1.00  0.00     0.251 C 
ATOM     38  H   UNL A   1      41.535  18.490  25.246  1.00  0.00     0.163 HD
ATOM     39  O   UNL A   1      39.887  19.889  26.247  1.00  0.00    -0.269 OA
BRANCH  37  40
ATOM     40  C   UNL A   1      41.570  21.412  26.863  1.00  0.00     0.039 A 
ATOM     41  C   UNL A   1      41.920  21.441  28.218  1.00  0.00     0.014 A 
ATOM     42  C   UNL A   1      41.595  22.597  26.124  1.00  0.00     0.014 A 
ATOM     43  C   UNL A   1      42.297  22.645  28.819  1.00  0.00     0.010 A 
ATOM     44  C   UNL A   1      42.069  23.774  26.696  1.00  0.00     0.010 A 
ATOM     45  C   UNL A   1      42.380  23.823  28.061  1.00  0.00    -0.014 A 
BRANCH  45  46
ATOM     46  C   UNL A   1      42.723  25.121  28.698  1.00  0.00     0.031 A 
ATOM     47  C   UNL A   1      44.161  25.458  29.001  1.00  0.00     0.074 A 
ATOM     48  C   UNL A   1      41.742  25.977  29.043  1.00  0.00     0.049 A 
ATOM     49  N   UNL A   1      44.659  26.537  29.547  1.00  0.00    -0.248 NA
ATOM     50  C   UNL A   1      45.173  24.437  28.675  1.00  0.00     0.031 C 
ATOM     51  C   UNL A   1      40.307  25.731  28.880  1.00  0.00     0.029 A 
ATOM     52  N   UNL A   1      41.802  27.223  29.615  1.00  0.00    -0.354 N 
ATOM     53  C   UNL A   1      46.027  26.310  29.665  1.00  0.00     0.074 A 
ATOM     54  C   UNL A   1      46.276  24.973  29.175  1.00  0.00     0.031 C 
ATOM     55  C   UNL A   1      39.624  26.796  29.328  1.00  0.00     0.029 A 
ATOM     56  C   UNL A   1      40.568  27.791  29.829  1.00  0.00     0.049 A 
ATOM     57  H   UNL A   1      42.647  27.667  29.852  1.00  0.00     0.167 HD
ATOM     58  C   UNL A   1      46.996  27.147  30.105  1.00  0.00     0.034 A 
ATOM     59  C   UNL A   1      40.236  28.984  30.361  1.00  0.00     0.034 A 
ATOM     60  C   UNL A   1      46.749  28.494  30.542  1.00  0.00     0.049 A 
ATOM     61  C   UNL A   1      41.335  29.926  30.771  1.00  0.00     0.074 A 
ATOM     62  C   UNL A   1      47.664  29.456  30.932  1.00  0.00     0.029 A 
ATOM     63  N   UNL A   1      45.493  29.073  30.644  1.00  0.00    -0.354 N 
ATOM     64  N   UNL A   1      42.634  29.750  30.730  1.00  0.00    -0.248 NA
ATOM     65  C   UNL A   1      40.926  31.253  31.253  1.00  0.00     0.031 C 
ATOM     66  C   UNL A   1      46.959  30.611  31.289  1.00  0.00     0.029 A 
ATOM     67  C   UNL A   1      45.608  30.378  31.088  1.00  0.00     0.049 A 
ATOM     68  H   UNL A   1      44.645  28.620  30.433  1.00  0.00     0.167 HD
ATOM     69  C   UNL A   1      43.197  30.955  31.136  1.00  0.00     0.074 A 
ATOM     70  C   UNL A   1      42.095  31.860  31.399  1.00  0.00     0.031 C 
ATOM     71  C   UNL A   1      44.503  31.282  31.288  1.00  0.00     0.034 A 
BRANCH  58  72
ATOM     72  C   UNL A   1      48.419  26.648  30.082  1.00  0.00     0.023 A 
ATOM     73  C   UNL A   1      48.935  25.961  31.200  1.00  0.00     0.012 A 
ATOM     74  C   UNL A   1      49.230  26.816  28.942  1.00  0.00     0.148 A 
ATOM     75  C   UNL A   1      50.247  25.486  31.201  1.00  0.00     0.002 A 
ATOM     76  C   UNL A   1      50.519  26.295  28.931  1.00  0.00     0.091 A 
ATOM     77  F   UNL A   1      48.732  27.488  27.895  1.00  0.00    -0.205 F 
ATOM     78  C   UNL A   1      51.034  25.644  30.064  1.00  0.00     0.022 A 
BRANCH  76  79
ATOM     79  S   UNL A   1      51.585  26.372  27.487  1.00  0.00     0.127 S 
ATOM     80  O   UNL A   1      52.872  26.719  28.088  1.00  0.00    -0.237 OA
ATOM     81  O   UNL A   1      51.503  25.004  26.973  1.00  0.00    -0.237 OA
ATOM     82  O   UNL A   1      51.008  27.385  26.615  1.00  0.00    -0.744 OA
ENDBRANCH  76  79
ENDBRANCH  58  72
BRANCH  59  83
ATOM     83  C   UNL A   1      38.804  29.391  30.443  1.00  0.00     0.023 A 
ATOM     84  C   UNL A   1      38.087  29.159  31.634  1.00  0.00     0.012 A 
ATOM     85  C   UNL A   1      38.157  30.025  29.365  1.00  0.00     0.148 A 
ATOM     86  C   UNL A   1      36.742  29.517  31.736  1.00  0.00     0.002 A 
ATOM     87  C   UNL A   1      36.834  30.431  29.494  1.00  0.00     0.091 A 
ATOM     88  F   UNL A   1      38.854  30.230  28.239  1.00  0.00    -0.205 F 
ATOM     89  C   UNL A   1      36.119  30.160  30.672  1.00  0.00     0.022 A 
BRANCH  87  90
ATOM     90  S   UNL A   1      35.988  31.380  28.225  1.00  0.00     0.127 S 
ATOM     91  O   UNL A   1      35.957  30.433  27.113  1.00  0.00    -0.237 OA
ATOM     92  O   UNL A   1      34.690  31.635  28.853  1.00  0.00    -0.237 OA
ATOM     93  O   UNL A   1      36.796  32.573  28.018  1.00  0.00    -0.744 OA
ENDBRANCH  87  90
ENDBRANCH  59  83
BRANCH  71  94
ATOM     94  C   UNL A   1      44.824  32.694  31.704  1.00  0.00     0.023 A 
ATOM     95  C   UNL A   1      44.929  33.022  33.071  1.00  0.00     0.012 A 
ATOM     96  C   UNL A   1      45.076  33.684  30.735  1.00  0.00     0.148 A 
ATOM     97  C   UNL A   1      45.233  34.324  33.465  1.00  0.00     0.002 A 
ATOM     98  C   UNL A   1      45.432  34.967  31.135  1.00  0.00     0.091 A 
ATOM     99  F   UNL A   1      44.953  33.360  29.439  1.00  0.00    -0.205 F 
ATOM    100  C   UNL A   1      45.495  35.293  32.498  1.00  0.00     0.022 A 
BRANCH  98 101
ATOM    101  S   UNL A   1      45.884  36.242  29.954  1.00  0.00     0.127 S 
ATOM    102  O   UNL A   1      44.622  36.457  29.249  1.00  0.00    -0.237 OA
ATOM    103  O   UNL A   1      46.291  37.346  30.826  1.00  0.00    -0.237 OA
ATOM    104  O   UNL A   1      46.965  35.680  29.156  1.00  0.00    -0.744 OA
ENDBRANCH  98 101
ENDBRANCH  71  94
ENDBRANCH  45  46
ENDBRANCH  37  40
ENDBRANCH  35  36
ENDBRANCH  34  35
ENDBRANCH  33  34
ENDBRANCH  31  33
ENDBRANCH   1  29
TORSDOF 23
ENDMDL
MODEL 2
REMARK VINA RESULT:      -8.2      1.998      2.696
REMARK SMILES CCCCCCNC(=O)Oc1cccc(-c2ccc([C@@H](C)C(=O)NCCCNC(=O)c3ccc(-c4c5nc(c(-c6cccc(S(=O)(=O)[O-])c6F)c6ccc([nH]6)c(-c6cccc(S(=O)(=O)[O-])c6F)c6nc(c(-c7cccc(S(=O)(=O)[O-])c7F)c7ccc4[nH]7)C=C6)C=C5)cc3)cc2[N+](=O)[O-])c1
REMARK SMILES IDX 20 1 21 2 19 3 16 4 17 5 95 6 18 7 94 8 15 9 11 10 12 11
REMARK SMILES IDX 99 12 13 13 14 14 10 15 8 16 7 17 9 19 6 20 5 21 4 22 3 23
REMARK SMILES IDX 2 24 1 25 96 26 97 27 98 28 22 29 23 30 24 31 25 33 26 34
REMARK SMILES IDX 27 35 28 36 29 37 30 39 31 40 32 41 93 42 33 43 92 44 34 45
REMARK SMILES IDX 35 46 36 47 86 48 37 49 91 50 85 51 87 52 38 53 90 54 84 55
REMARK SMILES IDX 83 56 39 58 71 59 51 60 70 61 52 62 55 63 69 64 88 65 53 66
REMARK SMILES IDX 54 67 68 69 89 70 56 71 40 72 41 73 49 74 42 75 44 76 50 77
REMARK SMILES IDX 43 78 45 79 46 80 47 81 48 82 72 83 73 84 81 85 74 86 76 87
REMARK SMILES IDX 82 88 75 89 77 90 78 91 79 92 80 93 57 94 58 95 66 96 59 97
REMARK SMILES IDX 61 98 67 99 60 100 62 101 63 102 64 103 65 104
REMARK H PARENT 7 18 24 32 28 38 87 57 55 68
REMARK Flexibility Score: inf
ROOT
ATOM      1  C   UNL A   1      45.479  22.709  25.543  1.00  0.00     0.105 C 
ATOM      2  C   UNL A   1      44.876  21.997  26.753  1.00  0.00     0.023 C 
ENDROOT
BRANCH   1   3
ATOM      3  C   UNL A   1      45.462  24.228  25.604  1.00  0.00    -0.029 A 
ATOM      4  C   UNL A   1      45.298  27.076  25.969  1.00  0.00     0.060 A 
ATOM      5  C   UNL A   1      46.487  26.358  26.187  1.00  0.00     0.016 A 
ATOM      6  C   UNL A   1      44.217  26.333  25.456  1.00  0.00     0.277 A 
ATOM      7  C   UNL A   1      46.580  24.981  25.959  1.00  0.00     0.005 A 
ATOM      8  C   UNL A   1      44.279  24.928  25.320  1.00  0.00     0.090 A 
BRANCH   4   9
ATOM      9  C   UNL A   1      45.261  28.505  26.349  1.00  0.00    -0.008 A 
ATOM     10  C   UNL A   1      46.196  30.748  26.281  1.00  0.00     0.133 A 
ATOM     11  C   UNL A   1      45.106  31.261  26.978  1.00  0.00     0.047 A 
ATOM     12  C   UNL A   1      46.278  29.392  25.958  1.00  0.00     0.056 A 
ATOM     13  C   UNL A   1      44.082  30.402  27.359  1.00  0.00     0.004 A 
ATOM     14  C   UNL A   1      44.166  29.039  27.059  1.00  0.00     0.009 A 
BRANCH  10  15
ATOM     15  O   UNL A   1      47.262  31.631  26.042  1.00  0.00    -0.410 OA
BRANCH  15  16
ATOM     16  C   UNL A   1      47.861  32.289  27.105  1.00  0.00     0.412 C 
ATOM     17  N   UNL A   1      47.960  33.639  26.899  1.00  0.00    -0.321 N 
ATOM     18  H   UNL A   1      48.438  34.157  27.587  1.00  0.00     0.167 HD
ATOM     19  O   UNL A   1      48.257  31.776  28.143  1.00  0.00    -0.224 OA
BRANCH  17  20
ATOM     20  C   UNL A   1      47.433  34.381  25.773  1.00  0.00     0.119 C 
BRANCH  20  21
ATOM     21  C   UNL A   1      45.988  34.824  26.018  1.00  0.00     0.021 C 
BRANCH  21  22
ATOM     22  C   UNL A   1      45.007  34.452  24.899  1.00  0.00     0.002 C 
BRANCH  22  23
ATOM     23  C   UNL A   1      43.571  34.166  25.355  1.00  0.00    -0.000 C 
BRANCH  23  24
ATOM     24  C   UNL A   1      42.938  35.244  26.237  1.00  0.00    -0.003 C 
ATOM     25  C   UNL A   1      42.996  34.915  27.720  1.00  0.00     0.004 C 
ENDBRANCH  23  24
ENDBRANCH  22  23
ENDBRANCH  21  22
ENDBRANCH  20  21
ENDBRANCH  17  20
ENDBRANCH  15  16
ENDBRANCH  10  15
ENDBRANCH   4   9
BRANCH   6  26
ATOM     26  N   UNL A   1      43.006  26.987  24.957  1.00  0.00     0.063 N 
ATOM     27  O   UNL A   1      41.917  26.480  25.265  1.00  0.00    -0.258 OA
ATOM     28  O   UNL A   1      43.140  27.950  24.189  1.00  0.00    -0.258 OA
ENDBRANCH   6  26
ENDBRANCH   1   3
BRANCH   1  29
ATOM     29  C   UNL A   1      45.048  22.133  24.183  1.00  0.00     0.227 C 
ATOM     30  O   UNL A   1      44.859  22.897  23.227  1.00  0.00    -0.274 OA
ATOM     31  N   UNL A   1      44.866  20.809  23.933  1.00  0.00    -0.356 N 
ATOM     32  H   UNL A   1      44.643  20.606  22.996  1.00  0.00     0.163 HD
BRANCH  31  33
ATOM     33  C   UNL A   1      44.937  19.639  24.786  1.00  0.00     0.117 C 
BRANCH  33  34
ATOM     34  C   UNL A   1      43.602  18.906  24.879  1.00  0.00     0.042 C 
BRANCH  34  35
ATOM     35  C   UNL A   1      42.831  19.178  26.161  1.00  0.00     0.118 C 
BRANCH  35  36
ATOM     36  N   UNL A   1      41.414  19.389  25.910  1.00  0.00    -0.352 N 
ATOM     37  C   UNL A   1      40.578  20.409  26.291  1.00  0.00     0.251 C 
ATOM     38  H   UNL A   1      40.982  18.683  25.378  1.00  0.00     0.163 HD
ATOM     39  O   UNL A   1      39.366  20.249  26.158  1.00  0.00    -0.269 OA
BRANCH  37  40
ATOM     40  C   UNL A   1      41.100  21.681  26.847  1.00  0.00     0.039 A 
ATOM     41  C   UNL A   1      41.366  21.749  28.219  1.00  0.00     0.014 A 
ATOM     42  C   UNL A   1      41.248  22.827  26.062  1.00  0.00     0.014 A 
ATOM     43  C   UNL A   1      41.781  22.953  28.794  1.00  0.00     0.010 A 
ATOM     44  C   UNL A   1      41.760  23.998  26.616  1.00  0.00     0.010 A 
ATOM     45  C   UNL A   1      41.987  24.089  27.995  1.00  0.00    -0.014 A 
BRANCH  45  46
ATOM     46  C   UNL A   1      42.372  25.390  28.598  1.00  0.00     0.031 A 
ATOM     47  C   UNL A   1      43.767  25.592  29.135  1.00  0.00     0.074 A 
ATOM     48  C   UNL A   1      41.460  26.376  28.704  1.00  0.00     0.049 A 
ATOM     49  N   UNL A   1      44.293  26.652  29.692  1.00  0.00    -0.248 NA
ATOM     50  C   UNL A   1      44.686  24.442  29.065  1.00  0.00     0.031 C 
ATOM     51  C   UNL A   1      40.055  26.276  28.300  1.00  0.00     0.029 A 
ATOM     52  N   UNL A   1      41.573  27.651  29.197  1.00  0.00    -0.354 N 
ATOM     53  C   UNL A   1      45.581  26.287  30.071  1.00  0.00     0.074 A 
ATOM     54  C   UNL A   1      45.744  24.894  29.721  1.00  0.00     0.031 C 
ATOM     55  C   UNL A   1      39.442  27.443  28.548  1.00  0.00     0.029 A 
ATOM     56  C   UNL A   1      40.400  28.368  29.147  1.00  0.00     0.049 A 
ATOM     57  H   UNL A   1      42.413  28.018  29.554  1.00  0.00     0.167 HD
ATOM     58  C   UNL A   1      46.555  27.047  30.625  1.00  0.00     0.034 A 
ATOM     59  C   UNL A   1      40.131  29.631  29.531  1.00  0.00     0.034 A 
ATOM     60  C   UNL A   1      46.404  28.445  30.922  1.00  0.00     0.049 A 
ATOM     61  C   UNL A   1      41.250  30.478  30.073  1.00  0.00     0.074 A 
ATOM     62  C   UNL A   1      47.350  29.331  31.410  1.00  0.00     0.029 A 
ATOM     63  N   UNL A   1      45.231  29.165  30.758  1.00  0.00    -0.354 N 
ATOM     64  N   UNL A   1      42.505  30.157  30.280  1.00  0.00    -0.248 NA
ATOM     65  C   UNL A   1      40.930  31.877  30.387  1.00  0.00     0.031 C 
ATOM     66  C   UNL A   1      46.741  30.582  31.558  1.00  0.00     0.029 A 
ATOM     67  C   UNL A   1      45.427  30.483  31.131  1.00  0.00     0.049 A 
ATOM     68  H   UNL A   1      44.382  28.792  30.425  1.00  0.00     0.167 HD
ATOM     69  C   UNL A   1      43.134  31.324  30.703  1.00  0.00     0.074 A 
ATOM     70  C   UNL A   1      42.123  32.362  30.703  1.00  0.00     0.031 C 
ATOM     71  C   UNL A   1      44.425  31.517  31.068  1.00  0.00     0.034 A 
BRANCH  58  72
ATOM     72  C   UNL A   1      47.888  26.395  30.892  1.00  0.00     0.023 A 
ATOM     73  C   UNL A   1      48.895  26.436  29.904  1.00  0.00     0.012 A 
ATOM     74  C   UNL A   1      48.164  25.784  32.131  1.00  0.00     0.148 A 
ATOM     75  C   UNL A   1      50.137  25.844  30.128  1.00  0.00     0.002 A 
ATOM     76  C   UNL A   1      49.423  25.240  32.366  1.00  0.00     0.091 A 
ATOM     77  F   UNL A   1      47.192  25.736  33.052  1.00  0.00    -0.205 F 
ATOM     78  C   UNL A   1      50.405  25.256  31.361  1.00  0.00     0.022 A 
BRANCH  76  79
ATOM     79  S   UNL A   1      49.895  24.535  33.949  1.00  0.00     0.127 S 
ATOM     80  O   UNL A   1      51.286  24.159  33.701  1.00  0.00    -0.237 OA
ATOM     81  O   UNL A   1      49.725  25.672  34.855  1.00  0.00    -0.237 OA
ATOM     82  O   UNL A   1      48.980  23.427  34.185  1.00  0.00    -0.744 OA
ENDBRANCH  76  79
ENDBRANCH  58  72
BRANCH  59  83
ATOM     83  C   UNL A   1      38.768  30.198  29.327  1.00  0.00     0.023 A 
ATOM     84  C   UNL A   1      38.162  30.100  28.059  1.00  0.00     0.012 A 
ATOM     85  C   UNL A   1      38.060  30.807  30.381  1.00  0.00     0.148 A 
ATOM     86  C   UNL A   1      36.892  30.633  27.833  1.00  0.00     0.002 A 
ATOM     87  C   UNL A   1      36.772  31.284  30.164  1.00  0.00     0.091 A 
ATOM     88  F   UNL A   1      38.656  30.896  31.578  1.00  0.00    -0.205 F 
ATOM     89  C   UNL A   1      36.194  31.216  28.886  1.00  0.00     0.022 A 
BRANCH  87  90
ATOM     90  S   UNL A   1      35.748  31.933  31.490  1.00  0.00     0.127 S 
ATOM     91  O   UNL A   1      36.493  33.124  31.889  1.00  0.00    -0.237 OA
ATOM     92  O   UNL A   1      34.487  32.199  30.796  1.00  0.00    -0.237 OA
ATOM     93  O   UNL A   1      35.670  30.872  32.485  1.00  0.00    -0.744 OA
ENDBRANCH  87  90
ENDBRANCH  59  83
BRANCH  71  94
ATOM     94  C   UNL A   1      44.840  32.915  31.445  1.00  0.00     0.023 A 
ATOM     95  C   UNL A   1      44.641  33.382  32.759  1.00  0.00     0.012 A 
ATOM     96  C   UNL A   1      45.479  33.746  30.504  1.00  0.00     0.148 A 
ATOM     97  C   UNL A   1      45.031  34.672  33.118  1.00  0.00     0.002 A 
ATOM     98  C   UNL A   1      45.913  35.012  30.885  1.00  0.00     0.091 A 
ATOM     99  F   UNL A   1      45.642  33.294  29.253  1.00  0.00    -0.205 F 
ATOM    100  C   UNL A   1      45.675  35.481  32.185  1.00  0.00     0.022 A 
BRANCH  98 101
ATOM    101  S   UNL A   1      46.840  36.074  29.773  1.00  0.00     0.127 S 
ATOM    102  O   UNL A   1      45.801  36.515  28.845  1.00  0.00    -0.237 OA
ATOM    103  O   UNL A   1      47.333  37.117  30.676  1.00  0.00    -0.237 OA
ATOM    104  O   UNL A   1      47.884  35.236  29.200  1.00  0.00    -0.744 OA
ENDBRANCH  98 101
ENDBRANCH  71  94
ENDBRANCH  45  46
ENDBRANCH  37  40
ENDBRANCH  35  36
ENDBRANCH  34  35
ENDBRANCH  33  34
ENDBRANCH  31  33
ENDBRANCH   1  29
TORSDOF 23
ENDMDL
MODEL 3
REMARK VINA RESULT:      -8.0      4.250     10.238
REMARK SMILES CCCCCCNC(=O)Oc1cccc(-c2ccc([C@@H](C)C(=O)NCCCNC(=O)c3ccc(-c4c5nc(c(-c6cccc(S(=O)(=O)[O-])c6F)c6ccc([nH]6)c(-c6cccc(S(=O)(=O)[O-])c6F)c6nc(c(-c7cccc(S(=O)(=O)[O-])c7F)c7ccc4[nH]7)C=C6)C=C5)cc3)cc2[N+](=O)[O-])c1
REMARK SMILES IDX 20 1 21 2 19 3 16 4 17 5 95 6 18 7 94 8 15 9 11 10 12 11
REMARK SMILES IDX 99 12 13 13 14 14 10 15 8 16 7 17 9 19 6 20 5 21 4 22 3 23
REMARK SMILES IDX 2 24 1 25 96 26 97 27 98 28 22 29 23 30 24 31 25 33 26 34
REMARK SMILES IDX 27 35 28 36 29 37 30 39 31 40 32 41 93 42 33 43 92 44 34 45
REMARK SMILES IDX 35 46 36 47 86 48 37 49 91 50 85 51 87 52 38 53 90 54 84 55
REMARK SMILES IDX 83 56 39 58 71 59 51 60 70 61 52 62 55 63 69 64 88 65 53 66
REMARK SMILES IDX 54 67 68 69 89 70 56 71 40 72 41 73 49 74 42 75 44 76 50 77
REMARK SMILES IDX 43 78 45 79 46 80 47 81 48 82 72 83 73 84 81 85 74 86 76 87
REMARK SMILES IDX 82 88 75 89 77 90 78 91 79 92 80 93 57 94 58 95 66 96 59 97
REMARK SMILES IDX 61 98 67 99 60 100 62 101 63 102 64 103 65 104
REMARK H PARENT 7 18 24 32 28 38 87 57 55 68
REMARK Flexibility Score: inf
ROOT
ATOM      1  C   UNL A   1      37.207  32.706  30.103  1.00  0.00     0.105 C 
ATOM      2  C   UNL A   1      37.605  34.080  29.566  1.00  0.00     0.023 C 
ENDROOT
BRANCH   1   3
ATOM      3  C   UNL A   1      37.898  31.523  29.442  1.00  0.00    -0.029 A 
ATOM      4  C   UNL A   1      39.095  29.126  28.399  1.00  0.00     0.060 A 
ATOM      5  C   UNL A   1      37.945  29.701  27.827  1.00  0.00     0.016 A 
ATOM      6  C   UNL A   1      39.689  29.852  29.448  1.00  0.00     0.277 A 
ATOM      7  C   UNL A   1      37.395  30.897  28.303  1.00  0.00     0.005 A 
ATOM      8  C   UNL A   1      39.079  31.004  29.993  1.00  0.00     0.090 A 
BRANCH   4   9
ATOM      9  C   UNL A   1      39.535  27.802  27.905  1.00  0.00    -0.008 A 
ATOM     10  C   UNL A   1      40.892  26.427  26.429  1.00  0.00     0.133 A 
ATOM     11  C   UNL A   1      40.464  25.265  27.062  1.00  0.00     0.047 A 
ATOM     12  C   UNL A   1      40.447  27.685  26.842  1.00  0.00     0.056 A 
ATOM     13  C   UNL A   1      39.575  25.361  28.126  1.00  0.00     0.004 A 
ATOM     14  C   UNL A   1      39.107  26.615  28.534  1.00  0.00     0.009 A 
BRANCH  10  15
ATOM     15  O   UNL A   1      41.678  26.263  25.277  1.00  0.00    -0.410 OA
BRANCH  15  16
ATOM     16  C   UNL A   1      42.697  27.163  25.007  1.00  0.00     0.412 C 
ATOM     17  N   UNL A   1      43.926  26.698  25.394  1.00  0.00    -0.321 N 
ATOM     18  H   UNL A   1      44.685  27.317  25.293  1.00  0.00     0.167 HD
ATOM     19  O   UNL A   1      42.575  28.254  24.466  1.00  0.00    -0.224 OA
BRANCH  17  20
ATOM     20  C   UNL A   1      44.221  25.388  25.937  1.00  0.00     0.119 C 
BRANCH  20  21
ATOM     21  C   UNL A   1      44.539  24.379  24.831  1.00  0.00     0.021 C 
BRANCH  21  22
ATOM     22  C   UNL A   1      43.558  23.204  24.736  1.00  0.00     0.002 C 
BRANCH  22  23
ATOM     23  C   UNL A   1      43.874  22.011  25.646  1.00  0.00    -0.000 C 
BRANCH  23  24
ATOM     24  C   UNL A   1      45.363  21.745  25.882  1.00  0.00    -0.003 C 
ATOM     25  C   UNL A   1      46.071  21.179  24.661  1.00  0.00     0.004 C 
ENDBRANCH  23  24
ENDBRANCH  22  23
ENDBRANCH  21  22
ENDBRANCH  20  21
ENDBRANCH  17  20
ENDBRANCH  15  16
ENDBRANCH  10  15
ENDBRANCH   4   9
BRANCH   6  26
ATOM     26  N   UNL A   1      41.012  29.501  29.969  1.00  0.00     0.063 N 
ATOM     27  O   UNL A   1      41.073  28.571  30.787  1.00  0.00    -0.258 OA
ATOM     28  O   UNL A   1      41.975  30.205  29.633  1.00  0.00    -0.258 OA
ENDBRANCH   6  26
ENDBRANCH   1   3
BRANCH   1  29
ATOM     29  C   UNL A   1      35.695  32.513  30.308  1.00  0.00     0.227 C 
ATOM     30  O   UNL A   1      35.156  31.464  29.933  1.00  0.00    -0.274 OA
ATOM     31  N   UNL A   1      34.879  33.425  30.902  1.00  0.00    -0.356 N 
ATOM     32  H   UNL A   1      33.948  33.121  31.003  1.00  0.00     0.163 HD
BRANCH  31  33
ATOM     33  C   UNL A   1      35.120  34.760  31.413  1.00  0.00     0.117 C 
BRANCH  33  34
ATOM     34  C   UNL A   1      35.566  34.751  32.872  1.00  0.00     0.042 C 
BRANCH  34  35
ATOM     35  C   UNL A   1      34.736  33.850  33.771  1.00  0.00     0.118 C 
BRANCH  35  36
ATOM     36  N   UNL A   1      35.094  34.001  35.172  1.00  0.00    -0.352 N 
ATOM     37  C   UNL A   1      36.208  33.591  35.862  1.00  0.00     0.251 C 
ATOM     38  H   UNL A   1      34.426  34.474  35.718  1.00  0.00     0.163 HD
ATOM     39  O   UNL A   1      36.179  33.627  37.091  1.00  0.00    -0.269 OA
BRANCH  37  40
ATOM     40  C   UNL A   1      37.429  33.120  35.165  1.00  0.00     0.039 A 
ATOM     41  C   UNL A   1      38.644  33.754  35.449  1.00  0.00     0.014 A 
ATOM     42  C   UNL A   1      37.385  32.132  34.179  1.00  0.00     0.014 A 
ATOM     43  C   UNL A   1      39.802  33.393  34.754  1.00  0.00     0.010 A 
ATOM     44  C   UNL A   1      38.556  31.701  33.561  1.00  0.00     0.010 A 
ATOM     45  C   UNL A   1      39.769  32.358  33.806  1.00  0.00    -0.014 A 
BRANCH  45  46
ATOM     46  C   UNL A   1      40.977  32.003  33.017  1.00  0.00     0.031 A 
ATOM     47  C   UNL A   1      41.744  30.743  33.336  1.00  0.00     0.074 A 
ATOM     48  C   UNL A   1      41.410  32.829  32.046  1.00  0.00     0.049 A 
ATOM     49  N   UNL A   1      42.816  30.262  32.762  1.00  0.00    -0.248 NA
ATOM     50  C   UNL A   1      41.262  29.932  34.468  1.00  0.00     0.031 C 
ATOM     51  C   UNL A   1      40.806  34.117  31.699  1.00  0.00     0.029 A 
ATOM     52  N   UNL A   1      42.470  32.716  31.182  1.00  0.00    -0.354 N 
ATOM     53  C   UNL A   1      43.156  29.120  33.482  1.00  0.00     0.074 A 
ATOM     54  C   UNL A   1      42.204  29.006  34.563  1.00  0.00     0.031 C 
ATOM     55  C   UNL A   1      41.494  34.668  30.687  1.00  0.00     0.029 A 
ATOM     56  C   UNL A   1      42.601  33.785  30.327  1.00  0.00     0.049 A 
ATOM     57  H   UNL A   1      43.080  31.944  31.176  1.00  0.00     0.167 HD
ATOM     58  C   UNL A   1      44.146  28.227  33.248  1.00  0.00     0.034 A 
ATOM     59  C   UNL A   1      43.505  34.022  29.356  1.00  0.00     0.034 A 
ATOM     60  C   UNL A   1      45.058  28.319  32.140  1.00  0.00     0.049 A 
ATOM     61  C   UNL A   1      44.548  32.978  29.066  1.00  0.00     0.074 A 
ATOM     62  C   UNL A   1      46.047  27.428  31.761  1.00  0.00     0.029 A 
ATOM     63  N   UNL A   1      45.091  29.364  31.230  1.00  0.00    -0.354 N 
ATOM     64  N   UNL A   1      44.757  31.829  29.663  1.00  0.00    -0.248 NA
ATOM     65  C   UNL A   1      45.449  33.237  27.935  1.00  0.00     0.031 C 
ATOM     66  C   UNL A   1      46.691  27.945  30.631  1.00  0.00     0.029 A 
ATOM     67  C   UNL A   1      46.080  29.141  30.289  1.00  0.00     0.049 A 
ATOM     68  H   UNL A   1      44.498  30.150  31.251  1.00  0.00     0.167 HD
ATOM     69  C   UNL A   1      45.779  31.208  28.953  1.00  0.00     0.074 A 
ATOM     70  C   UNL A   1      46.134  32.104  27.869  1.00  0.00     0.031 C 
ATOM     71  C   UNL A   1      46.379  30.015  29.182  1.00  0.00     0.034 A 
BRANCH  58  72
ATOM     72  C   UNL A   1      44.257  27.043  34.175  1.00  0.00     0.023 A 
ATOM     73  C   UNL A   1      43.604  25.837  33.847  1.00  0.00     0.012 A 
ATOM     74  C   UNL A   1      45.043  27.105  35.343  1.00  0.00     0.148 A 
ATOM     75  C   UNL A   1      43.695  24.726  34.685  1.00  0.00     0.002 A 
ATOM     76  C   UNL A   1      45.169  25.978  36.148  1.00  0.00     0.091 A 
ATOM     77  F   UNL A   1      45.642  28.263  35.652  1.00  0.00    -0.205 F 
ATOM     78  C   UNL A   1      44.485  24.793  35.829  1.00  0.00     0.022 A 
BRANCH  76  79
ATOM     79  S   UNL A   1      46.230  25.934  37.597  1.00  0.00     0.127 S 
ATOM     80  O   UNL A   1      45.545  26.865  38.493  1.00  0.00    -0.237 OA
ATOM     81  O   UNL A   1      46.145  24.529  37.998  1.00  0.00    -0.237 OA
ATOM     82  O   UNL A   1      47.548  26.359  37.144  1.00  0.00    -0.744 OA
ENDBRANCH  76  79
ENDBRANCH  58  72
BRANCH  59  83
ATOM     83  C   UNL A   1      43.401  35.256  28.527  1.00  0.00     0.023 A 
ATOM     84  C   UNL A   1      42.677  35.219  27.319  1.00  0.00     0.012 A 
ATOM     85  C   UNL A   1      43.990  36.468  28.936  1.00  0.00     0.148 A 
ATOM     86  C   UNL A   1      42.573  36.355  26.515  1.00  0.00     0.002 A 
ATOM     87  C   UNL A   1      43.835  37.611  28.159  1.00  0.00     0.091 A 
ATOM     88  F   UNL A   1      44.681  36.482  30.085  1.00  0.00    -0.205 F 
ATOM     89  C   UNL A   1      43.143  37.552  26.939  1.00  0.00     0.022 A 
BRANCH  87  90
ATOM     90  S   UNL A   1      44.424  39.224  28.687  1.00  0.00     0.127 S 
ATOM     91  O   UNL A   1      44.607  39.909  27.410  1.00  0.00    -0.237 OA
ATOM     92  O   UNL A   1      43.300  39.708  29.490  1.00  0.00    -0.237 OA
ATOM     93  O   UNL A   1      45.638  38.971  29.450  1.00  0.00    -0.744 OA
ENDBRANCH  87  90
ENDBRANCH  59  83
BRANCH  71  94
ATOM     94  C   UNL A   1      47.442  29.573  28.211  1.00  0.00     0.023 A 
ATOM     95  C   UNL A   1      48.804  29.771  28.515  1.00  0.00     0.012 A 
ATOM     96  C   UNL A   1      47.089  28.908  27.020  1.00  0.00     0.148 A 
ATOM     97  C   UNL A   1      49.795  29.357  27.625  1.00  0.00     0.002 A 
ATOM     98  C   UNL A   1      48.085  28.451  26.164  1.00  0.00     0.091 A 
ATOM     99  F   UNL A   1      45.788  28.746  26.737  1.00  0.00    -0.205 F 
ATOM    100  C   UNL A   1      49.436  28.688  26.457  1.00  0.00     0.022 A 
BRANCH  98 101
ATOM    101  S   UNL A   1      47.709  27.493  24.693  1.00  0.00     0.127 S 
ATOM    102  O   UNL A   1      46.444  28.085  24.265  1.00  0.00    -0.237 OA
ATOM    103  O   UNL A   1      48.848  27.795  23.823  1.00  0.00    -0.237 OA
ATOM    104  O   UNL A   1      47.640  26.104  25.128  1.00  0.00    -0.744 OA
ENDBRANCH  98 101
ENDBRANCH  71  94
ENDBRANCH  45  46
ENDBRANCH  37  40
ENDBRANCH  35  36
ENDBRANCH  34  35
ENDBRANCH  33  34
ENDBRANCH  31  33
ENDBRANCH   1  29
TORSDOF 23
ENDMDL
