MODEL 1
REMARK VINA RESULT:     -10.7      0.000      0.000
REMARK SMILES [NH3+]CCOCC(=O)N[C@]1(C(=O)NCCCNC(=O)c2ccc(-c3c4nc(c(-c5cccc(S(=O)(=O)[O-])c5F)c5ccc([nH]5)c(-c5cccc(S(=O)(=O)[O-])c5F)c5nc(c(-c6cccc(S(=O)(=O)[O-])c6F)c6ccc3[nH]6)C=C5)C=C4)cc2)CCOC1
REMARK SMILES IDX 10 1 11 2 12 3 9 5 82 6 85 7 83 8 84 9 8 10 6 11 7 12 5 14
REMARK SMILES IDX 4 15 3 16 2 17 1 18 13 22 14 23 15 24 16 25 17 26 18 28
REMARK SMILES IDX 19 29 20 30 81 31 21 32 80 33 22 34 23 35 24 36 74 37 25 38
REMARK SMILES IDX 79 39 73 40 75 41 26 42 78 43 72 44 71 45 27 47 59 48 39 49
REMARK SMILES IDX 58 50 40 51 43 52 57 53 76 54 41 55 42 56 56 58 77 59 44 60
REMARK SMILES IDX 28 61 29 62 37 63 30 64 32 65 38 66 31 67 33 68 34 69 35 70
REMARK SMILES IDX 36 71 60 72 61 73 69 74 62 75 64 76 70 77 63 78 65 79 66 80
REMARK SMILES IDX 67 81 68 82 45 83 46 84 54 85 47 86 49 87 55 88 48 89 50 90
REMARK SMILES IDX 51 91 52 92 53 93
REMARK H PARENT 12 4 8 13 1 19 1 20 1 21 16 27 75 46 43 57
REMARK Flexibility Score: inf
ROOT
ATOM      1  C   UNL A   1      32.938  28.987  24.476  1.00  0.00     0.248 C 
ATOM      2  O   UNL A   1      33.879  29.180  23.696  1.00  0.00    -0.272 OA
ATOM      3  N   UNL A   1      32.478  30.080  25.130  1.00  0.00    -0.354 N 
ATOM      4  H   UNL A   1      32.521  30.922  24.622  1.00  0.00     0.163 HD
ENDROOT
BRANCH   1   5
ATOM      5  C   UNL A   1      32.338  27.573  24.673  1.00  0.00     0.144 C 
ATOM      6  C   UNL A   1      33.311  26.760  25.530  1.00  0.00     0.069 C 
ATOM      7  C   UNL A   1      31.013  27.484  25.443  1.00  0.00     0.198 C 
ATOM      8  C   UNL A   1      32.428  25.987  26.482  1.00  0.00     0.163 C 
ATOM      9  O   UNL A   1      31.261  26.784  26.675  1.00  0.00    -0.378 OA
BRANCH   5  10
ATOM     10  N   UNL A   1      32.184  26.962  23.328  1.00  0.00    -0.338 N 
ATOM     11  C   UNL A   1      31.143  27.096  22.449  1.00  0.00     0.246 C 
ATOM     12  O   UNL A   1      31.094  26.347  21.470  1.00  0.00    -0.272 OA
ATOM     13  H   UNL A   1      32.926  26.389  23.029  1.00  0.00     0.164 HD
BRANCH  11  14
ATOM     14  C   UNL A   1      30.031  28.135  22.689  1.00  0.00     0.260 C 
BRANCH  14  15
ATOM     15  O   UNL A   1      29.737  29.012  21.616  1.00  0.00    -0.366 OA
BRANCH  15  16
ATOM     16  C   UNL A   1      29.479  30.363  22.001  1.00  0.00     0.222 C 
BRANCH  16  17
ATOM     17  C   UNL A   1      29.329  30.570  23.518  1.00  0.00     0.287 C 
BRANCH  17  18
ATOM     18  N   UNL A   1      29.407  31.961  23.970  1.00  0.00    -0.356 N 
ATOM     19  H   UNL A   1      30.228  32.407  23.560  1.00  0.00     0.344 HD
ATOM     20  H   UNL A   1      29.480  31.985  24.987  1.00  0.00     0.344 HD
ATOM     21  H   UNL A   1      28.568  32.462  23.678  1.00  0.00     0.344 HD
ENDBRANCH  17  18
ENDBRANCH  16  17
ENDBRANCH  15  16
ENDBRANCH  14  15
ENDBRANCH  11  14
ENDBRANCH   5  10
ENDBRANCH   1   5
BRANCH   3  22
ATOM     22  C   UNL A   1      31.933  30.193  26.469  1.00  0.00     0.117 C 
BRANCH  22  23
ATOM     23  C   UNL A   1      31.657  31.652  26.804  1.00  0.00     0.042 C 
BRANCH  23  24
ATOM     24  C   UNL A   1      32.900  32.422  27.230  1.00  0.00     0.118 C 
BRANCH  24  25
ATOM     25  N   UNL A   1      32.611  33.816  27.534  1.00  0.00    -0.352 N 
ATOM     26  C   UNL A   1      33.110  34.602  28.544  1.00  0.00     0.251 C 
ATOM     27  H   UNL A   1      31.969  34.257  26.931  1.00  0.00     0.163 HD
ATOM     28  O   UNL A   1      32.598  35.687  28.790  1.00  0.00    -0.269 OA
BRANCH  26  29
ATOM     29  C   UNL A   1      34.257  34.114  29.338  1.00  0.00     0.039 A 
ATOM     30  C   UNL A   1      34.017  33.306  30.451  1.00  0.00     0.014 A 
ATOM     31  C   UNL A   1      35.565  34.440  28.969  1.00  0.00     0.014 A 
ATOM     32  C   UNL A   1      35.098  32.778  31.160  1.00  0.00     0.010 A 
ATOM     33  C   UNL A   1      36.635  33.837  29.616  1.00  0.00     0.010 A 
ATOM     34  C   UNL A   1      36.414  33.011  30.728  1.00  0.00    -0.014 A 
BRANCH  34  35
ATOM     35  C   UNL A   1      37.574  32.401  31.426  1.00  0.00     0.031 A 
ATOM     36  C   UNL A   1      38.320  31.257  30.792  1.00  0.00     0.074 A 
ATOM     37  C   UNL A   1      37.905  32.824  32.661  1.00  0.00     0.049 A 
ATOM     38  N   UNL A   1      39.324  30.566  31.265  1.00  0.00    -0.248 NA
ATOM     39  C   UNL A   1      37.860  30.812  29.465  1.00  0.00     0.031 C 
ATOM     40  C   UNL A   1      37.210  33.872  33.413  1.00  0.00     0.029 A 
ATOM     41  N   UNL A   1      38.897  32.409  33.513  1.00  0.00    -0.354 N 
ATOM     42  C   UNL A   1      39.594  29.589  30.314  1.00  0.00     0.074 A 
ATOM     43  C   UNL A   1      38.621  29.747  29.257  1.00  0.00     0.031 C 
ATOM     44  C   UNL A   1      37.804  34.025  34.606  1.00  0.00     0.029 A 
ATOM     45  C   UNL A   1      38.896  33.065  34.722  1.00  0.00     0.049 A 
ATOM     46  H   UNL A   1      39.548  31.707  33.282  1.00  0.00     0.167 HD
ATOM     47  C   UNL A   1      40.581  28.662  30.306  1.00  0.00     0.034 A 
ATOM     48  C   UNL A   1      39.682  32.904  35.806  1.00  0.00     0.034 A 
ATOM     49  C   UNL A   1      41.566  28.530  31.344  1.00  0.00     0.049 A 
ATOM     50  C   UNL A   1      40.785  31.882  35.761  1.00  0.00     0.074 A 
ATOM     51  C   UNL A   1      42.656  27.678  31.393  1.00  0.00     0.029 A 
ATOM     52  N   UNL A   1      41.577  29.261  32.523  1.00  0.00    -0.354 N 
ATOM     53  N   UNL A   1      41.120  31.070  34.788  1.00  0.00    -0.248 NA
ATOM     54  C   UNL A   1      41.642  31.779  36.951  1.00  0.00     0.031 C 
ATOM     55  C   UNL A   1      43.305  27.870  32.616  1.00  0.00     0.029 A 
ATOM     56  C   UNL A   1      42.644  28.870  33.312  1.00  0.00     0.049 A 
ATOM     57  H   UNL A   1      40.921  29.954  32.762  1.00  0.00     0.167 HD
ATOM     58  C   UNL A   1      42.247  30.390  35.230  1.00  0.00     0.074 A 
ATOM     59  C   UNL A   1      42.551  30.899  36.552  1.00  0.00     0.031 C 
ATOM     60  C   UNL A   1      42.962  29.421  34.605  1.00  0.00     0.034 A 
BRANCH  47  61
ATOM     61  C   UNL A   1      40.669  27.745  29.113  1.00  0.00     0.023 A 
ATOM     62  C   UNL A   1      39.799  26.639  29.014  1.00  0.00     0.012 A 
ATOM     63  C   UNL A   1      41.575  28.004  28.065  1.00  0.00     0.148 A 
ATOM     64  C   UNL A   1      39.856  25.784  27.915  1.00  0.00     0.002 A 
ATOM     65  C   UNL A   1      41.591  27.176  26.949  1.00  0.00     0.091 A 
ATOM     66  F   UNL A   1      42.408  29.049  28.183  1.00  0.00    -0.205 F 
ATOM     67  C   UNL A   1      40.744  26.058  26.879  1.00  0.00     0.022 A 
BRANCH  65  68
ATOM     68  S   UNL A   1      42.637  27.491  25.523  1.00  0.00     0.127 S 
ATOM     69  O   UNL A   1      41.972  28.645  24.919  1.00  0.00    -0.237 OA
ATOM     70  O   UNL A   1      43.926  27.789  26.148  1.00  0.00    -0.237 OA
ATOM     71  O   UNL A   1      42.614  26.271  24.730  1.00  0.00    -0.744 OA
ENDBRANCH  65  68
ENDBRANCH  47  61
BRANCH  48  72
ATOM     72  C   UNL A   1      39.491  33.773  37.002  1.00  0.00     0.023 A 
ATOM     73  C   UNL A   1      39.940  35.107  36.968  1.00  0.00     0.012 A 
ATOM     74  C   UNL A   1      38.850  33.294  38.160  1.00  0.00     0.148 A 
ATOM     75  C   UNL A   1      39.790  35.937  38.079  1.00  0.00     0.002 A 
ATOM     76  C   UNL A   1      38.652  34.143  39.243  1.00  0.00     0.091 A 
ATOM     77  F   UNL A   1      38.436  32.020  38.175  1.00  0.00    -0.205 F 
ATOM     78  C   UNL A   1      39.139  35.458  39.212  1.00  0.00     0.022 A 
BRANCH  76  79
ATOM     79  S   UNL A   1      37.708  33.654  40.690  1.00  0.00     0.127 S 
ATOM     80  O   UNL A   1      36.557  32.987  40.087  1.00  0.00    -0.237 OA
ATOM     81  O   UNL A   1      38.647  32.766  41.377  1.00  0.00    -0.237 OA
ATOM     82  O   UNL A   1      37.417  34.889  41.407  1.00  0.00    -0.744 OA
ENDBRANCH  76  79
ENDBRANCH  48  72
BRANCH  60  83
ATOM     83  C   UNL A   1      44.174  28.876  35.317  1.00  0.00     0.023 A 
ATOM     84  C   UNL A   1      45.435  29.471  35.119  1.00  0.00     0.012 A 
ATOM     85  C   UNL A   1      44.043  27.816  36.236  1.00  0.00     0.148 A 
ATOM     86  C   UNL A   1      46.556  28.994  35.798  1.00  0.00     0.002 A 
ATOM     87  C   UNL A   1      45.154  27.383  36.950  1.00  0.00     0.091 A 
ATOM     88  F   UNL A   1      42.838  27.253  36.398  1.00  0.00    -0.205 F 
ATOM     89  C   UNL A   1      46.414  27.960  36.722  1.00  0.00     0.022 A 
BRANCH  87  90
ATOM     90  S   UNL A   1      45.048  26.128  38.230  1.00  0.00     0.127 S 
ATOM     91  O   UNL A   1      46.434  26.054  38.689  1.00  0.00    -0.237 OA
ATOM     92  O   UNL A   1      44.121  26.738  39.184  1.00  0.00    -0.237 OA
ATOM     93  O   UNL A   1      44.542  24.928  37.577  1.00  0.00    -0.744 OA
ENDBRANCH  87  90
ENDBRANCH  60  83
ENDBRANCH  34  35
ENDBRANCH  26  29
ENDBRANCH  24  25
ENDBRANCH  23  24
ENDBRANCH  22  23
ENDBRANCH   3  22
TORSDOF 19
ENDMDL
MODEL 2
REMARK VINA RESULT:     -10.0      5.862      9.109
REMARK SMILES [NH3+]CCOCC(=O)N[C@]1(C(=O)NCCCNC(=O)c2ccc(-c3c4nc(c(-c5cccc(S(=O)(=O)[O-])c5F)c5ccc([nH]5)c(-c5cccc(S(=O)(=O)[O-])c5F)c5nc(c(-c6cccc(S(=O)(=O)[O-])c6F)c6ccc3[nH]6)C=C5)C=C4)cc2)CCOC1
REMARK SMILES IDX 10 1 11 2 12 3 9 5 82 6 85 7 83 8 84 9 8 10 6 11 7 12 5 14
REMARK SMILES IDX 4 15 3 16 2 17 1 18 13 22 14 23 15 24 16 25 17 26 18 28
REMARK SMILES IDX 19 29 20 30 81 31 21 32 80 33 22 34 23 35 24 36 74 37 25 38
REMARK SMILES IDX 79 39 73 40 75 41 26 42 78 43 72 44 71 45 27 47 59 48 39 49
REMARK SMILES IDX 58 50 40 51 43 52 57 53 76 54 41 55 42 56 56 58 77 59 44 60
REMARK SMILES IDX 28 61 29 62 37 63 30 64 32 65 38 66 31 67 33 68 34 69 35 70
REMARK SMILES IDX 36 71 60 72 61 73 69 74 62 75 64 76 70 77 63 78 65 79 66 80
REMARK SMILES IDX 67 81 68 82 45 83 46 84 54 85 47 86 49 87 55 88 48 89 50 90
REMARK SMILES IDX 51 91 52 92 53 93
REMARK H PARENT 12 4 8 13 1 19 1 20 1 21 16 27 75 46 43 57
REMARK Flexibility Score: inf
ROOT
ATOM      1  C   UNL A   1      34.362  24.562  23.997  1.00  0.00     0.248 C 
ATOM      2  O   UNL A   1      34.553  24.419  22.783  1.00  0.00    -0.272 OA
ATOM      3  N   UNL A   1      35.314  24.048  24.811  1.00  0.00    -0.354 N 
ATOM      4  H   UNL A   1      36.233  24.086  24.459  1.00  0.00     0.163 HD
ENDROOT
BRANCH   1   5
ATOM      5  C   UNL A   1      33.103  25.290  24.530  1.00  0.00     0.144 C 
ATOM      6  C   UNL A   1      33.564  26.485  25.368  1.00  0.00     0.069 C 
ATOM      7  C   UNL A   1      32.171  25.918  23.484  1.00  0.00     0.198 C 
ATOM      8  C   UNL A   1      32.616  27.601  24.999  1.00  0.00     0.163 C 
ATOM      9  O   UNL A   1      32.208  27.345  23.655  1.00  0.00    -0.378 OA
BRANCH   5  10
ATOM     10  N   UNL A   1      32.348  24.321  25.365  1.00  0.00    -0.338 N 
ATOM     11  C   UNL A   1      31.550  23.288  24.954  1.00  0.00     0.246 C 
ATOM     12  O   UNL A   1      30.836  22.722  25.787  1.00  0.00    -0.272 OA
ATOM     13  H   UNL A   1      32.432  24.437  26.339  1.00  0.00     0.164 HD
BRANCH  11  14
ATOM     14  C   UNL A   1      31.510  22.856  23.475  1.00  0.00     0.260 C 
BRANCH  14  15
ATOM     15  O   UNL A   1      32.329  21.760  23.110  1.00  0.00    -0.366 OA
BRANCH  15  16
ATOM     16  C   UNL A   1      33.062  21.175  24.187  1.00  0.00     0.222 C 
BRANCH  16  17
ATOM     17  C   UNL A   1      32.686  19.714  24.488  1.00  0.00     0.287 C 
BRANCH  17  18
ATOM     18  N   UNL A   1      33.802  18.849  24.878  1.00  0.00    -0.356 N 
ATOM     19  H   UNL A   1      33.478  18.164  25.561  1.00  0.00     0.344 HD
ATOM     20  H   UNL A   1      34.544  19.414  25.290  1.00  0.00     0.344 HD
ATOM     21  H   UNL A   1      34.161  18.364  24.055  1.00  0.00     0.344 HD
ENDBRANCH  17  18
ENDBRANCH  16  17
ENDBRANCH  15  16
ENDBRANCH  14  15
ENDBRANCH  11  14
ENDBRANCH   5  10
ENDBRANCH   1   5
BRANCH   3  22
ATOM     22  C   UNL A   1      35.181  23.451  26.126  1.00  0.00     0.117 C 
BRANCH  22  23
ATOM     23  C   UNL A   1      35.779  22.051  26.131  1.00  0.00     0.042 C 
BRANCH  23  24
ATOM     24  C   UNL A   1      36.918  21.874  25.135  1.00  0.00     0.118 C 
BRANCH  24  25
ATOM     25  N   UNL A   1      37.838  20.816  25.528  1.00  0.00    -0.352 N 
ATOM     26  C   UNL A   1      39.107  20.922  26.045  1.00  0.00     0.251 C 
ATOM     27  H   UNL A   1      37.506  19.897  25.406  1.00  0.00     0.163 HD
ATOM     28  O   UNL A   1      39.827  19.934  26.115  1.00  0.00    -0.269 OA
BRANCH  26  29
ATOM     29  C   UNL A   1      39.594  22.242  26.497  1.00  0.00     0.039 A 
ATOM     30  C   UNL A   1      40.580  22.299  27.483  1.00  0.00     0.014 A 
ATOM     31  C   UNL A   1      39.091  23.416  25.930  1.00  0.00     0.014 A 
ATOM     32  C   UNL A   1      41.102  23.539  27.859  1.00  0.00     0.010 A 
ATOM     33  C   UNL A   1      39.677  24.636  26.237  1.00  0.00     0.010 A 
ATOM     34  C   UNL A   1      40.680  24.714  27.215  1.00  0.00    -0.014 A 
BRANCH  34  35
ATOM     35  C   UNL A   1      41.272  26.032  27.551  1.00  0.00     0.031 A 
ATOM     36  C   UNL A   1      42.695  26.340  27.170  1.00  0.00     0.074 A 
ATOM     37  C   UNL A   1      40.555  26.921  28.267  1.00  0.00     0.049 A 
ATOM     38  N   UNL A   1      43.400  27.413  27.416  1.00  0.00    -0.248 NA
ATOM     39  C   UNL A   1      43.433  25.294  26.440  1.00  0.00     0.031 C 
ATOM     40  C   UNL A   1      39.193  26.709  28.762  1.00  0.00     0.029 A 
ATOM     41  N   UNL A   1      40.881  28.174  28.723  1.00  0.00    -0.354 N 
ATOM     42  C   UNL A   1      44.667  27.161  26.905  1.00  0.00     0.074 A 
ATOM     43  C   UNL A   1      44.649  25.817  26.372  1.00  0.00     0.031 C 
ATOM     44  C   UNL A   1      38.797  27.797  29.441  1.00  0.00     0.029 A 
ATOM     45  C   UNL A   1      39.885  28.768  29.462  1.00  0.00     0.049 A 
ATOM     46  H   UNL A   1      41.746  28.606  28.539  1.00  0.00     0.167 HD
ATOM     47  C   UNL A   1      45.742  27.983  26.854  1.00  0.00     0.034 A 
ATOM     48  C   UNL A   1      39.856  29.958  30.094  1.00  0.00     0.034 A 
ATOM     49  C   UNL A   1      45.746  29.330  27.355  1.00  0.00     0.049 A 
ATOM     50  C   UNL A   1      41.055  30.861  30.003  1.00  0.00     0.074 A 
ATOM     51  C   UNL A   1      46.756  30.273  27.281  1.00  0.00     0.029 A 
ATOM     52  N   UNL A   1      44.694  29.924  28.036  1.00  0.00    -0.354 N 
ATOM     53  N   UNL A   1      42.193  30.664  29.382  1.00  0.00    -0.248 NA
ATOM     54  C   UNL A   1      40.955  32.167  30.671  1.00  0.00     0.031 C 
ATOM     55  C   UNL A   1      46.327  31.425  27.946  1.00  0.00     0.029 A 
ATOM     56  C   UNL A   1      45.034  31.215  28.400  1.00  0.00     0.049 A 
ATOM     57  H   UNL A   1      43.832  29.490  28.232  1.00  0.00     0.167 HD
ATOM     58  C   UNL A   1      42.926  31.832  29.548  1.00  0.00     0.074 A 
ATOM     59  C   UNL A   1      42.096  32.741  30.313  1.00  0.00     0.031 C 
ATOM     60  C   UNL A   1      44.178  32.125  29.119  1.00  0.00     0.034 A 
BRANCH  47  61
ATOM     61  C   UNL A   1      46.993  27.460  26.194  1.00  0.00     0.023 A 
ATOM     62  C   UNL A   1      47.221  27.716  24.825  1.00  0.00     0.012 A 
ATOM     63  C   UNL A   1      47.966  26.761  26.935  1.00  0.00     0.148 A 
ATOM     64  C   UNL A   1      48.374  27.250  24.197  1.00  0.00     0.002 A 
ATOM     65  C   UNL A   1      49.137  26.344  26.313  1.00  0.00     0.091 A 
ATOM     66  F   UNL A   1      47.725  26.509  28.230  1.00  0.00    -0.205 F 
ATOM     67  C   UNL A   1      49.336  26.574  24.941  1.00  0.00     0.022 A 
BRANCH  65  68
ATOM     68  S   UNL A   1      50.473  25.540  27.202  1.00  0.00     0.127 S 
ATOM     69  O   UNL A   1      49.822  24.317  27.670  1.00  0.00    -0.237 OA
ATOM     70  O   UNL A   1      51.465  25.335  26.146  1.00  0.00    -0.237 OA
ATOM     71  O   UNL A   1      50.880  26.469  28.246  1.00  0.00    -0.744 OA
ENDBRANCH  65  68
ENDBRANCH  47  61
BRANCH  48  72
ATOM     72  C   UNL A   1      38.626  30.389  30.818  1.00  0.00     0.023 A 
ATOM     73  C   UNL A   1      38.490  30.093  32.189  1.00  0.00     0.012 A 
ATOM     74  C   UNL A   1      37.605  31.105  30.166  1.00  0.00     0.148 A 
ATOM     75  C   UNL A   1      37.342  30.468  32.887  1.00  0.00     0.002 A 
ATOM     76  C   UNL A   1      36.490  31.527  30.881  1.00  0.00     0.091 A 
ATOM     77  F   UNL A   1      37.750  31.371  28.861  1.00  0.00    -0.205 F 
ATOM     78  C   UNL A   1      36.347  31.192  32.236  1.00  0.00     0.022 A 
BRANCH  76  79
ATOM     79  S   UNL A   1      35.223  32.576  30.161  1.00  0.00     0.127 S 
ATOM     80  O   UNL A   1      34.740  31.749  29.058  1.00  0.00    -0.237 OA
ATOM     81  O   UNL A   1      34.287  32.726  31.276  1.00  0.00    -0.237 OA
ATOM     82  O   UNL A   1      35.900  33.807  29.777  1.00  0.00    -0.744 OA
ENDBRANCH  76  79
ENDBRANCH  48  72
BRANCH  60  83
ATOM     83  C   UNL A   1      44.718  33.499  29.419  1.00  0.00     0.023 A 
ATOM     84  C   UNL A   1      45.419  33.736  30.618  1.00  0.00     0.012 A 
ATOM     85  C   UNL A   1      44.590  34.538  28.475  1.00  0.00     0.148 A 
ATOM     86  C   UNL A   1      45.950  34.996  30.890  1.00  0.00     0.002 A 
ATOM     87  C   UNL A   1      45.170  35.775  28.729  1.00  0.00     0.091 A 
ATOM     88  F   UNL A   1      43.907  34.297  27.348  1.00  0.00    -0.205 F 
ATOM     89  C   UNL A   1      45.838  36.011  29.941  1.00  0.00     0.022 A 
BRANCH  87  90
ATOM     90  S   UNL A   1      45.163  37.108  27.525  1.00  0.00     0.127 S 
ATOM     91  O   UNL A   1      45.852  38.171  28.255  1.00  0.00    -0.237 OA
ATOM     92  O   UNL A   1      45.930  36.530  26.420  1.00  0.00    -0.237 OA
ATOM     93  O   UNL A   1      43.762  37.367  27.220  1.00  0.00    -0.744 OA
ENDBRANCH  87  90
ENDBRANCH  60  83
ENDBRANCH  34  35
ENDBRANCH  26  29
ENDBRANCH  24  25
ENDBRANCH  23  24
ENDBRANCH  22  23
ENDBRANCH   3  22
TORSDOF 19
ENDMDL
MODEL 3
REMARK VINA RESULT:     -10.0      5.908     10.839
REMARK SMILES [NH3+]CCOCC(=O)N[C@]1(C(=O)NCCCNC(=O)c2ccc(-c3c4nc(c(-c5cccc(S(=O)(=O)[O-])c5F)c5ccc([nH]5)c(-c5cccc(S(=O)(=O)[O-])c5F)c5nc(c(-c6cccc(S(=O)(=O)[O-])c6F)c6ccc3[nH]6)C=C5)C=C4)cc2)CCOC1
REMARK SMILES IDX 10 1 11 2 12 3 9 5 82 6 85 7 83 8 84 9 8 10 6 11 7 12 5 14
REMARK SMILES IDX 4 15 3 16 2 17 1 18 13 22 14 23 15 24 16 25 17 26 18 28
REMARK SMILES IDX 19 29 20 30 81 31 21 32 80 33 22 34 23 35 24 36 74 37 25 38
REMARK SMILES IDX 79 39 73 40 75 41 26 42 78 43 72 44 71 45 27 47 59 48 39 49
REMARK SMILES IDX 58 50 40 51 43 52 57 53 76 54 41 55 42 56 56 58 77 59 44 60
REMARK SMILES IDX 28 61 29 62 37 63 30 64 32 65 38 66 31 67 33 68 34 69 35 70
REMARK SMILES IDX 36 71 60 72 61 73 69 74 62 75 64 76 70 77 63 78 65 79 66 80
REMARK SMILES IDX 67 81 68 82 45 83 46 84 54 85 47 86 49 87 55 88 48 89 50 90
REMARK SMILES IDX 51 91 52 92 53 93
REMARK H PARENT 12 4 8 13 1 19 1 20 1 21 16 27 75 46 43 57
REMARK Flexibility Score: inf
ROOT
ATOM      1  C   UNL A   1      32.377  23.306  24.110  1.00  0.00     0.248 C 
ATOM      2  O   UNL A   1      32.334  23.603  22.909  1.00  0.00    -0.272 OA
ATOM      3  N   UNL A   1      33.449  22.577  24.501  1.00  0.00    -0.354 N 
ATOM      4  H   UNL A   1      34.286  22.771  24.021  1.00  0.00     0.163 HD
ENDROOT
BRANCH   1   5
ATOM      5  C   UNL A   1      31.261  23.753  25.087  1.00  0.00     0.144 C 
ATOM      6  C   UNL A   1      30.589  22.497  25.646  1.00  0.00     0.069 C 
ATOM      7  C   UNL A   1      31.704  24.519  26.341  1.00  0.00     0.198 C 
ATOM      8  C   UNL A   1      30.369  22.801  27.110  1.00  0.00     0.163 C 
ATOM      9  O   UNL A   1      31.409  23.703  27.487  1.00  0.00    -0.378 OA
BRANCH   5  10
ATOM     10  N   UNL A   1      30.290  24.568  24.311  1.00  0.00    -0.338 N 
ATOM     11  C   UNL A   1      30.215  25.931  24.212  1.00  0.00     0.246 C 
ATOM     12  O   UNL A   1      29.214  26.433  23.693  1.00  0.00    -0.272 OA
ATOM     13  H   UNL A   1      29.615  24.063  23.803  1.00  0.00     0.164 HD
BRANCH  11  14
ATOM     14  C   UNL A   1      31.336  26.830  24.768  1.00  0.00     0.260 C 
BRANCH  14  15
ATOM     15  O   UNL A   1      31.272  28.206  24.437  1.00  0.00    -0.366 OA
BRANCH  15  16
ATOM     16  C   UNL A   1      32.401  28.975  24.853  1.00  0.00     0.222 C 
BRANCH  16  17
ATOM     17  C   UNL A   1      33.757  28.381  24.435  1.00  0.00     0.287 C 
BRANCH  17  18
ATOM     18  N   UNL A   1      34.343  28.951  23.219  1.00  0.00    -0.356 N 
ATOM     19  H   UNL A   1      33.797  29.762  22.926  1.00  0.00     0.344 HD
ATOM     20  H   UNL A   1      34.337  28.251  22.478  1.00  0.00     0.344 HD
ATOM     21  H   UNL A   1      35.303  29.239  23.407  1.00  0.00     0.344 HD
ENDBRANCH  17  18
ENDBRANCH  16  17
ENDBRANCH  15  16
ENDBRANCH  14  15
ENDBRANCH  11  14
ENDBRANCH   5  10
ENDBRANCH   1   5
BRANCH   3  22
ATOM     22  C   UNL A   1      33.545  21.553  25.523  1.00  0.00     0.117 C 
BRANCH  22  23
ATOM     23  C   UNL A   1      34.698  21.859  26.468  1.00  0.00     0.042 C 
BRANCH  23  24
ATOM     24  C   UNL A   1      35.979  22.268  25.751  1.00  0.00     0.118 C 
BRANCH  24  25
ATOM     25  N   UNL A   1      36.924  21.167  25.634  1.00  0.00    -0.352 N 
ATOM     26  C   UNL A   1      38.293  21.189  25.744  1.00  0.00     0.251 C 
ATOM     27  H   UNL A   1      36.527  20.285  25.449  1.00  0.00     0.163 HD
ATOM     28  O   UNL A   1      38.953  20.216  25.400  1.00  0.00    -0.269 OA
BRANCH  26  29
ATOM     29  C   UNL A   1      38.957  22.403  26.264  1.00  0.00     0.039 A 
ATOM     30  C   UNL A   1      40.037  22.264  27.136  1.00  0.00     0.014 A 
ATOM     31  C   UNL A   1      38.523  23.672  25.871  1.00  0.00     0.014 A 
ATOM     32  C   UNL A   1      40.719  23.403  27.570  1.00  0.00     0.010 A 
ATOM     33  C   UNL A   1      39.259  24.793  26.226  1.00  0.00     0.010 A 
ATOM     34  C   UNL A   1      40.357  24.673  27.092  1.00  0.00    -0.014 A 
BRANCH  34  35
ATOM     35  C   UNL A   1      41.113  25.889  27.485  1.00  0.00     0.031 A 
ATOM     36  C   UNL A   1      40.435  26.976  28.275  1.00  0.00     0.074 A 
ATOM     37  C   UNL A   1      42.383  26.048  27.065  1.00  0.00     0.049 A 
ATOM     38  N   UNL A   1      40.913  28.127  28.669  1.00  0.00    -0.248 NA
ATOM     39  C   UNL A   1      39.026  26.755  28.646  1.00  0.00     0.031 C 
ATOM     40  C   UNL A   1      43.124  25.100  26.230  1.00  0.00     0.029 A 
ATOM     41  N   UNL A   1      43.269  27.076  27.264  1.00  0.00    -0.354 N 
ATOM     42  C   UNL A   1      39.861  28.778  29.302  1.00  0.00     0.074 A 
ATOM     43  C   UNL A   1      38.706  27.914  29.202  1.00  0.00     0.031 C 
ATOM     44  C   UNL A   1      44.355  25.585  26.000  1.00  0.00     0.029 A 
ATOM     45  C   UNL A   1      44.479  26.891  26.637  1.00  0.00     0.049 A 
ATOM     46  H   UNL A   1      43.059  27.872  27.805  1.00  0.00     0.167 HD
ATOM     47  C   UNL A   1      39.861  29.975  29.937  1.00  0.00     0.034 A 
ATOM     48  C   UNL A   1      45.564  27.689  26.574  1.00  0.00     0.034 A 
ATOM     49  C   UNL A   1      41.020  30.816  30.063  1.00  0.00     0.049 A 
ATOM     50  C   UNL A   1      45.545  29.003  27.307  1.00  0.00     0.074 A 
ATOM     51  C   UNL A   1      41.147  32.007  30.755  1.00  0.00     0.029 A 
ATOM     52  N   UNL A   1      42.250  30.562  29.474  1.00  0.00    -0.354 N 
ATOM     53  N   UNL A   1      44.588  29.532  28.030  1.00  0.00    -0.248 NA
ATOM     54  C   UNL A   1      46.769  29.814  27.245  1.00  0.00     0.031 C 
ATOM     55  C   UNL A   1      42.444  32.491  30.556  1.00  0.00     0.029 A 
ATOM     56  C   UNL A   1      43.137  31.581  29.774  1.00  0.00     0.049 A 
ATOM     57  H   UNL A   1      42.459  29.774  28.923  1.00  0.00     0.167 HD
ATOM     58  C   UNL A   1      45.106  30.715  28.541  1.00  0.00     0.074 A 
ATOM     59  C   UNL A   1      46.469  30.816  28.061  1.00  0.00     0.031 C 
ATOM     60  C   UNL A   1      44.506  31.642  29.328  1.00  0.00     0.034 A 
BRANCH  47  61
ATOM     61  C   UNL A   1      38.576  30.424  30.584  1.00  0.00     0.023 A 
ATOM     62  C   UNL A   1      38.334  30.126  31.942  1.00  0.00     0.012 A 
ATOM     63  C   UNL A   1      37.630  31.182  29.867  1.00  0.00     0.148 A 
ATOM     64  C   UNL A   1      37.157  30.540  32.563  1.00  0.00     0.002 A 
ATOM     65  C   UNL A   1      36.482  31.634  30.506  1.00  0.00     0.091 A 
ATOM     66  F   UNL A   1      37.866  31.439  28.571  1.00  0.00    -0.205 F 
ATOM     67  C   UNL A   1      36.236  31.302  31.849  1.00  0.00     0.022 A 
BRANCH  65  68
ATOM     68  S   UNL A   1      35.275  32.692  29.700  1.00  0.00     0.127 S 
ATOM     69  O   UNL A   1      34.693  31.779  28.718  1.00  0.00    -0.237 OA
ATOM     70  O   UNL A   1      34.386  33.042  30.807  1.00  0.00    -0.237 OA
ATOM     71  O   UNL A   1      36.025  33.809  29.146  1.00  0.00    -0.744 OA
ENDBRANCH  65  68
ENDBRANCH  47  61
BRANCH  48  72
ATOM     72  C   UNL A   1      46.779  27.241  25.837  1.00  0.00     0.023 A 
ATOM     73  C   UNL A   1      47.689  26.371  26.468  1.00  0.00     0.012 A 
ATOM     74  C   UNL A   1      47.027  27.651  24.514  1.00  0.00     0.148 A 
ATOM     75  C   UNL A   1      48.845  25.949  25.809  1.00  0.00     0.002 A 
ATOM     76  C   UNL A   1      48.149  27.181  23.842  1.00  0.00     0.091 A 
ATOM     77  F   UNL A   1      46.152  28.484  23.933  1.00  0.00    -0.205 F 
ATOM     78  C   UNL A   1      49.070  26.346  24.494  1.00  0.00     0.022 A 
BRANCH  76  79
ATOM     79  S   UNL A   1      48.452  27.532  22.107  1.00  0.00     0.127 S 
ATOM     80  O   UNL A   1      49.658  28.355  22.174  1.00  0.00    -0.237 OA
ATOM     81  O   UNL A   1      48.650  26.190  21.558  1.00  0.00    -0.237 OA
ATOM     82  O   UNL A   1      47.254  28.206  21.626  1.00  0.00    -0.744 OA
ENDBRANCH  76  79
ENDBRANCH  48  72
BRANCH  60  83
ATOM     83  C   UNL A   1      45.328  32.828  29.764  1.00  0.00     0.023 A 
ATOM     84  C   UNL A   1      46.102  32.757  30.939  1.00  0.00     0.012 A 
ATOM     85  C   UNL A   1      45.385  33.988  28.965  1.00  0.00     0.148 A 
ATOM     86  C   UNL A   1      46.891  33.838  31.332  1.00  0.00     0.002 A 
ATOM     87  C   UNL A   1      46.216  35.039  29.335  1.00  0.00     0.091 A 
ATOM     88  F   UNL A   1      44.629  34.042  27.860  1.00  0.00    -0.205 F 
ATOM     89  C   UNL A   1      46.958  34.972  30.526  1.00  0.00     0.022 A 
BRANCH  87  90
ATOM     90  S   UNL A   1      46.443  36.495  28.309  1.00  0.00     0.127 S 
ATOM     91  O   UNL A   1      46.911  35.905  27.056  1.00  0.00    -0.237 OA
ATOM     92  O   UNL A   1      45.090  37.049  28.255  1.00  0.00    -0.237 OA
ATOM     93  O   UNL A   1      47.412  37.331  29.006  1.00  0.00    -0.744 OA
ENDBRANCH  87  90
ENDBRANCH  60  83
ENDBRANCH  34  35
ENDBRANCH  26  29
ENDBRANCH  24  25
ENDBRANCH  23  24
ENDBRANCH  22  23
ENDBRANCH   3  22
TORSDOF 19
ENDMDL
