MODEL 1
REMARK VINA RESULT:     -10.4      0.000      0.000
REMARK SMILES C=CC[N@@H+](CC(=O)NCCCNC(=O)c1ccc(-c2c3nc(c(-c4cccc(S(=O)(=O)[O-])c4F)c4ccc([nH]4)c(-c4cccc(S(=O)(=O)[O-])c4F)c4nc(c(-c5cccc(S(=O)(=O)[O-])c5F)c5ccc2[nH]5)C=C4)C=C3)cc1)C1CCCCC1
REMARK SMILES IDX 10 1 9 2 8 3 6 4 7 5 5 7 4 8 3 10 2 11 1 12 78 13 79 14
REMARK SMILES IDX 83 15 80 16 82 17 81 18 11 19 12 20 13 21 14 23 15 24 16 25
REMARK SMILES IDX 77 26 17 27 76 28 18 29 19 30 20 31 70 32 21 33 75 34 69 35
REMARK SMILES IDX 71 36 22 37 74 38 68 39 67 40 23 42 55 43 35 44 54 45 36 46
REMARK SMILES IDX 39 47 53 48 72 49 37 50 38 51 52 53 73 54 40 55 24 56 25 57
REMARK SMILES IDX 33 58 26 59 28 60 34 61 27 62 29 63 30 64 31 65 32 66 56 67
REMARK SMILES IDX 57 68 65 69 58 70 60 71 66 72 59 73 61 74 62 75 63 76 64 77
REMARK SMILES IDX 41 78 42 79 50 80 43 81 45 82 51 83 44 84 46 85 47 86 48 87
REMARK SMILES IDX 49 88
REMARK H PARENT 8 6 4 9 12 22 71 41 39 52
REMARK Flexibility Score: inf
ROOT
ATOM      1  C   UNL A   1      32.335  27.989  26.662  1.00  0.00     0.042 C 
ENDROOT
BRANCH   1   2
ATOM      2  C   UNL A   1      32.250  26.648  25.934  1.00  0.00     0.118 C 
BRANCH   2   3
ATOM      3  N   UNL A   1      31.562  25.644  26.720  1.00  0.00    -0.351 N 
ATOM      4  C   UNL A   1      31.195  24.367  26.425  1.00  0.00     0.275 C 
ATOM      5  O   UNL A   1      30.775  23.694  27.376  1.00  0.00    -0.269 OA
ATOM      6  H   UNL A   1      31.317  25.937  27.628  1.00  0.00     0.163 HD
BRANCH   4   7
ATOM      7  C   UNL A   1      31.372  23.731  25.038  1.00  0.00     0.364 C 
BRANCH   7   8
ATOM      8  N   UNL A   1      32.487  22.792  24.844  1.00  0.00    -0.321 N 
ATOM      9  H   UNL A   1      32.434  22.713  23.829  1.00  0.00     0.349 HD
BRANCH   8  10
ATOM     10  C   UNL A   1      32.244  21.453  25.371  1.00  0.00     0.291 C 
BRANCH  10  11
ATOM     11  C   UNL A   1      32.392  20.276  24.453  1.00  0.00     0.025 C 
ATOM     12  C   UNL A   1      33.323  19.322  24.602  1.00  0.00     0.010 C 
ENDBRANCH  10  11
ENDBRANCH   8  10
BRANCH   8  13
ATOM     13  C   UNL A   1      33.880  23.248  24.714  1.00  0.00     0.184 C 
ATOM     14  C   UNL A   1      34.634  22.881  26.017  1.00  0.00     0.065 C 
ATOM     15  C   UNL A   1      34.708  22.726  23.521  1.00  0.00     0.065 C 
ATOM     16  C   UNL A   1      36.056  23.439  26.033  1.00  0.00     0.006 C 
ATOM     17  C   UNL A   1      36.148  23.246  23.534  1.00  0.00     0.006 C 
ATOM     18  C   UNL A   1      36.861  22.940  24.843  1.00  0.00     0.000 C 
ENDBRANCH   8  13
ENDBRANCH   7   8
ENDBRANCH   4   7
ENDBRANCH   2   3
ENDBRANCH   1   2
BRANCH   1  19
ATOM     19  C   UNL A   1      33.713  28.636  26.651  1.00  0.00     0.118 C 
BRANCH  19  20
ATOM     20  N   UNL A   1      33.673  30.052  26.977  1.00  0.00    -0.352 N 
ATOM     21  C   UNL A   1      34.519  30.830  27.730  1.00  0.00     0.251 C 
ATOM     22  H   UNL A   1      32.907  30.537  26.593  1.00  0.00     0.163 HD
ATOM     23  O   UNL A   1      34.162  31.973  28.016  1.00  0.00    -0.269 OA
BRANCH  21  24
ATOM     24  C   UNL A   1      35.829  30.330  28.218  1.00  0.00     0.039 A 
ATOM     25  C   UNL A   1      35.865  29.624  29.427  1.00  0.00     0.014 A 
ATOM     26  C   UNL A   1      37.027  30.597  27.552  1.00  0.00     0.014 A 
ATOM     27  C   UNL A   1      37.082  29.147  29.931  1.00  0.00     0.010 A 
ATOM     28  C   UNL A   1      38.225  30.040  28.004  1.00  0.00     0.010 A 
ATOM     29  C   UNL A   1      38.273  29.325  29.209  1.00  0.00    -0.014 A 
BRANCH  29  30
ATOM     30  C   UNL A   1      39.569  28.782  29.703  1.00  0.00     0.031 A 
ATOM     31  C   UNL A   1      40.313  29.474  30.818  1.00  0.00     0.074 A 
ATOM     32  C   UNL A   1      40.122  27.712  29.095  1.00  0.00     0.049 A 
ATOM     33  N   UNL A   1      41.477  29.181  31.338  1.00  0.00    -0.248 NA
ATOM     34  C   UNL A   1      39.682  30.666  31.411  1.00  0.00     0.031 C 
ATOM     35  C   UNL A   1      39.552  27.000  27.949  1.00  0.00     0.029 A 
ATOM     36  N   UNL A   1      41.305  27.054  29.335  1.00  0.00    -0.354 N 
ATOM     37  C   UNL A   1      41.739  30.173  32.278  1.00  0.00     0.074 A 
ATOM     38  C   UNL A   1      40.623  31.090  32.243  1.00  0.00     0.031 C 
ATOM     39  C   UNL A   1      40.384  26.012  27.584  1.00  0.00     0.029 A 
ATOM     40  C   UNL A   1      41.561  26.034  28.447  1.00  0.00     0.049 A 
ATOM     41  H   UNL A   1      41.912  27.290  30.073  1.00  0.00     0.167 HD
ATOM     42  C   UNL A   1      42.798  30.295  33.112  1.00  0.00     0.034 A 
ATOM     43  C   UNL A   1      42.627  25.217  28.331  1.00  0.00     0.034 A 
ATOM     44  C   UNL A   1      43.875  29.346  33.197  1.00  0.00     0.049 A 
ATOM     45  C   UNL A   1      43.757  25.337  29.318  1.00  0.00     0.074 A 
ATOM     46  C   UNL A   1      44.928  29.322  34.094  1.00  0.00     0.029 A 
ATOM     47  N   UNL A   1      44.044  28.262  32.352  1.00  0.00    -0.354 N 
ATOM     48  N   UNL A   1      43.891  26.172  30.319  1.00  0.00    -0.248 NA
ATOM     49  C   UNL A   1      44.865  24.379  29.184  1.00  0.00     0.031 C 
ATOM     50  C   UNL A   1      45.749  28.236  33.776  1.00  0.00     0.029 A 
ATOM     51  C   UNL A   1      45.191  27.569  32.697  1.00  0.00     0.049 A 
ATOM     52  H   UNL A   1      43.437  28.020  31.616  1.00  0.00     0.167 HD
ATOM     53  C   UNL A   1      45.077  25.818  30.954  1.00  0.00     0.074 A 
ATOM     54  C   UNL A   1      45.609  24.677  30.240  1.00  0.00     0.031 C 
ATOM     55  C   UNL A   1      45.681  26.398  32.019  1.00  0.00     0.034 A 
BRANCH  42  56
ATOM     56  C   UNL A   1      42.830  31.469  34.057  1.00  0.00     0.023 A 
ATOM     57  C   UNL A   1      43.372  32.696  33.625  1.00  0.00     0.012 A 
ATOM     58  C   UNL A   1      42.228  31.387  35.329  1.00  0.00     0.148 A 
ATOM     59  C   UNL A   1      43.335  33.818  34.451  1.00  0.00     0.002 A 
ATOM     60  C   UNL A   1      42.157  32.520  36.130  1.00  0.00     0.091 A 
ATOM     61  F   UNL A   1      41.733  30.206  35.726  1.00  0.00    -0.205 F 
ATOM     62  C   UNL A   1      42.717  33.734  35.696  1.00  0.00     0.022 A 
BRANCH  60  63
ATOM     63  S   UNL A   1      41.311  32.541  37.714  1.00  0.00     0.127 S 
ATOM     64  O   UNL A   1      41.372  33.959  38.062  1.00  0.00    -0.237 OA
ATOM     65  O   UNL A   1      39.978  32.056  37.356  1.00  0.00    -0.237 OA
ATOM     66  O   UNL A   1      42.068  31.654  38.588  1.00  0.00    -0.744 OA
ENDBRANCH  60  63
ENDBRANCH  42  56
BRANCH  43  67
ATOM     67  C   UNL A   1      42.659  24.175  27.263  1.00  0.00     0.023 A 
ATOM     68  C   UNL A   1      43.325  24.440  26.051  1.00  0.00     0.012 A 
ATOM     69  C   UNL A   1      42.038  22.924  27.445  1.00  0.00     0.148 A 
ATOM     70  C   UNL A   1      43.335  23.496  25.024  1.00  0.00     0.002 A 
ATOM     71  C   UNL A   1      42.103  21.965  26.439  1.00  0.00     0.091 A 
ATOM     72  F   UNL A   1      41.393  22.693  28.597  1.00  0.00    -0.205 F 
ATOM     73  C   UNL A   1      42.735  22.256  25.221  1.00  0.00     0.022 A 
BRANCH  71  74
ATOM     74  S   UNL A   1      41.477  20.298  26.672  1.00  0.00     0.127 S 
ATOM     75  O   UNL A   1      40.045  20.535  26.837  1.00  0.00    -0.237 OA
ATOM     76  O   UNL A   1      41.855  19.649  25.416  1.00  0.00    -0.237 OA
ATOM     77  O   UNL A   1      42.179  19.782  27.841  1.00  0.00    -0.744 OA
ENDBRANCH  71  74
ENDBRANCH  43  67
BRANCH  55  78
ATOM     78  C   UNL A   1      46.968  25.793  32.513  1.00  0.00     0.023 A 
ATOM     79  C   UNL A   1      48.196  26.228  31.978  1.00  0.00     0.012 A 
ATOM     80  C   UNL A   1      46.964  24.855  33.565  1.00  0.00     0.148 A 
ATOM     81  C   UNL A   1      49.400  25.713  32.458  1.00  0.00     0.002 A 
ATOM     82  C   UNL A   1      48.169  24.385  34.072  1.00  0.00     0.091 A 
ATOM     83  F   UNL A   1      45.784  24.442  34.050  1.00  0.00    -0.205 F 
ATOM     84  C   UNL A   1      49.387  24.803  33.512  1.00  0.00     0.022 A 
BRANCH  82  85
ATOM     85  S   UNL A   1      48.252  23.286  35.492  1.00  0.00     0.127 S 
ATOM     86  O   UNL A   1      49.694  23.189  35.709  1.00  0.00    -0.237 OA
ATOM     87  O   UNL A   1      47.532  24.045  36.514  1.00  0.00    -0.237 OA
ATOM     88  O   UNL A   1      47.596  22.052  35.082  1.00  0.00    -0.744 OA
ENDBRANCH  82  85
ENDBRANCH  55  78
ENDBRANCH  29  30
ENDBRANCH  21  24
ENDBRANCH  19  20
ENDBRANCH   1  19
TORSDOF 17
ENDMDL
MODEL 2
REMARK VINA RESULT:     -10.4      0.909      1.872
REMARK SMILES C=CC[N@@H+](CC(=O)NCCCNC(=O)c1ccc(-c2c3nc(c(-c4cccc(S(=O)(=O)[O-])c4F)c4ccc([nH]4)c(-c4cccc(S(=O)(=O)[O-])c4F)c4nc(c(-c5cccc(S(=O)(=O)[O-])c5F)c5ccc2[nH]5)C=C4)C=C3)cc1)C1CCCCC1
REMARK SMILES IDX 10 1 9 2 8 3 6 4 7 5 5 7 4 8 3 10 2 11 1 12 78 13 79 14
REMARK SMILES IDX 83 15 80 16 82 17 81 18 11 19 12 20 13 21 14 23 15 24 16 25
REMARK SMILES IDX 77 26 17 27 76 28 18 29 19 30 20 31 70 32 21 33 75 34 69 35
REMARK SMILES IDX 71 36 22 37 74 38 68 39 67 40 23 42 55 43 35 44 54 45 36 46
REMARK SMILES IDX 39 47 53 48 72 49 37 50 38 51 52 53 73 54 40 55 24 56 25 57
REMARK SMILES IDX 33 58 26 59 28 60 34 61 27 62 29 63 30 64 31 65 32 66 56 67
REMARK SMILES IDX 57 68 65 69 58 70 60 71 66 72 59 73 61 74 62 75 63 76 64 77
REMARK SMILES IDX 41 78 42 79 50 80 43 81 45 82 51 83 44 84 46 85 47 86 48 87
REMARK SMILES IDX 49 88
REMARK H PARENT 8 6 4 9 12 22 71 41 39 52
REMARK Flexibility Score: inf
ROOT
ATOM      1  C   UNL A   1      33.120  27.863  26.583  1.00  0.00     0.042 C 
ENDROOT
BRANCH   1   2
ATOM      2  C   UNL A   1      33.442  26.443  26.117  1.00  0.00     0.118 C 
BRANCH   2   3
ATOM      3  N   UNL A   1      32.825  26.136  24.842  1.00  0.00    -0.351 N 
ATOM      4  C   UNL A   1      33.181  25.265  23.859  1.00  0.00     0.275 C 
ATOM      5  O   UNL A   1      32.347  25.099  22.959  1.00  0.00    -0.269 OA
ATOM      6  H   UNL A   1      32.006  26.648  24.654  1.00  0.00     0.163 HD
BRANCH   4   7
ATOM      7  C   UNL A   1      34.478  24.442  23.880  1.00  0.00     0.364 C 
BRANCH   7   8
ATOM      8  N   UNL A   1      34.524  23.244  24.732  1.00  0.00    -0.321 N 
ATOM      9  H   UNL A   1      33.597  23.327  25.148  1.00  0.00     0.349 HD
BRANCH   8  10
ATOM     10  C   UNL A   1      35.475  23.327  25.835  1.00  0.00     0.291 C 
BRANCH  10  11
ATOM     11  C   UNL A   1      36.866  23.813  25.557  1.00  0.00     0.025 C 
ATOM     12  C   UNL A   1      37.977  23.150  25.910  1.00  0.00     0.010 C 
ENDBRANCH  10  11
ENDBRANCH   8  10
BRANCH   8  13
ATOM     13  C   UNL A   1      34.156  21.912  24.229  1.00  0.00     0.184 C 
ATOM     14  C   UNL A   1      34.655  20.853  25.245  1.00  0.00     0.065 C 
ATOM     15  C   UNL A   1      32.667  21.629  23.939  1.00  0.00     0.065 C 
ATOM     16  C   UNL A   1      34.441  19.427  24.739  1.00  0.00     0.006 C 
ATOM     17  C   UNL A   1      32.424  20.194  23.463  1.00  0.00     0.006 C 
ATOM     18  C   UNL A   1      32.975  19.162  24.434  1.00  0.00     0.000 C 
ENDBRANCH   8  13
ENDBRANCH   7   8
ENDBRANCH   4   7
ENDBRANCH   2   3
ENDBRANCH   1   2
BRANCH   1  19
ATOM     19  C   UNL A   1      33.962  28.953  25.935  1.00  0.00     0.118 C 
BRANCH  19  20
ATOM     20  N   UNL A   1      33.802  30.247  26.579  1.00  0.00    -0.352 N 
ATOM     21  C   UNL A   1      34.503  30.840  27.601  1.00  0.00     0.251 C 
ATOM     22  H   UNL A   1      33.063  30.791  26.222  1.00  0.00     0.163 HD
ATOM     23  O   UNL A   1      34.050  31.870  28.100  1.00  0.00    -0.269 OA
BRANCH  21  24
ATOM     24  C   UNL A   1      35.770  30.270  28.127  1.00  0.00     0.039 A 
ATOM     25  C   UNL A   1      36.922  30.363  27.336  1.00  0.00     0.014 A 
ATOM     26  C   UNL A   1      35.836  29.590  29.344  1.00  0.00     0.014 A 
ATOM     27  C   UNL A   1      38.134  29.827  27.787  1.00  0.00     0.010 A 
ATOM     28  C   UNL A   1      37.063  29.140  29.835  1.00  0.00     0.010 A 
ATOM     29  C   UNL A   1      38.225  29.235  29.057  1.00  0.00    -0.014 A 
BRANCH  29  30
ATOM     30  C   UNL A   1      39.516  28.703  29.575  1.00  0.00     0.031 A 
ATOM     31  C   UNL A   1      40.240  29.409  30.695  1.00  0.00     0.074 A 
ATOM     32  C   UNL A   1      40.083  27.630  28.985  1.00  0.00     0.049 A 
ATOM     33  N   UNL A   1      41.398  29.126  31.235  1.00  0.00    -0.248 NA
ATOM     34  C   UNL A   1      39.594  30.603  31.267  1.00  0.00     0.031 C 
ATOM     35  C   UNL A   1      39.534  26.905  27.837  1.00  0.00     0.029 A 
ATOM     36  N   UNL A   1      41.266  26.981  29.249  1.00  0.00    -0.354 N 
ATOM     37  C   UNL A   1      41.640  30.128  32.170  1.00  0.00     0.074 A 
ATOM     38  C   UNL A   1      40.520  31.039  32.110  1.00  0.00     0.031 C 
ATOM     39  C   UNL A   1      40.377  25.919  27.494  1.00  0.00     0.029 A 
ATOM     40  C   UNL A   1      41.540  25.954  28.374  1.00  0.00     0.049 A 
ATOM     41  H   UNL A   1      41.861  27.226  29.994  1.00  0.00     0.167 HD
ATOM     42  C   UNL A   1      42.686  30.263  33.019  1.00  0.00     0.034 A 
ATOM     43  C   UNL A   1      42.612  25.141  28.281  1.00  0.00     0.034 A 
ATOM     44  C   UNL A   1      43.767  29.320  33.128  1.00  0.00     0.049 A 
ATOM     45  C   UNL A   1      43.726  25.276  29.284  1.00  0.00     0.074 A 
ATOM     46  C   UNL A   1      44.806  29.309  34.041  1.00  0.00     0.029 A 
ATOM     47  N   UNL A   1      43.953  28.229  32.295  1.00  0.00    -0.354 N 
ATOM     48  N   UNL A   1      43.841  26.120  30.279  1.00  0.00    -0.248 NA
ATOM     49  C   UNL A   1      44.840  24.322  29.175  1.00  0.00     0.031 C 
ATOM     50  C   UNL A   1      45.637  28.224  33.745  1.00  0.00     0.029 A 
ATOM     51  C   UNL A   1      45.098  27.545  32.664  1.00  0.00     0.049 A 
ATOM     52  H   UNL A   1      43.358  27.978  31.552  1.00  0.00     0.167 HD
ATOM     53  C   UNL A   1      45.019  25.778  30.935  1.00  0.00     0.074 A 
ATOM     54  C   UNL A   1      45.567  24.633  30.240  1.00  0.00     0.031 C 
ATOM     55  C   UNL A   1      45.604  26.370  32.004  1.00  0.00     0.034 A 
BRANCH  42  56
ATOM     56  C   UNL A   1      42.698  31.445  33.953  1.00  0.00     0.023 A 
ATOM     57  C   UNL A   1      43.221  32.677  33.511  1.00  0.00     0.012 A 
ATOM     58  C   UNL A   1      42.095  31.365  35.224  1.00  0.00     0.148 A 
ATOM     59  C   UNL A   1      43.165  33.805  34.328  1.00  0.00     0.002 A 
ATOM     60  C   UNL A   1      42.005  32.504  36.015  1.00  0.00     0.091 A 
ATOM     61  F   UNL A   1      41.618  30.180  35.631  1.00  0.00    -0.205 F 
ATOM     62  C   UNL A   1      42.546  33.722  35.573  1.00  0.00     0.022 A 
BRANCH  60  63
ATOM     63  S   UNL A   1      41.155  32.525  37.598  1.00  0.00     0.127 S 
ATOM     64  O   UNL A   1      41.152  33.952  37.912  1.00  0.00    -0.237 OA
ATOM     65  O   UNL A   1      39.846  31.973  37.251  1.00  0.00    -0.237 OA
ATOM     66  O   UNL A   1      41.950  31.694  38.494  1.00  0.00    -0.744 OA
ENDBRANCH  60  63
ENDBRANCH  42  56
BRANCH  43  67
ATOM     67  C   UNL A   1      42.665  24.090  27.223  1.00  0.00     0.023 A 
ATOM     68  C   UNL A   1      43.355  24.344  26.023  1.00  0.00     0.012 A 
ATOM     69  C   UNL A   1      42.040  22.841  27.403  1.00  0.00     0.148 A 
ATOM     70  C   UNL A   1      43.386  23.391  25.004  1.00  0.00     0.002 A 
ATOM     71  C   UNL A   1      42.125  21.873  26.408  1.00  0.00     0.091 A 
ATOM     72  F   UNL A   1      41.372  22.619  28.544  1.00  0.00    -0.205 F 
ATOM     73  C   UNL A   1      42.781  22.153  25.200  1.00  0.00     0.022 A 
BRANCH  71  74
ATOM     74  S   UNL A   1      41.494  20.208  26.643  1.00  0.00     0.127 S 
ATOM     75  O   UNL A   1      41.886  19.559  25.395  1.00  0.00    -0.237 OA
ATOM     76  O   UNL A   1      42.230  19.764  27.827  1.00  0.00    -0.237 OA
ATOM     77  O   UNL A   1      40.061  20.366  26.860  1.00  0.00    -0.744 OA
ENDBRANCH  71  74
ENDBRANCH  43  67
BRANCH  55  78
ATOM     78  C   UNL A   1      46.887  25.776  32.523  1.00  0.00     0.023 A 
ATOM     79  C   UNL A   1      48.123  26.253  32.043  1.00  0.00     0.012 A 
ATOM     80  C   UNL A   1      46.868  24.806  33.544  1.00  0.00     0.148 A 
ATOM     81  C   UNL A   1      49.320  25.748  32.549  1.00  0.00     0.002 A 
ATOM     82  C   UNL A   1      48.065  24.344  34.077  1.00  0.00     0.091 A 
ATOM     83  F   UNL A   1      45.681  24.353  33.975  1.00  0.00    -0.205 F 
ATOM     84  C   UNL A   1      49.291  24.805  33.573  1.00  0.00     0.022 A 
BRANCH  82  85
ATOM     85  S   UNL A   1      48.123  23.203  35.464  1.00  0.00     0.127 S 
ATOM     86  O   UNL A   1      47.580  21.983  34.869  1.00  0.00    -0.237 OA
ATOM     87  O   UNL A   1      49.554  23.151  35.764  1.00  0.00    -0.237 OA
ATOM     88  O   UNL A   1      47.308  23.804  36.512  1.00  0.00    -0.744 OA
ENDBRANCH  82  85
ENDBRANCH  55  78
ENDBRANCH  29  30
ENDBRANCH  21  24
ENDBRANCH  19  20
ENDBRANCH   1  19
TORSDOF 17
ENDMDL
MODEL 3
REMARK VINA RESULT:     -10.3      3.464      6.210
REMARK SMILES C=CC[N@@H+](CC(=O)NCCCNC(=O)c1ccc(-c2c3nc(c(-c4cccc(S(=O)(=O)[O-])c4F)c4ccc([nH]4)c(-c4cccc(S(=O)(=O)[O-])c4F)c4nc(c(-c5cccc(S(=O)(=O)[O-])c5F)c5ccc2[nH]5)C=C4)C=C3)cc1)C1CCCCC1
REMARK SMILES IDX 10 1 9 2 8 3 6 4 7 5 5 7 4 8 3 10 2 11 1 12 78 13 79 14
REMARK SMILES IDX 83 15 80 16 82 17 81 18 11 19 12 20 13 21 14 23 15 24 16 25
REMARK SMILES IDX 77 26 17 27 76 28 18 29 19 30 20 31 70 32 21 33 75 34 69 35
REMARK SMILES IDX 71 36 22 37 74 38 68 39 67 40 23 42 55 43 35 44 54 45 36 46
REMARK SMILES IDX 39 47 53 48 72 49 37 50 38 51 52 53 73 54 40 55 24 56 25 57
REMARK SMILES IDX 33 58 26 59 28 60 34 61 27 62 29 63 30 64 31 65 32 66 56 67
REMARK SMILES IDX 57 68 65 69 58 70 60 71 66 72 59 73 61 74 62 75 63 76 64 77
REMARK SMILES IDX 41 78 42 79 50 80 43 81 45 82 51 83 44 84 46 85 47 86 48 87
REMARK SMILES IDX 49 88
REMARK H PARENT 8 6 4 9 12 22 71 41 39 52
REMARK Flexibility Score: inf
ROOT
ATOM      1  C   UNL A   1      33.734  34.385  28.390  1.00  0.00     0.042 C 
ENDROOT
BRANCH   1   2
ATOM      2  C   UNL A   1      33.988  35.361  29.538  1.00  0.00     0.118 C 
BRANCH   2   3
ATOM      3  N   UNL A   1      32.935  35.316  30.533  1.00  0.00    -0.351 N 
ATOM      4  C   UNL A   1      32.962  35.518  31.879  1.00  0.00     0.275 C 
ATOM      5  O   UNL A   1      31.857  35.586  32.434  1.00  0.00    -0.269 OA
ATOM      6  H   UNL A   1      32.045  35.100  30.172  1.00  0.00     0.163 HD
BRANCH   4   7
ATOM      7  C   UNL A   1      34.252  35.757  32.678  1.00  0.00     0.364 C 
BRANCH   7   8
ATOM      8  N   UNL A   1      35.115  34.600  32.960  1.00  0.00    -0.321 N 
ATOM      9  H   UNL A   1      35.685  34.636  32.116  1.00  0.00     0.349 HD
BRANCH   8  10
ATOM     10  C   UNL A   1      34.426  33.315  32.933  1.00  0.00     0.291 C 
BRANCH  10  11
ATOM     11  C   UNL A   1      34.776  32.329  31.859  1.00  0.00     0.025 C 
ATOM     12  C   UNL A   1      35.950  31.684  31.786  1.00  0.00     0.010 C 
ENDBRANCH  10  11
ENDBRANCH   8  10
BRANCH   8  13
ATOM     13  C   UNL A   1      36.340  34.717  33.767  1.00  0.00     0.184 C 
ATOM     14  C   UNL A   1      36.269  33.676  34.912  1.00  0.00     0.065 C 
ATOM     15  C   UNL A   1      37.699  34.549  33.054  1.00  0.00     0.065 C 
ATOM     16  C   UNL A   1      37.436  33.816  35.888  1.00  0.00     0.006 C 
ATOM     17  C   UNL A   1      38.883  34.652  34.019  1.00  0.00     0.006 C 
ATOM     18  C   UNL A   1      38.772  33.672  35.177  1.00  0.00     0.000 C 
ENDBRANCH   8  13
ENDBRANCH   7   8
ENDBRANCH   4   7
ENDBRANCH   2   3
ENDBRANCH   1   2
BRANCH   1  19
ATOM     19  C   UNL A   1      34.475  33.060  28.502  1.00  0.00     0.118 C 
BRANCH  19  20
ATOM     20  N   UNL A   1      33.864  32.004  27.711  1.00  0.00    -0.352 N 
ATOM     21  C   UNL A   1      34.325  30.760  27.355  1.00  0.00     0.251 C 
ATOM     22  H   UNL A   1      32.965  32.218  27.371  1.00  0.00     0.163 HD
ATOM     23  O   UNL A   1      33.692  30.120  26.514  1.00  0.00    -0.269 OA
BRANCH  21  24
ATOM     24  C   UNL A   1      35.561  30.177  27.937  1.00  0.00     0.039 A 
ATOM     25  C   UNL A   1      36.768  30.353  27.250  1.00  0.00     0.014 A 
ATOM     26  C   UNL A   1      35.549  29.409  29.103  1.00  0.00     0.014 A 
ATOM     27  C   UNL A   1      37.955  29.808  27.756  1.00  0.00     0.010 A 
ATOM     28  C   UNL A   1      36.745  28.948  29.656  1.00  0.00     0.010 A 
ATOM     29  C   UNL A   1      37.961  29.124  28.982  1.00  0.00    -0.014 A 
BRANCH  29  30
ATOM     30  C   UNL A   1      39.221  28.581  29.561  1.00  0.00     0.031 A 
ATOM     31  C   UNL A   1      39.853  29.233  30.767  1.00  0.00     0.074 A 
ATOM     32  C   UNL A   1      39.846  27.549  28.957  1.00  0.00     0.049 A 
ATOM     33  N   UNL A   1      40.974  28.936  31.372  1.00  0.00    -0.248 NA
ATOM     34  C   UNL A   1      39.149  30.386  31.355  1.00  0.00     0.031 C 
ATOM     35  C   UNL A   1      39.391  26.882  27.734  1.00  0.00     0.029 A 
ATOM     36  N   UNL A   1      41.018  26.901  29.268  1.00  0.00    -0.354 N 
ATOM     37  C   UNL A   1      41.134  29.887  32.374  1.00  0.00     0.074 A 
ATOM     38  C   UNL A   1      40.006  30.786  32.284  1.00  0.00     0.031 C 
ATOM     39  C   UNL A   1      40.272  25.926  27.399  1.00  0.00     0.029 A 
ATOM     40  C   UNL A   1      41.370  25.928  28.361  1.00  0.00     0.049 A 
ATOM     41  H   UNL A   1      41.555  27.113  30.066  1.00  0.00     0.167 HD
ATOM     42  C   UNL A   1      42.115  29.988  33.301  1.00  0.00     0.034 A 
ATOM     43  C   UNL A   1      42.459  25.135  28.301  1.00  0.00     0.034 A 
ATOM     44  C   UNL A   1      43.200  29.055  33.437  1.00  0.00     0.049 A 
ATOM     45  C   UNL A   1      43.497  25.229  29.386  1.00  0.00     0.074 A 
ATOM     46  C   UNL A   1      44.172  29.006  34.419  1.00  0.00     0.029 A 
ATOM     47  N   UNL A   1      43.463  28.014  32.562  1.00  0.00    -0.354 N 
ATOM     48  N   UNL A   1      43.528  26.017  30.432  1.00  0.00    -0.248 NA
ATOM     49  C   UNL A   1      44.632  24.296  29.306  1.00  0.00     0.031 C 
ATOM     50  C   UNL A   1      45.040  27.950  34.125  1.00  0.00     0.029 A 
ATOM     51  C   UNL A   1      44.590  27.325  32.974  1.00  0.00     0.049 A 
ATOM     52  H   UNL A   1      42.926  27.796  31.766  1.00  0.00     0.167 HD
ATOM     53  C   UNL A   1      44.662  25.655  31.150  1.00  0.00     0.074 A 
ATOM     54  C   UNL A   1      45.277  24.557  30.435  1.00  0.00     0.031 C 
ATOM     55  C   UNL A   1      45.160  26.194  32.289  1.00  0.00     0.034 A 
BRANCH  42  56
ATOM     56  C   UNL A   1      42.041  31.118  34.297  1.00  0.00     0.023 A 
ATOM     57  C   UNL A   1      41.545  30.873  35.593  1.00  0.00     0.012 A 
ATOM     58  C   UNL A   1      42.560  32.390  33.982  1.00  0.00     0.148 A 
ATOM     59  C   UNL A   1      41.547  31.882  36.555  1.00  0.00     0.002 A 
ATOM     60  C   UNL A   1      42.597  33.378  34.959  1.00  0.00     0.091 A 
ATOM     61  F   UNL A   1      43.012  32.606  32.738  1.00  0.00    -0.205 F 
ATOM     62  C   UNL A   1      42.084  33.128  36.243  1.00  0.00     0.022 A 
BRANCH  60  63
ATOM     63  S   UNL A   1      43.342  34.990  34.686  1.00  0.00     0.127 S 
ATOM     64  O   UNL A   1      43.445  35.502  36.051  1.00  0.00    -0.237 OA
ATOM     65  O   UNL A   1      44.620  34.636  34.069  1.00  0.00    -0.237 OA
ATOM     66  O   UNL A   1      42.425  35.717  33.817  1.00  0.00    -0.744 OA
ENDBRANCH  60  63
ENDBRANCH  42  56
BRANCH  43  67
ATOM     67  C   UNL A   1      42.604  24.144  27.194  1.00  0.00     0.023 A 
ATOM     68  C   UNL A   1      43.306  24.501  26.028  1.00  0.00     0.012 A 
ATOM     69  C   UNL A   1      42.054  22.852  27.295  1.00  0.00     0.148 A 
ATOM     70  C   UNL A   1      43.422  23.605  24.964  1.00  0.00     0.002 A 
ATOM     71  C   UNL A   1      42.223  21.943  26.255  1.00  0.00     0.091 A 
ATOM     72  F   UNL A   1      41.372  22.532  28.404  1.00  0.00    -0.205 F 
ATOM     73  C   UNL A   1      42.890  22.324  25.082  1.00  0.00     0.022 A 
BRANCH  71  74
ATOM     74  S   UNL A   1      41.691  20.233  26.390  1.00  0.00     0.127 S 
ATOM     75  O   UNL A   1      40.238  20.367  26.356  1.00  0.00    -0.237 OA
ATOM     76  O   UNL A   1      42.284  19.631  25.195  1.00  0.00    -0.237 OA
ATOM     77  O   UNL A   1      42.260  19.749  27.642  1.00  0.00    -0.744 OA
ENDBRANCH  71  74
ENDBRANCH  43  67
BRANCH  55  78
ATOM     78  C   UNL A   1      46.413  25.589  32.865  1.00  0.00     0.023 A 
ATOM     79  C   UNL A   1      47.668  26.140  32.542  1.00  0.00     0.012 A 
ATOM     80  C   UNL A   1      46.338  24.529  33.790  1.00  0.00     0.148 A 
ATOM     81  C   UNL A   1      48.835  25.621  33.105  1.00  0.00     0.002 A 
ATOM     82  C   UNL A   1      47.500  24.051  34.384  1.00  0.00     0.091 A 
ATOM     83  F   UNL A   1      45.135  24.008  34.072  1.00  0.00    -0.205 F 
ATOM     84  C   UNL A   1      48.749  24.588  34.034  1.00  0.00     0.022 A 
BRANCH  82  85
ATOM     85  S   UNL A   1      47.477  22.790  35.664  1.00  0.00     0.127 S 
ATOM     86  O   UNL A   1      46.722  23.456  36.724  1.00  0.00    -0.237 OA
ATOM     87  O   UNL A   1      46.768  21.693  35.007  1.00  0.00    -0.237 OA
ATOM     88  O   UNL A   1      48.872  22.508  35.973  1.00  0.00    -0.744 OA
ENDBRANCH  82  85
ENDBRANCH  55  78
ENDBRANCH  29  30
ENDBRANCH  21  24
ENDBRANCH  19  20
ENDBRANCH   1  19
TORSDOF 17
ENDMDL
