MODEL 1
REMARK VINA RESULT:     -12.4      0.000      0.000
REMARK SMILES COc1ccc(S(=O)(=O)N2CCC[C@H](C(=O)N3CCC[C@H](C(=O)NCCCNC(=O)c4ccc(-c5c6nc(c(-c7cccc(S(=O)(=O)[O-])c7F)c7ccc([nH]7)c(-c7cccc(S(=O)(=O)[O-])c7F)c7nc(c(-c8cccc(S(=O)(=O)[O-])c8F)c8ccc5[nH]8)C=C7)C=C6)cc4)C3)C2)cc1
REMARK SMILES IDX 25 1 24 2 22 3 23 4 21 6 17 7 18 8 94 9 19 10 20 11 15 12
REMARK SMILES IDX 16 13 14 14 10 15 11 16 95 17 12 18 13 19 7 20 8 21 9 22
REMARK SMILES IDX 6 23 3 24 4 25 97 26 5 27 96 28 2 29 1 30 26 31 27 32 28 33
REMARK SMILES IDX 29 34 30 36 31 37 32 38 93 39 33 40 92 41 34 42 35 43 36 44
REMARK SMILES IDX 86 45 37 46 91 47 85 48 87 49 38 50 90 51 84 52 83 53 39 55
REMARK SMILES IDX 71 56 51 57 70 58 52 59 55 60 69 61 88 62 53 63 54 64 68 66
REMARK SMILES IDX 89 67 56 68 40 69 41 70 49 71 42 72 44 73 50 74 43 75 45 76
REMARK SMILES IDX 46 77 47 78 48 79 72 80 73 81 81 82 74 83 76 84 82 85 75 86
REMARK SMILES IDX 77 87 78 88 79 89 80 90 57 91 58 92 66 93 59 94 61 95 67 96
REMARK SMILES IDX 60 97 62 98 63 99 64 100 65 101
REMARK H PARENT 24 5 28 35 87 54 55 65
REMARK Flexibility Score: inf
ROOT
ATOM      1  C   UNL A   1      31.370  31.013  25.702  1.00  0.00     0.117 C 
ENDROOT
BRANCH   1   2
ATOM      2  N   UNL A   1      32.430  30.054  25.887  1.00  0.00    -0.356 N 
ATOM      3  C   UNL A   1      33.009  29.233  24.974  1.00  0.00     0.224 C 
ATOM      4  O   UNL A   1      34.060  28.677  25.313  1.00  0.00    -0.275 OA
ATOM      5  H   UNL A   1      32.784  29.985  26.803  1.00  0.00     0.163 HD
BRANCH   3   6
ATOM      6  C   UNL A   1      32.441  28.975  23.569  1.00  0.00     0.098 C 
ATOM      7  N   UNL A   1      31.244  26.787  23.159  1.00  0.00    -0.342 N 
ATOM      8  C   UNL A   1      32.103  26.486  22.016  1.00  0.00     0.119 C 
ATOM      9  C   UNL A   1      31.123  28.192  23.530  1.00  0.00     0.133 C 
ATOM     10  C   UNL A   1      33.494  27.091  22.142  1.00  0.00     0.022 C 
ATOM     11  C   UNL A   1      33.473  28.570  22.513  1.00  0.00     0.017 C 
BRANCH   7  12
ATOM     12  C   UNL A   1      30.806  25.737  23.944  1.00  0.00     0.227 C 
ATOM     13  O   UNL A   1      29.862  25.024  23.582  1.00  0.00    -0.275 OA
BRANCH  12  14
ATOM     14  C   UNL A   1      31.299  25.582  25.379  1.00  0.00     0.094 C 
ATOM     15  N   UNL A   1      32.540  23.504  24.950  1.00  0.00    -0.197 NA
ATOM     16  C   UNL A   1      31.558  22.659  25.647  1.00  0.00     0.102 C 
ATOM     17  C   UNL A   1      32.671  24.930  25.294  1.00  0.00     0.116 C 
ATOM     18  C   UNL A   1      30.490  23.386  26.460  1.00  0.00     0.018 C 
ATOM     19  C   UNL A   1      30.485  24.909  26.469  1.00  0.00     0.016 C 
BRANCH  15  20
ATOM     20  S   UNL A   1      33.873  22.726  24.245  1.00  0.00     0.243 S 
ATOM     21  O   UNL A   1      34.975  22.751  25.170  1.00  0.00    -0.207 OA
ATOM     22  O   UNL A   1      33.997  23.238  22.890  1.00  0.00    -0.207 OA
BRANCH  20  23
ATOM     23  C   UNL A   1      33.396  21.018  24.073  1.00  0.00     0.082 A 
ATOM     24  C   UNL A   1      32.870  18.297  23.780  1.00  0.00     0.118 A 
ATOM     25  C   UNL A   1      33.682  18.741  24.824  1.00  0.00     0.048 A 
ATOM     26  C   UNL A   1      32.270  19.217  22.923  1.00  0.00     0.048 A 
ATOM     27  C   UNL A   1      33.956  20.102  24.969  1.00  0.00     0.025 A 
ATOM     28  C   UNL A   1      32.539  20.577  23.063  1.00  0.00     0.025 A 
BRANCH  24  29
ATOM     29  O   UNL A   1      32.693  16.944  23.672  1.00  0.00    -0.497 OA
ATOM     30  C   UNL A   1      33.116  16.230  24.832  1.00  0.00     0.278 C 
ENDBRANCH  24  29
ENDBRANCH  20  23
ENDBRANCH  15  20
ENDBRANCH  12  14
ENDBRANCH   7  12
ENDBRANCH   3   6
ENDBRANCH   1   2
BRANCH   1  31
ATOM     31  C   UNL A   1      31.276  32.073  26.780  1.00  0.00     0.042 C 
BRANCH  31  32
ATOM     32  C   UNL A   1      32.581  32.809  26.995  1.00  0.00     0.118 C 
BRANCH  32  33
ATOM     33  N   UNL A   1      32.423  34.081  27.703  1.00  0.00    -0.352 N 
ATOM     34  C   UNL A   1      33.203  34.641  28.690  1.00  0.00     0.251 C 
ATOM     35  H   UNL A   1      31.641  34.614  27.434  1.00  0.00     0.163 HD
ATOM     36  O   UNL A   1      32.879  35.706  29.208  1.00  0.00    -0.269 OA
BRANCH  34  37
ATOM     37  C   UNL A   1      34.408  33.925  29.158  1.00  0.00     0.039 A 
ATOM     38  C   UNL A   1      35.671  34.391  28.778  1.00  0.00     0.014 A 
ATOM     39  C   UNL A   1      34.292  32.853  30.041  1.00  0.00     0.014 A 
ATOM     40  C   UNL A   1      36.813  33.842  29.366  1.00  0.00     0.010 A 
ATOM     41  C   UNL A   1      35.415  32.404  30.718  1.00  0.00     0.010 A 
ATOM     42  C   UNL A   1      36.690  32.883  30.383  1.00  0.00    -0.014 A 
BRANCH  42  43
ATOM     43  C   UNL A   1      37.862  32.334  31.114  1.00  0.00     0.031 A 
ATOM     44  C   UNL A   1      38.635  31.191  30.506  1.00  0.00     0.074 A 
ATOM     45  C   UNL A   1      38.140  32.751  32.365  1.00  0.00     0.049 A 
ATOM     46  N   UNL A   1      39.546  30.428  31.047  1.00  0.00    -0.248 NA
ATOM     47  C   UNL A   1      38.290  30.820  29.121  1.00  0.00     0.031 C 
ATOM     48  C   UNL A   1      37.409  33.786  33.102  1.00  0.00     0.029 A 
ATOM     49  N   UNL A   1      39.094  32.327  33.256  1.00  0.00    -0.354 N 
ATOM     50  C   UNL A   1      39.823  29.445  30.103  1.00  0.00     0.074 A 
ATOM     51  C   UNL A   1      38.958  29.687  28.971  1.00  0.00     0.031 C 
ATOM     52  C   UNL A   1      37.946  33.921  34.325  1.00  0.00     0.029 A 
ATOM     53  C   UNL A   1      39.035  32.961  34.476  1.00  0.00     0.049 A 
ATOM     54  H   UNL A   1      39.759  31.632  33.042  1.00  0.00     0.167 HD
ATOM     55  C   UNL A   1      40.743  28.454  30.155  1.00  0.00     0.034 A 
ATOM     56  C   UNL A   1      39.774  32.785  35.589  1.00  0.00     0.034 A 
ATOM     57  C   UNL A   1      41.675  28.291  31.235  1.00  0.00     0.049 A 
ATOM     58  C   UNL A   1      40.874  31.757  35.575  1.00  0.00     0.074 A 
ATOM     59  C   UNL A   1      42.724  27.397  31.339  1.00  0.00     0.029 A 
ATOM     60  N   UNL A   1      41.684  29.060  32.388  1.00  0.00    -0.354 N 
ATOM     61  N   UNL A   1      41.216  30.929  34.617  1.00  0.00    -0.248 NA
ATOM     62  C   UNL A   1      41.715  31.663  36.776  1.00  0.00     0.031 C 
ATOM     63  C   UNL A   1      43.373  27.630  32.556  1.00  0.00     0.029 A 
ATOM     64  C   UNL A   1      42.730  28.673  33.206  1.00  0.00     0.049 A 
ATOM     65  H   UNL A   1      41.040  29.776  32.596  1.00  0.00     0.167 HD
ATOM     66  C   UNL A   1      42.331  30.245  35.083  1.00  0.00     0.074 A 
ATOM     67  C   UNL A   1      42.619  30.767  36.403  1.00  0.00     0.031 C 
ATOM     68  C   UNL A   1      43.043  29.261  34.482  1.00  0.00     0.034 A 
BRANCH  55  69
ATOM     69  C   UNL A   1      40.838  27.526  28.973  1.00  0.00     0.023 A 
ATOM     70  C   UNL A   1      39.977  26.413  28.896  1.00  0.00     0.012 A 
ATOM     71  C   UNL A   1      41.748  27.769  27.926  1.00  0.00     0.148 A 
ATOM     72  C   UNL A   1      40.046  25.532  27.817  1.00  0.00     0.002 A 
ATOM     73  C   UNL A   1      41.780  26.913  26.831  1.00  0.00     0.091 A 
ATOM     74  F   UNL A   1      42.577  28.819  28.026  1.00  0.00    -0.205 F 
ATOM     75  C   UNL A   1      40.940  25.788  26.782  1.00  0.00     0.022 A 
BRANCH  73  76
ATOM     76  S   UNL A   1      42.840  27.202  25.409  1.00  0.00     0.127 S 
ATOM     77  O   UNL A   1      42.195  28.358  24.789  1.00  0.00    -0.237 OA
ATOM     78  O   UNL A   1      44.130  27.489  26.038  1.00  0.00    -0.237 OA
ATOM     79  O   UNL A   1      42.808  25.971  24.632  1.00  0.00    -0.744 OA
ENDBRANCH  73  76
ENDBRANCH  55  69
BRANCH  56  80
ATOM     80  C   UNL A   1      39.563  33.667  36.771  1.00  0.00     0.023 A 
ATOM     81  C   UNL A   1      39.945  35.021  36.690  1.00  0.00     0.012 A 
ATOM     82  C   UNL A   1      38.958  33.196  37.953  1.00  0.00     0.148 A 
ATOM     83  C   UNL A   1      39.758  35.883  37.771  1.00  0.00     0.002 A 
ATOM     84  C   UNL A   1      38.730  34.073  39.010  1.00  0.00     0.091 A 
ATOM     85  F   UNL A   1      38.612  31.904  38.020  1.00  0.00    -0.205 F 
ATOM     86  C   UNL A   1      39.142  35.412  38.926  1.00  0.00     0.022 A 
BRANCH  84  87
ATOM     87  S   UNL A   1      37.832  33.581  40.487  1.00  0.00     0.127 S 
ATOM     88  O   UNL A   1      37.713  34.849  41.201  1.00  0.00    -0.237 OA
ATOM     89  O   UNL A   1      36.579  33.070  39.929  1.00  0.00    -0.237 OA
ATOM     90  O   UNL A   1      38.659  32.565  41.124  1.00  0.00    -0.744 OA
ENDBRANCH  84  87
ENDBRANCH  56  80
BRANCH  68  91
ATOM     91  C   UNL A   1      44.234  28.708  35.215  1.00  0.00     0.023 A 
ATOM     92  C   UNL A   1      45.503  29.282  35.013  1.00  0.00     0.012 A 
ATOM     93  C   UNL A   1      44.074  27.694  36.180  1.00  0.00     0.148 A 
ATOM     94  C   UNL A   1      46.603  28.840  35.747  1.00  0.00     0.002 A 
ATOM     95  C   UNL A   1      45.165  27.288  36.939  1.00  0.00     0.091 A 
ATOM     96  F   UNL A   1      42.859  27.148  36.340  1.00  0.00    -0.205 F 
ATOM     97  C   UNL A   1      46.431  27.854  36.718  1.00  0.00     0.022 A 
BRANCH  95  98
ATOM     98  S   UNL A   1      45.012  26.096  38.273  1.00  0.00     0.127 S 
ATOM     99  O   UNL A   1      44.502  24.922  37.568  1.00  0.00    -0.237 OA
ATOM    100  O   UNL A   1      46.393  25.973  38.743  1.00  0.00    -0.237 OA
ATOM    101  O   UNL A   1      44.101  26.694  39.239  1.00  0.00    -0.744 OA
ENDBRANCH  95  98
ENDBRANCH  68  91
ENDBRANCH  42  43
ENDBRANCH  34  37
ENDBRANCH  32  33
ENDBRANCH  31  32
ENDBRANCH   1  31
TORSDOF 18
ENDMDL
MODEL 2
REMARK VINA RESULT:     -12.2      1.348      1.972
REMARK SMILES COc1ccc(S(=O)(=O)N2CCC[C@H](C(=O)N3CCC[C@H](C(=O)NCCCNC(=O)c4ccc(-c5c6nc(c(-c7cccc(S(=O)(=O)[O-])c7F)c7ccc([nH]7)c(-c7cccc(S(=O)(=O)[O-])c7F)c7nc(c(-c8cccc(S(=O)(=O)[O-])c8F)c8ccc5[nH]8)C=C7)C=C6)cc4)C3)C2)cc1
REMARK SMILES IDX 25 1 24 2 22 3 23 4 21 6 17 7 18 8 94 9 19 10 20 11 15 12
REMARK SMILES IDX 16 13 14 14 10 15 11 16 95 17 12 18 13 19 7 20 8 21 9 22
REMARK SMILES IDX 6 23 3 24 4 25 97 26 5 27 96 28 2 29 1 30 26 31 27 32 28 33
REMARK SMILES IDX 29 34 30 36 31 37 32 38 93 39 33 40 92 41 34 42 35 43 36 44
REMARK SMILES IDX 86 45 37 46 91 47 85 48 87 49 38 50 90 51 84 52 83 53 39 55
REMARK SMILES IDX 71 56 51 57 70 58 52 59 55 60 69 61 88 62 53 63 54 64 68 66
REMARK SMILES IDX 89 67 56 68 40 69 41 70 49 71 42 72 44 73 50 74 43 75 45 76
REMARK SMILES IDX 46 77 47 78 48 79 72 80 73 81 81 82 74 83 76 84 82 85 75 86
REMARK SMILES IDX 77 87 78 88 79 89 80 90 57 91 58 92 66 93 59 94 61 95 67 96
REMARK SMILES IDX 60 97 62 98 63 99 64 100 65 101
REMARK H PARENT 24 5 28 35 87 54 55 65
REMARK Flexibility Score: inf
ROOT
ATOM      1  C   UNL A   1      33.372  29.900  27.088  1.00  0.00     0.117 C 
ENDROOT
BRANCH   1   2
ATOM      2  N   UNL A   1      33.706  29.544  25.732  1.00  0.00    -0.356 N 
ATOM      3  C   UNL A   1      32.880  29.327  24.677  1.00  0.00     0.224 C 
ATOM      4  O   UNL A   1      33.408  29.274  23.560  1.00  0.00    -0.275 OA
ATOM      5  H   UNL A   1      34.667  29.445  25.546  1.00  0.00     0.163 HD
BRANCH   3   6
ATOM      6  C   UNL A   1      31.358  29.157  24.799  1.00  0.00     0.098 C 
ATOM      7  N   UNL A   1      30.405  26.826  24.585  1.00  0.00    -0.342 N 
ATOM      8  C   UNL A   1      29.488  27.254  23.532  1.00  0.00     0.119 C 
ATOM      9  C   UNL A   1      30.896  27.865  25.483  1.00  0.00     0.133 C 
ATOM     10  C   UNL A   1      30.030  28.413  22.707  1.00  0.00     0.022 C 
ATOM     11  C   UNL A   1      30.555  29.562  23.560  1.00  0.00     0.017 C 
BRANCH   7  12
ATOM     12  C   UNL A   1      30.926  25.547  24.521  1.00  0.00     0.227 C 
ATOM     13  O   UNL A   1      30.578  24.764  23.629  1.00  0.00    -0.275 OA
BRANCH  12  14
ATOM     14  C   UNL A   1      31.742  24.982  25.678  1.00  0.00     0.094 C 
ATOM     15  N   UNL A   1      32.188  22.825  24.586  1.00  0.00    -0.197 NA
ATOM     16  C   UNL A   1      31.251  22.086  25.446  1.00  0.00     0.102 C 
ATOM     17  C   UNL A   1      32.799  24.079  25.058  1.00  0.00     0.116 C 
ATOM     18  C   UNL A   1      30.702  22.836  26.656  1.00  0.00     0.018 C 
ATOM     19  C   UNL A   1      31.119  24.285  26.873  1.00  0.00     0.016 C 
BRANCH  15  20
ATOM     20  S   UNL A   1      32.998  21.945  23.382  1.00  0.00     0.243 S 
ATOM     21  O   UNL A   1      32.969  22.694  22.153  1.00  0.00    -0.207 OA
ATOM     22  O   UNL A   1      32.513  20.577  23.457  1.00  0.00    -0.207 OA
BRANCH  20  23
ATOM     23  C   UNL A   1      34.702  21.883  23.897  1.00  0.00     0.082 A 
ATOM     24  C   UNL A   1      37.294  21.811  24.919  1.00  0.00     0.118 A 
ATOM     25  C   UNL A   1      36.358  20.859  25.326  1.00  0.00     0.048 A 
ATOM     26  C   UNL A   1      36.953  22.756  23.953  1.00  0.00     0.048 A 
ATOM     27  C   UNL A   1      35.056  20.898  24.824  1.00  0.00     0.025 A 
ATOM     28  C   UNL A   1      35.655  22.798  23.449  1.00  0.00     0.025 A 
BRANCH  24  29
ATOM     29  O   UNL A   1      38.532  21.740  25.496  1.00  0.00    -0.497 OA
ATOM     30  C   UNL A   1      38.829  22.863  26.324  1.00  0.00     0.278 C 
ENDBRANCH  24  29
ENDBRANCH  20  23
ENDBRANCH  15  20
ENDBRANCH  12  14
ENDBRANCH   7  12
ENDBRANCH   3   6
ENDBRANCH   1   2
BRANCH   1  31
ATOM     31  C   UNL A   1      32.655  31.226  27.240  1.00  0.00     0.042 C 
BRANCH  31  32
ATOM     32  C   UNL A   1      33.601  32.407  27.251  1.00  0.00     0.118 C 
BRANCH  32  33
ATOM     33  N   UNL A   1      32.960  33.662  27.650  1.00  0.00    -0.352 N 
ATOM     34  C   UNL A   1      33.264  34.513  28.689  1.00  0.00     0.251 C 
ATOM     35  H   UNL A   1      32.198  33.938  27.092  1.00  0.00     0.163 HD
ATOM     36  O   UNL A   1      32.573  35.505  28.901  1.00  0.00    -0.269 OA
BRANCH  34  37
ATOM     37  C   UNL A   1      34.401  34.197  29.579  1.00  0.00     0.039 A 
ATOM     38  C   UNL A   1      34.171  33.466  30.749  1.00  0.00     0.014 A 
ATOM     39  C   UNL A   1      35.700  34.544  29.212  1.00  0.00     0.014 A 
ATOM     40  C   UNL A   1      35.256  32.999  31.494  1.00  0.00     0.010 A 
ATOM     41  C   UNL A   1      36.771  33.970  29.878  1.00  0.00     0.010 A 
ATOM     42  C   UNL A   1      36.566  33.200  31.033  1.00  0.00    -0.014 A 
BRANCH  42  43
ATOM     43  C   UNL A   1      37.756  32.645  31.729  1.00  0.00     0.031 A 
ATOM     44  C   UNL A   1      38.518  31.514  31.087  1.00  0.00     0.074 A 
ATOM     45  C   UNL A   1      38.061  33.045  32.979  1.00  0.00     0.049 A 
ATOM     46  N   UNL A   1      39.444  30.747  31.597  1.00  0.00    -0.248 NA
ATOM     47  C   UNL A   1      38.143  31.161  29.705  1.00  0.00     0.031 C 
ATOM     48  C   UNL A   1      37.343  34.067  33.747  1.00  0.00     0.029 A 
ATOM     49  N   UNL A   1      39.037  32.613  33.842  1.00  0.00    -0.354 N 
ATOM     50  C   UNL A   1      39.703  29.778  30.633  1.00  0.00     0.074 A 
ATOM     51  C   UNL A   1      38.811  30.032  29.525  1.00  0.00     0.031 C 
ATOM     52  C   UNL A   1      37.908  34.187  34.960  1.00  0.00     0.029 A 
ATOM     53  C   UNL A   1      39.004  33.230  35.071  1.00  0.00     0.049 A 
ATOM     54  H   UNL A   1      39.699  31.923  33.603  1.00  0.00     0.167 HD
ATOM     55  C   UNL A   1      40.628  28.790  30.649  1.00  0.00     0.034 A 
ATOM     56  C   UNL A   1      39.769  33.040  36.165  1.00  0.00     0.034 A 
ATOM     57  C   UNL A   1      41.585  28.616  31.705  1.00  0.00     0.049 A 
ATOM     58  C   UNL A   1      40.872  32.017  36.111  1.00  0.00     0.074 A 
ATOM     59  C   UNL A   1      42.639  27.724  31.772  1.00  0.00     0.029 A 
ATOM     60  N   UNL A   1      41.617  29.369  32.869  1.00  0.00    -0.354 N 
ATOM     61  N   UNL A   1      41.195  31.204  35.134  1.00  0.00    -0.248 NA
ATOM     62  C   UNL A   1      41.741  31.910  37.291  1.00  0.00     0.031 C 
ATOM     63  C   UNL A   1      43.316  27.943  32.978  1.00  0.00     0.029 A 
ATOM     64  C   UNL A   1      42.684  28.974  33.656  1.00  0.00     0.049 A 
ATOM     65  H   UNL A   1      40.976  30.079  33.101  1.00  0.00     0.167 HD
ATOM     66  C   UNL A   1      42.323  30.518  35.564  1.00  0.00     0.074 A 
ATOM     67  C   UNL A   1      42.639  31.022  36.885  1.00  0.00     0.031 C 
ATOM     68  C   UNL A   1      43.024  29.545  34.933  1.00  0.00     0.034 A 
BRANCH  55  69
ATOM     69  C   UNL A   1      40.699  27.880  29.453  1.00  0.00     0.023 A 
ATOM     70  C   UNL A   1      39.887  26.728  29.409  1.00  0.00     0.012 A 
ATOM     71  C   UNL A   1      41.536  28.175  28.359  1.00  0.00     0.148 A 
ATOM     72  C   UNL A   1      39.936  25.862  28.318  1.00  0.00     0.002 A 
ATOM     73  C   UNL A   1      41.545  27.332  27.254  1.00  0.00     0.091 A 
ATOM     74  F   UNL A   1      42.320  29.261  28.426  1.00  0.00    -0.205 F 
ATOM     75  C   UNL A   1      40.758  26.170  27.238  1.00  0.00     0.022 A 
BRANCH  73  76
ATOM     76  S   UNL A   1      42.510  27.684  25.779  1.00  0.00     0.127 S 
ATOM     77  O   UNL A   1      42.010  29.006  25.407  1.00  0.00    -0.237 OA
ATOM     78  O   UNL A   1      43.879  27.674  26.295  1.00  0.00    -0.237 OA
ATOM     79  O   UNL A   1      42.210  26.611  24.842  1.00  0.00    -0.744 OA
ENDBRANCH  73  76
ENDBRANCH  55  69
BRANCH  56  80
ATOM     80  C   UNL A   1      39.582  33.905  37.364  1.00  0.00     0.023 A 
ATOM     81  C   UNL A   1      40.044  35.235  37.326  1.00  0.00     0.012 A 
ATOM     82  C   UNL A   1      38.923  33.443  38.520  1.00  0.00     0.148 A 
ATOM     83  C   UNL A   1      39.883  36.081  38.423  1.00  0.00     0.002 A 
ATOM     84  C   UNL A   1      38.721  34.305  39.594  1.00  0.00     0.091 A 
ATOM     85  F   UNL A   1      38.500  32.172  38.546  1.00  0.00    -0.205 F 
ATOM     86  C   UNL A   1      39.213  35.620  39.553  1.00  0.00     0.022 A 
BRANCH  84  87
ATOM     87  S   UNL A   1      37.761  33.833  41.037  1.00  0.00     0.127 S 
ATOM     88  O   UNL A   1      37.532  35.124  41.680  1.00  0.00    -0.237 OA
ATOM     89  O   UNL A   1      36.573  33.228  40.431  1.00  0.00    -0.237 OA
ATOM     90  O   UNL A   1      38.600  32.895  41.771  1.00  0.00    -0.744 OA
ENDBRANCH  84  87
ENDBRANCH  56  80
BRANCH  68  91
ATOM     91  C   UNL A   1      44.233  28.987  35.631  1.00  0.00     0.023 A 
ATOM     92  C   UNL A   1      45.492  29.583  35.426  1.00  0.00     0.012 A 
ATOM     93  C   UNL A   1      44.102  27.943  36.567  1.00  0.00     0.148 A 
ATOM     94  C   UNL A   1      46.609  29.133  36.129  1.00  0.00     0.002 A 
ATOM     95  C   UNL A   1      45.210  27.529  37.297  1.00  0.00     0.091 A 
ATOM     96  F   UNL A   1      42.897  27.377  36.731  1.00  0.00    -0.205 F 
ATOM     97  C   UNL A   1      46.465  28.118  37.073  1.00  0.00     0.022 A 
BRANCH  95  98
ATOM     98  S   UNL A   1      45.094  26.296  38.598  1.00  0.00     0.127 S 
ATOM     99  O   UNL A   1      44.742  25.096  37.842  1.00  0.00    -0.237 OA
ATOM    100  O   UNL A   1      46.450  26.295  39.149  1.00  0.00    -0.237 OA
ATOM    101  O   UNL A   1      44.073  26.782  39.517  1.00  0.00    -0.744 OA
ENDBRANCH  95  98
ENDBRANCH  68  91
ENDBRANCH  42  43
ENDBRANCH  34  37
ENDBRANCH  32  33
ENDBRANCH  31  32
ENDBRANCH   1  31
TORSDOF 18
ENDMDL
MODEL 3
REMARK VINA RESULT:     -12.0      5.513     11.756
REMARK SMILES COc1ccc(S(=O)(=O)N2CCC[C@H](C(=O)N3CCC[C@H](C(=O)NCCCNC(=O)c4ccc(-c5c6nc(c(-c7cccc(S(=O)(=O)[O-])c7F)c7ccc([nH]7)c(-c7cccc(S(=O)(=O)[O-])c7F)c7nc(c(-c8cccc(S(=O)(=O)[O-])c8F)c8ccc5[nH]8)C=C7)C=C6)cc4)C3)C2)cc1
REMARK SMILES IDX 25 1 24 2 22 3 23 4 21 6 17 7 18 8 94 9 19 10 20 11 15 12
REMARK SMILES IDX 16 13 14 14 10 15 11 16 95 17 12 18 13 19 7 20 8 21 9 22
REMARK SMILES IDX 6 23 3 24 4 25 97 26 5 27 96 28 2 29 1 30 26 31 27 32 28 33
REMARK SMILES IDX 29 34 30 36 31 37 32 38 93 39 33 40 92 41 34 42 35 43 36 44
REMARK SMILES IDX 86 45 37 46 91 47 85 48 87 49 38 50 90 51 84 52 83 53 39 55
REMARK SMILES IDX 71 56 51 57 70 58 52 59 55 60 69 61 88 62 53 63 54 64 68 66
REMARK SMILES IDX 89 67 56 68 40 69 41 70 49 71 42 72 44 73 50 74 43 75 45 76
REMARK SMILES IDX 46 77 47 78 48 79 72 80 73 81 81 82 74 83 76 84 82 85 75 86
REMARK SMILES IDX 77 87 78 88 79 89 80 90 57 91 58 92 66 93 59 94 61 95 67 96
REMARK SMILES IDX 60 97 62 98 63 99 64 100 65 101
REMARK H PARENT 24 5 28 35 87 54 55 65
REMARK Flexibility Score: inf
ROOT
ATOM      1  C   UNL A   1      37.287  20.612  25.016  1.00  0.00     0.117 C 
ENDROOT
BRANCH   1   2
ATOM      2  N   UNL A   1      35.949  20.100  24.864  1.00  0.00    -0.356 N 
ATOM      3  C   UNL A   1      34.765  20.708  25.134  1.00  0.00     0.224 C 
ATOM      4  O   UNL A   1      33.746  20.162  24.694  1.00  0.00    -0.275 OA
ATOM      5  H   UNL A   1      35.884  19.182  24.515  1.00  0.00     0.163 HD
BRANCH   3   6
ATOM      6  C   UNL A   1      34.633  22.014  25.932  1.00  0.00     0.098 C 
ATOM      7  N   UNL A   1      33.565  23.999  24.789  1.00  0.00    -0.342 N 
ATOM      8  C   UNL A   1      34.717  24.844  25.092  1.00  0.00     0.119 C 
ATOM      9  C   UNL A   1      33.369  22.834  25.643  1.00  0.00     0.133 C 
ATOM     10  C   UNL A   1      36.020  24.063  25.178  1.00  0.00     0.022 C 
ATOM     11  C   UNL A   1      35.923  22.829  26.067  1.00  0.00     0.017 C 
BRANCH   7  12
ATOM     12  C   UNL A   1      32.891  24.211  23.601  1.00  0.00     0.227 C 
ATOM     13  O   UNL A   1      33.507  24.437  22.553  1.00  0.00    -0.275 OA
BRANCH  12  14
ATOM     14  C   UNL A   1      31.380  24.421  23.591  1.00  0.00     0.094 C 
ATOM     15  N   UNL A   1      31.496  26.800  24.199  1.00  0.00    -0.197 NA
ATOM     16  C   UNL A   1      31.027  26.571  25.575  1.00  0.00     0.102 C 
ATOM     17  C   UNL A   1      31.149  25.852  23.127  1.00  0.00     0.116 C 
ATOM     18  C   UNL A   1      30.482  25.180  25.885  1.00  0.00     0.018 C 
ATOM     19  C   UNL A   1      30.493  24.125  24.785  1.00  0.00     0.016 C 
BRANCH  15  20
ATOM     20  S   UNL A   1      31.876  28.396  23.763  1.00  0.00     0.243 S 
ATOM     21  O   UNL A   1      30.655  29.126  23.547  1.00  0.00    -0.207 OA
ATOM     22  O   UNL A   1      32.916  28.323  22.750  1.00  0.00    -0.207 OA
BRANCH  20  23
ATOM     23  C   UNL A   1      32.649  29.114  25.199  1.00  0.00     0.082 A 
ATOM     24  C   UNL A   1      33.858  30.436  27.333  1.00  0.00     0.118 A 
ATOM     25  C   UNL A   1      32.603  30.845  26.882  1.00  0.00     0.048 A 
ATOM     26  C   UNL A   1      34.478  29.327  26.762  1.00  0.00     0.048 A 
ATOM     27  C   UNL A   1      31.999  30.192  25.806  1.00  0.00     0.025 A 
ATOM     28  C   UNL A   1      33.879  28.671  25.689  1.00  0.00     0.025 A 
BRANCH  24  29
ATOM     29  O   UNL A   1      34.409  31.160  28.355  1.00  0.00    -0.497 OA
ATOM     30  C   UNL A   1      34.113  32.554  28.277  1.00  0.00     0.278 C 
ENDBRANCH  24  29
ENDBRANCH  20  23
ENDBRANCH  15  20
ENDBRANCH  12  14
ENDBRANCH   7  12
ENDBRANCH   3   6
ENDBRANCH   1   2
BRANCH   1  31
ATOM     31  C   UNL A   1      38.376  19.560  25.003  1.00  0.00     0.042 C 
BRANCH  31  32
ATOM     32  C   UNL A   1      39.406  19.767  26.093  1.00  0.00     0.118 C 
BRANCH  32  33
ATOM     33  N   UNL A   1      40.662  19.054  25.851  1.00  0.00    -0.352 N 
ATOM     34  C   UNL A   1      41.960  19.503  25.946  1.00  0.00     0.251 C 
ATOM     35  H   UNL A   1      40.562  18.114  25.579  1.00  0.00     0.163 HD
ATOM     36  O   UNL A   1      42.895  18.764  25.650  1.00  0.00    -0.269 OA
BRANCH  34  37
ATOM     37  C   UNL A   1      42.219  20.898  26.360  1.00  0.00     0.039 A 
ATOM     38  C   UNL A   1      42.506  21.171  27.701  1.00  0.00     0.014 A 
ATOM     39  C   UNL A   1      42.266  21.916  25.410  1.00  0.00     0.014 A 
ATOM     40  C   UNL A   1      42.938  22.448  28.067  1.00  0.00     0.010 A 
ATOM     41  C   UNL A   1      42.820  23.140  25.752  1.00  0.00     0.010 A 
ATOM     42  C   UNL A   1      43.152  23.427  27.084  1.00  0.00    -0.014 A 
BRANCH  42  43
ATOM     43  C   UNL A   1      43.703  24.771  27.398  1.00  0.00     0.031 A 
ATOM     44  C   UNL A   1      42.778  25.837  27.925  1.00  0.00     0.074 A 
ATOM     45  C   UNL A   1      44.976  25.076  27.077  1.00  0.00     0.049 A 
ATOM     46  N   UNL A   1      42.987  27.119  28.067  1.00  0.00    -0.248 NA
ATOM     47  C   UNL A   1      41.411  25.412  28.283  1.00  0.00     0.031 C 
ATOM     48  C   UNL A   1      45.948  24.160  26.474  1.00  0.00     0.029 A 
ATOM     49  N   UNL A   1      45.663  26.260  27.180  1.00  0.00    -0.354 N 
ATOM     50  C   UNL A   1      41.765  27.660  28.452  1.00  0.00     0.074 A 
ATOM     51  C   UNL A   1      40.811  26.575  28.485  1.00  0.00     0.031 C 
ATOM     52  C   UNL A   1      47.104  24.812  26.270  1.00  0.00     0.029 A 
ATOM     53  C   UNL A   1      46.949  26.200  26.693  1.00  0.00     0.049 A 
ATOM     54  H   UNL A   1      45.272  27.078  27.566  1.00  0.00     0.167 HD
ATOM     55  C   UNL A   1      41.471  28.937  28.788  1.00  0.00     0.034 A 
ATOM     56  C   UNL A   1      47.893  27.157  26.596  1.00  0.00     0.034 A 
ATOM     57  C   UNL A   1      42.450  29.985  28.862  1.00  0.00     0.049 A 
ATOM     58  C   UNL A   1      47.575  28.542  27.092  1.00  0.00     0.074 A 
ATOM     59  C   UNL A   1      42.287  31.285  29.301  1.00  0.00     0.029 A 
ATOM     60  N   UNL A   1      43.783  29.841  28.509  1.00  0.00    -0.354 N 
ATOM     61  N   UNL A   1      46.452  29.002  27.588  1.00  0.00    -0.248 NA
ATOM     62  C   UNL A   1      48.663  29.530  27.054  1.00  0.00     0.031 C 
ATOM     63  C   UNL A   1      43.527  31.929  29.220  1.00  0.00     0.029 A 
ATOM     64  C   UNL A   1      44.460  31.025  28.735  1.00  0.00     0.049 A 
ATOM     65  H   UNL A   1      44.187  29.018  28.150  1.00  0.00     0.167 HD
ATOM     66  C   UNL A   1      46.707  30.318  27.955  1.00  0.00     0.074 A 
ATOM     67  C   UNL A   1      48.096  30.577  27.640  1.00  0.00     0.031 C 
ATOM     68  C   UNL A   1      45.863  31.235  28.487  1.00  0.00     0.034 A 
BRANCH  55  69
ATOM     69  C   UNL A   1      40.051  29.247  29.181  1.00  0.00     0.023 A 
ATOM     70  C   UNL A   1      39.112  29.576  28.182  1.00  0.00     0.012 A 
ATOM     71  C   UNL A   1      39.634  29.179  30.525  1.00  0.00     0.148 A 
ATOM     72  C   UNL A   1      37.792  29.875  28.517  1.00  0.00     0.002 A 
ATOM     73  C   UNL A   1      38.306  29.433  30.845  1.00  0.00     0.091 A 
ATOM     74  F   UNL A   1      40.545  28.888  31.466  1.00  0.00    -0.205 F 
ATOM     75  C   UNL A   1      37.387  29.793  29.846  1.00  0.00     0.022 A 
BRANCH  73  76
ATOM     76  S   UNL A   1      37.668  29.275  32.519  1.00  0.00     0.127 S 
ATOM     77  O   UNL A   1      38.517  30.216  33.248  1.00  0.00    -0.237 OA
ATOM     78  O   UNL A   1      36.278  29.705  32.361  1.00  0.00    -0.237 OA
ATOM     79  O   UNL A   1      37.830  27.873  32.876  1.00  0.00    -0.744 OA
ENDBRANCH  73  76
ENDBRANCH  55  69
BRANCH  56  80
ATOM     80  C   UNL A   1      49.255  26.813  26.097  1.00  0.00     0.023 A 
ATOM     81  C   UNL A   1      50.106  26.042  26.913  1.00  0.00     0.012 A 
ATOM     82  C   UNL A   1      49.701  27.204  24.820  1.00  0.00     0.148 A 
ATOM     83  C   UNL A   1      51.386  25.692  26.483  1.00  0.00     0.002 A 
ATOM     84  C   UNL A   1      50.960  26.810  24.376  1.00  0.00     0.091 A 
ATOM     85  F   UNL A   1      48.885  27.947  24.060  1.00  0.00    -0.205 F 
ATOM     86  C   UNL A   1      51.809  26.067  25.211  1.00  0.00     0.022 A 
BRANCH  84  87
ATOM     87  S   UNL A   1      51.537  27.143  22.707  1.00  0.00     0.127 S 
ATOM     88  O   UNL A   1      51.780  28.582  22.755  1.00  0.00    -0.237 OA
ATOM     89  O   UNL A   1      52.743  26.317  22.627  1.00  0.00    -0.237 OA
ATOM     90  O   UNL A   1      50.457  26.708  21.830  1.00  0.00    -0.744 OA
ENDBRANCH  84  87
ENDBRANCH  56  80
BRANCH  68  91
ATOM     91  C   UNL A   1      46.418  32.594  28.812  1.00  0.00     0.023 A 
ATOM     92  C   UNL A   1      47.068  32.804  30.043  1.00  0.00     0.012 A 
ATOM     93  C   UNL A   1      46.390  33.628  27.855  1.00  0.00     0.148 A 
ATOM     94  C   UNL A   1      47.664  34.032  30.327  1.00  0.00     0.002 A 
ATOM     95  C   UNL A   1      47.024  34.834  28.127  1.00  0.00     0.091 A 
ATOM     96  F   UNL A   1      45.749  33.412  26.697  1.00  0.00    -0.205 F 
ATOM     97  C   UNL A   1      47.654  35.040  29.365  1.00  0.00     0.022 A 
BRANCH  95  98
ATOM     98  S   UNL A   1      47.142  36.149  26.909  1.00  0.00     0.127 S 
ATOM     99  O   UNL A   1      47.807  37.204  27.671  1.00  0.00    -0.237 OA
ATOM    100  O   UNL A   1      47.966  35.536  25.866  1.00  0.00    -0.237 OA
ATOM    101  O   UNL A   1      45.773  36.437  26.500  1.00  0.00    -0.744 OA
ENDBRANCH  95  98
ENDBRANCH  68  91
ENDBRANCH  42  43
ENDBRANCH  34  37
ENDBRANCH  32  33
ENDBRANCH  31  32
ENDBRANCH   1  31
TORSDOF 18
ENDMDL
