MODEL 1
REMARK VINA RESULT:     -12.0      0.000      0.000
REMARK SMILES CCc1ccc(C[NH+]2CCC(Oc3ccccc3OC)(C(=O)NCCCNC(=O)c3ccc(-c4c5nc(c(-c6cccc(S(=O)(=O)[O-])c6F)c6ccc([nH]6)c(-c6cccc(S(=O)(=O)[O-])c6F)c6nc(c(-c7cccc(S(=O)(=O)[O-])c7F)c7ccc4[nH]7)C=C6)C=C5)cc3)CC2)nc1
REMARK SMILES IDX 25 1 24 2 23 3 21 4 22 5 11 7 8 8 9 9 94 10 10 12 93 13 7 14
REMARK SMILES IDX 6 15 3 16 4 17 96 18 5 19 95 20 2 21 1 22 12 23 13 24 14 25
REMARK SMILES IDX 18 26 15 27 17 28 16 29 19 30 20 31 26 32 27 33 28 34 29 36
REMARK SMILES IDX 30 37 31 38 92 39 32 40 91 41 33 42 34 43 35 44 85 45 36 46
REMARK SMILES IDX 90 47 84 48 86 49 37 50 89 51 83 52 82 53 38 55 70 56 50 57
REMARK SMILES IDX 69 58 51 59 54 60 68 61 87 62 52 63 53 64 67 66 88 67 55 68
REMARK SMILES IDX 39 69 40 70 48 71 41 72 43 73 49 74 42 75 44 76 45 77 46 78
REMARK SMILES IDX 47 79 71 80 72 81 80 82 73 83 75 84 81 85 74 86 76 87 77 88
REMARK SMILES IDX 78 89 79 90 56 91 57 92 65 93 58 94 60 95 66 96 59 97 61 98
REMARK SMILES IDX 62 99 63 100 64 101
REMARK H PARENT 23 6 8 11 27 35 86 54 54 65
REMARK Flexibility Score: inf
ROOT
ATOM      1  C   UNL A   1      37.166  21.945  25.809  1.00  0.00     0.042 C 
ENDROOT
BRANCH   1   2
ATOM      2  C   UNL A   1      36.810  23.398  25.530  1.00  0.00     0.118 C 
BRANCH   2   3
ATOM      3  N   UNL A   1      36.261  23.613  24.198  1.00  0.00    -0.353 N 
ATOM      4  C   UNL A   1      34.984  23.880  23.778  1.00  0.00     0.264 C 
ATOM      5  O   UNL A   1      34.887  24.280  22.613  1.00  0.00    -0.270 OA
ATOM      6  H   UNL A   1      36.923  23.556  23.472  1.00  0.00     0.163 HD
BRANCH   4   7
ATOM      7  C   UNL A   1      33.735  23.676  24.694  1.00  0.00     0.197 C 
ATOM      8  N   UNL A   1      32.422  21.151  23.875  1.00  0.00    -0.330 N 
ATOM      9  C   UNL A   1      33.715  21.132  24.563  1.00  0.00     0.267 C 
ATOM     10  C   UNL A   1      32.320  22.331  23.007  1.00  0.00     0.267 C 
ATOM     11  H   UNL A   1      31.689  21.219  24.582  1.00  0.00     0.348 HD
ATOM     12  C   UNL A   1      33.850  22.354  25.459  1.00  0.00     0.120 C 
ATOM     13  C   UNL A   1      32.454  23.627  23.827  1.00  0.00     0.120 C 
BRANCH   8  14
ATOM     14  C   UNL A   1      32.168  19.887  23.134  1.00  0.00     0.319 C 
BRANCH  14  15
ATOM     15  C   UNL A   1      32.652  18.610  23.806  1.00  0.00     0.095 A 
ATOM     16  C   UNL A   1      33.077  16.085  24.849  1.00  0.00    -0.030 A 
ATOM     17  C   UNL A   1      33.607  16.412  23.602  1.00  0.00     0.007 A 
ATOM     18  C   UNL A   1      32.401  17.096  25.530  1.00  0.00     0.115 A 
ATOM     19  C   UNL A   1      33.400  17.686  23.075  1.00  0.00     0.030 A 
ATOM     20  N   UNL A   1      32.192  18.343  25.050  1.00  0.00    -0.255 NA
BRANCH  16  21
ATOM     21  C   UNL A   1      33.109  14.702  25.445  1.00  0.00     0.034 C 
ATOM     22  C   UNL A   1      32.089  14.408  26.538  1.00  0.00     0.009 C 
ENDBRANCH  16  21
ENDBRANCH  14  15
ENDBRANCH   8  14
BRANCH   7  23
ATOM     23  O   UNL A   1      33.843  24.809  25.592  1.00  0.00    -0.473 OA
BRANCH  23  24
ATOM     24  C   UNL A   1      32.962  25.844  25.537  1.00  0.00     0.162 A 
ATOM     25  C   UNL A   1      33.413  27.067  25.029  1.00  0.00     0.050 A 
ATOM     26  C   UNL A   1      31.739  25.803  26.220  1.00  0.00     0.160 A 
ATOM     27  C   UNL A   1      32.611  28.205  25.092  1.00  0.00     0.004 A 
ATOM     28  C   UNL A   1      30.923  26.939  26.261  1.00  0.00     0.050 A 
ATOM     29  C   UNL A   1      31.352  28.134  25.682  1.00  0.00     0.004 A 
BRANCH  26  30
ATOM     30  O   UNL A   1      31.407  24.793  27.086  1.00  0.00    -0.493 OA
ATOM     31  C   UNL A   1      30.422  23.899  26.586  1.00  0.00     0.278 C 
ENDBRANCH  26  30
ENDBRANCH  23  24
ENDBRANCH   7  23
ENDBRANCH   4   7
ENDBRANCH   2   3
ENDBRANCH   1   2
BRANCH   1  32
ATOM     32  C   UNL A   1      38.516  21.518  25.256  1.00  0.00     0.118 C 
BRANCH  32  33
ATOM     33  N   UNL A   1      39.242  20.649  26.169  1.00  0.00    -0.352 N 
ATOM     34  C   UNL A   1      40.302  20.919  26.998  1.00  0.00     0.251 C 
ATOM     35  H   UNL A   1      38.923  19.717  26.196  1.00  0.00     0.163 HD
ATOM     36  O   UNL A   1      40.892  19.984  27.537  1.00  0.00    -0.269 OA
BRANCH  34  37
ATOM     37  C   UNL A   1      40.746  22.311  27.246  1.00  0.00     0.039 A 
ATOM     38  C   UNL A   1      41.568  22.569  28.349  1.00  0.00     0.014 A 
ATOM     39  C   UNL A   1      40.313  23.370  26.445  1.00  0.00     0.014 A 
ATOM     40  C   UNL A   1      41.982  23.877  28.621  1.00  0.00     0.010 A 
ATOM     41  C   UNL A   1      40.795  24.658  26.665  1.00  0.00     0.010 A 
ATOM     42  C   UNL A   1      41.613  24.931  27.771  1.00  0.00    -0.014 A 
BRANCH  42  43
ATOM     43  C   UNL A   1      42.027  26.332  28.043  1.00  0.00     0.031 A 
ATOM     44  C   UNL A   1      43.427  26.778  27.709  1.00  0.00     0.074 A 
ATOM     45  C   UNL A   1      41.176  27.179  28.656  1.00  0.00     0.049 A 
ATOM     46  N   UNL A   1      44.009  27.924  27.950  1.00  0.00    -0.248 NA
ATOM     47  C   UNL A   1      44.301  25.794  27.045  1.00  0.00     0.031 C 
ATOM     48  C   UNL A   1      39.818  26.850  29.094  1.00  0.00     0.029 A 
ATOM     49  N   UNL A   1      41.340  28.486  29.045  1.00  0.00    -0.354 N 
ATOM     50  C   UNL A   1      45.318  27.787  27.503  1.00  0.00     0.074 A 
ATOM     51  C   UNL A   1      45.460  26.436  27.011  1.00  0.00     0.031 C 
ATOM     52  C   UNL A   1      39.275  27.923  29.692  1.00  0.00     0.029 A 
ATOM     53  C   UNL A   1      40.252  29.008  29.703  1.00  0.00     0.049 A 
ATOM     54  H   UNL A   1      42.161  29.001  28.867  1.00  0.00     0.167 HD
ATOM     55  C   UNL A   1      46.306  28.713  27.471  1.00  0.00     0.034 A 
ATOM     56  C   UNL A   1      40.064  30.223  30.256  1.00  0.00     0.034 A 
ATOM     57  C   UNL A   1      46.147  30.075  27.902  1.00  0.00     0.049 A 
ATOM     58  C   UNL A   1      41.159  31.251  30.149  1.00  0.00     0.074 A 
ATOM     59  C   UNL A   1      47.066  31.108  27.849  1.00  0.00     0.029 A 
ATOM     60  N   UNL A   1      44.988  30.598  28.453  1.00  0.00    -0.354 N 
ATOM     61  N   UNL A   1      42.344  31.141  29.599  1.00  0.00    -0.248 NA
ATOM     62  C   UNL A   1      40.875  32.585  30.699  1.00  0.00     0.031 C 
ATOM     63  C   UNL A   1      46.463  32.257  28.372  1.00  0.00     0.029 A 
ATOM     64  C   UNL A   1      45.164  31.941  28.735  1.00  0.00     0.049 A 
ATOM     65  H   UNL A   1      44.163  30.089  28.619  1.00  0.00     0.167 HD
ATOM     66  C   UNL A   1      42.927  32.399  29.697  1.00  0.00     0.074 A 
ATOM     67  C   UNL A   1      41.959  33.260  30.342  1.00  0.00     0.031 C 
ATOM     68  C   UNL A   1      44.162  32.802  29.306  1.00  0.00     0.034 A 
BRANCH  55  69
ATOM     69  C   UNL A   1      47.633  28.307  26.882  1.00  0.00     0.023 A 
ATOM     70  C   UNL A   1      48.737  28.118  27.737  1.00  0.00     0.012 A 
ATOM     71  C   UNL A   1      47.771  28.043  25.506  1.00  0.00     0.148 A 
ATOM     72  C   UNL A   1      49.965  27.699  27.230  1.00  0.00     0.002 A 
ATOM     73  C   UNL A   1      48.988  27.584  25.013  1.00  0.00     0.091 A 
ATOM     74  F   UNL A   1      46.713  28.246  24.707  1.00  0.00    -0.205 F 
ATOM     75  C   UNL A   1      50.088  27.422  25.872  1.00  0.00     0.022 A 
BRANCH  73  76
ATOM     76  S   UNL A   1      49.230  27.125  23.293  1.00  0.00     0.127 S 
ATOM     77  O   UNL A   1      48.843  28.355  22.604  1.00  0.00    -0.237 OA
ATOM     78  O   UNL A   1      50.662  26.829  23.254  1.00  0.00    -0.237 OA
ATOM     79  O   UNL A   1      48.363  25.980  23.056  1.00  0.00    -0.744 OA
ENDBRANCH  73  76
ENDBRANCH  55  69
BRANCH  56  80
ATOM     80  C   UNL A   1      38.762  30.562  30.898  1.00  0.00     0.023 A 
ATOM     81  C   UNL A   1      38.551  30.228  32.250  1.00  0.00     0.012 A 
ATOM     82  C   UNL A   1      37.738  31.214  30.185  1.00  0.00     0.148 A 
ATOM     83  C   UNL A   1      37.329  30.500  32.868  1.00  0.00     0.002 A 
ATOM     84  C   UNL A   1      36.544  31.531  30.824  1.00  0.00     0.091 A 
ATOM     85  F   UNL A   1      37.948  31.510  28.894  1.00  0.00    -0.205 F 
ATOM     86  C   UNL A   1      36.329  31.159  32.159  1.00  0.00     0.022 A 
BRANCH  84  87
ATOM     87  S   UNL A   1      35.261  32.497  30.015  1.00  0.00     0.127 S 
ATOM     88  O   UNL A   1      34.303  32.690  31.098  1.00  0.00    -0.237 OA
ATOM     89  O   UNL A   1      35.989  33.702  29.615  1.00  0.00    -0.237 OA
ATOM     90  O   UNL A   1      34.811  31.677  28.899  1.00  0.00    -0.744 OA
ENDBRANCH  84  87
ENDBRANCH  56  80
BRANCH  68  91
ATOM     91  C   UNL A   1      44.525  34.248  29.511  1.00  0.00     0.023 A 
ATOM     92  C   UNL A   1      45.064  34.668  30.742  1.00  0.00     0.012 A 
ATOM     93  C   UNL A   1      44.403  35.173  28.456  1.00  0.00     0.148 A 
ATOM     94  C   UNL A   1      45.448  35.995  30.930  1.00  0.00     0.002 A 
ATOM     95  C   UNL A   1      44.831  36.483  28.635  1.00  0.00     0.091 A 
ATOM     96  F   UNL A   1      43.868  34.758  27.297  1.00  0.00    -0.205 F 
ATOM     97  C   UNL A   1      45.343  36.898  29.875  1.00  0.00     0.022 A 
BRANCH  95  98
ATOM     98  S   UNL A   1      44.821  37.685  27.300  1.00  0.00     0.127 S 
ATOM     99  O   UNL A   1      45.821  37.130  26.390  1.00  0.00    -0.237 OA
ATOM    100  O   UNL A   1      43.442  37.603  26.815  1.00  0.00    -0.237 OA
ATOM    101  O   UNL A   1      45.166  38.961  27.913  1.00  0.00    -0.744 OA
ENDBRANCH  95  98
ENDBRANCH  68  91
ENDBRANCH  42  43
ENDBRANCH  34  37
ENDBRANCH  32  33
ENDBRANCH   1  32
TORSDOF 19
ENDMDL
MODEL 2
REMARK VINA RESULT:     -11.9      5.026      8.480
REMARK SMILES CCc1ccc(C[NH+]2CCC(Oc3ccccc3OC)(C(=O)NCCCNC(=O)c3ccc(-c4c5nc(c(-c6cccc(S(=O)(=O)[O-])c6F)c6ccc([nH]6)c(-c6cccc(S(=O)(=O)[O-])c6F)c6nc(c(-c7cccc(S(=O)(=O)[O-])c7F)c7ccc4[nH]7)C=C6)C=C5)cc3)CC2)nc1
REMARK SMILES IDX 25 1 24 2 23 3 21 4 22 5 11 7 8 8 9 9 94 10 10 12 93 13 7 14
REMARK SMILES IDX 6 15 3 16 4 17 96 18 5 19 95 20 2 21 1 22 12 23 13 24 14 25
REMARK SMILES IDX 18 26 15 27 17 28 16 29 19 30 20 31 26 32 27 33 28 34 29 36
REMARK SMILES IDX 30 37 31 38 92 39 32 40 91 41 33 42 34 43 35 44 85 45 36 46
REMARK SMILES IDX 90 47 84 48 86 49 37 50 89 51 83 52 82 53 38 55 70 56 50 57
REMARK SMILES IDX 69 58 51 59 54 60 68 61 87 62 52 63 53 64 67 66 88 67 55 68
REMARK SMILES IDX 39 69 40 70 48 71 41 72 43 73 49 74 42 75 44 76 45 77 46 78
REMARK SMILES IDX 47 79 71 80 72 81 80 82 73 83 75 84 81 85 74 86 76 87 77 88
REMARK SMILES IDX 78 89 79 90 56 91 57 92 65 93 58 94 60 95 66 96 59 97 61 98
REMARK SMILES IDX 62 99 63 100 64 101
REMARK H PARENT 23 6 8 11 27 35 86 54 54 65
REMARK Flexibility Score: inf
ROOT
ATOM      1  C   UNL A   1      31.864  28.861  26.848  1.00  0.00     0.042 C 
ENDROOT
BRANCH   1   2
ATOM      2  C   UNL A   1      32.501  27.537  27.241  1.00  0.00     0.118 C 
BRANCH   2   3
ATOM      3  N   UNL A   1      31.583  26.409  27.163  1.00  0.00    -0.353 N 
ATOM      4  C   UNL A   1      31.729  25.159  26.620  1.00  0.00     0.264 C 
ATOM      5  O   UNL A   1      30.868  24.337  26.954  1.00  0.00    -0.270 OA
ATOM      6  H   UNL A   1      30.703  26.573  27.572  1.00  0.00     0.163 HD
BRANCH   4   7
ATOM      7  C   UNL A   1      32.887  24.798  25.636  1.00  0.00     0.197 C 
ATOM      8  N   UNL A   1      32.163  25.864  22.969  1.00  0.00    -0.330 N 
ATOM      9  C   UNL A   1      32.527  26.768  24.062  1.00  0.00     0.267 C 
ATOM     10  C   UNL A   1      31.456  24.687  23.491  1.00  0.00     0.267 C 
ATOM     11  H   UNL A   1      33.023  25.540  22.526  1.00  0.00     0.348 HD
ATOM     12  C   UNL A   1      33.477  26.071  25.024  1.00  0.00     0.120 C 
ATOM     13  C   UNL A   1      32.339  23.915  24.487  1.00  0.00     0.120 C 
BRANCH   8  14
ATOM     14  C   UNL A   1      31.386  26.558  21.908  1.00  0.00     0.319 C 
BRANCH  14  15
ATOM     15  C   UNL A   1      30.502  27.707  22.371  1.00  0.00     0.095 A 
ATOM     16  C   UNL A   1      28.643  29.719  22.752  1.00  0.00    -0.030 A 
ATOM     17  C   UNL A   1      28.406  28.452  23.284  1.00  0.00     0.007 A 
ATOM     18  C   UNL A   1      29.859  29.907  22.097  1.00  0.00     0.115 A 
ATOM     19  C   UNL A   1      29.342  27.437  23.099  1.00  0.00     0.030 A 
ATOM     20  N   UNL A   1      30.791  28.946  21.909  1.00  0.00    -0.255 NA
BRANCH  16  21
ATOM     21  C   UNL A   1      27.639  30.841  22.760  1.00  0.00     0.034 C 
ATOM     22  C   UNL A   1      28.197  32.251  22.906  1.00  0.00     0.009 C 
ENDBRANCH  16  21
ENDBRANCH  14  15
ENDBRANCH   8  14
BRANCH   7  23
ATOM     23  O   UNL A   1      33.837  24.156  26.523  1.00  0.00    -0.473 OA
BRANCH  23  24
ATOM     24  C   UNL A   1      34.831  23.362  26.042  1.00  0.00     0.162 A 
ATOM     25  C   UNL A   1      35.866  23.966  25.321  1.00  0.00     0.050 A 
ATOM     26  C   UNL A   1      34.702  21.967  26.005  1.00  0.00     0.160 A 
ATOM     27  C   UNL A   1      36.827  23.194  24.669  1.00  0.00     0.004 A 
ATOM     28  C   UNL A   1      35.680  21.191  25.373  1.00  0.00     0.050 A 
ATOM     29  C   UNL A   1      36.750  21.804  24.720  1.00  0.00     0.004 A 
BRANCH  26  30
ATOM     30  O   UNL A   1      33.533  21.322  26.318  1.00  0.00    -0.493 OA
ATOM     31  C   UNL A   1      33.342  20.097  25.623  1.00  0.00     0.278 C 
ENDBRANCH  26  30
ENDBRANCH  23  24
ENDBRANCH   7  23
ENDBRANCH   4   7
ENDBRANCH   2   3
ENDBRANCH   1   2
BRANCH   1  32
ATOM     32  C   UNL A   1      32.792  29.798  26.093  1.00  0.00     0.118 C 
BRANCH  32  33
ATOM     33  N   UNL A   1      32.517  31.199  26.370  1.00  0.00    -0.352 N 
ATOM     34  C   UNL A   1      33.142  32.076  27.221  1.00  0.00     0.251 C 
ATOM     35  H   UNL A   1      31.760  31.580  25.867  1.00  0.00     0.163 HD
ATOM     36  O   UNL A   1      32.617  33.164  27.450  1.00  0.00    -0.269 OA
BRANCH  34  37
ATOM     37  C   UNL A   1      34.429  31.729  27.869  1.00  0.00     0.039 A 
ATOM     38  C   UNL A   1      34.557  30.479  28.486  1.00  0.00     0.014 A 
ATOM     39  C   UNL A   1      35.486  32.640  27.931  1.00  0.00     0.014 A 
ATOM     40  C   UNL A   1      35.751  30.134  29.126  1.00  0.00     0.010 A 
ATOM     41  C   UNL A   1      36.704  32.263  28.491  1.00  0.00     0.010 A 
ATOM     42  C   UNL A   1      36.842  31.017  29.119  1.00  0.00    -0.014 A 
BRANCH  42  43
ATOM     43  C   UNL A   1      38.118  30.683  29.803  1.00  0.00     0.031 A 
ATOM     44  C   UNL A   1      39.071  29.700  29.172  1.00  0.00     0.074 A 
ATOM     45  C   UNL A   1      38.387  31.199  31.019  1.00  0.00     0.049 A 
ATOM     46  N   UNL A   1      40.186  29.209  29.647  1.00  0.00    -0.248 NA
ATOM     47  C   UNL A   1      38.706  29.174  27.845  1.00  0.00     0.031 C 
ATOM     48  C   UNL A   1      37.515  32.106  31.768  1.00  0.00     0.029 A 
ATOM     49  N   UNL A   1      39.461  31.010  31.853  1.00  0.00    -0.354 N 
ATOM     50  C   UNL A   1      40.633  28.295  28.700  1.00  0.00     0.074 A 
ATOM     51  C   UNL A   1      39.653  28.269  27.639  1.00  0.00     0.031 C 
ATOM     52  C   UNL A   1      38.087  32.392  32.950  1.00  0.00     0.029 A 
ATOM     53  C   UNL A   1      39.352  31.671  33.054  1.00  0.00     0.049 A 
ATOM     54  H   UNL A   1      40.237  30.453  31.613  1.00  0.00     0.167 HD
ATOM     55  C   UNL A   1      41.776  27.568  28.694  1.00  0.00     0.034 A 
ATOM     56  C   UNL A   1      40.176  31.690  34.120  1.00  0.00     0.034 A 
ATOM     57  C   UNL A   1      42.782  27.641  29.718  1.00  0.00     0.049 A 
ATOM     58  C   UNL A   1      41.469  30.921  34.058  1.00  0.00     0.074 A 
ATOM     59  C   UNL A   1      44.005  26.995  29.772  1.00  0.00     0.029 A 
ATOM     60  N   UNL A   1      42.688  28.416  30.863  1.00  0.00    -0.354 N 
ATOM     61  N   UNL A   1      41.936  30.169  33.091  1.00  0.00    -0.248 NA
ATOM     62  C   UNL A   1      42.370  31.037  35.214  1.00  0.00     0.031 C 
ATOM     63  C   UNL A   1      44.649  27.379  30.952  1.00  0.00     0.029 A 
ATOM     64  C   UNL A   1      43.834  28.275  31.624  1.00  0.00     0.049 A 
ATOM     65  H   UNL A   1      41.919  28.984  31.099  1.00  0.00     0.167 HD
ATOM     66  C   UNL A   1      43.199  29.760  33.502  1.00  0.00     0.074 A 
ATOM     67  C   UNL A   1      43.433  30.363  34.798  1.00  0.00     0.031 C 
ATOM     68  C   UNL A   1      44.081  28.943  32.874  1.00  0.00     0.034 A 
BRANCH  55  69
ATOM     69  C   UNL A   1      42.040  26.681  27.504  1.00  0.00     0.023 A 
ATOM     70  C   UNL A   1      42.700  27.216  26.380  1.00  0.00     0.012 A 
ATOM     71  C   UNL A   1      41.703  25.315  27.523  1.00  0.00     0.148 A 
ATOM     72  C   UNL A   1      42.999  26.412  25.282  1.00  0.00     0.002 A 
ATOM     73  C   UNL A   1      42.043  24.508  26.441  1.00  0.00     0.091 A 
ATOM     74  F   UNL A   1      41.058  24.829  28.594  1.00  0.00    -0.205 F 
ATOM     75  C   UNL A   1      42.681  25.058  25.316  1.00  0.00     0.022 A 
BRANCH  73  76
ATOM     76  S   UNL A   1      41.746  22.737  26.417  1.00  0.00     0.127 S 
ATOM     77  O   UNL A   1      40.285  22.684  26.385  1.00  0.00    -0.237 OA
ATOM     78  O   UNL A   1      42.397  22.333  25.172  1.00  0.00    -0.237 OA
ATOM     79  O   UNL A   1      42.361  22.208  27.627  1.00  0.00    -0.744 OA
ENDBRANCH  73  76
ENDBRANCH  55  69
BRANCH  56  80
ATOM     80  C   UNL A   1      39.843  32.523  35.311  1.00  0.00     0.023 A 
ATOM     81  C   UNL A   1      39.161  31.935  36.395  1.00  0.00     0.012 A 
ATOM     82  C   UNL A   1      40.198  33.883  35.381  1.00  0.00     0.148 A 
ATOM     83  C   UNL A   1      38.804  32.697  37.509  1.00  0.00     0.002 A 
ATOM     84  C   UNL A   1      39.887  34.622  36.518  1.00  0.00     0.091 A 
ATOM     85  F   UNL A   1      40.832  34.432  34.335  1.00  0.00    -0.205 F 
ATOM     86  C   UNL A   1      39.174  34.037  37.575  1.00  0.00     0.022 A 
BRANCH  84  87
ATOM     87  S   UNL A   1      40.448  36.316  36.732  1.00  0.00     0.127 S 
ATOM     88  O   UNL A   1      39.931  36.958  35.528  1.00  0.00    -0.237 OA
ATOM     89  O   UNL A   1      39.779  36.708  37.974  1.00  0.00    -0.237 OA
ATOM     90  O   UNL A   1      41.898  36.230  36.840  1.00  0.00    -0.744 OA
ENDBRANCH  84  87
ENDBRANCH  56  80
BRANCH  68  91
ATOM     91  C   UNL A   1      45.404  28.692  33.546  1.00  0.00     0.023 A 
ATOM     92  C   UNL A   1      46.491  29.552  33.299  1.00  0.00     0.012 A 
ATOM     93  C   UNL A   1      45.545  27.648  34.482  1.00  0.00     0.148 A 
ATOM     94  C   UNL A   1      47.709  29.359  33.950  1.00  0.00     0.002 A 
ATOM     95  C   UNL A   1      46.746  27.490  35.162  1.00  0.00     0.091 A 
ATOM     96  F   UNL A   1      44.504  26.828  34.689  1.00  0.00    -0.205 F 
ATOM     97  C   UNL A   1      47.833  28.337  34.888  1.00  0.00     0.022 A 
BRANCH  95  98
ATOM     98  S   UNL A   1      46.961  26.262  36.455  1.00  0.00     0.127 S 
ATOM     99  O   UNL A   1      45.876  26.604  37.374  1.00  0.00    -0.237 OA
ATOM    100  O   UNL A   1      46.771  25.006  35.729  1.00  0.00    -0.237 OA
ATOM    101  O   UNL A   1      48.309  26.460  36.971  1.00  0.00    -0.744 OA
ENDBRANCH  95  98
ENDBRANCH  68  91
ENDBRANCH  42  43
ENDBRANCH  34  37
ENDBRANCH  32  33
ENDBRANCH   1  32
TORSDOF 19
ENDMDL
MODEL 3
REMARK VINA RESULT:     -11.8      4.980     10.275
REMARK SMILES CCc1ccc(C[NH+]2CCC(Oc3ccccc3OC)(C(=O)NCCCNC(=O)c3ccc(-c4c5nc(c(-c6cccc(S(=O)(=O)[O-])c6F)c6ccc([nH]6)c(-c6cccc(S(=O)(=O)[O-])c6F)c6nc(c(-c7cccc(S(=O)(=O)[O-])c7F)c7ccc4[nH]7)C=C6)C=C5)cc3)CC2)nc1
REMARK SMILES IDX 25 1 24 2 23 3 21 4 22 5 11 7 8 8 9 9 94 10 10 12 93 13 7 14
REMARK SMILES IDX 6 15 3 16 4 17 96 18 5 19 95 20 2 21 1 22 12 23 13 24 14 25
REMARK SMILES IDX 18 26 15 27 17 28 16 29 19 30 20 31 26 32 27 33 28 34 29 36
REMARK SMILES IDX 30 37 31 38 92 39 32 40 91 41 33 42 34 43 35 44 85 45 36 46
REMARK SMILES IDX 90 47 84 48 86 49 37 50 89 51 83 52 82 53 38 55 70 56 50 57
REMARK SMILES IDX 69 58 51 59 54 60 68 61 87 62 52 63 53 64 67 66 88 67 55 68
REMARK SMILES IDX 39 69 40 70 48 71 41 72 43 73 49 74 42 75 44 76 45 77 46 78
REMARK SMILES IDX 47 79 71 80 72 81 80 82 73 83 75 84 81 85 74 86 76 87 77 88
REMARK SMILES IDX 78 89 79 90 56 91 57 92 65 93 58 94 60 95 66 96 59 97 61 98
REMARK SMILES IDX 62 99 63 100 64 101
REMARK H PARENT 23 6 8 11 27 35 86 54 54 65
REMARK Flexibility Score: inf
ROOT
ATOM      1  C   UNL A   1      31.921  28.836  26.916  1.00  0.00     0.042 C 
ENDROOT
BRANCH   1   2
ATOM      2  C   UNL A   1      32.520  27.484  27.272  1.00  0.00     0.118 C 
BRANCH   2   3
ATOM      3  N   UNL A   1      31.574  26.384  27.153  1.00  0.00    -0.353 N 
ATOM      4  C   UNL A   1      31.686  25.153  26.561  1.00  0.00     0.264 C 
ATOM      5  O   UNL A   1      30.805  24.341  26.865  1.00  0.00    -0.270 OA
ATOM      6  H   UNL A   1      30.699  26.554  27.572  1.00  0.00     0.163 HD
BRANCH   4   7
ATOM      7  C   UNL A   1      32.830  24.802  25.558  1.00  0.00     0.197 C 
ATOM      8  N   UNL A   1      32.059  25.869  22.905  1.00  0.00    -0.330 N 
ATOM      9  C   UNL A   1      32.434  26.774  23.994  1.00  0.00     0.267 C 
ATOM     10  C   UNL A   1      31.368  24.687  23.435  1.00  0.00     0.267 C 
ATOM     11  H   UNL A   1      32.914  25.553  22.448  1.00  0.00     0.348 HD
ATOM     12  C   UNL A   1      33.403  26.081  24.940  1.00  0.00     0.120 C 
ATOM     13  C   UNL A   1      32.271  23.919  24.415  1.00  0.00     0.120 C 
BRANCH   8  14
ATOM     14  C   UNL A   1      31.261  26.561  21.858  1.00  0.00     0.319 C 
BRANCH  14  15
ATOM     15  C   UNL A   1      30.472  27.780  22.315  1.00  0.00     0.095 A 
ATOM     16  C   UNL A   1      28.798  29.951  22.675  1.00  0.00    -0.030 A 
ATOM     17  C   UNL A   1      28.424  28.703  23.171  1.00  0.00     0.007 A 
ATOM     18  C   UNL A   1      30.049  30.035  22.067  1.00  0.00     0.115 A 
ATOM     19  C   UNL A   1      29.267  27.607  22.996  1.00  0.00     0.030 A 
ATOM     20  N   UNL A   1      30.893  28.994  21.891  1.00  0.00    -0.255 NA
BRANCH  16  21
ATOM     21  C   UNL A   1      27.904  31.163  22.673  1.00  0.00     0.034 C 
ATOM     22  C   UNL A   1      27.987  32.067  21.450  1.00  0.00     0.009 C 
ENDBRANCH  16  21
ENDBRANCH  14  15
ENDBRANCH   8  14
BRANCH   7  23
ATOM     23  O   UNL A   1      33.799  24.165  26.428  1.00  0.00    -0.473 OA
BRANCH  23  24
ATOM     24  C   UNL A   1      34.807  23.401  25.929  1.00  0.00     0.162 A 
ATOM     25  C   UNL A   1      35.748  24.015  25.097  1.00  0.00     0.050 A 
ATOM     26  C   UNL A   1      34.766  22.001  25.991  1.00  0.00     0.160 A 
ATOM     27  C   UNL A   1      36.710  23.259  24.428  1.00  0.00     0.004 A 
ATOM     28  C   UNL A   1      35.747  21.244  25.341  1.00  0.00     0.050 A 
ATOM     29  C   UNL A   1      36.728  21.874  24.574  1.00  0.00     0.004 A 
BRANCH  26  30
ATOM     30  O   UNL A   1      33.665  21.310  26.429  1.00  0.00    -0.493 OA
ATOM     31  C   UNL A   1      33.225  20.295  25.537  1.00  0.00     0.278 C 
ENDBRANCH  26  30
ENDBRANCH  23  24
ENDBRANCH   7  23
ENDBRANCH   4   7
ENDBRANCH   2   3
ENDBRANCH   1   2
BRANCH   1  32
ATOM     32  C   UNL A   1      32.853  29.740  26.125  1.00  0.00     0.118 C 
BRANCH  32  33
ATOM     33  N   UNL A   1      32.688  31.145  26.465  1.00  0.00    -0.352 N 
ATOM     34  C   UNL A   1      33.385  31.931  27.349  1.00  0.00     0.251 C 
ATOM     35  H   UNL A   1      31.961  31.605  25.985  1.00  0.00     0.163 HD
ATOM     36  O   UNL A   1      32.947  33.046  27.629  1.00  0.00    -0.269 OA
BRANCH  34  37
ATOM     37  C   UNL A   1      34.643  31.456  27.970  1.00  0.00     0.039 A 
ATOM     38  C   UNL A   1      34.681  30.168  28.515  1.00  0.00     0.014 A 
ATOM     39  C   UNL A   1      35.764  32.284  28.078  1.00  0.00     0.014 A 
ATOM     40  C   UNL A   1      35.847  29.702  29.130  1.00  0.00     0.010 A 
ATOM     41  C   UNL A   1      36.951  31.790  28.612  1.00  0.00     0.010 A 
ATOM     42  C   UNL A   1      36.999  30.504  29.168  1.00  0.00    -0.014 A 
BRANCH  42  43
ATOM     43  C   UNL A   1      38.248  30.041  29.827  1.00  0.00     0.031 A 
ATOM     44  C   UNL A   1      38.605  30.551  31.200  1.00  0.00     0.074 A 
ATOM     45  C   UNL A   1      39.096  29.227  29.168  1.00  0.00     0.049 A 
ATOM     46  N   UNL A   1      39.686  30.341  31.904  1.00  0.00    -0.248 NA
ATOM     47  C   UNL A   1      37.630  31.442  31.855  1.00  0.00     0.031 C 
ATOM     48  C   UNL A   1      38.901  28.719  27.808  1.00  0.00     0.029 A 
ATOM     49  N   UNL A   1      40.310  28.706  29.543  1.00  0.00    -0.354 N 
ATOM     50  C   UNL A   1      39.540  31.098  33.061  1.00  0.00     0.074 A 
ATOM     51  C   UNL A   1      38.283  31.803  32.951  1.00  0.00     0.031 C 
ATOM     52  C   UNL A   1      39.957  27.963  27.464  1.00  0.00     0.029 A 
ATOM     53  C   UNL A   1      40.915  27.953  28.565  1.00  0.00     0.049 A 
ATOM     54  H   UNL A   1      40.709  28.859  30.431  1.00  0.00     0.167 HD
ATOM     55  C   UNL A   1      40.359  31.173  34.137  1.00  0.00     0.034 A 
ATOM     56  C   UNL A   1      42.109  27.327  28.556  1.00  0.00     0.034 A 
ATOM     57  C   UNL A   1      41.578  30.424  34.274  1.00  0.00     0.049 A 
ATOM     58  C   UNL A   1      42.970  27.378  29.790  1.00  0.00     0.074 A 
ATOM     59  C   UNL A   1      42.445  30.379  35.351  1.00  0.00     0.029 A 
ATOM     60  N   UNL A   1      42.096  29.576  33.308  1.00  0.00    -0.354 N 
ATOM     61  N   UNL A   1      42.747  27.991  30.928  1.00  0.00    -0.248 NA
ATOM     62  C   UNL A   1      44.226  26.615  29.758  1.00  0.00     0.031 C 
ATOM     63  C   UNL A   1      43.490  29.505  35.035  1.00  0.00     0.029 A 
ATOM     64  C   UNL A   1      43.265  28.995  33.767  1.00  0.00     0.049 A 
ATOM     65  H   UNL A   1      41.692  29.412  32.425  1.00  0.00     0.167 HD
ATOM     66  C   UNL A   1      43.809  27.652  31.758  1.00  0.00     0.074 A 
ATOM     67  C   UNL A   1      44.666  26.765  31.000  1.00  0.00     0.031 C 
ATOM     68  C   UNL A   1      44.064  28.054  33.028  1.00  0.00     0.034 A 
BRANCH  55  69
ATOM     69  C   UNL A   1      39.929  32.044  35.289  1.00  0.00     0.023 A 
ATOM     70  C   UNL A   1      40.350  33.389  35.331  1.00  0.00     0.012 A 
ATOM     71  C   UNL A   1      39.059  31.561  36.284  1.00  0.00     0.148 A 
ATOM     72  C   UNL A   1      39.934  34.232  36.359  1.00  0.00     0.002 A 
ATOM     73  C   UNL A   1      38.613  32.420  37.284  1.00  0.00     0.091 A 
ATOM     74  F   UNL A   1      38.685  30.274  36.238  1.00  0.00    -0.205 F 
ATOM     75  C   UNL A   1      39.058  33.752  37.328  1.00  0.00     0.022 A 
BRANCH  73  76
ATOM     76  S   UNL A   1      37.425  31.923  38.536  1.00  0.00     0.127 S 
ATOM     77  O   UNL A   1      36.377  32.927  38.363  1.00  0.00    -0.237 OA
ATOM     78  O   UNL A   1      37.060  30.577  38.095  1.00  0.00    -0.237 OA
ATOM     79  O   UNL A   1      38.134  31.977  39.808  1.00  0.00    -0.744 OA
ENDBRANCH  73  76
ENDBRANCH  55  69
BRANCH  56  80
ATOM     80  C   UNL A   1      42.532  26.536  27.365  1.00  0.00     0.023 A 
ATOM     81  C   UNL A   1      43.253  27.171  26.335  1.00  0.00     0.012 A 
ATOM     82  C   UNL A   1      42.233  25.166  27.247  1.00  0.00     0.148 A 
ATOM     83  C   UNL A   1      43.633  26.467  25.192  1.00  0.00     0.002 A 
ATOM     84  C   UNL A   1      42.662  24.457  26.130  1.00  0.00     0.091 A 
ATOM     85  F   UNL A   1      41.532  24.579  28.228  1.00  0.00    -0.205 F 
ATOM     86  C   UNL A   1      43.345  25.109  25.093  1.00  0.00     0.022 A 
BRANCH  84  87
ATOM     87  S   UNL A   1      42.446  22.678  25.993  1.00  0.00     0.127 S 
ATOM     88  O   UNL A   1      42.992  22.410  24.667  1.00  0.00    -0.237 OA
ATOM     89  O   UNL A   1      43.259  22.182  27.105  1.00  0.00    -0.237 OA
ATOM     90  O   UNL A   1      41.017  22.452  26.156  1.00  0.00    -0.744 OA
ENDBRANCH  84  87
ENDBRANCH  56  80
BRANCH  68  91
ATOM     91  C   UNL A   1      45.288  27.501  33.705  1.00  0.00     0.023 A 
ATOM     92  C   UNL A   1      45.198  26.313  34.456  1.00  0.00     0.012 A 
ATOM     93  C   UNL A   1      46.543  28.117  33.531  1.00  0.00     0.148 A 
ATOM     94  C   UNL A   1      46.334  25.763  35.049  1.00  0.00     0.002 A 
ATOM     95  C   UNL A   1      47.678  27.539  34.086  1.00  0.00     0.091 A 
ATOM     96  F   UNL A   1      46.605  29.259  32.829  1.00  0.00    -0.205 F 
ATOM     97  C   UNL A   1      47.573  26.368  34.856  1.00  0.00     0.022 A 
BRANCH  95  98
ATOM     98  S   UNL A   1      49.325  28.199  33.806  1.00  0.00     0.127 S 
ATOM     99  O   UNL A   1      49.420  28.155  32.348  1.00  0.00    -0.237 OA
ATOM    100  O   UNL A   1      49.223  29.546  34.370  1.00  0.00    -0.237 OA
ATOM    101  O   UNL A   1      50.234  27.315  34.523  1.00  0.00    -0.744 OA
ENDBRANCH  95  98
ENDBRANCH  68  91
ENDBRANCH  42  43
ENDBRANCH  34  37
ENDBRANCH  32  33
ENDBRANCH   1  32
TORSDOF 19
ENDMDL
