MODEL 1
REMARK VINA RESULT:     -12.4      0.000      0.000
REMARK SMILES O=C(NCCCNC(=O)c1ccc(NC(=O)c2ccc([N+](=O)[O-])cc2Cl)cc1Cl)c1ccc(-c2c3nc(c(-c4cccc(S(=O)(=O)[O-])c4F)c4ccc([nH]4)c(-c4cccc(S(=O)(=O)[O-])c4F)c4nc(c(-c5cccc(S(=O)(=O)[O-])c5F)c5ccc2[nH]5)C=C4)C=C3)cc1
REMARK SMILES IDX 5 1 4 2 3 3 1 4 2 5 30 7 31 8 92 9 32 10 91 11 33 12 34 13
REMARK SMILES IDX 35 14 85 15 36 16 90 17 84 18 86 19 37 20 89 21 83 22 82 23
REMARK SMILES IDX 38 25 70 26 50 27 69 28 51 29 54 30 68 31 87 32 52 33 53 34
REMARK SMILES IDX 67 36 88 37 55 38 39 39 40 40 48 41 41 42 43 43 49 44 42 45
REMARK SMILES IDX 44 46 45 47 46 48 47 49 71 50 72 51 80 52 73 53 75 54 81 55
REMARK SMILES IDX 74 56 76 57 77 58 78 59 79 60 56 61 57 62 65 63 58 64 60 65
REMARK SMILES IDX 66 66 59 67 61 68 62 69 63 70 64 71 6 72 7 73 8 74 9 76
REMARK SMILES IDX 10 77 11 78 28 79 12 80 27 81 29 82 13 83 14 84 15 85 16 87
REMARK SMILES IDX 17 88 18 89 25 90 19 91 24 92 26 93 20 94 21 95 22 96 23 97
REMARK H PARENT 3 6 86 24 54 35 7 75 14 86
REMARK Flexibility Score: inf
ROOT
ATOM      1  C   UNL A   1      33.471  28.606  24.623  1.00  0.00     0.042 C 
ENDROOT
BRANCH   1   2
ATOM      2  C   UNL A   1      34.028  28.769  26.029  1.00  0.00     0.118 C 
BRANCH   2   3
ATOM      3  N   UNL A   1      33.908  30.128  26.537  1.00  0.00    -0.352 N 
ATOM      4  O   UNL A   1      34.257  31.887  27.891  1.00  0.00    -0.269 OA
ATOM      5  C   UNL A   1      34.648  30.794  27.482  1.00  0.00     0.251 C 
ATOM      6  H   UNL A   1      33.179  30.655  26.137  1.00  0.00     0.163 HD
BRANCH   5   7
ATOM      7  C   UNL A   1      35.885  30.196  28.027  1.00  0.00     0.039 A 
ATOM      8  C   UNL A   1      35.901  29.596  29.288  1.00  0.00     0.014 A 
ATOM      9  C   UNL A   1      37.046  30.218  27.251  1.00  0.00     0.014 A 
ATOM     10  C   UNL A   1      37.103  29.166  29.840  1.00  0.00     0.010 A 
ATOM     11  C   UNL A   1      38.234  29.697  27.767  1.00  0.00     0.010 A 
ATOM     12  C   UNL A   1      38.280  29.200  29.080  1.00  0.00    -0.014 A 
BRANCH  12  13
ATOM     13  C   UNL A   1      39.544  28.656  29.636  1.00  0.00     0.031 A 
ATOM     14  C   UNL A   1      40.268  29.371  30.740  1.00  0.00     0.074 A 
ATOM     15  C   UNL A   1      40.067  27.541  29.093  1.00  0.00     0.049 A 
ATOM     16  N   UNL A   1      41.431  29.100  31.275  1.00  0.00    -0.248 NA
ATOM     17  C   UNL A   1      39.607  30.555  31.313  1.00  0.00     0.031 C 
ATOM     18  C   UNL A   1      39.468  26.777  27.998  1.00  0.00     0.029 A 
ATOM     19  N   UNL A   1      41.237  26.875  29.363  1.00  0.00    -0.354 N 
ATOM     20  C   UNL A   1      41.667  30.104  32.205  1.00  0.00     0.074 A 
ATOM     21  C   UNL A   1      40.525  30.993  32.162  1.00  0.00     0.031 C 
ATOM     22  C   UNL A   1      40.276  25.759  27.676  1.00  0.00     0.029 A 
ATOM     23  C   UNL A   1      41.479  25.835  28.497  1.00  0.00     0.049 A 
ATOM     24  H   UNL A   1      41.841  27.118  30.101  1.00  0.00     0.167 HD
ATOM     25  C   UNL A   1      42.736  30.267  33.022  1.00  0.00     0.034 A 
ATOM     26  C   UNL A   1      42.567  25.057  28.341  1.00  0.00     0.034 A 
ATOM     27  C   UNL A   1      43.859  29.366  33.063  1.00  0.00     0.049 A 
ATOM     28  C   UNL A   1      43.743  25.256  29.250  1.00  0.00     0.074 A 
ATOM     29  C   UNL A   1      44.957  29.400  33.904  1.00  0.00     0.029 A 
ATOM     30  N   UNL A   1      44.039  28.285  32.213  1.00  0.00    -0.354 N 
ATOM     31  N   UNL A   1      43.900  26.140  30.206  1.00  0.00    -0.248 NA
ATOM     32  C   UNL A   1      44.878  24.338  29.085  1.00  0.00     0.031 C 
ATOM     33  C   UNL A   1      45.823  28.366  33.531  1.00  0.00     0.029 A 
ATOM     34  C   UNL A   1      45.239  27.656  32.494  1.00  0.00     0.049 A 
ATOM     35  H   UNL A   1      43.406  28.006  31.513  1.00  0.00     0.167 HD
ATOM     36  C   UNL A   1      45.132  25.862  30.782  1.00  0.00     0.074 A 
ATOM     37  C   UNL A   1      45.680  24.725  30.069  1.00  0.00     0.031 C 
ATOM     38  C   UNL A   1      45.751  26.493  31.810  1.00  0.00     0.034 A 
BRANCH  25  39
ATOM     39  C   UNL A   1      42.743  31.466  33.935  1.00  0.00     0.023 A 
ATOM     40  C   UNL A   1      43.282  32.691  33.491  1.00  0.00     0.012 A 
ATOM     41  C   UNL A   1      42.184  31.389  35.227  1.00  0.00     0.148 A 
ATOM     42  C   UNL A   1      43.313  33.802  34.333  1.00  0.00     0.002 A 
ATOM     43  C   UNL A   1      42.175  32.514  36.044  1.00  0.00     0.091 A 
ATOM     44  F   UNL A   1      41.691  30.213  35.644  1.00  0.00    -0.205 F 
ATOM     45  C   UNL A   1      42.753  33.716  35.606  1.00  0.00     0.022 A 
BRANCH  43  46
ATOM     46  S   UNL A   1      41.401  32.522  37.665  1.00  0.00     0.127 S 
ATOM     47  O   UNL A   1      41.518  33.930  38.040  1.00  0.00    -0.237 OA
ATOM     48  O   UNL A   1      40.039  32.085  37.360  1.00  0.00    -0.237 OA
ATOM     49  O   UNL A   1      42.168  31.588  38.477  1.00  0.00    -0.744 OA
ENDBRANCH  43  46
ENDBRANCH  25  39
BRANCH  26  50
ATOM     50  C   UNL A   1      42.562  24.012  27.281  1.00  0.00     0.023 A 
ATOM     51  C   UNL A   1      43.164  24.278  26.037  1.00  0.00     0.012 A 
ATOM     52  C   UNL A   1      42.046  22.726  27.540  1.00  0.00     0.148 A 
ATOM     53  C   UNL A   1      43.240  23.283  25.062  1.00  0.00     0.002 A 
ATOM     54  C   UNL A   1      42.176  21.725  26.586  1.00  0.00     0.091 A 
ATOM     55  F   UNL A   1      41.478  22.500  28.732  1.00  0.00    -0.205 F 
ATOM     56  C   UNL A   1      42.759  22.005  25.340  1.00  0.00     0.022 A 
BRANCH  54  57
ATOM     57  S   UNL A   1      41.717  20.018  26.906  1.00  0.00     0.127 S 
ATOM     58  O   UNL A   1      40.451  20.179  27.616  1.00  0.00    -0.237 OA
ATOM     59  O   UNL A   1      41.599  19.484  25.548  1.00  0.00    -0.237 OA
ATOM     60  O   UNL A   1      42.808  19.453  27.687  1.00  0.00    -0.744 OA
ENDBRANCH  54  57
ENDBRANCH  26  50
BRANCH  38  61
ATOM     61  C   UNL A   1      47.070  25.944  32.285  1.00  0.00     0.023 A 
ATOM     62  C   UNL A   1      48.278  26.447  31.767  1.00  0.00     0.012 A 
ATOM     63  C   UNL A   1      47.102  25.007  33.337  1.00  0.00     0.148 A 
ATOM     64  C   UNL A   1      49.500  26.014  32.280  1.00  0.00     0.002 A 
ATOM     65  C   UNL A   1      48.320  24.620  33.879  1.00  0.00     0.091 A 
ATOM     66  F   UNL A   1      45.939  24.528  33.800  1.00  0.00    -0.205 F 
ATOM     67  C   UNL A   1      49.521  25.115  33.345  1.00  0.00     0.022 A 
BRANCH  65  68
ATOM     68  S   UNL A   1      48.441  23.551  35.317  1.00  0.00     0.127 S 
ATOM     69  O   UNL A   1      47.857  22.309  34.814  1.00  0.00    -0.237 OA
ATOM     70  O   UNL A   1      49.886  23.500  35.541  1.00  0.00    -0.237 OA
ATOM     71  O   UNL A   1      47.684  24.208  36.375  1.00  0.00    -0.744 OA
ENDBRANCH  65  68
ENDBRANCH  38  61
ENDBRANCH  12  13
ENDBRANCH   5   7
ENDBRANCH   2   3
ENDBRANCH   1   2
BRANCH   1  72
ATOM     72  C   UNL A   1      33.550  27.192  24.065  1.00  0.00     0.118 C 
BRANCH  72  73
ATOM     73  N   UNL A   1      33.539  27.134  22.611  1.00  0.00    -0.352 N 
ATOM     74  C   UNL A   1      33.100  26.147  21.768  1.00  0.00     0.252 C 
ATOM     75  H   UNL A   1      33.905  27.930  22.162  1.00  0.00     0.163 HD
ATOM     76  O   UNL A   1      33.199  26.294  20.552  1.00  0.00    -0.269 OA
BRANCH  74  77
ATOM     77  C   UNL A   1      32.620  24.853  22.291  1.00  0.00     0.058 A 
ATOM     78  C   UNL A   1      33.343  23.730  21.890  1.00  0.00     0.017 A 
ATOM     79  C   UNL A   1      31.501  24.678  23.104  1.00  0.00     0.055 A 
ATOM     80  C   UNL A   1      33.023  22.468  22.392  1.00  0.00     0.027 A 
ATOM     81  C   UNL A   1      31.248  23.422  23.678  1.00  0.00     0.047 A 
ATOM     82  Cl  UNL A   1      30.346  25.929  23.394  1.00  0.00    -0.083 Cl
ATOM     83  C   UNL A   1      32.048  22.314  23.374  1.00  0.00     0.043 A 
BRANCH  83  84
ATOM     84  N   UNL A   1      31.801  21.126  24.095  1.00  0.00    -0.322 N 
ATOM     85  C   UNL A   1      32.543  20.402  25.005  1.00  0.00     0.257 C 
ATOM     86  H   UNL A   1      30.917  20.733  23.909  1.00  0.00     0.170 HD
ATOM     87  O   UNL A   1      32.116  19.337  25.448  1.00  0.00    -0.269 OA
BRANCH  85  88
ATOM     88  C   UNL A   1      33.879  20.837  25.432  1.00  0.00     0.059 A 
ATOM     89  C   UNL A   1      34.965  20.150  24.868  1.00  0.00     0.022 A 
ATOM     90  C   UNL A   1      34.087  21.943  26.267  1.00  0.00     0.060 A 
ATOM     91  C   UNL A   1      36.258  20.644  25.039  1.00  0.00     0.086 A 
ATOM     92  C   UNL A   1      35.380  22.451  26.427  1.00  0.00     0.107 A 
ATOM     93  Cl  UNL A   1      32.786  22.768  27.045  1.00  0.00    -0.083 Cl
ATOM     94  C   UNL A   1      36.454  21.817  25.782  1.00  0.00     0.270 A 
BRANCH  94  95
ATOM     95  N   UNL A   1      37.789  22.424  25.828  1.00  0.00     0.062 N 
ATOM     96  O   UNL A   1      38.746  21.734  25.448  1.00  0.00    -0.258 OA
ATOM     97  O   UNL A   1      37.871  23.598  26.211  1.00  0.00    -0.258 OA
ENDBRANCH  94  95
ENDBRANCH  85  88
ENDBRANCH  83  84
ENDBRANCH  74  77
ENDBRANCH  72  73
ENDBRANCH   1  72
TORSDOF 16
ENDMDL
MODEL 2
REMARK VINA RESULT:     -12.4      3.356      8.525
REMARK SMILES O=C(NCCCNC(=O)c1ccc(NC(=O)c2ccc([N+](=O)[O-])cc2Cl)cc1Cl)c1ccc(-c2c3nc(c(-c4cccc(S(=O)(=O)[O-])c4F)c4ccc([nH]4)c(-c4cccc(S(=O)(=O)[O-])c4F)c4nc(c(-c5cccc(S(=O)(=O)[O-])c5F)c5ccc2[nH]5)C=C4)C=C3)cc1
REMARK SMILES IDX 5 1 4 2 3 3 1 4 2 5 30 7 31 8 92 9 32 10 91 11 33 12 34 13
REMARK SMILES IDX 35 14 85 15 36 16 90 17 84 18 86 19 37 20 89 21 83 22 82 23
REMARK SMILES IDX 38 25 70 26 50 27 69 28 51 29 54 30 68 31 87 32 52 33 53 34
REMARK SMILES IDX 67 36 88 37 55 38 39 39 40 40 48 41 41 42 43 43 49 44 42 45
REMARK SMILES IDX 44 46 45 47 46 48 47 49 71 50 72 51 80 52 73 53 75 54 81 55
REMARK SMILES IDX 74 56 76 57 77 58 78 59 79 60 56 61 57 62 65 63 58 64 60 65
REMARK SMILES IDX 66 66 59 67 61 68 62 69 63 70 64 71 6 72 7 73 8 74 9 76
REMARK SMILES IDX 10 77 11 78 28 79 12 80 27 81 29 82 13 83 14 84 15 85 16 87
REMARK SMILES IDX 17 88 18 89 25 90 19 91 24 92 26 93 20 94 21 95 22 96 23 97
REMARK H PARENT 3 6 86 24 54 35 7 75 14 86
REMARK Flexibility Score: inf
ROOT
ATOM      1  C   UNL A   1      31.398  32.162  26.490  1.00  0.00     0.042 C 
ENDROOT
BRANCH   1   2
ATOM      2  C   UNL A   1      32.657  32.644  27.198  1.00  0.00     0.118 C 
BRANCH   2   3
ATOM      3  N   UNL A   1      32.535  33.996  27.723  1.00  0.00    -0.352 N 
ATOM      4  O   UNL A   1      32.839  35.723  29.129  1.00  0.00    -0.269 OA
ATOM      5  C   UNL A   1      33.231  34.628  28.724  1.00  0.00     0.251 C 
ATOM      6  H   UNL A   1      31.843  34.547  27.289  1.00  0.00     0.163 HD
BRANCH   5   7
ATOM      7  C   UNL A   1      34.419  33.992  29.331  1.00  0.00     0.039 A 
ATOM      8  C   UNL A   1      34.287  33.000  30.305  1.00  0.00     0.014 A 
ATOM      9  C   UNL A   1      35.690  34.383  28.901  1.00  0.00     0.014 A 
ATOM     10  C   UNL A   1      35.413  32.517  30.963  1.00  0.00     0.010 A 
ATOM     11  C   UNL A   1      36.823  33.825  29.495  1.00  0.00     0.010 A 
ATOM     12  C   UNL A   1      36.693  32.914  30.557  1.00  0.00    -0.014 A 
BRANCH  12  13
ATOM     13  C   UNL A   1      37.896  32.328  31.198  1.00  0.00     0.031 A 
ATOM     14  C   UNL A   1      38.627  31.183  30.558  1.00  0.00     0.074 A 
ATOM     15  C   UNL A   1      38.291  32.799  32.396  1.00  0.00     0.049 A 
ATOM     16  N   UNL A   1      39.630  30.483  31.022  1.00  0.00    -0.248 NA
ATOM     17  C   UNL A   1      38.165  30.759  29.226  1.00  0.00     0.031 C 
ATOM     18  C   UNL A   1      37.641  33.888  33.127  1.00  0.00     0.029 A 
ATOM     19  N   UNL A   1      39.308  32.400  33.227  1.00  0.00    -0.354 N 
ATOM     20  C   UNL A   1      39.885  29.504  30.069  1.00  0.00     0.074 A 
ATOM     21  C   UNL A   1      38.930  29.701  28.999  1.00  0.00     0.031 C 
ATOM     22  C   UNL A   1      38.261  34.062  34.301  1.00  0.00     0.029 A 
ATOM     23  C   UNL A   1      39.309  33.056  34.435  1.00  0.00     0.049 A 
ATOM     24  H   UNL A   1      39.969  31.713  32.983  1.00  0.00     0.167 HD
ATOM     25  C   UNL A   1      40.831  28.533  30.085  1.00  0.00     0.034 A 
ATOM     26  C   UNL A   1      40.034  32.846  35.549  1.00  0.00     0.034 A 
ATOM     27  C   UNL A   1      41.783  28.359  31.151  1.00  0.00     0.049 A 
ATOM     28  C   UNL A   1      41.072  31.763  35.549  1.00  0.00     0.074 A 
ATOM     29  C   UNL A   1      42.827  27.454  31.230  1.00  0.00     0.029 A 
ATOM     30  N   UNL A   1      41.793  29.086  32.331  1.00  0.00    -0.354 N 
ATOM     31  N   UNL A   1      41.379  30.920  34.593  1.00  0.00    -0.248 NA
ATOM     32  C   UNL A   1      41.884  31.616  36.765  1.00  0.00     0.031 C 
ATOM     33  C   UNL A   1      43.439  27.605  32.478  1.00  0.00     0.029 A 
ATOM     34  C   UNL A   1      42.812  28.639  33.155  1.00  0.00     0.049 A 
ATOM     35  H   UNL A   1      41.169  29.814  32.551  1.00  0.00     0.167 HD
ATOM     36  C   UNL A   1      42.443  30.170  35.073  1.00  0.00     0.074 A 
ATOM     37  C   UNL A   1      42.731  30.659  36.406  1.00  0.00     0.031 C 
ATOM     38  C   UNL A   1      43.120  29.167  34.461  1.00  0.00     0.034 A 
BRANCH  25  39
ATOM     39  C   UNL A   1      40.878  27.584  28.915  1.00  0.00     0.023 A 
ATOM     40  C   UNL A   1      39.968  26.509  28.839  1.00  0.00     0.012 A 
ATOM     41  C   UNL A   1      41.806  27.775  27.872  1.00  0.00     0.148 A 
ATOM     42  C   UNL A   1      40.015  25.611  27.773  1.00  0.00     0.002 A 
ATOM     43  C   UNL A   1      41.815  26.903  26.788  1.00  0.00     0.091 A 
ATOM     44  F   UNL A   1      42.677  28.790  27.966  1.00  0.00    -0.205 F 
ATOM     45  C   UNL A   1      40.932  25.813  26.744  1.00  0.00     0.022 A 
BRANCH  43  46
ATOM     46  S   UNL A   1      42.902  27.133  25.377  1.00  0.00     0.127 S 
ATOM     47  O   UNL A   1      42.734  25.866  24.666  1.00  0.00    -0.237 OA
ATOM     48  O   UNL A   1      42.304  28.289  24.708  1.00  0.00    -0.237 OA
ATOM     49  O   UNL A   1      44.228  27.374  25.929  1.00  0.00    -0.744 OA
ENDBRANCH  43  46
ENDBRANCH  25  39
BRANCH  26  50
ATOM     50  C   UNL A   1      39.795  33.705  36.740  1.00  0.00     0.023 A 
ATOM     51  C   UNL A   1      40.159  35.063  36.704  1.00  0.00     0.012 A 
ATOM     52  C   UNL A   1      39.122  33.199  37.870  1.00  0.00     0.148 A 
ATOM     53  C   UNL A   1      39.870  35.901  37.781  1.00  0.00     0.002 A 
ATOM     54  C   UNL A   1      38.786  34.051  38.914  1.00  0.00     0.091 A 
ATOM     55  F   UNL A   1      38.787  31.901  37.879  1.00  0.00    -0.205 F 
ATOM     56  C   UNL A   1      39.173  35.400  38.879  1.00  0.00     0.022 A 
BRANCH  54  57
ATOM     57  S   UNL A   1      37.769  33.531  40.299  1.00  0.00     0.127 S 
ATOM     58  O   UNL A   1      36.559  33.069  39.624  1.00  0.00    -0.237 OA
ATOM     59  O   UNL A   1      38.589  32.471  40.887  1.00  0.00    -0.237 OA
ATOM     60  O   UNL A   1      37.608  34.709  41.140  1.00  0.00    -0.744 OA
ENDBRANCH  54  57
ENDBRANCH  26  50
BRANCH  38  61
ATOM     61  C   UNL A   1      44.288  28.556  35.189  1.00  0.00     0.023 A 
ATOM     62  C   UNL A   1      45.589  29.059  34.998  1.00  0.00     0.012 A 
ATOM     63  C   UNL A   1      44.066  27.554  36.155  1.00  0.00     0.148 A 
ATOM     64  C   UNL A   1      46.654  28.564  35.748  1.00  0.00     0.002 A 
ATOM     65  C   UNL A   1      45.122  27.103  36.935  1.00  0.00     0.091 A 
ATOM     66  F   UNL A   1      42.822  27.077  36.305  1.00  0.00    -0.205 F 
ATOM     67  C   UNL A   1      46.419  27.599  36.726  1.00  0.00     0.022 A 
BRANCH  65  68
ATOM     68  S   UNL A   1      44.896  25.943  38.288  1.00  0.00     0.127 S 
ATOM     69  O   UNL A   1      46.267  25.771  38.765  1.00  0.00    -0.237 OA
ATOM     70  O   UNL A   1      44.024  26.692  39.192  1.00  0.00    -0.237 OA
ATOM     71  O   UNL A   1      44.290  24.754  37.705  1.00  0.00    -0.744 OA
ENDBRANCH  65  68
ENDBRANCH  38  61
ENDBRANCH  12  13
ENDBRANCH   5   7
ENDBRANCH   2   3
ENDBRANCH   1   2
BRANCH   1  72
ATOM     72  C   UNL A   1      31.378  30.676  26.164  1.00  0.00     0.118 C 
BRANCH  72  73
ATOM     73  N   UNL A   1      32.217  30.312  25.032  1.00  0.00    -0.352 N 
ATOM     74  C   UNL A   1      32.397  29.101  24.418  1.00  0.00     0.252 C 
ATOM     75  H   UNL A   1      32.736  31.055  24.646  1.00  0.00     0.163 HD
ATOM     76  O   UNL A   1      33.177  29.006  23.473  1.00  0.00    -0.269 OA
BRANCH  74  77
ATOM     77  C   UNL A   1      31.766  27.876  24.946  1.00  0.00     0.058 A 
ATOM     78  C   UNL A   1      30.654  27.413  24.241  1.00  0.00     0.017 A 
ATOM     79  C   UNL A   1      32.169  27.191  26.092  1.00  0.00     0.055 A 
ATOM     80  C   UNL A   1      30.034  26.219  24.608  1.00  0.00     0.027 A 
ATOM     81  C   UNL A   1      31.600  25.944  26.393  1.00  0.00     0.047 A 
ATOM     82  Cl  UNL A   1      33.305  27.838  27.221  1.00  0.00    -0.083 Cl
ATOM     83  C   UNL A   1      30.564  25.415  25.614  1.00  0.00     0.043 A 
BRANCH  83  84
ATOM     84  N   UNL A   1      30.142  24.101  25.912  1.00  0.00    -0.322 N 
ATOM     85  C   UNL A   1      30.754  22.868  25.817  1.00  0.00     0.257 C 
ATOM     86  H   UNL A   1      29.221  24.056  26.258  1.00  0.00     0.170 HD
ATOM     87  O   UNL A   1      30.131  21.842  26.083  1.00  0.00    -0.269 OA
BRANCH  85  88
ATOM     88  C   UNL A   1      32.138  22.728  25.345  1.00  0.00     0.059 A 
ATOM     89  C   UNL A   1      32.330  22.792  23.956  1.00  0.00     0.022 A 
ATOM     90  C   UNL A   1      33.233  22.645  26.215  1.00  0.00     0.060 A 
ATOM     91  C   UNL A   1      33.622  22.898  23.441  1.00  0.00     0.086 A 
ATOM     92  C   UNL A   1      34.529  22.767  25.704  1.00  0.00     0.107 A 
ATOM     93  Cl  UNL A   1      33.043  22.483  27.923  1.00  0.00    -0.083 Cl
ATOM     94  C   UNL A   1      34.712  22.929  24.322  1.00  0.00     0.270 A 
BRANCH  94  95
ATOM     95  N   UNL A   1      36.054  23.200  23.795  1.00  0.00     0.062 N 
ATOM     96  O   UNL A   1      36.189  23.240  22.563  1.00  0.00    -0.258 OA
ATOM     97  O   UNL A   1      36.961  23.404  24.612  1.00  0.00    -0.258 OA
ENDBRANCH  94  95
ENDBRANCH  85  88
ENDBRANCH  83  84
ENDBRANCH  74  77
ENDBRANCH  72  73
ENDBRANCH   1  72
TORSDOF 16
ENDMDL
MODEL 3
REMARK VINA RESULT:     -12.3      3.456      8.768
REMARK SMILES O=C(NCCCNC(=O)c1ccc(NC(=O)c2ccc([N+](=O)[O-])cc2Cl)cc1Cl)c1ccc(-c2c3nc(c(-c4cccc(S(=O)(=O)[O-])c4F)c4ccc([nH]4)c(-c4cccc(S(=O)(=O)[O-])c4F)c4nc(c(-c5cccc(S(=O)(=O)[O-])c5F)c5ccc2[nH]5)C=C4)C=C3)cc1
REMARK SMILES IDX 5 1 4 2 3 3 1 4 2 5 30 7 31 8 92 9 32 10 91 11 33 12 34 13
REMARK SMILES IDX 35 14 85 15 36 16 90 17 84 18 86 19 37 20 89 21 83 22 82 23
REMARK SMILES IDX 38 25 70 26 50 27 69 28 51 29 54 30 68 31 87 32 52 33 53 34
REMARK SMILES IDX 67 36 88 37 55 38 39 39 40 40 48 41 41 42 43 43 49 44 42 45
REMARK SMILES IDX 44 46 45 47 46 48 47 49 71 50 72 51 80 52 73 53 75 54 81 55
REMARK SMILES IDX 74 56 76 57 77 58 78 59 79 60 56 61 57 62 65 63 58 64 60 65
REMARK SMILES IDX 66 66 59 67 61 68 62 69 63 70 64 71 6 72 7 73 8 74 9 76
REMARK SMILES IDX 10 77 11 78 28 79 12 80 27 81 29 82 13 83 14 84 15 85 16 87
REMARK SMILES IDX 17 88 18 89 25 90 19 91 24 92 26 93 20 94 21 95 22 96 23 97
REMARK H PARENT 3 6 86 24 54 35 7 75 14 86
REMARK Flexibility Score: inf
ROOT
ATOM      1  C   UNL A   1      31.683  32.161  26.490  1.00  0.00     0.042 C 
ENDROOT
BRANCH   1   2
ATOM      2  C   UNL A   1      32.829  32.706  27.330  1.00  0.00     0.118 C 
BRANCH   2   3
ATOM      3  N   UNL A   1      32.563  34.033  27.866  1.00  0.00    -0.352 N 
ATOM      4  O   UNL A   1      32.653  35.758  29.304  1.00  0.00    -0.269 OA
ATOM      5  C   UNL A   1      33.159  34.710  28.901  1.00  0.00     0.251 C 
ATOM      6  H   UNL A   1      31.841  34.525  27.412  1.00  0.00     0.163 HD
BRANCH   5   7
ATOM      7  C   UNL A   1      34.376  34.176  29.547  1.00  0.00     0.039 A 
ATOM      8  C   UNL A   1      35.647  34.473  29.048  1.00  0.00     0.014 A 
ATOM      9  C   UNL A   1      34.244  33.379  30.687  1.00  0.00     0.014 A 
ATOM     10  C   UNL A   1      36.768  33.848  29.583  1.00  0.00     0.010 A 
ATOM     11  C   UNL A   1      35.380  32.829  31.283  1.00  0.00     0.010 A 
ATOM     12  C   UNL A   1      36.649  33.030  30.714  1.00  0.00    -0.014 A 
BRANCH  12  13
ATOM     13  C   UNL A   1      37.857  32.437  31.339  1.00  0.00     0.031 A 
ATOM     14  C   UNL A   1      38.577  31.292  30.687  1.00  0.00     0.074 A 
ATOM     15  C   UNL A   1      38.266  32.902  32.535  1.00  0.00     0.049 A 
ATOM     16  N   UNL A   1      39.582  30.586  31.137  1.00  0.00    -0.248 NA
ATOM     17  C   UNL A   1      38.098  30.875  29.359  1.00  0.00     0.031 C 
ATOM     18  C   UNL A   1      37.628  33.991  33.276  1.00  0.00     0.029 A 
ATOM     19  N   UNL A   1      39.291  32.497  33.353  1.00  0.00    -0.354 N 
ATOM     20  C   UNL A   1      39.822  29.610  30.179  1.00  0.00     0.074 A 
ATOM     21  C   UNL A   1      38.856  29.814  29.120  1.00  0.00     0.031 C 
ATOM     22  C   UNL A   1      38.262  34.159  34.444  1.00  0.00     0.029 A 
ATOM     23  C   UNL A   1      39.308  33.149  34.563  1.00  0.00     0.049 A 
ATOM     24  H   UNL A   1      39.947  31.808  33.099  1.00  0.00     0.167 HD
ATOM     25  C   UNL A   1      40.764  28.636  30.181  1.00  0.00     0.034 A 
ATOM     26  C   UNL A   1      40.044  32.931  35.668  1.00  0.00     0.034 A 
ATOM     27  C   UNL A   1      41.728  28.454  31.235  1.00  0.00     0.049 A 
ATOM     28  C   UNL A   1      41.078  31.845  35.653  1.00  0.00     0.074 A 
ATOM     29  C   UNL A   1      42.769  27.545  31.299  1.00  0.00     0.029 A 
ATOM     30  N   UNL A   1      41.754  29.177  32.418  1.00  0.00    -0.354 N 
ATOM     31  N   UNL A   1      41.371  31.004  34.690  1.00  0.00    -0.248 NA
ATOM     32  C   UNL A   1      41.903  31.691  36.859  1.00  0.00     0.031 C 
ATOM     33  C   UNL A   1      43.396  27.689  32.541  1.00  0.00     0.029 A 
ATOM     34  C   UNL A   1      42.780  28.723  33.228  1.00  0.00     0.049 A 
ATOM     35  H   UNL A   1      41.135  29.906  32.647  1.00  0.00     0.167 HD
ATOM     36  C   UNL A   1      42.438  30.248  35.156  1.00  0.00     0.074 A 
ATOM     37  C   UNL A   1      42.742  30.732  36.488  1.00  0.00     0.031 C 
ATOM     38  C   UNL A   1      43.105  29.246  34.533  1.00  0.00     0.034 A 
BRANCH  25  39
ATOM     39  C   UNL A   1      40.795  27.690  29.007  1.00  0.00     0.023 A 
ATOM     40  C   UNL A   1      39.888  26.613  28.942  1.00  0.00     0.012 A 
ATOM     41  C   UNL A   1      41.705  27.888  27.948  1.00  0.00     0.148 A 
ATOM     42  C   UNL A   1      39.920  25.719  27.873  1.00  0.00     0.002 A 
ATOM     43  C   UNL A   1      41.698  27.020  26.862  1.00  0.00     0.091 A 
ATOM     44  F   UNL A   1      42.574  28.906  28.031  1.00  0.00    -0.205 F 
ATOM     45  C   UNL A   1      40.819  25.927  26.829  1.00  0.00     0.022 A 
BRANCH  43  46
ATOM     46  S   UNL A   1      42.761  27.258  25.433  1.00  0.00     0.127 S 
ATOM     47  O   UNL A   1      44.067  27.440  26.065  1.00  0.00    -0.237 OA
ATOM     48  O   UNL A   1      42.604  25.992  24.716  1.00  0.00    -0.237 OA
ATOM     49  O   UNL A   1      42.233  28.419  24.731  1.00  0.00    -0.744 OA
ENDBRANCH  43  46
ENDBRANCH  25  39
BRANCH  26  50
ATOM     50  C   UNL A   1      39.822  33.787  36.865  1.00  0.00     0.023 A 
ATOM     51  C   UNL A   1      40.190  35.145  36.829  1.00  0.00     0.012 A 
ATOM     52  C   UNL A   1      39.161  33.279  38.001  1.00  0.00     0.148 A 
ATOM     53  C   UNL A   1      39.915  35.980  37.912  1.00  0.00     0.002 A 
ATOM     54  C   UNL A   1      38.839  34.129  39.051  1.00  0.00     0.091 A 
ATOM     55  F   UNL A   1      38.822  31.982  38.010  1.00  0.00    -0.205 F 
ATOM     56  C   UNL A   1      39.230  35.476  39.016  1.00  0.00     0.022 A 
BRANCH  54  57
ATOM     57  S   UNL A   1      37.837  33.606  40.447  1.00  0.00     0.127 S 
ATOM     58  O   UNL A   1      38.713  32.634  41.096  1.00  0.00    -0.237 OA
ATOM     59  O   UNL A   1      37.665  34.864  41.176  1.00  0.00    -0.237 OA
ATOM     60  O   UNL A   1      36.611  33.065  39.876  1.00  0.00    -0.744 OA
ENDBRANCH  54  57
ENDBRANCH  26  50
BRANCH  38  61
ATOM     61  C   UNL A   1      44.278  28.627  35.246  1.00  0.00     0.023 A 
ATOM     62  C   UNL A   1      45.580  29.121  35.036  1.00  0.00     0.012 A 
ATOM     63  C   UNL A   1      44.063  27.629  36.217  1.00  0.00     0.148 A 
ATOM     64  C   UNL A   1      46.652  28.620  35.772  1.00  0.00     0.002 A 
ATOM     65  C   UNL A   1      45.127  27.172  36.983  1.00  0.00     0.091 A 
ATOM     66  F   UNL A   1      42.818  27.160  36.384  1.00  0.00    -0.205 F 
ATOM     67  C   UNL A   1      46.424  27.658  36.755  1.00  0.00     0.022 A 
BRANCH  65  68
ATOM     68  S   UNL A   1      44.911  26.015  38.341  1.00  0.00     0.127 S 
ATOM     69  O   UNL A   1      44.457  24.815  37.640  1.00  0.00    -0.237 OA
ATOM     70  O   UNL A   1      46.265  25.928  38.887  1.00  0.00    -0.237 OA
ATOM     71  O   UNL A   1      43.932  26.618  39.235  1.00  0.00    -0.744 OA
ENDBRANCH  65  68
ENDBRANCH  38  61
ENDBRANCH  12  13
ENDBRANCH   5   7
ENDBRANCH   2   3
ENDBRANCH   1   2
BRANCH   1  72
ATOM     72  C   UNL A   1      31.800  30.688  26.129  1.00  0.00     0.118 C 
BRANCH  72  73
ATOM     73  N   UNL A   1      31.507  29.788  27.235  1.00  0.00    -0.352 N 
ATOM     74  C   UNL A   1      31.630  28.426  27.324  1.00  0.00     0.252 C 
ATOM     75  H   UNL A   1      31.169  30.228  28.048  1.00  0.00     0.163 HD
ATOM     76  O   UNL A   1      31.306  27.850  28.361  1.00  0.00    -0.269 OA
BRANCH  74  77
ATOM     77  C   UNL A   1      32.027  27.617  26.155  1.00  0.00     0.058 A 
ATOM     78  C   UNL A   1      31.015  26.851  25.575  1.00  0.00     0.017 A 
ATOM     79  C   UNL A   1      33.316  27.537  25.632  1.00  0.00     0.055 A 
ATOM     80  C   UNL A   1      31.265  26.114  24.417  1.00  0.00     0.027 A 
ATOM     81  C   UNL A   1      33.533  26.871  24.415  1.00  0.00     0.047 A 
ATOM     82  Cl  UNL A   1      34.703  28.165  26.448  1.00  0.00    -0.083 Cl
ATOM     83  C   UNL A   1      32.491  26.202  23.761  1.00  0.00     0.043 A 
BRANCH  83  84
ATOM     84  N   UNL A   1      32.769  25.673  22.483  1.00  0.00    -0.322 N 
ATOM     85  C   UNL A   1      33.067  24.404  22.031  1.00  0.00     0.257 C 
ATOM     86  H   UNL A   1      32.747  26.349  21.767  1.00  0.00     0.170 HD
ATOM     87  O   UNL A   1      33.343  24.214  20.848  1.00  0.00    -0.269 OA
BRANCH  85  88
ATOM     88  C   UNL A   1      33.125  23.254  22.942  1.00  0.00     0.059 A 
ATOM     89  C   UNL A   1      31.963  22.472  23.030  1.00  0.00     0.022 A 
ATOM     90  C   UNL A   1      34.296  22.874  23.612  1.00  0.00     0.060 A 
ATOM     91  C   UNL A   1      32.005  21.243  23.688  1.00  0.00     0.086 A 
ATOM     92  C   UNL A   1      34.347  21.634  24.259  1.00  0.00     0.107 A 
ATOM     93  Cl  UNL A   1      35.723  23.844  23.597  1.00  0.00    -0.083 Cl
ATOM     94  C   UNL A   1      33.210  20.811  24.262  1.00  0.00     0.270 A 
BRANCH  94  95
ATOM     95  N   UNL A   1      33.298  19.454  24.811  1.00  0.00     0.062 N 
ATOM     96  O   UNL A   1      34.380  18.859  24.700  1.00  0.00    -0.258 OA
ATOM     97  O   UNL A   1      32.297  19.000  25.380  1.00  0.00    -0.258 OA
ENDBRANCH  94  95
ENDBRANCH  85  88
ENDBRANCH  83  84
ENDBRANCH  74  77
ENDBRANCH  72  73
ENDBRANCH   1  72
TORSDOF 16
ENDMDL
