MODEL 1
REMARK VINA RESULT:     -12.2      0.000      0.000
REMARK SMILES COc1ccc(C[N@@H+]2C[C@@H](C(=O)NCCCNC(=O)c3ccc(-c4c5nc(c(-c6cccc(S(=O)(=O)[O-])c6F)c6ccc([nH]6)c(-c6cccc(S(=O)(=O)[O-])c6F)c6nc(c(-c7cccc(S(=O)(=O)[O-])c7F)c7ccc4[nH]7)C=C6)C=C5)cc3)[C@H](c3ccccc3OC)C2)c(OC)c1
REMARK SMILES IDX 15 1 14 2 13 3 11 4 12 5 10 7 8 8 9 9 92 10 83 12 7 13 6 14
REMARK SMILES IDX 3 15 4 16 96 17 5 18 93 19 2 20 1 21 94 22 95 23 84 24 85 25
REMARK SMILES IDX 89 26 86 27 88 28 87 29 90 30 91 31 16 32 17 33 18 34 19 36
REMARK SMILES IDX 20 37 21 38 82 39 22 40 81 41 23 42 24 43 25 44 75 45 26 46
REMARK SMILES IDX 80 47 74 48 76 49 27 50 79 51 73 52 72 53 28 55 60 56 40 57
REMARK SMILES IDX 59 58 41 59 44 60 58 61 77 62 42 63 43 64 57 66 78 67 45 68
REMARK SMILES IDX 29 69 30 70 38 71 31 72 33 73 39 74 32 75 34 76 35 77 36 78
REMARK SMILES IDX 37 79 61 80 62 81 70 82 63 83 65 84 71 85 64 86 66 87 67 88
REMARK SMILES IDX 68 89 69 90 46 91 47 92 55 93 48 94 50 95 56 96 49 97 51 98
REMARK SMILES IDX 52 99 53 100 54 101
REMARK H PARENT 13 6 8 11 17 35 76 54 44 65
REMARK Flexibility Score: inf
ROOT
ATOM      1  C   UNL A   1      31.496  31.240  26.235  1.00  0.00     0.042 C 
ENDROOT
BRANCH   1   2
ATOM      2  C   UNL A   1      31.576  29.836  25.649  1.00  0.00     0.117 C 
BRANCH   2   3
ATOM      3  N   UNL A   1      32.650  29.708  24.689  1.00  0.00    -0.356 N 
ATOM      4  C   UNL A   1      33.081  28.728  23.861  1.00  0.00     0.229 C 
ATOM      5  O   UNL A   1      33.831  29.164  22.985  1.00  0.00    -0.275 OA
ATOM      6  H   UNL A   1      33.193  30.526  24.620  1.00  0.00     0.163 HD
BRANCH   4   7
ATOM      7  C   UNL A   1      32.585  27.284  23.848  1.00  0.00     0.146 C 
ATOM      8  N   UNL A   1      32.959  24.940  23.602  1.00  0.00    -0.330 N 
ATOM      9  C   UNL A   1      33.658  26.215  23.655  1.00  0.00     0.276 C 
ATOM     10  C   UNL A   1      31.751  25.237  22.824  1.00  0.00     0.272 C 
ATOM     11  H   UNL A   1      33.498  24.203  23.147  1.00  0.00     0.348 HD
ATOM     12  C   UNL A   1      31.502  26.799  22.836  1.00  0.00     0.096 C 
BRANCH   8  13
ATOM     13  C   UNL A   1      32.773  24.283  24.928  1.00  0.00     0.303 C 
BRANCH  13  14
ATOM     14  C   UNL A   1      33.082  22.795  25.058  1.00  0.00     0.048 A 
ATOM     15  C   UNL A   1      33.506  20.038  24.685  1.00  0.00     0.122 A 
ATOM     16  C   UNL A   1      32.238  20.505  25.017  1.00  0.00     0.047 A 
ATOM     17  C   UNL A   1      34.583  20.923  24.650  1.00  0.00     0.093 A 
ATOM     18  C   UNL A   1      32.035  21.868  25.246  1.00  0.00     0.017 A 
ATOM     19  C   UNL A   1      34.380  22.293  24.879  1.00  0.00     0.131 A 
BRANCH  15  20
ATOM     20  O   UNL A   1      33.586  18.736  24.275  1.00  0.00    -0.497 OA
ATOM     21  C   UNL A   1      34.873  18.157  24.441  1.00  0.00     0.278 C 
ENDBRANCH  15  20
BRANCH  19  22
ATOM     22  O   UNL A   1      35.404  23.204  24.861  1.00  0.00    -0.496 OA
ATOM     23  C   UNL A   1      36.703  22.628  24.969  1.00  0.00     0.278 C 
ENDBRANCH  19  22
ENDBRANCH  13  14
ENDBRANCH   8  13
BRANCH  12  24
ATOM     24  C   UNL A   1      30.043  27.240  23.041  1.00  0.00     0.004 A 
ATOM     25  C   UNL A   1      29.128  26.385  23.704  1.00  0.00     0.008 A 
ATOM     26  C   UNL A   1      29.509  28.472  22.611  1.00  0.00     0.122 A 
ATOM     27  C   UNL A   1      27.799  26.734  23.975  1.00  0.00     0.001 A 
ATOM     28  C   UNL A   1      28.186  28.838  22.934  1.00  0.00     0.047 A 
ATOM     29  C   UNL A   1      27.329  27.976  23.605  1.00  0.00     0.004 A 
BRANCH  26  30
ATOM     30  O   UNL A   1      30.141  29.484  21.949  1.00  0.00    -0.496 OA
ATOM     31  C   UNL A   1      29.349  30.532  21.418  1.00  0.00     0.278 C 
ENDBRANCH  26  30
ENDBRANCH  12  24
ENDBRANCH   4   7
ENDBRANCH   2   3
ENDBRANCH   1   2
BRANCH   1  32
ATOM     32  C   UNL A   1      32.627  31.521  27.221  1.00  0.00     0.118 C 
BRANCH  32  33
ATOM     33  N   UNL A   1      32.986  32.935  27.228  1.00  0.00    -0.352 N 
ATOM     34  C   UNL A   1      33.926  33.598  27.971  1.00  0.00     0.251 C 
ATOM     35  H   UNL A   1      32.474  33.499  26.605  1.00  0.00     0.163 HD
ATOM     36  O   UNL A   1      33.827  34.816  28.120  1.00  0.00    -0.269 OA
BRANCH  34  37
ATOM     37  C   UNL A   1      35.066  32.866  28.554  1.00  0.00     0.039 A 
ATOM     38  C   UNL A   1      34.823  31.739  29.344  1.00  0.00     0.014 A 
ATOM     39  C   UNL A   1      36.370  33.339  28.387  1.00  0.00     0.014 A 
ATOM     40  C   UNL A   1      35.894  31.075  29.945  1.00  0.00     0.010 A 
ATOM     41  C   UNL A   1      37.440  32.628  28.913  1.00  0.00     0.010 A 
ATOM     42  C   UNL A   1      37.211  31.508  29.722  1.00  0.00    -0.014 A 
BRANCH  42  43
ATOM     43  C   UNL A   1      38.366  30.821  30.348  1.00  0.00     0.031 A 
ATOM     44  C   UNL A   1      38.800  31.198  31.741  1.00  0.00     0.074 A 
ATOM     45  C   UNL A   1      39.074  29.928  29.628  1.00  0.00     0.049 A 
ATOM     46  N   UNL A   1      39.814  30.753  32.435  1.00  0.00    -0.248 NA
ATOM     47  C   UNL A   1      38.012  32.234  32.434  1.00  0.00     0.031 C 
ATOM     48  C   UNL A   1      38.799  29.555  28.238  1.00  0.00     0.029 A 
ATOM     49  N   UNL A   1      40.183  29.192  29.956  1.00  0.00    -0.354 N 
ATOM     50  C   UNL A   1      39.816  31.486  33.617  1.00  0.00     0.074 A 
ATOM     51  C   UNL A   1      38.720  32.424  33.538  1.00  0.00     0.031 C 
ATOM     52  C   UNL A   1      39.710  28.654  27.836  1.00  0.00     0.029 A 
ATOM     53  C   UNL A   1      40.646  28.405  28.927  1.00  0.00     0.049 A 
ATOM     54  H   UNL A   1      40.608  29.225  30.843  1.00  0.00     0.167 HD
ATOM     55  C   UNL A   1      40.638  31.364  34.687  1.00  0.00     0.034 A 
ATOM     56  C   UNL A   1      41.708  27.578  28.874  1.00  0.00     0.034 A 
ATOM     57  C   UNL A   1      41.677  30.377  34.784  1.00  0.00     0.049 A 
ATOM     58  C   UNL A   1      42.553  27.408  30.108  1.00  0.00     0.074 A 
ATOM     59  C   UNL A   1      42.488  30.087  35.866  1.00  0.00     0.029 A 
ATOM     60  N   UNL A   1      42.047  29.517  33.762  1.00  0.00    -0.354 N 
ATOM     61  N   UNL A   1      42.426  27.978  31.281  1.00  0.00    -0.248 NA
ATOM     62  C   UNL A   1      43.664  26.448  30.024  1.00  0.00     0.031 C 
ATOM     63  C   UNL A   1      43.364  29.064  35.490  1.00  0.00     0.029 A 
ATOM     64  C   UNL A   1      43.082  28.702  34.183  1.00  0.00     0.049 A 
ATOM     65  H   UNL A   1      41.635  29.491  32.868  1.00  0.00     0.167 HD
ATOM     66  C   UNL A   1      43.412  27.420  32.085  1.00  0.00     0.074 A 
ATOM     67  C   UNL A   1      44.114  26.449  31.272  1.00  0.00     0.031 C 
ATOM     68  C   UNL A   1      43.722  27.696  33.376  1.00  0.00     0.034 A 
BRANCH  55  69
ATOM     69  C   UNL A   1      40.413  32.275  35.865  1.00  0.00     0.023 A 
ATOM     70  C   UNL A   1      41.200  33.436  36.006  1.00  0.00     0.012 A 
ATOM     71  C   UNL A   1      39.371  32.030  36.780  1.00  0.00     0.148 A 
ATOM     72  C   UNL A   1      40.970  34.326  37.055  1.00  0.00     0.002 A 
ATOM     73  C   UNL A   1      39.120  32.943  37.797  1.00  0.00     0.091 A 
ATOM     74  F   UNL A   1      38.647  30.910  36.639  1.00  0.00    -0.205 F 
ATOM     75  C   UNL A   1      39.924  34.086  37.942  1.00  0.00     0.022 A 
BRANCH  73  76
ATOM     76  S   UNL A   1      37.747  32.771  38.942  1.00  0.00     0.127 S 
ATOM     77  O   UNL A   1      37.958  33.914  39.831  1.00  0.00    -0.237 OA
ATOM     78  O   UNL A   1      36.590  32.895  38.056  1.00  0.00    -0.237 OA
ATOM     79  O   UNL A   1      37.902  31.464  39.564  1.00  0.00    -0.744 OA
ENDBRANCH  73  76
ENDBRANCH  55  69
BRANCH  56  80
ATOM     80  C   UNL A   1      41.983  26.786  27.641  1.00  0.00     0.023 A 
ATOM     81  C   UNL A   1      42.521  27.435  26.512  1.00  0.00     0.012 A 
ATOM     82  C   UNL A   1      41.729  25.404  27.580  1.00  0.00     0.148 A 
ATOM     83  C   UNL A   1      42.761  26.730  25.333  1.00  0.00     0.002 A 
ATOM     84  C   UNL A   1      42.022  24.696  26.419  1.00  0.00     0.091 A 
ATOM     85  F   UNL A   1      41.205  24.802  28.659  1.00  0.00    -0.205 F 
ATOM     86  C   UNL A   1      42.519  25.361  25.289  1.00  0.00     0.022 A 
BRANCH  84  87
ATOM     87  S   UNL A   1      41.866  22.908  26.329  1.00  0.00     0.127 S 
ATOM     88  O   UNL A   1      40.415  22.732  26.388  1.00  0.00    -0.237 OA
ATOM     89  O   UNL A   1      42.467  22.613  25.026  1.00  0.00    -0.237 OA
ATOM     90  O   UNL A   1      42.619  22.397  27.462  1.00  0.00    -0.744 OA
ENDBRANCH  84  87
ENDBRANCH  56  80
BRANCH  68  91
ATOM     91  C   UNL A   1      44.838  26.910  34.009  1.00  0.00     0.023 A 
ATOM     92  C   UNL A   1      46.168  27.354  33.876  1.00  0.00     0.012 A 
ATOM     93  C   UNL A   1      44.558  25.781  34.803  1.00  0.00     0.148 A 
ATOM     94  C   UNL A   1      47.208  26.666  34.499  1.00  0.00     0.002 A 
ATOM     95  C   UNL A   1      45.593  25.131  35.461  1.00  0.00     0.091 A 
ATOM     96  F   UNL A   1      43.287  25.366  34.900  1.00  0.00    -0.205 F 
ATOM     97  C   UNL A   1      46.920  25.564  35.301  1.00  0.00     0.022 A 
BRANCH  95  98
ATOM     98  S   UNL A   1      45.303  23.768  36.595  1.00  0.00     0.127 S 
ATOM     99  O   UNL A   1      46.667  23.396  36.969  1.00  0.00    -0.237 OA
ATOM    100  O   UNL A   1      44.531  24.408  37.660  1.00  0.00    -0.237 OA
ATOM    101  O   UNL A   1      44.566  22.766  35.835  1.00  0.00    -0.744 OA
ENDBRANCH  95  98
ENDBRANCH  68  91
ENDBRANCH  42  43
ENDBRANCH  34  37
ENDBRANCH  32  33
ENDBRANCH   1  32
TORSDOF 19
ENDMDL
MODEL 2
REMARK VINA RESULT:     -12.2      5.361      9.404
REMARK SMILES COc1ccc(C[N@@H+]2C[C@@H](C(=O)NCCCNC(=O)c3ccc(-c4c5nc(c(-c6cccc(S(=O)(=O)[O-])c6F)c6ccc([nH]6)c(-c6cccc(S(=O)(=O)[O-])c6F)c6nc(c(-c7cccc(S(=O)(=O)[O-])c7F)c7ccc4[nH]7)C=C6)C=C5)cc3)[C@H](c3ccccc3OC)C2)c(OC)c1
REMARK SMILES IDX 15 1 14 2 13 3 11 4 12 5 10 7 8 8 9 9 92 10 83 12 7 13 6 14
REMARK SMILES IDX 3 15 4 16 96 17 5 18 93 19 2 20 1 21 94 22 95 23 84 24 85 25
REMARK SMILES IDX 89 26 86 27 88 28 87 29 90 30 91 31 16 32 17 33 18 34 19 36
REMARK SMILES IDX 20 37 21 38 82 39 22 40 81 41 23 42 24 43 25 44 75 45 26 46
REMARK SMILES IDX 80 47 74 48 76 49 27 50 79 51 73 52 72 53 28 55 60 56 40 57
REMARK SMILES IDX 59 58 41 59 44 60 58 61 77 62 42 63 43 64 57 66 78 67 45 68
REMARK SMILES IDX 29 69 30 70 38 71 31 72 33 73 39 74 32 75 34 76 35 77 36 78
REMARK SMILES IDX 37 79 61 80 62 81 70 82 63 83 65 84 71 85 64 86 66 87 67 88
REMARK SMILES IDX 68 89 69 90 46 91 47 92 55 93 48 94 50 95 56 96 49 97 51 98
REMARK SMILES IDX 52 99 53 100 54 101
REMARK H PARENT 13 6 8 11 17 35 76 54 44 65
REMARK Flexibility Score: inf
ROOT
ATOM      1  C   UNL A   1      37.425  19.697  24.945  1.00  0.00     0.042 C 
ENDROOT
BRANCH   1   2
ATOM      2  C   UNL A   1      36.213  20.607  24.799  1.00  0.00     0.117 C 
BRANCH   2   3
ATOM      3  N   UNL A   1      35.676  21.007  26.082  1.00  0.00    -0.356 N 
ATOM      4  C   UNL A   1      34.578  21.684  26.490  1.00  0.00     0.229 C 
ATOM      5  O   UNL A   1      34.353  21.513  27.690  1.00  0.00    -0.275 OA
ATOM      6  H   UNL A   1      36.242  20.718  26.834  1.00  0.00     0.163 HD
BRANCH   4   7
ATOM      7  C   UNL A   1      33.595  22.426  25.586  1.00  0.00     0.146 C 
ATOM      8  N   UNL A   1      32.168  24.279  25.114  1.00  0.00    -0.330 N 
ATOM      9  C   UNL A   1      33.142  23.797  26.082  1.00  0.00     0.276 C 
ATOM     10  C   UNL A   1      31.394  23.079  24.772  1.00  0.00     0.272 C 
ATOM     11  H   UNL A   1      31.550  24.999  25.489  1.00  0.00     0.348 HD
ATOM     12  C   UNL A   1      32.230  21.797  25.171  1.00  0.00     0.096 C 
BRANCH   8  13
ATOM     13  C   UNL A   1      32.752  25.060  23.987  1.00  0.00     0.303 C 
BRANCH  13  14
ATOM     14  C   UNL A   1      32.197  26.450  23.693  1.00  0.00     0.048 A 
ATOM     15  C   UNL A   1      30.633  28.764  23.359  1.00  0.00     0.122 A 
ATOM     16  C   UNL A   1      30.711  27.829  22.333  1.00  0.00     0.047 A 
ATOM     17  C   UNL A   1      31.417  28.609  24.501  1.00  0.00     0.093 A 
ATOM     18  C   UNL A   1      31.522  26.700  22.479  1.00  0.00     0.017 A 
ATOM     19  C   UNL A   1      32.232  27.475  24.650  1.00  0.00     0.131 A 
BRANCH  15  20
ATOM     20  O   UNL A   1      29.668  29.726  23.232  1.00  0.00    -0.497 OA
ATOM     21  C   UNL A   1      29.488  30.190  21.901  1.00  0.00     0.278 C 
ENDBRANCH  15  20
BRANCH  19  22
ATOM     22  O   UNL A   1      33.025  27.276  25.750  1.00  0.00    -0.496 OA
ATOM     23  C   UNL A   1      32.343  27.403  26.995  1.00  0.00     0.278 C 
ENDBRANCH  19  22
ENDBRANCH  13  14
ENDBRANCH   8  13
BRANCH  12  24
ATOM     24  C   UNL A   1      32.221  20.650  24.147  1.00  0.00     0.004 A 
ATOM     25  C   UNL A   1      32.066  20.930  22.766  1.00  0.00     0.008 A 
ATOM     26  C   UNL A   1      32.360  19.284  24.470  1.00  0.00     0.122 A 
ATOM     27  C   UNL A   1      32.098  19.948  21.769  1.00  0.00     0.001 A 
ATOM     28  C   UNL A   1      32.445  18.307  23.457  1.00  0.00     0.047 A 
ATOM     29  C   UNL A   1      32.309  18.629  22.113  1.00  0.00     0.004 A 
BRANCH  26  30
ATOM     30  O   UNL A   1      32.518  18.717  25.701  1.00  0.00    -0.496 OA
ATOM     31  C   UNL A   1      32.668  17.310  25.774  1.00  0.00     0.278 C 
ENDBRANCH  26  30
ENDBRANCH  12  24
ENDBRANCH   4   7
ENDBRANCH   2   3
ENDBRANCH   1   2
BRANCH   1  32
ATOM     32  C   UNL A   1      38.614  20.412  25.584  1.00  0.00     0.118 C 
BRANCH  32  33
ATOM     33  N   UNL A   1      39.643  19.464  25.997  1.00  0.00    -0.352 N 
ATOM     34  C   UNL A   1      40.982  19.660  26.206  1.00  0.00     0.251 C 
ATOM     35  H   UNL A   1      39.328  18.544  26.149  1.00  0.00     0.163 HD
ATOM     36  O   UNL A   1      41.744  18.694  26.177  1.00  0.00    -0.269 OA
BRANCH  34  37
ATOM     37  C   UNL A   1      41.500  21.009  26.500  1.00  0.00     0.039 A 
ATOM     38  C   UNL A   1      41.830  21.344  27.816  1.00  0.00     0.014 A 
ATOM     39  C   UNL A   1      41.583  21.970  25.489  1.00  0.00     0.014 A 
ATOM     40  C   UNL A   1      42.267  22.637  28.110  1.00  0.00     0.010 A 
ATOM     41  C   UNL A   1      42.100  23.229  25.768  1.00  0.00     0.010 A 
ATOM     42  C   UNL A   1      42.418  23.584  27.085  1.00  0.00    -0.014 A 
BRANCH  42  43
ATOM     43  C   UNL A   1      42.880  24.963  27.370  1.00  0.00     0.031 A 
ATOM     44  C   UNL A   1      41.942  25.951  28.014  1.00  0.00     0.074 A 
ATOM     45  C   UNL A   1      44.107  25.346  26.966  1.00  0.00     0.049 A 
ATOM     46  N   UNL A   1      42.142  27.213  28.291  1.00  0.00    -0.248 NA
ATOM     47  C   UNL A   1      40.592  25.471  28.362  1.00  0.00     0.031 C 
ATOM     48  C   UNL A   1      45.065  24.498  26.250  1.00  0.00     0.029 A 
ATOM     49  N   UNL A   1      44.750  26.552  27.076  1.00  0.00    -0.354 N 
ATOM     50  C   UNL A   1      40.935  27.686  28.796  1.00  0.00     0.074 A 
ATOM     51  C   UNL A   1      39.999  26.586  28.763  1.00  0.00     0.031 C 
ATOM     52  C   UNL A   1      46.175  25.209  25.994  1.00  0.00     0.029 A 
ATOM     53  C   UNL A   1      45.999  26.565  26.501  1.00  0.00     0.049 A 
ATOM     54  H   UNL A   1      44.354  27.334  27.523  1.00  0.00     0.167 HD
ATOM     55  C   UNL A   1      40.644  28.919  29.276  1.00  0.00     0.034 A 
ATOM     56  C   UNL A   1      46.900  27.562  26.397  1.00  0.00     0.034 A 
ATOM     57  C   UNL A   1      41.604  29.983  29.373  1.00  0.00     0.049 A 
ATOM     58  C   UNL A   1      46.573  28.897  27.012  1.00  0.00     0.074 A 
ATOM     59  C   UNL A   1      41.449  31.230  29.951  1.00  0.00     0.029 A 
ATOM     60  N   UNL A   1      42.899  29.925  28.882  1.00  0.00    -0.354 N 
ATOM     61  N   UNL A   1      45.490  29.269  27.649  1.00  0.00    -0.248 NA
ATOM     62  C   UNL A   1      47.609  29.937  26.929  1.00  0.00     0.031 C 
ATOM     63  C   UNL A   1      42.646  31.934  29.791  1.00  0.00     0.029 A 
ATOM     64  C   UNL A   1      43.552  31.117  29.133  1.00  0.00     0.049 A 
ATOM     65  H   UNL A   1      43.294  29.150  28.421  1.00  0.00     0.167 HD
ATOM     66  C   UNL A   1      45.729  30.569  28.078  1.00  0.00     0.074 A 
ATOM     67  C   UNL A   1      47.068  30.911  27.647  1.00  0.00     0.031 C 
ATOM     68  C   UNL A   1      44.909  31.412  28.753  1.00  0.00     0.034 A 
BRANCH  55  69
ATOM     69  C   UNL A   1      39.251  29.171  29.791  1.00  0.00     0.023 A 
ATOM     70  C   UNL A   1      38.897  28.732  31.083  1.00  0.00     0.012 A 
ATOM     71  C   UNL A   1      38.324  29.915  29.035  1.00  0.00     0.148 A 
ATOM     72  C   UNL A   1      37.634  29.007  31.606  1.00  0.00     0.002 A 
ATOM     73  C   UNL A   1      37.082  30.223  29.579  1.00  0.00     0.091 A 
ATOM     74  F   UNL A   1      38.673  30.306  27.801  1.00  0.00    -0.205 F 
ATOM     75  C   UNL A   1      36.732  29.762  30.859  1.00  0.00     0.022 A 
BRANCH  73  76
ATOM     76  S   UNL A   1      35.880  31.256  28.735  1.00  0.00     0.127 S 
ATOM     77  O   UNL A   1      35.458  30.382  27.639  1.00  0.00    -0.237 OA
ATOM     78  O   UNL A   1      34.869  31.461  29.772  1.00  0.00    -0.237 OA
ATOM     79  O   UNL A   1      36.593  32.458  28.331  1.00  0.00    -0.744 OA
ENDBRANCH  73  76
ENDBRANCH  55  69
BRANCH  56  80
ATOM     80  C   UNL A   1      48.224  27.315  25.759  1.00  0.00     0.023 A 
ATOM     81  C   UNL A   1      49.295  26.856  26.551  1.00  0.00     0.012 A 
ATOM     82  C   UNL A   1      48.429  27.519  24.382  1.00  0.00     0.148 A 
ATOM     83  C   UNL A   1      50.555  26.645  25.993  1.00  0.00     0.002 A 
ATOM     84  C   UNL A   1      49.674  27.253  23.821  1.00  0.00     0.091 A 
ATOM     85  F   UNL A   1      47.404  27.967  23.643  1.00  0.00    -0.205 F 
ATOM     86  C   UNL A   1      50.743  26.835  24.627  1.00  0.00     0.022 A 
BRANCH  84  87
ATOM     87  S   UNL A   1      49.957  27.344  22.049  1.00  0.00     0.127 S 
ATOM     88  O   UNL A   1      49.768  28.772  21.789  1.00  0.00    -0.237 OA
ATOM     89  O   UNL A   1      51.342  26.879  21.935  1.00  0.00    -0.237 OA
ATOM     90  O   UNL A   1      48.978  26.452  21.454  1.00  0.00    -0.744 OA
ENDBRANCH  84  87
ENDBRANCH  56  80
BRANCH  68  91
ATOM     91  C   UNL A   1      45.446  32.771  29.110  1.00  0.00     0.023 A 
ATOM     92  C   UNL A   1      46.201  32.938  30.288  1.00  0.00     0.012 A 
ATOM     93  C   UNL A   1      45.272  33.862  28.236  1.00  0.00     0.148 A 
ATOM     94  C   UNL A   1      46.748  34.180  30.606  1.00  0.00     0.002 A 
ATOM     95  C   UNL A   1      45.864  35.082  28.534  1.00  0.00     0.091 A 
ATOM     96  F   UNL A   1      44.535  33.684  27.130  1.00  0.00    -0.205 F 
ATOM     97  C   UNL A   1      46.591  35.247  29.724  1.00  0.00     0.022 A 
BRANCH  95  98
ATOM     98  S   UNL A   1      45.799  36.480  27.408  1.00  0.00     0.127 S 
ATOM     99  O   UNL A   1      44.412  36.918  27.556  1.00  0.00    -0.237 OA
ATOM    100  O   UNL A   1      46.791  37.389  27.983  1.00  0.00    -0.237 OA
ATOM    101  O   UNL A   1      46.154  35.954  26.096  1.00  0.00    -0.744 OA
ENDBRANCH  95  98
ENDBRANCH  68  91
ENDBRANCH  42  43
ENDBRANCH  34  37
ENDBRANCH  32  33
ENDBRANCH   1  32
TORSDOF 19
ENDMDL
MODEL 3
REMARK VINA RESULT:     -12.0      1.012      7.349
REMARK SMILES COc1ccc(C[N@@H+]2C[C@@H](C(=O)NCCCNC(=O)c3ccc(-c4c5nc(c(-c6cccc(S(=O)(=O)[O-])c6F)c6ccc([nH]6)c(-c6cccc(S(=O)(=O)[O-])c6F)c6nc(c(-c7cccc(S(=O)(=O)[O-])c7F)c7ccc4[nH]7)C=C6)C=C5)cc3)[C@H](c3ccccc3OC)C2)c(OC)c1
REMARK SMILES IDX 15 1 14 2 13 3 11 4 12 5 10 7 8 8 9 9 92 10 83 12 7 13 6 14
REMARK SMILES IDX 3 15 4 16 96 17 5 18 93 19 2 20 1 21 94 22 95 23 84 24 85 25
REMARK SMILES IDX 89 26 86 27 88 28 87 29 90 30 91 31 16 32 17 33 18 34 19 36
REMARK SMILES IDX 20 37 21 38 82 39 22 40 81 41 23 42 24 43 25 44 75 45 26 46
REMARK SMILES IDX 80 47 74 48 76 49 27 50 79 51 73 52 72 53 28 55 60 56 40 57
REMARK SMILES IDX 59 58 41 59 44 60 58 61 77 62 42 63 43 64 57 66 78 67 45 68
REMARK SMILES IDX 29 69 30 70 38 71 31 72 33 73 39 74 32 75 34 76 35 77 36 78
REMARK SMILES IDX 37 79 61 80 62 81 70 82 63 83 65 84 71 85 64 86 66 87 67 88
REMARK SMILES IDX 68 89 69 90 46 91 47 92 55 93 48 94 50 95 56 96 49 97 51 98
REMARK SMILES IDX 52 99 53 100 54 101
REMARK H PARENT 13 6 8 11 17 35 76 54 44 65
REMARK Flexibility Score: inf
ROOT
ATOM      1  C   UNL A   1      31.201  31.377  25.944  1.00  0.00     0.042 C 
ENDROOT
BRANCH   1   2
ATOM      2  C   UNL A   1      31.398  29.943  25.468  1.00  0.00     0.117 C 
BRANCH   2   3
ATOM      3  N   UNL A   1      32.567  29.806  24.628  1.00  0.00    -0.356 N 
ATOM      4  C   UNL A   1      33.078  28.821  23.853  1.00  0.00     0.229 C 
ATOM      5  O   UNL A   1      33.919  29.250  23.061  1.00  0.00    -0.275 OA
ATOM      6  H   UNL A   1      33.120  30.621  24.615  1.00  0.00     0.163 HD
BRANCH   4   7
ATOM      7  C   UNL A   1      32.576  27.380  23.791  1.00  0.00     0.146 C 
ATOM      8  N   UNL A   1      32.945  25.042  23.482  1.00  0.00    -0.330 N 
ATOM      9  C   UNL A   1      33.648  26.312  23.582  1.00  0.00     0.276 C 
ATOM     10  C   UNL A   1      31.749  25.367  22.696  1.00  0.00     0.272 C 
ATOM     11  H   UNL A   1      33.487  24.317  23.013  1.00  0.00     0.348 HD
ATOM     12  C   UNL A   1      31.506  26.929  22.750  1.00  0.00     0.096 C 
BRANCH   8  13
ATOM     13  C   UNL A   1      32.738  24.347  24.785  1.00  0.00     0.303 C 
BRANCH  13  14
ATOM     14  C   UNL A   1      33.030  22.853  24.874  1.00  0.00     0.048 A 
ATOM     15  C   UNL A   1      33.327  20.087  24.454  1.00  0.00     0.122 A 
ATOM     16  C   UNL A   1      32.139  20.583  24.979  1.00  0.00     0.047 A 
ATOM     17  C   UNL A   1      34.405  20.946  24.244  1.00  0.00     0.093 A 
ATOM     18  C   UNL A   1      32.005  21.951  25.230  1.00  0.00     0.017 A 
ATOM     19  C   UNL A   1      34.272  22.321  24.495  1.00  0.00     0.131 A 
BRANCH  15  20
ATOM     20  O   UNL A   1      33.312  18.782  24.044  1.00  0.00    -0.497 OA
ATOM     21  C   UNL A   1      34.214  17.943  24.754  1.00  0.00     0.278 C 
ENDBRANCH  15  20
BRANCH  19  22
ATOM     22  O   UNL A   1      35.301  23.208  24.309  1.00  0.00    -0.496 OA
ATOM     23  C   UNL A   1      36.586  22.602  24.208  1.00  0.00     0.278 C 
ENDBRANCH  19  22
ENDBRANCH  13  14
ENDBRANCH   8  13
BRANCH  12  24
ATOM     24  C   UNL A   1      30.046  27.370  22.948  1.00  0.00     0.004 A 
ATOM     25  C   UNL A   1      29.132  26.523  23.623  1.00  0.00     0.008 A 
ATOM     26  C   UNL A   1      29.509  28.594  22.499  1.00  0.00     0.122 A 
ATOM     27  C   UNL A   1      27.802  26.873  23.888  1.00  0.00     0.001 A 
ATOM     28  C   UNL A   1      28.185  28.962  22.816  1.00  0.00     0.047 A 
ATOM     29  C   UNL A   1      27.329  28.109  23.499  1.00  0.00     0.004 A 
BRANCH  26  30
ATOM     30  O   UNL A   1      30.139  29.598  21.822  1.00  0.00    -0.496 OA
ATOM     31  C   UNL A   1      29.416  30.789  21.568  1.00  0.00     0.278 C 
ENDBRANCH  26  30
ENDBRANCH  12  24
ENDBRANCH   4   7
ENDBRANCH   2   3
ENDBRANCH   1   2
BRANCH   1  32
ATOM     32  C   UNL A   1      32.241  31.792  26.983  1.00  0.00     0.118 C 
BRANCH  32  33
ATOM     33  N   UNL A   1      32.327  33.243  27.096  1.00  0.00    -0.352 N 
ATOM     34  C   UNL A   1      33.030  34.013  27.984  1.00  0.00     0.251 C 
ATOM     35  H   UNL A   1      31.799  33.747  26.435  1.00  0.00     0.163 HD
ATOM     36  O   UNL A   1      32.690  35.182  28.170  1.00  0.00    -0.269 OA
BRANCH  34  37
ATOM     37  C   UNL A   1      34.207  33.459  28.680  1.00  0.00     0.039 A 
ATOM     38  C   UNL A   1      35.475  33.628  28.120  1.00  0.00     0.014 A 
ATOM     39  C   UNL A   1      34.047  32.703  29.844  1.00  0.00     0.014 A 
ATOM     40  C   UNL A   1      36.586  33.057  28.745  1.00  0.00     0.010 A 
ATOM     41  C   UNL A   1      35.162  32.210  30.510  1.00  0.00     0.010 A 
ATOM     42  C   UNL A   1      36.437  32.356  29.952  1.00  0.00    -0.014 A 
BRANCH  42  43
ATOM     43  C   UNL A   1      37.600  31.741  30.636  1.00  0.00     0.031 A 
ATOM     44  C   UNL A   1      38.428  30.704  29.923  1.00  0.00     0.074 A 
ATOM     45  C   UNL A   1      37.849  32.050  31.923  1.00  0.00     0.049 A 
ATOM     46  N   UNL A   1      39.445  30.014  30.369  1.00  0.00    -0.248 NA
ATOM     47  C   UNL A   1      38.046  30.372  28.538  1.00  0.00     0.031 C 
ATOM     48  C   UNL A   1      37.056  32.972  32.741  1.00  0.00     0.029 A 
ATOM     49  N   UNL A   1      38.824  31.604  32.779  1.00  0.00    -0.354 N 
ATOM     50  C   UNL A   1      39.789  29.138  29.345  1.00  0.00     0.074 A 
ATOM     51  C   UNL A   1      38.858  29.361  28.264  1.00  0.00     0.031 C 
ATOM     52  C   UNL A   1      37.581  33.029  33.975  1.00  0.00     0.029 A 
ATOM     53  C   UNL A   1      38.729  32.131  34.046  1.00  0.00     0.049 A 
ATOM     54  H   UNL A   1      39.524  30.966  32.511  1.00  0.00     0.167 HD
ATOM     55  C   UNL A   1      40.811  28.251  29.299  1.00  0.00     0.034 A 
ATOM     56  C   UNL A   1      39.485  31.911  35.139  1.00  0.00     0.034 A 
ATOM     57  C   UNL A   1      41.776  28.091  30.351  1.00  0.00     0.049 A 
ATOM     58  C   UNL A   1      40.661  30.978  35.028  1.00  0.00     0.074 A 
ATOM     59  C   UNL A   1      42.916  27.309  30.360  1.00  0.00     0.029 A 
ATOM     60  N   UNL A   1      41.713  28.726  31.582  1.00  0.00    -0.354 N 
ATOM     61  N   UNL A   1      41.078  30.295  33.990  1.00  0.00    -0.248 NA
ATOM     62  C   UNL A   1      41.494  30.816  36.228  1.00  0.00     0.031 C 
ATOM     63  C   UNL A   1      43.534  27.457  31.606  1.00  0.00     0.029 A 
ATOM     64  C   UNL A   1      42.789  28.347  32.363  1.00  0.00     0.049 A 
ATOM     65  H   UNL A   1      41.006  29.353  31.859  1.00  0.00     0.167 HD
ATOM     66  C   UNL A   1      42.242  29.656  34.397  1.00  0.00     0.074 A 
ATOM     67  C   UNL A   1      42.476  30.051  35.771  1.00  0.00     0.031 C 
ATOM     68  C   UNL A   1      43.038  28.805  33.705  1.00  0.00     0.034 A 
BRANCH  55  69
ATOM     69  C   UNL A   1      40.981  27.426  28.050  1.00  0.00     0.023 A 
ATOM     70  C   UNL A   1      41.569  28.007  26.908  1.00  0.00     0.012 A 
ATOM     71  C   UNL A   1      40.642  26.059  28.034  1.00  0.00     0.148 A 
ATOM     72  C   UNL A   1      41.792  27.248  25.759  1.00  0.00     0.002 A 
ATOM     73  C   UNL A   1      40.908  25.298  26.901  1.00  0.00     0.091 A 
ATOM     74  F   UNL A   1      40.067  25.531  29.124  1.00  0.00    -0.205 F 
ATOM     75  C   UNL A   1      41.473  25.892  25.761  1.00  0.00     0.022 A 
BRANCH  73  76
ATOM     76  S   UNL A   1      40.611  23.528  26.828  1.00  0.00     0.127 S 
ATOM     77  O   UNL A   1      41.507  23.124  25.744  1.00  0.00    -0.237 OA
ATOM     78  O   UNL A   1      41.030  23.091  28.159  1.00  0.00    -0.237 OA
ATOM     79  O   UNL A   1      39.191  23.368  26.552  1.00  0.00    -0.744 OA
ENDBRANCH  73  76
ENDBRANCH  55  69
BRANCH  56  80
ATOM     80  C   UNL A   1      39.207  32.647  36.405  1.00  0.00     0.023 A 
ATOM     81  C   UNL A   1      39.815  33.900  36.621  1.00  0.00     0.012 A 
ATOM     82  C   UNL A   1      38.343  32.127  37.386  1.00  0.00     0.148 A 
ATOM     83  C   UNL A   1      39.601  34.600  37.808  1.00  0.00     0.002 A 
ATOM     84  C   UNL A   1      38.090  32.856  38.544  1.00  0.00     0.091 A 
ATOM     85  F   UNL A   1      37.781  30.928  37.172  1.00  0.00    -0.205 F 
ATOM     86  C   UNL A   1      38.733  34.083  38.765  1.00  0.00     0.022 A 
BRANCH  84  87
ATOM     87  S   UNL A   1      36.881  32.321  39.760  1.00  0.00     0.127 S 
ATOM     88  O   UNL A   1      35.654  32.283  38.965  1.00  0.00    -0.237 OA
ATOM     89  O   UNL A   1      37.400  31.007  40.150  1.00  0.00    -0.237 OA
ATOM     90  O   UNL A   1      36.929  33.317  40.816  1.00  0.00    -0.744 OA
ENDBRANCH  84  87
ENDBRANCH  56  80
BRANCH  68  91
ATOM     91  C   UNL A   1      44.264  28.274  34.399  1.00  0.00     0.023 A 
ATOM     92  C   UNL A   1      45.473  28.992  34.328  1.00  0.00     0.012 A 
ATOM     93  C   UNL A   1      44.191  27.110  35.188  1.00  0.00     0.148 A 
ATOM     94  C   UNL A   1      46.603  28.541  35.008  1.00  0.00     0.002 A 
ATOM     95  C   UNL A   1      45.306  26.694  35.903  1.00  0.00     0.091 A 
ATOM     96  F   UNL A   1      43.034  26.433  35.226  1.00  0.00    -0.205 F 
ATOM     97  C   UNL A   1      46.516  27.400  35.805  1.00  0.00     0.022 A 
BRANCH  95  98
ATOM     98  S   UNL A   1      45.257  25.298  37.032  1.00  0.00     0.127 S 
ATOM     99  O   UNL A   1      44.733  24.238  36.172  1.00  0.00    -0.237 OA
ATOM    100  O   UNL A   1      46.665  25.145  37.400  1.00  0.00    -0.237 OA
ATOM    101  O   UNL A   1      44.388  25.702  38.130  1.00  0.00    -0.744 OA
ENDBRANCH  95  98
ENDBRANCH  68  91
ENDBRANCH  42  43
ENDBRANCH  34  37
ENDBRANCH  32  33
ENDBRANCH   1  32
TORSDOF 19
ENDMDL
