MODEL 1
REMARK VINA RESULT:     -13.1      0.000      0.000
REMARK SMILES O=C(NCCCNC(=O)c1cccnc1C(=O)Nc1ccc([N+](=O)[O-])cc1)c1ccc(-c2c3nc(c(-c4cccc(S(=O)(=O)[O-])c4F)c4ccc([nH]4)c(-c4cccc(S(=O)(=O)[O-])c4F)c4nc(c(-c5cccc(S(=O)(=O)[O-])c5F)c5ccc2[nH]5)C=C4)C=C3)cc1
REMARK SMILES IDX 5 1 4 2 3 3 1 4 2 5 28 7 29 8 90 9 30 10 89 11 31 12 32 13
REMARK SMILES IDX 33 14 83 15 34 16 88 17 82 18 84 19 35 20 87 21 81 22 80 23
REMARK SMILES IDX 36 25 68 26 48 27 67 28 49 29 52 30 66 31 85 32 50 33 51 34
REMARK SMILES IDX 65 36 86 37 53 38 37 39 38 40 46 41 39 42 41 43 47 44 40 45
REMARK SMILES IDX 42 46 43 47 44 48 45 49 69 50 70 51 78 52 71 53 73 54 79 55
REMARK SMILES IDX 72 56 74 57 75 58 76 59 77 60 54 61 55 62 63 63 56 64 58 65
REMARK SMILES IDX 64 66 57 67 59 68 60 69 61 70 62 71 6 72 7 73 8 74 9 76
REMARK SMILES IDX 10 77 11 78 15 79 12 80 14 81 13 82 16 83 17 84 18 85 19 87
REMARK SMILES IDX 20 88 27 89 21 90 26 91 22 92 23 93 24 94 25 95
REMARK H PARENT 3 6 84 24 52 35 7 75 18 86
REMARK Flexibility Score: inf
ROOT
ATOM      1  C   UNL A   1      37.554  19.792  24.880  1.00  0.00     0.042 C 
ENDROOT
BRANCH   1   2
ATOM      2  C   UNL A   1      38.831  20.231  25.601  1.00  0.00     0.118 C 
BRANCH   2   3
ATOM      3  N   UNL A   1      39.868  19.235  25.782  1.00  0.00    -0.352 N 
ATOM      4  O   UNL A   1      42.003  18.553  26.100  1.00  0.00    -0.269 OA
ATOM      5  C   UNL A   1      41.190  19.465  26.107  1.00  0.00     0.251 C 
ATOM      6  H   UNL A   1      39.601  18.295  25.661  1.00  0.00     0.163 HD
BRANCH   5   7
ATOM      7  C   UNL A   1      41.603  20.842  26.457  1.00  0.00     0.039 A 
ATOM      8  C   UNL A   1      41.412  21.316  27.759  1.00  0.00     0.014 A 
ATOM      9  C   UNL A   1      42.180  21.659  25.483  1.00  0.00     0.014 A 
ATOM     10  C   UNL A   1      41.714  22.640  28.064  1.00  0.00     0.010 A 
ATOM     11  C   UNL A   1      42.531  22.974  25.808  1.00  0.00     0.010 A 
ATOM     12  C   UNL A   1      42.286  23.481  27.096  1.00  0.00    -0.014 A 
BRANCH  12  13
ATOM     13  C   UNL A   1      42.717  24.856  27.465  1.00  0.00     0.031 A 
ATOM     14  C   UNL A   1      41.762  25.833  28.094  1.00  0.00     0.074 A 
ATOM     15  C   UNL A   1      43.977  25.236  27.177  1.00  0.00     0.049 A 
ATOM     16  N   UNL A   1      41.968  27.079  28.433  1.00  0.00    -0.248 NA
ATOM     17  C   UNL A   1      40.400  25.353  28.377  1.00  0.00     0.031 C 
ATOM     18  C   UNL A   1      44.982  24.391  26.527  1.00  0.00     0.029 A 
ATOM     19  N   UNL A   1      44.622  26.434  27.362  1.00  0.00    -0.354 N 
ATOM     20  C   UNL A   1      40.756  27.550  28.924  1.00  0.00     0.074 A 
ATOM     21  C   UNL A   1      39.819  26.450  28.849  1.00  0.00     0.031 C 
ATOM     22  C   UNL A   1      46.109  25.098  26.356  1.00  0.00     0.029 A 
ATOM     23  C   UNL A   1      45.891  26.460  26.830  1.00  0.00     0.049 A 
ATOM     24  H   UNL A   1      44.215  27.200  27.828  1.00  0.00     0.167 HD
ATOM     25  C   UNL A   1      40.457  28.785  29.393  1.00  0.00     0.034 A 
ATOM     26  C   UNL A   1      46.769  27.473  26.697  1.00  0.00     0.034 A 
ATOM     27  C   UNL A   1      41.402  29.869  29.487  1.00  0.00     0.049 A 
ATOM     28  C   UNL A   1      46.402  28.832  27.224  1.00  0.00     0.074 A 
ATOM     29  C   UNL A   1      41.216  31.123  30.043  1.00  0.00     0.029 A 
ATOM     30  N   UNL A   1      42.694  29.842  28.987  1.00  0.00    -0.354 N 
ATOM     31  N   UNL A   1      45.308  29.209  27.839  1.00  0.00    -0.248 NA
ATOM     32  C   UNL A   1      47.399  29.899  27.062  1.00  0.00     0.031 C 
ATOM     33  C   UNL A   1      42.379  31.871  29.833  1.00  0.00     0.029 A 
ATOM     34  C   UNL A   1      43.305  31.069  29.188  1.00  0.00     0.049 A 
ATOM     35  H   UNL A   1      43.116  29.066  28.553  1.00  0.00     0.167 HD
ATOM     36  C   UNL A   1      45.495  30.549  28.157  1.00  0.00     0.074 A 
ATOM     37  C   UNL A   1      46.818  30.909  27.694  1.00  0.00     0.031 C 
ATOM     38  C   UNL A   1      44.638  31.408  28.762  1.00  0.00     0.034 A 
BRANCH  25  39
ATOM     39  C   UNL A   1      39.049  29.053  29.862  1.00  0.00     0.023 A 
ATOM     40  C   UNL A   1      38.659  28.687  31.165  1.00  0.00     0.012 A 
ATOM     41  C   UNL A   1      38.149  29.769  29.046  1.00  0.00     0.148 A 
ATOM     42  C   UNL A   1      37.388  29.010  31.642  1.00  0.00     0.002 A 
ATOM     43  C   UNL A   1      36.900  30.123  29.543  1.00  0.00     0.091 A 
ATOM     44  F   UNL A   1      38.534  30.095  27.804  1.00  0.00    -0.205 F 
ATOM     45  C   UNL A   1      36.515  29.737  30.837  1.00  0.00     0.022 A 
BRANCH  43  46
ATOM     46  S   UNL A   1      35.734  31.128  28.616  1.00  0.00     0.127 S 
ATOM     47  O   UNL A   1      34.870  31.633  29.683  1.00  0.00    -0.237 OA
ATOM     48  O   UNL A   1      36.609  32.135  28.014  1.00  0.00    -0.237 OA
ATOM     49  O   UNL A   1      35.092  30.231  27.667  1.00  0.00    -0.744 OA
ENDBRANCH  43  46
ENDBRANCH  25  39
BRANCH  26  50
ATOM     50  C   UNL A   1      48.079  27.238  26.029  1.00  0.00     0.023 A 
ATOM     51  C   UNL A   1      49.177  26.784  26.783  1.00  0.00     0.012 A 
ATOM     52  C   UNL A   1      48.236  27.450  24.645  1.00  0.00     0.148 A 
ATOM     53  C   UNL A   1      50.418  26.580  26.177  1.00  0.00     0.002 A 
ATOM     54  C   UNL A   1      49.456  27.185  24.037  1.00  0.00     0.091 A 
ATOM     55  F   UNL A   1      47.182  27.897  23.947  1.00  0.00    -0.205 F 
ATOM     56  C   UNL A   1      50.554  26.770  24.804  1.00  0.00     0.022 A 
BRANCH  54  57
ATOM     57  S   UNL A   1      49.679  27.269  22.257  1.00  0.00     0.127 S 
ATOM     58  O   UNL A   1      51.077  26.870  22.113  1.00  0.00    -0.237 OA
ATOM     59  O   UNL A   1      48.705  26.285  21.784  1.00  0.00    -0.237 OA
ATOM     60  O   UNL A   1      49.369  28.643  21.888  1.00  0.00    -0.744 OA
ENDBRANCH  54  57
ENDBRANCH  26  50
BRANCH  38  61
ATOM     61  C   UNL A   1      45.109  32.820  28.990  1.00  0.00     0.023 A 
ATOM     62  C   UNL A   1      45.864  33.132  30.137  1.00  0.00     0.012 A 
ATOM     63  C   UNL A   1      44.870  33.820  28.025  1.00  0.00     0.148 A 
ATOM     64  C   UNL A   1      46.351  34.424  30.335  1.00  0.00     0.002 A 
ATOM     65  C   UNL A   1      45.403  35.090  28.204  1.00  0.00     0.091 A 
ATOM     66  F   UNL A   1      44.135  33.505  26.948  1.00  0.00    -0.205 F 
ATOM     67  C   UNL A   1      46.132  35.397  29.364  1.00  0.00     0.022 A 
BRANCH  65  68
ATOM     68  S   UNL A   1      45.255  36.384  26.966  1.00  0.00     0.127 S 
ATOM     69  O   UNL A   1      45.879  37.518  27.644  1.00  0.00    -0.237 OA
ATOM     70  O   UNL A   1      46.032  35.834  25.855  1.00  0.00    -0.237 OA
ATOM     71  O   UNL A   1      43.831  36.529  26.700  1.00  0.00    -0.744 OA
ENDBRANCH  65  68
ENDBRANCH  38  61
ENDBRANCH  12  13
ENDBRANCH   5   7
ENDBRANCH   2   3
ENDBRANCH   1   2
BRANCH   1  72
ATOM     72  C   UNL A   1      36.277  20.609  25.052  1.00  0.00     0.118 C 
BRANCH  72  73
ATOM     73  N   UNL A   1      36.169  21.824  24.248  1.00  0.00    -0.352 N 
ATOM     74  C   UNL A   1      35.218  22.831  24.261  1.00  0.00     0.253 C 
ATOM     75  H   UNL A   1      36.890  21.947  23.589  1.00  0.00     0.163 HD
ATOM     76  O   UNL A   1      35.411  23.890  23.675  1.00  0.00    -0.269 OA
BRANCH  74  77
ATOM     77  C   UNL A   1      34.032  22.701  25.103  1.00  0.00     0.071 A 
ATOM     78  C   UNL A   1      34.128  23.456  26.296  1.00  0.00     0.018 A 
ATOM     79  C   UNL A   1      32.836  22.041  24.819  1.00  0.00     0.141 A 
ATOM     80  C   UNL A   1      33.099  23.473  27.224  1.00  0.00     0.021 A 
ATOM     81  N   UNL A   1      31.844  22.039  25.778  1.00  0.00    -0.250 NA
ATOM     82  C   UNL A   1      31.983  22.734  26.926  1.00  0.00     0.112 A 
BRANCH  79  83
ATOM     83  C   UNL A   1      32.275  21.411  23.541  1.00  0.00     0.275 C 
ATOM     84  O   UNL A   1      31.741  22.170  22.714  1.00  0.00    -0.267 OA
ATOM     85  N   UNL A   1      32.432  20.131  23.064  1.00  0.00    -0.321 N 
ATOM     86  H   UNL A   1      32.417  20.085  22.081  1.00  0.00     0.170 HD
BRANCH  85  87
ATOM     87  C   UNL A   1      32.608  18.893  23.659  1.00  0.00     0.042 A 
ATOM     88  C   UNL A   1      32.921  17.819  22.815  1.00  0.00     0.033 A 
ATOM     89  C   UNL A   1      32.496  18.707  25.033  1.00  0.00     0.033 A 
ATOM     90  C   UNL A   1      33.406  16.632  23.359  1.00  0.00     0.088 A 
ATOM     91  C   UNL A   1      32.910  17.493  25.578  1.00  0.00     0.088 A 
ATOM     92  C   UNL A   1      33.470  16.519  24.746  1.00  0.00     0.269 A 
BRANCH  92  93
ATOM     93  N   UNL A   1      34.335  15.510  25.345  1.00  0.00     0.062 N 
ATOM     94  O   UNL A   1      33.875  14.371  25.497  1.00  0.00    -0.258 OA
ATOM     95  O   UNL A   1      35.501  15.859  25.594  1.00  0.00    -0.258 OA
ENDBRANCH  92  93
ENDBRANCH  85  87
ENDBRANCH  79  83
ENDBRANCH  74  77
ENDBRANCH  72  73
ENDBRANCH   1  72
TORSDOF 16
ENDMDL
MODEL 2
REMARK VINA RESULT:     -12.7      5.470      8.929
REMARK SMILES O=C(NCCCNC(=O)c1cccnc1C(=O)Nc1ccc([N+](=O)[O-])cc1)c1ccc(-c2c3nc(c(-c4cccc(S(=O)(=O)[O-])c4F)c4ccc([nH]4)c(-c4cccc(S(=O)(=O)[O-])c4F)c4nc(c(-c5cccc(S(=O)(=O)[O-])c5F)c5ccc2[nH]5)C=C4)C=C3)cc1
REMARK SMILES IDX 5 1 4 2 3 3 1 4 2 5 28 7 29 8 90 9 30 10 89 11 31 12 32 13
REMARK SMILES IDX 33 14 83 15 34 16 88 17 82 18 84 19 35 20 87 21 81 22 80 23
REMARK SMILES IDX 36 25 68 26 48 27 67 28 49 29 52 30 66 31 85 32 50 33 51 34
REMARK SMILES IDX 65 36 86 37 53 38 37 39 38 40 46 41 39 42 41 43 47 44 40 45
REMARK SMILES IDX 42 46 43 47 44 48 45 49 69 50 70 51 78 52 71 53 73 54 79 55
REMARK SMILES IDX 72 56 74 57 75 58 76 59 77 60 54 61 55 62 63 63 56 64 58 65
REMARK SMILES IDX 64 66 57 67 59 68 60 69 61 70 62 71 6 72 7 73 8 74 9 76
REMARK SMILES IDX 10 77 11 78 15 79 12 80 14 81 13 82 16 83 17 84 18 85 19 87
REMARK SMILES IDX 20 88 27 89 21 90 26 91 22 92 23 93 24 94 25 95
REMARK H PARENT 3 6 84 24 52 35 7 75 18 86
REMARK Flexibility Score: inf
ROOT
ATOM      1  C   UNL A   1      33.663  27.853  26.546  1.00  0.00     0.042 C 
ENDROOT
BRANCH   1   2
ATOM      2  C   UNL A   1      34.378  29.135  26.111  1.00  0.00     0.118 C 
BRANCH   2   3
ATOM      3  N   UNL A   1      33.961  30.374  26.737  1.00  0.00    -0.352 N 
ATOM      4  O   UNL A   1      34.031  31.968  28.342  1.00  0.00    -0.269 OA
ATOM      5  C   UNL A   1      34.554  30.996  27.817  1.00  0.00     0.251 C 
ATOM      6  H   UNL A   1      33.172  30.818  26.351  1.00  0.00     0.163 HD
BRANCH   5   7
ATOM      7  C   UNL A   1      35.833  30.457  28.330  1.00  0.00     0.039 A 
ATOM      8  C   UNL A   1      37.027  30.746  27.662  1.00  0.00     0.014 A 
ATOM      9  C   UNL A   1      35.838  29.662  29.478  1.00  0.00     0.014 A 
ATOM     10  C   UNL A   1      38.217  30.163  28.089  1.00  0.00     0.010 A 
ATOM     11  C   UNL A   1      37.043  29.121  29.935  1.00  0.00     0.010 A 
ATOM     12  C   UNL A   1      38.241  29.353  29.236  1.00  0.00    -0.014 A 
BRANCH  12  13
ATOM     13  C   UNL A   1      39.536  28.835  29.755  1.00  0.00     0.031 A 
ATOM     14  C   UNL A   1      40.273  29.538  30.861  1.00  0.00     0.074 A 
ATOM     15  C   UNL A   1      40.070  27.741  29.176  1.00  0.00     0.049 A 
ATOM     16  N   UNL A   1      41.431  29.242  31.393  1.00  0.00    -0.248 NA
ATOM     17  C   UNL A   1      39.635  30.728  31.444  1.00  0.00     0.031 C 
ATOM     18  C   UNL A   1      39.469  26.999  28.066  1.00  0.00     0.029 A 
ATOM     19  N   UNL A   1      41.250  27.081  29.417  1.00  0.00    -0.354 N 
ATOM     20  C   UNL A   1      41.685  30.229  32.337  1.00  0.00     0.074 A 
ATOM     21  C   UNL A   1      40.553  31.131  32.314  1.00  0.00     0.031 C 
ATOM     22  C   UNL A   1      40.286  25.996  27.713  1.00  0.00     0.029 A 
ATOM     23  C   UNL A   1      41.492  26.056  28.530  1.00  0.00     0.049 A 
ATOM     24  H   UNL A   1      41.862  27.317  30.150  1.00  0.00     0.167 HD
ATOM     25  C   UNL A   1      42.762  30.366  33.147  1.00  0.00     0.034 A 
ATOM     26  C   UNL A   1      42.578  25.278  28.361  1.00  0.00     0.034 A 
ATOM     27  C   UNL A   1      43.874  29.451  33.181  1.00  0.00     0.049 A 
ATOM     28  C   UNL A   1      43.758  25.461  29.274  1.00  0.00     0.074 A 
ATOM     29  C   UNL A   1      44.961  29.453  34.039  1.00  0.00     0.029 A 
ATOM     30  N   UNL A   1      44.060  28.393  32.305  1.00  0.00    -0.354 N 
ATOM     31  N   UNL A   1      43.904  26.295  30.274  1.00  0.00    -0.248 NA
ATOM     32  C   UNL A   1      44.913  24.580  29.052  1.00  0.00     0.031 C 
ATOM     33  C   UNL A   1      45.829  28.428  33.649  1.00  0.00     0.029 A 
ATOM     34  C   UNL A   1      45.262  27.760  32.577  1.00  0.00     0.049 A 
ATOM     35  H   UNL A   1      43.432  28.132  31.594  1.00  0.00     0.167 HD
ATOM     36  C   UNL A   1      45.156  26.025  30.814  1.00  0.00     0.074 A 
ATOM     37  C   UNL A   1      45.713  24.929  30.050  1.00  0.00     0.031 C 
ATOM     38  C   UNL A   1      45.792  26.642  31.840  1.00  0.00     0.034 A 
BRANCH  25  39
ATOM     39  C   UNL A   1      42.808  31.545  34.086  1.00  0.00     0.023 A 
ATOM     40  C   UNL A   1      43.319  32.780  33.643  1.00  0.00     0.012 A 
ATOM     41  C   UNL A   1      42.237  31.454  35.373  1.00  0.00     0.148 A 
ATOM     42  C   UNL A   1      43.284  33.901  34.472  1.00  0.00     0.002 A 
ATOM     43  C   UNL A   1      42.168  32.586  36.177  1.00  0.00     0.091 A 
ATOM     44  F   UNL A   1      41.769  30.267  35.782  1.00  0.00    -0.205 F 
ATOM     45  C   UNL A   1      42.698  33.808  35.732  1.00  0.00     0.022 A 
BRANCH  43  46
ATOM     46  S   UNL A   1      41.362  32.589  37.783  1.00  0.00     0.127 S 
ATOM     47  O   UNL A   1      41.506  33.990  38.180  1.00  0.00    -0.237 OA
ATOM     48  O   UNL A   1      39.996  32.191  37.440  1.00  0.00    -0.237 OA
ATOM     49  O   UNL A   1      42.089  31.632  38.603  1.00  0.00    -0.744 OA
ENDBRANCH  43  46
ENDBRANCH  25  39
BRANCH  26  50
ATOM     50  C   UNL A   1      42.600  24.257  27.276  1.00  0.00     0.023 A 
ATOM     51  C   UNL A   1      43.226  24.553  26.050  1.00  0.00     0.012 A 
ATOM     52  C   UNL A   1      42.015  22.989  27.461  1.00  0.00     0.148 A 
ATOM     53  C   UNL A   1      43.236  23.617  25.016  1.00  0.00     0.002 A 
ATOM     54  C   UNL A   1      42.083  22.040  26.450  1.00  0.00     0.091 A 
ATOM     55  F   UNL A   1      41.409  22.732  28.630  1.00  0.00    -0.205 F 
ATOM     56  C   UNL A   1      42.676  22.358  25.219  1.00  0.00     0.022 A 
BRANCH  54  57
ATOM     57  S   UNL A   1      41.511  20.353  26.677  1.00  0.00     0.127 S 
ATOM     58  O   UNL A   1      41.927  19.727  25.425  1.00  0.00    -0.237 OA
ATOM     59  O   UNL A   1      42.268  19.934  27.858  1.00  0.00    -0.237 OA
ATOM     60  O   UNL A   1      40.075  20.452  26.892  1.00  0.00    -0.744 OA
ENDBRANCH  54  57
ENDBRANCH  26  50
BRANCH  38  61
ATOM     61  C   UNL A   1      47.156  26.133  32.223  1.00  0.00     0.023 A 
ATOM     62  C   UNL A   1      48.305  26.681  31.621  1.00  0.00     0.012 A 
ATOM     63  C   UNL A   1      47.301  25.168  33.240  1.00  0.00     0.148 A 
ATOM     64  C   UNL A   1      49.577  26.257  32.003  1.00  0.00     0.002 A 
ATOM     65  C   UNL A   1      48.573  24.788  33.652  1.00  0.00     0.091 A 
ATOM     66  F   UNL A   1      46.194  24.647  33.789  1.00  0.00    -0.205 F 
ATOM     67  C   UNL A   1      49.711  25.321  33.026  1.00  0.00     0.022 A 
BRANCH  65  68
ATOM     68  S   UNL A   1      48.848  23.662  35.025  1.00  0.00     0.127 S 
ATOM     69  O   UNL A   1      47.942  24.200  36.038  1.00  0.00    -0.237 OA
ATOM     70  O   UNL A   1      48.436  22.379  34.456  1.00  0.00    -0.237 OA
ATOM     71  O   UNL A   1      50.265  23.757  35.348  1.00  0.00    -0.744 OA
ENDBRANCH  65  68
ENDBRANCH  38  61
ENDBRANCH  12  13
ENDBRANCH   5   7
ENDBRANCH   2   3
ENDBRANCH   1   2
BRANCH   1  72
ATOM     72  C   UNL A   1      33.703  26.628  25.638  1.00  0.00     0.118 C 
BRANCH  72  73
ATOM     73  N   UNL A   1      33.085  25.411  26.159  1.00  0.00    -0.352 N 
ATOM     74  C   UNL A   1      33.355  24.079  25.894  1.00  0.00     0.253 C 
ATOM     75  H   UNL A   1      32.357  25.564  26.804  1.00  0.00     0.163 HD
ATOM     76  O   UNL A   1      32.890  23.188  26.597  1.00  0.00    -0.269 OA
BRANCH  74  77
ATOM     77  C   UNL A   1      34.324  23.725  24.860  1.00  0.00     0.071 A 
ATOM     78  C   UNL A   1      35.624  23.520  25.382  1.00  0.00     0.018 A 
ATOM     79  C   UNL A   1      34.094  23.469  23.509  1.00  0.00     0.141 A 
ATOM     80  C   UNL A   1      36.682  23.166  24.562  1.00  0.00     0.021 A 
ATOM     81  N   UNL A   1      35.173  23.159  22.706  1.00  0.00    -0.250 NA
ATOM     82  C   UNL A   1      36.409  23.013  23.227  1.00  0.00     0.112 A 
BRANCH  79  83
ATOM     83  C   UNL A   1      32.813  23.287  22.689  1.00  0.00     0.275 C 
ATOM     84  O   UNL A   1      32.709  22.251  22.010  1.00  0.00    -0.267 OA
ATOM     85  N   UNL A   1      31.650  24.018  22.725  1.00  0.00    -0.321 N 
ATOM     86  H   UNL A   1      30.853  23.481  22.509  1.00  0.00     0.170 HD
BRANCH  85  87
ATOM     87  C   UNL A   1      31.348  25.341  22.998  1.00  0.00     0.042 A 
ATOM     88  C   UNL A   1      32.116  26.318  22.349  1.00  0.00     0.033 A 
ATOM     89  C   UNL A   1      30.324  25.705  23.866  1.00  0.00     0.033 A 
ATOM     90  C   UNL A   1      31.681  27.642  22.335  1.00  0.00     0.088 A 
ATOM     91  C   UNL A   1      29.931  27.041  23.913  1.00  0.00     0.088 A 
ATOM     92  C   UNL A   1      30.536  27.968  23.059  1.00  0.00     0.269 A 
BRANCH  92  93
ATOM     93  N   UNL A   1      29.816  29.197  22.746  1.00  0.00     0.062 N 
ATOM     94  O   UNL A   1      29.676  30.030  23.650  1.00  0.00    -0.258 OA
ATOM     95  O   UNL A   1      29.456  29.341  21.567  1.00  0.00    -0.258 OA
ENDBRANCH  92  93
ENDBRANCH  85  87
ENDBRANCH  79  83
ENDBRANCH  74  77
ENDBRANCH  72  73
ENDBRANCH   1  72
TORSDOF 16
ENDMDL
MODEL 3
REMARK VINA RESULT:     -12.6      5.731     10.548
REMARK SMILES O=C(NCCCNC(=O)c1cccnc1C(=O)Nc1ccc([N+](=O)[O-])cc1)c1ccc(-c2c3nc(c(-c4cccc(S(=O)(=O)[O-])c4F)c4ccc([nH]4)c(-c4cccc(S(=O)(=O)[O-])c4F)c4nc(c(-c5cccc(S(=O)(=O)[O-])c5F)c5ccc2[nH]5)C=C4)C=C3)cc1
REMARK SMILES IDX 5 1 4 2 3 3 1 4 2 5 28 7 29 8 90 9 30 10 89 11 31 12 32 13
REMARK SMILES IDX 33 14 83 15 34 16 88 17 82 18 84 19 35 20 87 21 81 22 80 23
REMARK SMILES IDX 36 25 68 26 48 27 67 28 49 29 52 30 66 31 85 32 50 33 51 34
REMARK SMILES IDX 65 36 86 37 53 38 37 39 38 40 46 41 39 42 41 43 47 44 40 45
REMARK SMILES IDX 42 46 43 47 44 48 45 49 69 50 70 51 78 52 71 53 73 54 79 55
REMARK SMILES IDX 72 56 74 57 75 58 76 59 77 60 54 61 55 62 63 63 56 64 58 65
REMARK SMILES IDX 64 66 57 67 59 68 60 69 61 70 62 71 6 72 7 73 8 74 9 76
REMARK SMILES IDX 10 77 11 78 15 79 12 80 14 81 13 82 16 83 17 84 18 85 19 87
REMARK SMILES IDX 20 88 27 89 21 90 26 91 22 92 23 93 24 94 25 95
REMARK H PARENT 3 6 84 24 52 35 7 75 18 86
REMARK Flexibility Score: inf
ROOT
ATOM      1  C   UNL A   1      32.617  27.909  25.315  1.00  0.00     0.042 C 
ENDROOT
BRANCH   1   2
ATOM      2  C   UNL A   1      33.394  29.228  25.310  1.00  0.00     0.118 C 
BRANCH   2   3
ATOM      3  N   UNL A   1      32.699  30.411  25.777  1.00  0.00    -0.352 N 
ATOM      4  O   UNL A   1      32.302  32.096  27.235  1.00  0.00    -0.269 OA
ATOM      5  C   UNL A   1      33.042  31.201  26.856  1.00  0.00     0.251 C 
ATOM      6  H   UNL A   1      31.898  30.679  25.271  1.00  0.00     0.163 HD
BRANCH   5   7
ATOM      7  C   UNL A   1      34.323  30.936  27.548  1.00  0.00     0.039 A 
ATOM      8  C   UNL A   1      34.561  29.681  28.116  1.00  0.00     0.014 A 
ATOM      9  C   UNL A   1      35.286  31.945  27.629  1.00  0.00     0.014 A 
ATOM     10  C   UNL A   1      35.725  29.462  28.847  1.00  0.00     0.010 A 
ATOM     11  C   UNL A   1      36.478  31.704  28.319  1.00  0.00     0.010 A 
ATOM     12  C   UNL A   1      36.702  30.467  28.948  1.00  0.00    -0.014 A 
BRANCH  12  13
ATOM     13  C   UNL A   1      37.994  30.182  29.627  1.00  0.00     0.031 A 
ATOM     14  C   UNL A   1      39.009  29.253  29.020  1.00  0.00     0.074 A 
ATOM     15  C   UNL A   1      38.223  30.736  30.834  1.00  0.00     0.049 A 
ATOM     16  N   UNL A   1      40.161  28.866  29.505  1.00  0.00    -0.248 NA
ATOM     17  C   UNL A   1      38.692  28.680  27.702  1.00  0.00     0.031 C 
ATOM     18  C   UNL A   1      37.295  31.618  31.544  1.00  0.00     0.029 A 
ATOM     19  N   UNL A   1      39.289  30.617  31.692  1.00  0.00    -0.354 N 
ATOM     20  C   UNL A   1      40.687  27.971  28.582  1.00  0.00     0.074 A 
ATOM     21  C   UNL A   1      39.731  27.879  27.498  1.00  0.00     0.031 C 
ATOM     22  C   UNL A   1      37.823  31.950  32.732  1.00  0.00     0.029 A 
ATOM     23  C   UNL A   1      39.098  31.262  32.893  1.00  0.00     0.049 A 
ATOM     24  H   UNL A   1      40.109  30.118  31.470  1.00  0.00     0.167 HD
ATOM     25  C   UNL A   1      41.858  27.292  28.634  1.00  0.00     0.034 A 
ATOM     26  C   UNL A   1      39.841  31.267  34.016  1.00  0.00     0.034 A 
ATOM     27  C   UNL A   1      42.815  27.408  29.705  1.00  0.00     0.049 A 
ATOM     28  C   UNL A   1      41.133  30.499  34.042  1.00  0.00     0.074 A 
ATOM     29  C   UNL A   1      44.074  26.837  29.796  1.00  0.00     0.029 A 
ATOM     30  N   UNL A   1      42.612  28.113  30.880  1.00  0.00    -0.354 N 
ATOM     31  N   UNL A   1      41.691  29.794  33.089  1.00  0.00    -0.248 NA
ATOM     32  C   UNL A   1      41.909  30.546  35.289  1.00  0.00     0.031 C 
ATOM     33  C   UNL A   1      44.609  27.155  31.048  1.00  0.00     0.029 A 
ATOM     34  C   UNL A   1      43.704  27.961  31.718  1.00  0.00     0.049 A 
ATOM     35  H   UNL A   1      41.809  28.642  31.090  1.00  0.00     0.167 HD
ATOM     36  C   UNL A   1      42.893  29.333  33.613  1.00  0.00     0.074 A 
ATOM     37  C   UNL A   1      42.996  29.864  34.955  1.00  0.00     0.031 C 
ATOM     38  C   UNL A   1      43.819  28.527  33.037  1.00  0.00     0.034 A 
BRANCH  25  39
ATOM     39  C   UNL A   1      42.199  26.360  27.499  1.00  0.00     0.023 A 
ATOM     40  C   UNL A   1      43.037  26.798  26.456  1.00  0.00     0.012 A 
ATOM     41  C   UNL A   1      41.777  25.014  27.529  1.00  0.00     0.148 A 
ATOM     42  C   UNL A   1      43.433  25.919  25.447  1.00  0.00     0.002 A 
ATOM     43  C   UNL A   1      42.209  24.135  26.544  1.00  0.00     0.091 A 
ATOM     44  F   UNL A   1      40.968  24.621  28.523  1.00  0.00    -0.205 F 
ATOM     45  C   UNL A   1      43.030  24.587  25.498  1.00  0.00     0.022 A 
BRANCH  43  46
ATOM     46  S   UNL A   1      41.813  22.382  26.564  1.00  0.00     0.127 S 
ATOM     47  O   UNL A   1      42.468  21.920  25.341  1.00  0.00    -0.237 OA
ATOM     48  O   UNL A   1      42.454  21.938  27.802  1.00  0.00    -0.237 OA
ATOM     49  O   UNL A   1      40.360  22.296  26.564  1.00  0.00    -0.744 OA
ENDBRANCH  43  46
ENDBRANCH  25  39
BRANCH  26  50
ATOM     50  C   UNL A   1      39.375  32.023  35.212  1.00  0.00     0.023 A 
ATOM     51  C   UNL A   1      38.530  31.398  36.149  1.00  0.00     0.012 A 
ATOM     52  C   UNL A   1      39.778  33.355  35.431  1.00  0.00     0.148 A 
ATOM     53  C   UNL A   1      38.067  32.098  37.264  1.00  0.00     0.002 A 
ATOM     54  C   UNL A   1      39.364  34.026  36.574  1.00  0.00     0.091 A 
ATOM     55  F   UNL A   1      40.570  33.938  34.519  1.00  0.00    -0.205 F 
ATOM     56  C   UNL A   1      38.492  33.406  37.482  1.00  0.00     0.022 A 
BRANCH  54  57
ATOM     57  S   UNL A   1      39.974  35.659  37.002  1.00  0.00     0.127 S 
ATOM     58  O   UNL A   1      39.261  35.926  38.249  1.00  0.00    -0.237 OA
ATOM     59  O   UNL A   1      41.409  35.417  37.151  1.00  0.00    -0.237 OA
ATOM     60  O   UNL A   1      39.626  36.515  35.876  1.00  0.00    -0.744 OA
ENDBRANCH  54  57
ENDBRANCH  26  50
BRANCH  38  61
ATOM     61  C   UNL A   1      45.046  28.187  33.841  1.00  0.00     0.023 A 
ATOM     62  C   UNL A   1      46.170  29.036  33.801  1.00  0.00     0.012 A 
ATOM     63  C   UNL A   1      45.053  27.069  34.700  1.00  0.00     0.148 A 
ATOM     64  C   UNL A   1      47.293  28.762  34.580  1.00  0.00     0.002 A 
ATOM     65  C   UNL A   1      46.155  26.832  35.512  1.00  0.00     0.091 A 
ATOM     66  F   UNL A   1      43.980  26.266  34.711  1.00  0.00    -0.205 F 
ATOM     67  C   UNL A   1      47.281  27.669  35.444  1.00  0.00     0.022 A 
BRANCH  65  68
ATOM     68  S   UNL A   1      46.196  25.507  36.725  1.00  0.00     0.127 S 
ATOM     69  O   UNL A   1      45.023  25.814  37.541  1.00  0.00    -0.237 OA
ATOM     70  O   UNL A   1      46.061  24.318  35.884  1.00  0.00    -0.237 OA
ATOM     71  O   UNL A   1      47.475  25.625  37.411  1.00  0.00    -0.744 OA
ENDBRANCH  65  68
ENDBRANCH  38  61
ENDBRANCH  12  13
ENDBRANCH   5   7
ENDBRANCH   2   3
ENDBRANCH   1   2
BRANCH   1  72
ATOM     72  C   UNL A   1      32.986  26.825  26.323  1.00  0.00     0.118 C 
BRANCH  72  73
ATOM     73  N   UNL A   1      31.936  25.868  26.664  1.00  0.00    -0.352 N 
ATOM     74  C   UNL A   1      31.892  24.491  26.523  1.00  0.00     0.253 C 
ATOM     75  H   UNL A   1      31.128  26.269  27.059  1.00  0.00     0.163 HD
ATOM     76  O   UNL A   1      31.022  23.828  27.076  1.00  0.00    -0.269 OA
BRANCH  74  77
ATOM     77  C   UNL A   1      32.976  23.795  25.835  1.00  0.00     0.071 A 
ATOM     78  C   UNL A   1      34.094  23.568  26.674  1.00  0.00     0.018 A 
ATOM     79  C   UNL A   1      32.981  23.260  24.548  1.00  0.00     0.141 A 
ATOM     80  C   UNL A   1      35.221  22.911  26.209  1.00  0.00     0.021 A 
ATOM     81  N   UNL A   1      34.133  22.647  24.096  1.00  0.00    -0.250 NA
ATOM     82  C   UNL A   1      35.198  22.484  24.906  1.00  0.00     0.112 A 
BRANCH  79  83
ATOM     83  C   UNL A   1      31.877  23.041  23.508  1.00  0.00     0.275 C 
ATOM     84  O   UNL A   1      31.808  21.922  22.971  1.00  0.00    -0.267 OA
ATOM     85  N   UNL A   1      30.808  23.848  23.198  1.00  0.00    -0.321 N 
ATOM     86  H   UNL A   1      30.021  23.339  22.894  1.00  0.00     0.170 HD
BRANCH  85  87
ATOM     87  C   UNL A   1      30.590  25.215  23.217  1.00  0.00     0.042 A 
ATOM     88  C   UNL A   1      31.420  26.005  22.409  1.00  0.00     0.033 A 
ATOM     89  C   UNL A   1      29.590  25.796  23.989  1.00  0.00     0.033 A 
ATOM     90  C   UNL A   1      31.070  27.327  22.144  1.00  0.00     0.088 A 
ATOM     91  C   UNL A   1      29.283  27.139  23.783  1.00  0.00     0.088 A 
ATOM     92  C   UNL A   1      29.947  27.852  22.780  1.00  0.00     0.269 A 
BRANCH  92  93
ATOM     93  N   UNL A   1      29.307  29.044  22.236  1.00  0.00     0.062 N 
ATOM     94  O   UNL A   1      29.968  29.757  21.470  1.00  0.00    -0.258 OA
ATOM     95  O   UNL A   1      28.113  29.215  22.534  1.00  0.00    -0.258 OA
ENDBRANCH  92  93
ENDBRANCH  85  87
ENDBRANCH  79  83
ENDBRANCH  74  77
ENDBRANCH  72  73
ENDBRANCH   1  72
TORSDOF 16
ENDMDL
