MODEL 1
REMARK VINA RESULT:     -11.6      0.000      0.000
REMARK SMILES N#C[C@@H]1CN(C(=O)N[C@@H](Cc2cnc[nH]2)C(=O)NCCCNC(=O)c2ccc(-c3c4nc(c(-c5cccc(S(=O)(=O)[O-])c5F)c5ccc([nH]5)c(-c5cccc(S(=O)(=O)[O-])c5F)c5nc(c(-c6cccc(S(=O)(=O)[O-])c6F)c6ccc3[nH]6)C=C5)C=C4)cc2)CCO1
REMARK SMILES IDX 20 1 19 2 18 3 16 4 17 5 9 7 8 8 6 9 7 10 5 12 3 13 4 14
REMARK SMILES IDX 90 15 89 16 88 17 2 18 1 19 10 20 11 21 12 22 15 23 13 24
REMARK SMILES IDX 14 25 21 27 22 28 23 29 24 31 25 32 26 33 87 34 27 35 86 36
REMARK SMILES IDX 28 37 29 38 30 39 80 40 31 41 85 42 79 43 81 44 32 45 84 46
REMARK SMILES IDX 78 47 77 48 33 50 65 51 45 52 64 53 46 54 49 55 63 56 82 57
REMARK SMILES IDX 47 58 48 59 62 61 83 62 50 63 34 64 35 65 43 66 36 67 38 68
REMARK SMILES IDX 44 69 37 70 39 71 40 72 41 73 42 74 66 75 67 76 75 77 68 78
REMARK SMILES IDX 70 79 76 80 69 81 71 82 72 83 73 84 74 85 51 86 52 87 60 88
REMARK SMILES IDX 53 89 55 90 61 91 54 92 56 93 57 94 58 95 59 96
REMARK H PARENT 18 6 8 11 15 26 22 30 81 49 49 60
REMARK Flexibility Score: inf
ROOT
ATOM      1  C   UNL A   1      31.697  29.009  26.448  1.00  0.00     0.042 C 
ENDROOT
BRANCH   1   2
ATOM      2  C   UNL A   1      32.012  27.558  26.177  1.00  0.00     0.117 C 
BRANCH   2   3
ATOM      3  N   UNL A   1      31.054  26.633  26.735  1.00  0.00    -0.354 N 
ATOM      4  C   UNL A   1      30.306  25.711  26.081  1.00  0.00     0.243 C 
ATOM      5  O   UNL A   1      29.800  24.801  26.750  1.00  0.00    -0.273 OA
ATOM      6  H   UNL A   1      30.930  26.678  27.711  1.00  0.00     0.163 HD
BRANCH   4   7
ATOM      7  C   UNL A   1      30.129  25.721  24.554  1.00  0.00     0.179 C 
BRANCH   7   8
ATOM      8  N   UNL A   1      30.441  24.459  23.881  1.00  0.00    -0.326 N 
ATOM      9  C   UNL A   1      31.503  23.663  23.693  1.00  0.00     0.318 C 
ATOM     10  O   UNL A   1      31.277  22.662  23.008  1.00  0.00    -0.249 OA
ATOM     11  H   UNL A   1      29.643  24.089  23.440  1.00  0.00     0.166 HD
BRANCH   9  12
ATOM     12  N   UNL A   1      32.744  23.901  24.194  1.00  0.00    -0.319 N 
ATOM     13  C   UNL A   1      34.247  22.489  25.486  1.00  0.00     0.240 C 
ATOM     14  C   UNL A   1      33.288  23.659  25.518  1.00  0.00     0.169 C 
ATOM     15  O   UNL A   1      35.392  22.965  24.692  1.00  0.00    -0.360 OA
ATOM     16  C   UNL A   1      34.998  23.275  23.329  1.00  0.00     0.183 C 
ATOM     17  C   UNL A   1      33.822  24.273  23.255  1.00  0.00     0.150 C 
BRANCH  13  18
ATOM     18  C   UNL A   1      33.818  21.147  24.916  1.00  0.00     0.096 C 
ATOM     19  N   UNL A   1      33.462  20.034  24.443  1.00  0.00    -0.195 NA
ENDBRANCH  13  18
ENDBRANCH   9  12
ENDBRANCH   7   8
BRANCH   7  20
ATOM     20  C   UNL A   1      28.916  26.475  23.986  1.00  0.00     0.090 C 
BRANCH  20  21
ATOM     21  C   UNL A   1      29.174  27.702  23.189  1.00  0.00     0.037 A 
ATOM     22  C   UNL A   1      30.303  28.197  22.568  1.00  0.00     0.134 A 
ATOM     23  N   UNL A   1      28.209  28.656  22.960  1.00  0.00    -0.348 N 
ATOM     24  N   UNL A   1      30.021  29.369  21.916  1.00  0.00    -0.245 NA
ATOM     25  C   UNL A   1      28.760  29.621  22.168  1.00  0.00     0.196 A 
ATOM     26  H   UNL A   1      27.288  28.644  23.305  1.00  0.00     0.167 HD
ENDBRANCH  20  21
ENDBRANCH   7  20
ENDBRANCH   4   7
ENDBRANCH   2   3
ENDBRANCH   1   2
BRANCH   1  27
ATOM     27  C   UNL A   1      32.733  29.960  25.881  1.00  0.00     0.118 C 
BRANCH  27  28
ATOM     28  N   UNL A   1      32.578  31.331  26.363  1.00  0.00    -0.352 N 
ATOM     29  C   UNL A   1      33.304  32.041  27.292  1.00  0.00     0.251 C 
ATOM     30  H   UNL A   1      31.833  31.830  25.955  1.00  0.00     0.163 HD
ATOM     31  O   UNL A   1      32.893  33.132  27.682  1.00  0.00    -0.269 OA
BRANCH  29  32
ATOM     32  C   UNL A   1      34.559  31.478  27.831  1.00  0.00     0.039 A 
ATOM     33  C   UNL A   1      35.691  32.288  27.953  1.00  0.00     0.014 A 
ATOM     34  C   UNL A   1      34.606  30.148  28.244  1.00  0.00     0.014 A 
ATOM     35  C   UNL A   1      36.836  31.786  28.579  1.00  0.00     0.010 A 
ATOM     36  C   UNL A   1      35.684  29.700  28.990  1.00  0.00     0.010 A 
ATOM     37  C   UNL A   1      36.822  30.502  29.149  1.00  0.00    -0.014 A 
BRANCH  37  38
ATOM     38  C   UNL A   1      37.977  29.941  29.897  1.00  0.00     0.031 A 
ATOM     39  C   UNL A   1      38.235  30.406  31.309  1.00  0.00     0.074 A 
ATOM     40  C   UNL A   1      38.861  29.137  29.275  1.00  0.00     0.049 A 
ATOM     41  N   UNL A   1      39.274  30.192  32.073  1.00  0.00    -0.248 NA
ATOM     42  C   UNL A   1      37.213  31.273  31.924  1.00  0.00     0.031 C 
ATOM     43  C   UNL A   1      38.771  28.688  27.884  1.00  0.00     0.029 A 
ATOM     44  N   UNL A   1      40.036  28.586  29.723  1.00  0.00    -0.354 N 
ATOM     45  C   UNL A   1      39.060  30.946  33.221  1.00  0.00     0.074 A 
ATOM     46  C   UNL A   1      37.816  31.657  33.037  1.00  0.00     0.031 C 
ATOM     47  C   UNL A   1      39.838  27.925  27.595  1.00  0.00     0.029 A 
ATOM     48  C   UNL A   1      40.708  27.863  28.765  1.00  0.00     0.049 A 
ATOM     49  H   UNL A   1      40.366  28.697  30.644  1.00  0.00     0.167 HD
ATOM     50  C   UNL A   1      39.811  31.014  34.345  1.00  0.00     0.034 A 
ATOM     51  C   UNL A   1      41.897  27.229  28.821  1.00  0.00     0.034 A 
ATOM     52  C   UNL A   1      41.000  30.236  34.555  1.00  0.00     0.049 A 
ATOM     53  C   UNL A   1      42.673  27.253  30.110  1.00  0.00     0.074 A 
ATOM     54  C   UNL A   1      41.774  30.141  35.696  1.00  0.00     0.029 A 
ATOM     55  N   UNL A   1      41.580  29.413  33.603  1.00  0.00    -0.354 N 
ATOM     56  N   UNL A   1      42.378  27.852  31.239  1.00  0.00    -0.248 NA
ATOM     57  C   UNL A   1      43.928  26.489  30.147  1.00  0.00     0.031 C 
ATOM     58  C   UNL A   1      42.832  29.265  35.430  1.00  0.00     0.029 A 
ATOM     59  C   UNL A   1      42.703  28.802  34.130  1.00  0.00     0.049 A 
ATOM     60  H   UNL A   1      41.243  29.282  32.687  1.00  0.00     0.167 HD
ATOM     61  C   UNL A   1      43.385  27.501  32.132  1.00  0.00     0.074 A 
ATOM     62  C   UNL A   1      44.292  26.629  31.415  1.00  0.00     0.031 C 
ATOM     63  C   UNL A   1      43.553  27.880  33.422  1.00  0.00     0.034 A 
BRANCH  50  64
ATOM     64  C   UNL A   1      39.327  31.905  35.459  1.00  0.00     0.023 A 
ATOM     65  C   UNL A   1      38.416  31.398  36.409  1.00  0.00     0.012 A 
ATOM     66  C   UNL A   1      39.801  33.224  35.594  1.00  0.00     0.148 A 
ATOM     67  C   UNL A   1      37.952  32.200  37.450  1.00  0.00     0.002 A 
ATOM     68  C   UNL A   1      39.371  34.003  36.663  1.00  0.00     0.091 A 
ATOM     69  F   UNL A   1      40.650  33.698  34.672  1.00  0.00    -0.205 F 
ATOM     70  C   UNL A   1      38.436  33.498  37.583  1.00  0.00     0.022 A 
BRANCH  68  71
ATOM     71  S   UNL A   1      39.999  35.657  36.971  1.00  0.00     0.127 S 
ATOM     72  O   UNL A   1      39.280  36.024  38.190  1.00  0.00    -0.237 OA
ATOM     73  O   UNL A   1      41.430  35.414  37.158  1.00  0.00    -0.237 OA
ATOM     74  O   UNL A   1      39.668  36.438  35.788  1.00  0.00    -0.744 OA
ENDBRANCH  68  71
ENDBRANCH  50  64
BRANCH  51  75
ATOM     75  C   UNL A   1      42.383  26.451  27.646  1.00  0.00     0.023 A 
ATOM     76  C   UNL A   1      43.244  27.075  26.721  1.00  0.00     0.012 A 
ATOM     77  C   UNL A   1      42.031  25.102  27.453  1.00  0.00     0.148 A 
ATOM     78  C   UNL A   1      43.721  26.381  25.609  1.00  0.00     0.002 A 
ATOM     79  C   UNL A   1      42.550  24.400  26.369  1.00  0.00     0.091 A 
ATOM     80  F   UNL A   1      41.205  24.528  28.338  1.00  0.00    -0.205 F 
ATOM     81  C   UNL A   1      43.382  25.041  25.438  1.00  0.00     0.022 A 
BRANCH  79  82
ATOM     82  S   UNL A   1      42.269  22.641  26.133  1.00  0.00     0.127 S 
ATOM     83  O   UNL A   1      42.909  22.407  24.842  1.00  0.00    -0.237 OA
ATOM     84  O   UNL A   1      42.970  22.066  27.282  1.00  0.00    -0.237 OA
ATOM     85  O   UNL A   1      40.823  22.469  26.165  1.00  0.00    -0.744 OA
ENDBRANCH  79  82
ENDBRANCH  51  75
BRANCH  63  86
ATOM     86  C   UNL A   1      44.729  27.317  34.174  1.00  0.00     0.023 A 
ATOM     87  C   UNL A   1      45.953  28.012  34.179  1.00  0.00     0.012 A 
ATOM     88  C   UNL A   1      44.583  26.158  34.961  1.00  0.00     0.148 A 
ATOM     89  C   UNL A   1      47.024  27.548  34.942  1.00  0.00     0.002 A 
ATOM     90  C   UNL A   1      45.639  25.729  35.755  1.00  0.00     0.091 A 
ATOM     91  F   UNL A   1      43.412  25.504  34.926  1.00  0.00    -0.205 F 
ATOM     92  C   UNL A   1      46.863  26.417  35.739  1.00  0.00     0.022 A 
BRANCH  90  93
ATOM     93  S   UNL A   1      45.490  24.344  36.888  1.00  0.00     0.127 S 
ATOM     94  O   UNL A   1      44.427  24.802  37.781  1.00  0.00    -0.237 OA
ATOM     95  O   UNL A   1      45.107  23.251  35.994  1.00  0.00    -0.237 OA
ATOM     96  O   UNL A   1      46.800  24.186  37.506  1.00  0.00    -0.744 OA
ENDBRANCH  90  93
ENDBRANCH  63  86
ENDBRANCH  37  38
ENDBRANCH  29  32
ENDBRANCH  27  28
ENDBRANCH   1  27
TORSDOF 18
ENDMDL
MODEL 2
REMARK VINA RESULT:     -11.4      1.534      7.627
REMARK SMILES N#C[C@@H]1CN(C(=O)N[C@@H](Cc2cnc[nH]2)C(=O)NCCCNC(=O)c2ccc(-c3c4nc(c(-c5cccc(S(=O)(=O)[O-])c5F)c5ccc([nH]5)c(-c5cccc(S(=O)(=O)[O-])c5F)c5nc(c(-c6cccc(S(=O)(=O)[O-])c6F)c6ccc3[nH]6)C=C5)C=C4)cc2)CCO1
REMARK SMILES IDX 20 1 19 2 18 3 16 4 17 5 9 7 8 8 6 9 7 10 5 12 3 13 4 14
REMARK SMILES IDX 90 15 89 16 88 17 2 18 1 19 10 20 11 21 12 22 15 23 13 24
REMARK SMILES IDX 14 25 21 27 22 28 23 29 24 31 25 32 26 33 87 34 27 35 86 36
REMARK SMILES IDX 28 37 29 38 30 39 80 40 31 41 85 42 79 43 81 44 32 45 84 46
REMARK SMILES IDX 78 47 77 48 33 50 65 51 45 52 64 53 46 54 49 55 63 56 82 57
REMARK SMILES IDX 47 58 48 59 62 61 83 62 50 63 34 64 35 65 43 66 36 67 38 68
REMARK SMILES IDX 44 69 37 70 39 71 40 72 41 73 42 74 66 75 67 76 75 77 68 78
REMARK SMILES IDX 70 79 76 80 69 81 71 82 72 83 73 84 74 85 51 86 52 87 60 88
REMARK SMILES IDX 53 89 55 90 61 91 54 92 56 93 57 94 58 95 59 96
REMARK H PARENT 18 6 8 11 15 26 22 30 81 49 49 60
REMARK Flexibility Score: inf
ROOT
ATOM      1  C   UNL A   1      32.393  28.631  25.733  1.00  0.00     0.042 C 
ENDROOT
BRANCH   1   2
ATOM      2  C   UNL A   1      32.454  27.134  25.913  1.00  0.00     0.117 C 
BRANCH   2   3
ATOM      3  N   UNL A   1      31.280  26.568  26.536  1.00  0.00    -0.354 N 
ATOM      4  C   UNL A   1      30.266  25.890  25.945  1.00  0.00     0.243 C 
ATOM      5  O   UNL A   1      29.531  25.205  26.668  1.00  0.00    -0.273 OA
ATOM      6  H   UNL A   1      31.209  26.688  27.511  1.00  0.00     0.163 HD
BRANCH   4   7
ATOM      7  C   UNL A   1      30.047  25.892  24.423  1.00  0.00     0.179 C 
BRANCH   7   8
ATOM      8  N   UNL A   1      30.277  24.608  23.758  1.00  0.00    -0.326 N 
ATOM      9  C   UNL A   1      31.172  23.610  23.794  1.00  0.00     0.318 C 
ATOM     10  O   UNL A   1      30.951  22.695  22.997  1.00  0.00    -0.249 OA
ATOM     11  H   UNL A   1      29.574  24.424  23.095  1.00  0.00     0.166 HD
BRANCH   9  12
ATOM     12  N   UNL A   1      32.250  23.571  24.622  1.00  0.00    -0.319 N 
ATOM     13  C   UNL A   1      33.058  21.828  26.116  1.00  0.00     0.240 C 
ATOM     14  C   UNL A   1      32.356  23.164  26.011  1.00  0.00     0.169 C 
ATOM     15  O   UNL A   1      34.443  22.098  25.697  1.00  0.00    -0.360 OA
ATOM     16  C   UNL A   1      34.502  22.542  24.317  1.00  0.00     0.183 C 
ATOM     17  C   UNL A   1      33.593  23.760  24.038  1.00  0.00     0.150 C 
BRANCH  13  18
ATOM     18  C   UNL A   1      32.565  20.627  25.325  1.00  0.00     0.096 C 
ATOM     19  N   UNL A   1      32.156  19.631  24.669  1.00  0.00    -0.195 NA
ENDBRANCH  13  18
ENDBRANCH   9  12
ENDBRANCH   7   8
BRANCH   7  20
ATOM     20  C   UNL A   1      28.857  26.698  23.879  1.00  0.00     0.090 C 
BRANCH  20  21
ATOM     21  C   UNL A   1      29.153  27.919  23.084  1.00  0.00     0.037 A 
ATOM     22  C   UNL A   1      30.281  28.355  22.420  1.00  0.00     0.134 A 
ATOM     23  N   UNL A   1      28.238  28.931  22.910  1.00  0.00    -0.348 N 
ATOM     24  N   UNL A   1      30.043  29.551  21.795  1.00  0.00    -0.245 NA
ATOM     25  C   UNL A   1      28.810  29.873  22.106  1.00  0.00     0.196 A 
ATOM     26  H   UNL A   1      27.333  28.969  23.295  1.00  0.00     0.167 HD
ENDBRANCH  20  21
ENDBRANCH   7  20
ENDBRANCH   4   7
ENDBRANCH   2   3
ENDBRANCH   1   2
BRANCH   1  27
ATOM     27  C   UNL A   1      32.094  29.374  27.020  1.00  0.00     0.118 C 
BRANCH  27  28
ATOM     28  N   UNL A   1      31.969  30.819  26.833  1.00  0.00    -0.352 N 
ATOM     29  C   UNL A   1      32.801  31.847  27.214  1.00  0.00     0.251 C 
ATOM     30  H   UNL A   1      31.156  31.103  26.355  1.00  0.00     0.163 HD
ATOM     31  O   UNL A   1      32.417  33.010  27.113  1.00  0.00    -0.269 OA
BRANCH  29  32
ATOM     32  C   UNL A   1      34.139  31.545  27.763  1.00  0.00     0.039 A 
ATOM     33  C   UNL A   1      35.047  32.581  27.995  1.00  0.00     0.014 A 
ATOM     34  C   UNL A   1      34.485  30.232  28.075  1.00  0.00     0.014 A 
ATOM     35  C   UNL A   1      36.262  32.305  28.630  1.00  0.00     0.010 A 
ATOM     36  C   UNL A   1      35.620  29.983  28.830  1.00  0.00     0.010 A 
ATOM     37  C   UNL A   1      36.535  31.010  29.099  1.00  0.00    -0.014 A 
BRANCH  37  38
ATOM     38  C   UNL A   1      37.769  30.670  29.852  1.00  0.00     0.031 A 
ATOM     39  C   UNL A   1      38.776  29.733  29.232  1.00  0.00     0.074 A 
ATOM     40  C   UNL A   1      37.920  31.080  31.127  1.00  0.00     0.049 A 
ATOM     41  N   UNL A   1      39.818  29.162  29.775  1.00  0.00    -0.248 NA
ATOM     42  C   UNL A   1      38.547  29.342  27.829  1.00  0.00     0.031 C 
ATOM     43  C   UNL A   1      36.973  31.915  31.869  1.00  0.00     0.029 A 
ATOM     44  N   UNL A   1      38.910  30.814  32.040  1.00  0.00    -0.354 N 
ATOM     45  C   UNL A   1      40.325  28.301  28.808  1.00  0.00     0.074 A 
ATOM     46  C   UNL A   1      39.452  28.391  27.660  1.00  0.00     0.031 C 
ATOM     47  C   UNL A   1      37.431  32.100  33.118  1.00  0.00     0.029 A 
ATOM     48  C   UNL A   1      38.682  31.365  33.279  1.00  0.00     0.049 A 
ATOM     49  H   UNL A   1      39.708  30.279  31.827  1.00  0.00     0.167 HD
ATOM     50  C   UNL A   1      41.438  27.533  28.853  1.00  0.00     0.034 A 
ATOM     51  C   UNL A   1      39.395  31.278  34.420  1.00  0.00     0.034 A 
ATOM     52  C   UNL A   1      42.348  27.517  29.963  1.00  0.00     0.049 A 
ATOM     53  C   UNL A   1      40.673  30.483  34.419  1.00  0.00     0.074 A 
ATOM     54  C   UNL A   1      43.562  26.865  30.071  1.00  0.00     0.029 A 
ATOM     55  N   UNL A   1      42.147  28.193  31.156  1.00  0.00    -0.354 N 
ATOM     56  N   UNL A   1      41.215  29.796  33.443  1.00  0.00    -0.248 NA
ATOM     57  C   UNL A   1      41.454  30.477  35.664  1.00  0.00     0.031 C 
ATOM     58  C   UNL A   1      44.092  27.139  31.336  1.00  0.00     0.029 A 
ATOM     59  C   UNL A   1      43.215  27.978  32.007  1.00  0.00     0.049 A 
ATOM     60  H   UNL A   1      41.360  28.746  31.367  1.00  0.00     0.167 HD
ATOM     61  C   UNL A   1      42.421  29.312  33.940  1.00  0.00     0.074 A 
ATOM     62  C   UNL A   1      42.534  29.795  35.301  1.00  0.00     0.031 C 
ATOM     63  C   UNL A   1      43.342  28.526  33.332  1.00  0.00     0.034 A 
BRANCH  50  64
ATOM     64  C   UNL A   1      41.768  26.705  27.639  1.00  0.00     0.023 A 
ATOM     65  C   UNL A   1      42.351  27.323  26.513  1.00  0.00     0.012 A 
ATOM     66  C   UNL A   1      41.546  25.314  27.624  1.00  0.00     0.148 A 
ATOM     67  C   UNL A   1      42.667  26.581  25.376  1.00  0.00     0.002 A 
ATOM     68  C   UNL A   1      41.909  24.572  26.505  1.00  0.00     0.091 A 
ATOM     69  F   UNL A   1      40.972  24.745  28.693  1.00  0.00    -0.205 F 
ATOM     70  C   UNL A   1      42.455  25.205  25.376  1.00  0.00     0.022 A 
BRANCH  68  71
ATOM     71  S   UNL A   1      41.756  22.784  26.437  1.00  0.00     0.127 S 
ATOM     72  O   UNL A   1      40.304  22.610  26.467  1.00  0.00    -0.237 OA
ATOM     73  O   UNL A   1      42.381  22.470  25.152  1.00  0.00    -0.237 OA
ATOM     74  O   UNL A   1      42.473  22.276  27.598  1.00  0.00    -0.744 OA
ENDBRANCH  68  71
ENDBRANCH  50  64
BRANCH  51  75
ATOM     75  C   UNL A   1      38.961  32.032  35.631  1.00  0.00     0.023 A 
ATOM     76  C   UNL A   1      39.232  33.413  35.709  1.00  0.00     0.012 A 
ATOM     77  C   UNL A   1      38.261  31.410  36.681  1.00  0.00     0.148 A 
ATOM     78  C   UNL A   1      38.842  34.154  36.826  1.00  0.00     0.002 A 
ATOM     79  C   UNL A   1      37.830  32.164  37.768  1.00  0.00     0.091 A 
ATOM     80  F   UNL A   1      38.020  30.095  36.592  1.00  0.00    -0.205 F 
ATOM     81  C   UNL A   1      38.134  33.532  37.850  1.00  0.00     0.022 A 
BRANCH  79  82
ATOM     82  S   UNL A   1      36.807  31.477  39.076  1.00  0.00     0.127 S 
ATOM     83  O   UNL A   1      37.691  31.584  40.233  1.00  0.00    -0.237 OA
ATOM     84  O   UNL A   1      35.668  32.397  39.083  1.00  0.00    -0.237 OA
ATOM     85  O   UNL A   1      36.482  30.124  38.648  1.00  0.00    -0.744 OA
ENDBRANCH  79  82
ENDBRANCH  51  75
BRANCH  63  86
ATOM     86  C   UNL A   1      44.587  28.176  34.102  1.00  0.00     0.023 A 
ATOM     87  C   UNL A   1      45.700  29.037  34.059  1.00  0.00     0.012 A 
ATOM     88  C   UNL A   1      44.609  27.051  34.949  1.00  0.00     0.148 A 
ATOM     89  C   UNL A   1      46.828  28.771  34.835  1.00  0.00     0.002 A 
ATOM     90  C   UNL A   1      45.716  26.820  35.755  1.00  0.00     0.091 A 
ATOM     91  F   UNL A   1      43.544  26.237  34.959  1.00  0.00    -0.205 F 
ATOM     92  C   UNL A   1      46.830  27.672  35.692  1.00  0.00     0.022 A 
BRANCH  90  93
ATOM     93  S   UNL A   1      45.768  25.489  36.961  1.00  0.00     0.127 S 
ATOM     94  O   UNL A   1      44.523  25.704  37.696  1.00  0.00    -0.237 OA
ATOM     95  O   UNL A   1      45.775  24.299  36.109  1.00  0.00    -0.237 OA
ATOM     96  O   UNL A   1      46.990  25.688  37.728  1.00  0.00    -0.744 OA
ENDBRANCH  90  93
ENDBRANCH  63  86
ENDBRANCH  37  38
ENDBRANCH  29  32
ENDBRANCH  27  28
ENDBRANCH   1  27
TORSDOF 18
ENDMDL
MODEL 3
REMARK VINA RESULT:     -11.3      4.674     10.141
REMARK SMILES N#C[C@@H]1CN(C(=O)N[C@@H](Cc2cnc[nH]2)C(=O)NCCCNC(=O)c2ccc(-c3c4nc(c(-c5cccc(S(=O)(=O)[O-])c5F)c5ccc([nH]5)c(-c5cccc(S(=O)(=O)[O-])c5F)c5nc(c(-c6cccc(S(=O)(=O)[O-])c6F)c6ccc3[nH]6)C=C5)C=C4)cc2)CCO1
REMARK SMILES IDX 20 1 19 2 18 3 16 4 17 5 9 7 8 8 6 9 7 10 5 12 3 13 4 14
REMARK SMILES IDX 90 15 89 16 88 17 2 18 1 19 10 20 11 21 12 22 15 23 13 24
REMARK SMILES IDX 14 25 21 27 22 28 23 29 24 31 25 32 26 33 87 34 27 35 86 36
REMARK SMILES IDX 28 37 29 38 30 39 80 40 31 41 85 42 79 43 81 44 32 45 84 46
REMARK SMILES IDX 78 47 77 48 33 50 65 51 45 52 64 53 46 54 49 55 63 56 82 57
REMARK SMILES IDX 47 58 48 59 62 61 83 62 50 63 34 64 35 65 43 66 36 67 38 68
REMARK SMILES IDX 44 69 37 70 39 71 40 72 41 73 42 74 66 75 67 76 75 77 68 78
REMARK SMILES IDX 70 79 76 80 69 81 71 82 72 83 73 84 74 85 51 86 52 87 60 88
REMARK SMILES IDX 53 89 55 90 61 91 54 92 56 93 57 94 58 95 59 96
REMARK H PARENT 18 6 8 11 15 26 22 30 81 49 49 60
REMARK Flexibility Score: inf
ROOT
ATOM      1  C   UNL A   1      35.758  21.798  25.351  1.00  0.00     0.042 C 
ENDROOT
BRANCH   1   2
ATOM      2  C   UNL A   1      34.882  22.944  24.906  1.00  0.00     0.117 C 
BRANCH   2   3
ATOM      3  N   UNL A   1      34.826  23.122  23.475  1.00  0.00    -0.354 N 
ATOM      4  C   UNL A   1      33.735  23.085  22.671  1.00  0.00     0.243 C 
ATOM      5  O   UNL A   1      33.835  23.580  21.541  1.00  0.00    -0.273 OA
ATOM      6  H   UNL A   1      35.687  23.291  23.027  1.00  0.00     0.163 HD
BRANCH   4   7
ATOM      7  C   UNL A   1      32.383  22.519  23.136  1.00  0.00     0.179 C 
BRANCH   7   8
ATOM      8  N   UNL A   1      31.271  23.471  23.124  1.00  0.00    -0.326 N 
ATOM      9  C   UNL A   1      30.965  24.658  23.668  1.00  0.00     0.318 C 
ATOM     10  O   UNL A   1      29.848  25.086  23.367  1.00  0.00    -0.249 OA
ATOM     11  H   UNL A   1      30.538  23.148  22.552  1.00  0.00     0.166 HD
BRANCH   9  12
ATOM     12  N   UNL A   1      31.786  25.363  24.491  1.00  0.00    -0.319 N 
ATOM     13  C   UNL A   1      32.390  27.720  24.514  1.00  0.00     0.240 C 
ATOM     14  C   UNL A   1      32.839  26.313  24.184  1.00  0.00     0.169 C 
ATOM     15  O   UNL A   1      32.280  27.744  25.982  1.00  0.00    -0.360 OA
ATOM     16  C   UNL A   1      31.269  26.815  26.452  1.00  0.00     0.183 C 
ATOM     17  C   UNL A   1      31.489  25.376  25.938  1.00  0.00     0.150 C 
BRANCH  13  18
ATOM     18  C   UNL A   1      31.093  28.276  23.948  1.00  0.00     0.096 C 
ATOM     19  N   UNL A   1      30.017  28.736  23.478  1.00  0.00    -0.195 NA
ENDBRANCH  13  18
ENDBRANCH   9  12
ENDBRANCH   7   8
BRANCH   7  20
ATOM     20  C   UNL A   1      32.020  21.094  22.691  1.00  0.00     0.090 C 
BRANCH  20  21
ATOM     21  C   UNL A   1      32.253  19.987  23.655  1.00  0.00     0.037 A 
ATOM     22  C   UNL A   1      32.389  19.951  25.028  1.00  0.00     0.134 A 
ATOM     23  N   UNL A   1      32.426  18.681  23.258  1.00  0.00    -0.348 N 
ATOM     24  N   UNL A   1      32.558  18.664  25.464  1.00  0.00    -0.245 NA
ATOM     25  C   UNL A   1      32.577  17.923  24.383  1.00  0.00     0.196 A 
ATOM     26  H   UNL A   1      32.439  18.353  22.331  1.00  0.00     0.167 HD
ENDBRANCH  20  21
ENDBRANCH   7  20
ENDBRANCH   4   7
ENDBRANCH   2   3
ENDBRANCH   1   2
BRANCH   1  27
ATOM     27  C   UNL A   1      37.164  21.870  24.790  1.00  0.00     0.118 C 
BRANCH  27  28
ATOM     28  N   UNL A   1      38.050  20.840  25.328  1.00  0.00    -0.352 N 
ATOM     29  C   UNL A   1      39.223  20.951  26.041  1.00  0.00     0.251 C 
ATOM     30  H   UNL A   1      37.761  19.915  25.153  1.00  0.00     0.163 HD
ATOM     31  O   UNL A   1      39.908  19.951  26.245  1.00  0.00    -0.269 OA
BRANCH  29  32
ATOM     32  C   UNL A   1      39.661  22.272  26.535  1.00  0.00     0.039 A 
ATOM     33  C   UNL A   1      40.664  22.356  27.504  1.00  0.00     0.014 A 
ATOM     34  C   UNL A   1      39.096  23.435  26.015  1.00  0.00     0.014 A 
ATOM     35  C   UNL A   1      41.162  23.609  27.876  1.00  0.00     0.010 A 
ATOM     36  C   UNL A   1      39.686  24.660  26.275  1.00  0.00     0.010 A 
ATOM     37  C   UNL A   1      40.711  24.769  27.225  1.00  0.00    -0.014 A 
BRANCH  37  38
ATOM     38  C   UNL A   1      41.258  26.119  27.516  1.00  0.00     0.031 A 
ATOM     39  C   UNL A   1      42.674  26.444  27.110  1.00  0.00     0.074 A 
ATOM     40  C   UNL A   1      40.547  26.992  28.257  1.00  0.00     0.049 A 
ATOM     41  N   UNL A   1      43.406  27.480  27.422  1.00  0.00    -0.248 NA
ATOM     42  C   UNL A   1      43.379  25.442  26.289  1.00  0.00     0.031 C 
ATOM     43  C   UNL A   1      39.201  26.761  28.786  1.00  0.00     0.029 A 
ATOM     44  N   UNL A   1      40.877  28.239  28.729  1.00  0.00    -0.354 N 
ATOM     45  C   UNL A   1      44.667  27.224  26.895  1.00  0.00     0.074 A 
ATOM     46  C   UNL A   1      44.614  25.917  26.281  1.00  0.00     0.031 C 
ATOM     47  C   UNL A   1      38.817  27.831  29.501  1.00  0.00     0.029 A 
ATOM     48  C   UNL A   1      39.903  28.807  29.516  1.00  0.00     0.049 A 
ATOM     49  H   UNL A   1      41.730  28.683  28.523  1.00  0.00     0.167 HD
ATOM     50  C   UNL A   1      45.763  28.018  26.888  1.00  0.00     0.034 A 
ATOM     51  C   UNL A   1      39.890  29.978  30.184  1.00  0.00     0.034 A 
ATOM     52  C   UNL A   1      45.781  29.351  27.422  1.00  0.00     0.049 A 
ATOM     53  C   UNL A   1      41.092  30.880  30.091  1.00  0.00     0.074 A 
ATOM     54  C   UNL A   1      46.799  30.285  27.368  1.00  0.00     0.029 A 
ATOM     55  N   UNL A   1      44.728  29.942  28.101  1.00  0.00    -0.354 N 
ATOM     56  N   UNL A   1      42.223  30.683  29.458  1.00  0.00    -0.248 NA
ATOM     57  C   UNL A   1      41.004  32.178  30.774  1.00  0.00     0.031 C 
ATOM     58  C   UNL A   1      46.363  31.440  28.024  1.00  0.00     0.029 A 
ATOM     59  C   UNL A   1      45.067  31.230  28.470  1.00  0.00     0.049 A 
ATOM     60  H   UNL A   1      43.864  29.509  28.292  1.00  0.00     0.167 HD
ATOM     61  C   UNL A   1      42.964  31.847  29.630  1.00  0.00     0.074 A 
ATOM     62  C   UNL A   1      42.148  32.749  30.416  1.00  0.00     0.031 C 
ATOM     63  C   UNL A   1      44.213  32.137  29.191  1.00  0.00     0.034 A 
BRANCH  50  64
ATOM     64  C   UNL A   1      47.006  27.493  26.218  1.00  0.00     0.023 A 
ATOM     65  C   UNL A   1      47.234  27.777  24.855  1.00  0.00     0.012 A 
ATOM     66  C   UNL A   1      47.967  26.760  26.940  1.00  0.00     0.148 A 
ATOM     67  C   UNL A   1      48.375  27.304  24.210  1.00  0.00     0.002 A 
ATOM     68  C   UNL A   1      49.126  26.333  26.303  1.00  0.00     0.091 A 
ATOM     69  F   UNL A   1      47.726  26.481  28.228  1.00  0.00    -0.205 F 
ATOM     70  C   UNL A   1      49.326  26.591  24.935  1.00  0.00     0.022 A 
BRANCH  68  71
ATOM     71  S   UNL A   1      50.450  25.481  27.167  1.00  0.00     0.127 S 
ATOM     72  O   UNL A   1      51.418  25.270  26.092  1.00  0.00    -0.237 OA
ATOM     73  O   UNL A   1      50.855  26.473  28.165  1.00  0.00    -0.237 OA
ATOM     74  O   UNL A   1      49.854  24.274  27.722  1.00  0.00    -0.744 OA
ENDBRANCH  68  71
ENDBRANCH  50  64
BRANCH  51  75
ATOM     75  C   UNL A   1      38.668  30.401  30.926  1.00  0.00     0.023 A 
ATOM     76  C   UNL A   1      38.557  30.084  32.295  1.00  0.00     0.012 A 
ATOM     77  C   UNL A   1      37.639  31.134  30.306  1.00  0.00     0.148 A 
ATOM     78  C   UNL A   1      37.429  30.461  33.025  1.00  0.00     0.002 A 
ATOM     79  C   UNL A   1      36.541  31.551  31.051  1.00  0.00     0.091 A 
ATOM     80  F   UNL A   1      37.759  31.418  29.002  1.00  0.00    -0.205 F 
ATOM     81  C   UNL A   1      36.426  31.202  32.406  1.00  0.00     0.022 A 
BRANCH  79  82
ATOM     82  S   UNL A   1      35.259  32.612  30.372  1.00  0.00     0.127 S 
ATOM     83  O   UNL A   1      36.007  33.831  30.077  1.00  0.00    -0.237 OA
ATOM     84  O   UNL A   1      34.829  31.853  29.197  1.00  0.00    -0.237 OA
ATOM     85  O   UNL A   1      34.251  32.724  31.417  1.00  0.00    -0.744 OA
ENDBRANCH  79  82
ENDBRANCH  51  75
BRANCH  63  86
ATOM     86  C   UNL A   1      44.767  33.504  29.496  1.00  0.00     0.023 A 
ATOM     87  C   UNL A   1      45.499  33.713  30.680  1.00  0.00     0.012 A 
ATOM     88  C   UNL A   1      44.651  34.546  28.555  1.00  0.00     0.148 A 
ATOM     89  C   UNL A   1      46.092  34.949  30.933  1.00  0.00     0.002 A 
ATOM     90  C   UNL A   1      45.284  35.759  28.793  1.00  0.00     0.091 A 
ATOM     91  F   UNL A   1      43.934  34.327  27.443  1.00  0.00    -0.205 F 
ATOM     92  C   UNL A   1      45.996  35.966  29.985  1.00  0.00     0.022 A 
BRANCH  90  93
ATOM     93  S   UNL A   1      45.301  37.089  27.584  1.00  0.00     0.127 S 
ATOM     94  O   UNL A   1      43.879  37.407  27.472  1.00  0.00    -0.237 OA
ATOM     95  O   UNL A   1      46.104  38.110  28.258  1.00  0.00    -0.237 OA
ATOM     96  O   UNL A   1      45.913  36.534  26.384  1.00  0.00    -0.744 OA
ENDBRANCH  90  93
ENDBRANCH  63  86
ENDBRANCH  37  38
ENDBRANCH  29  32
ENDBRANCH  27  28
ENDBRANCH   1  27
TORSDOF 18
ENDMDL
