MODEL 1
REMARK VINA RESULT:     -11.2      0.000      0.000
REMARK SMILES O=C(NCCCNC(=O)[C@@H]1CSc2ccccc21)c1ccc(-c2c3nc(c(-c4cccc(S(=O)(=O)[O-])c4F)c4ccc([nH]4)c(-c4cccc(S(=O)(=O)[O-])c4F)c4nc(c(-c5cccc(S(=O)(=O)[O-])c5F)c5ccc2[nH]5)C=C4)C=C3)cc1
REMARK SMILES IDX 1 1 2 2 3 3 19 5 20 6 81 7 21 8 80 9 22 10 23 11 24 12 74 13
REMARK SMILES IDX 25 14 79 15 73 16 75 17 26 18 78 19 72 20 71 21 27 23 59 24
REMARK SMILES IDX 39 25 58 26 40 27 43 28 57 29 76 30 41 31 42 32 56 34 77 35
REMARK SMILES IDX 44 36 28 37 29 38 37 39 30 40 32 41 38 42 31 43 33 44 34 45
REMARK SMILES IDX 35 46 36 47 60 48 61 49 69 50 62 51 64 52 70 53 63 54 65 55
REMARK SMILES IDX 66 56 67 57 68 58 45 59 46 60 54 61 47 62 49 63 55 64 48 65
REMARK SMILES IDX 50 66 51 67 52 68 53 69 4 70 5 71 6 72 7 73 8 74 9 76 10 77
REMARK SMILES IDX 11 78 18 79 12 80 13 81 17 82 14 83 16 84 15 85
REMARK H PARENT 3 4 75 22 43 33 7 75
REMARK Flexibility Score: inf
ROOT
ATOM      1  O   UNL A   1      38.383  21.327  25.933  1.00  0.00    -0.269 OA
ATOM      2  C   UNL A   1      39.502  21.528  26.404  1.00  0.00     0.251 C 
ATOM      3  N   UNL A   1      40.390  20.488  26.458  1.00  0.00    -0.352 N 
ATOM      4  H   UNL A   1      40.145  19.704  25.915  1.00  0.00     0.163 HD
ENDROOT
BRANCH   2   5
ATOM      5  C   UNL A   1      39.866  22.881  26.881  1.00  0.00     0.039 A 
ATOM      6  C   UNL A   1      39.378  23.989  26.178  1.00  0.00     0.014 A 
ATOM      7  C   UNL A   1      40.764  23.067  27.936  1.00  0.00     0.014 A 
ATOM      8  C   UNL A   1      39.787  25.277  26.531  1.00  0.00     0.010 A 
ATOM      9  C   UNL A   1      41.129  24.357  28.323  1.00  0.00     0.010 A 
ATOM     10  C   UNL A   1      40.668  25.470  27.606  1.00  0.00    -0.014 A 
BRANCH  10  11
ATOM     11  C   UNL A   1      41.179  26.819  27.951  1.00  0.00     0.031 A 
ATOM     12  C   UNL A   1      42.604  27.180  27.622  1.00  0.00     0.074 A 
ATOM     13  C   UNL A   1      40.385  27.697  28.594  1.00  0.00     0.049 A 
ATOM     14  N   UNL A   1      43.272  28.259  27.934  1.00  0.00    -0.248 NA
ATOM     15  C   UNL A   1      43.387  26.194  26.855  1.00  0.00     0.031 C 
ATOM     16  C   UNL A   1      38.993  27.457  28.979  1.00  0.00     0.029 A 
ATOM     17  N   UNL A   1      40.642  28.966  29.049  1.00  0.00    -0.354 N 
ATOM     18  C   UNL A   1      44.557  28.067  27.441  1.00  0.00     0.074 A 
ATOM     19  C   UNL A   1      44.584  26.763  26.816  1.00  0.00     0.031 C 
ATOM     20  C   UNL A   1      38.515  28.548  29.601  1.00  0.00     0.029 A 
ATOM     21  C   UNL A   1      39.574  29.551  29.686  1.00  0.00     0.049 A 
ATOM     22  H   UNL A   1      41.510  29.416  28.929  1.00  0.00     0.167 HD
ATOM     23  C   UNL A   1      45.612  28.912  27.482  1.00  0.00     0.034 A 
ATOM     24  C   UNL A   1      39.461  30.759  30.273  1.00  0.00     0.034 A 
ATOM     25  C   UNL A   1      45.564  30.234  28.040  1.00  0.00     0.049 A 
ATOM     26  C   UNL A   1      40.643  31.689  30.273  1.00  0.00     0.074 A 
ATOM     27  C   UNL A   1      46.575  31.177  28.094  1.00  0.00     0.029 A 
ATOM     28  N   UNL A   1      44.444  30.808  28.617  1.00  0.00    -0.354 N 
ATOM     29  N   UNL A   1      41.831  31.507  29.754  1.00  0.00    -0.248 NA
ATOM     30  C   UNL A   1      40.463  32.999  30.917  1.00  0.00     0.031 C 
ATOM     31  C   UNL A   1      46.062  32.330  28.694  1.00  0.00     0.029 A 
ATOM     32  C   UNL A   1      44.731  32.102  29.009  1.00  0.00     0.049 A 
ATOM     33  H   UNL A   1      43.574  30.362  28.730  1.00  0.00     0.167 HD
ATOM     34  C   UNL A   1      42.526  32.690  29.969  1.00  0.00     0.074 A 
ATOM     35  C   UNL A   1      41.626  33.586  30.666  1.00  0.00     0.031 C 
ATOM     36  C   UNL A   1      43.799  33.001  29.631  1.00  0.00     0.034 A 
BRANCH  23  37
ATOM     37  C   UNL A   1      46.902  28.481  26.842  1.00  0.00     0.023 A 
ATOM     38  C   UNL A   1      47.950  28.025  27.664  1.00  0.00     0.012 A 
ATOM     39  C   UNL A   1      47.023  28.391  25.442  1.00  0.00     0.148 A 
ATOM     40  C   UNL A   1      49.105  27.483  27.101  1.00  0.00     0.002 A 
ATOM     41  C   UNL A   1      48.165  27.822  24.889  1.00  0.00     0.091 A 
ATOM     42  F   UNL A   1      46.010  28.836  24.685  1.00  0.00    -0.205 F 
ATOM     43  C   UNL A   1      49.205  27.371  25.717  1.00  0.00     0.022 A 
BRANCH  41  44
ATOM     44  S   UNL A   1      48.374  27.575  23.122  1.00  0.00     0.127 S 
ATOM     45  O   UNL A   1      49.682  28.188  22.890  1.00  0.00    -0.237 OA
ATOM     46  O   UNL A   1      48.356  26.117  23.014  1.00  0.00    -0.237 OA
ATOM     47  O   UNL A   1      47.257  28.256  22.482  1.00  0.00    -0.744 OA
ENDBRANCH  41  44
ENDBRANCH  23  37
BRANCH  24  48
ATOM     48  C   UNL A   1      38.151  31.192  30.833  1.00  0.00     0.023 A 
ATOM     49  C   UNL A   1      37.881  30.949  32.194  1.00  0.00     0.012 A 
ATOM     50  C   UNL A   1      37.195  31.864  30.049  1.00  0.00     0.148 A 
ATOM     51  C   UNL A   1      36.672  31.351  32.760  1.00  0.00     0.002 A 
ATOM     52  C   UNL A   1      36.009  32.299  30.630  1.00  0.00     0.091 A 
ATOM     53  F   UNL A   1      37.469  32.072  28.754  1.00  0.00    -0.205 F 
ATOM     54  C   UNL A   1      35.740  32.034  31.983  1.00  0.00     0.022 A 
BRANCH  52  55
ATOM     55  S   UNL A   1      34.796  33.275  29.734  1.00  0.00     0.127 S 
ATOM     56  O   UNL A   1      33.939  33.752  30.816  1.00  0.00    -0.237 OA
ATOM     57  O   UNL A   1      35.633  34.302  29.112  1.00  0.00    -0.237 OA
ATOM     58  O   UNL A   1      34.174  32.356  28.790  1.00  0.00    -0.744 OA
ENDBRANCH  52  55
ENDBRANCH  24  48
BRANCH  36  59
ATOM     59  C   UNL A   1      44.301  34.380  29.951  1.00  0.00     0.023 A 
ATOM     60  C   UNL A   1      45.021  34.597  31.141  1.00  0.00     0.012 A 
ATOM     61  C   UNL A   1      44.177  35.420  29.008  1.00  0.00     0.148 A 
ATOM     62  C   UNL A   1      45.607  35.836  31.392  1.00  0.00     0.002 A 
ATOM     63  C   UNL A   1      44.791  36.641  29.251  1.00  0.00     0.091 A 
ATOM     64  F   UNL A   1      43.476  35.186  27.889  1.00  0.00    -0.205 F 
ATOM     65  C   UNL A   1      45.503  36.852  30.444  1.00  0.00     0.022 A 
BRANCH  63  66
ATOM     66  S   UNL A   1      44.779  37.981  28.055  1.00  0.00     0.127 S 
ATOM     67  O   UNL A   1      45.629  38.973  28.713  1.00  0.00    -0.237 OA
ATOM     68  O   UNL A   1      45.374  37.351  26.877  1.00  0.00    -0.237 OA
ATOM     69  O   UNL A   1      43.384  38.368  27.895  1.00  0.00    -0.744 OA
ENDBRANCH  63  66
ENDBRANCH  36  59
ENDBRANCH  10  11
ENDBRANCH   2   5
BRANCH   3  70
ATOM     70  C   UNL A   1      41.640  20.357  27.192  1.00  0.00     0.118 C 
BRANCH  70  71
ATOM     71  C   UNL A   1      42.361  19.060  26.832  1.00  0.00     0.042 C 
BRANCH  71  72
ATOM     72  C   UNL A   1      42.956  19.072  25.424  1.00  0.00     0.117 C 
BRANCH  72  73
ATOM     73  N   UNL A   1      44.396  19.251  25.448  1.00  0.00    -0.355 N 
ATOM     74  C   UNL A   1      45.197  20.342  25.397  1.00  0.00     0.228 C 
ATOM     75  H   UNL A   1      44.894  18.404  25.515  1.00  0.00     0.163 HD
ATOM     76  O   UNL A   1      46.414  20.100  25.395  1.00  0.00    -0.274 OA
BRANCH  74  77
ATOM     77  C   UNL A   1      44.754  21.801  25.394  1.00  0.00     0.120 C 
ATOM     78  C   UNL A   1      45.161  22.425  24.044  1.00  0.00     0.093 C 
ATOM     79  C   UNL A   1      45.235  22.753  26.455  1.00  0.00    -0.021 A 
ATOM     80  S   UNL A   1      46.671  23.402  24.338  1.00  0.00    -0.125 SA
ATOM     81  C   UNL A   1      46.267  23.605  26.045  1.00  0.00     0.011 A 
ATOM     82  C   UNL A   1      44.757  22.817  27.762  1.00  0.00     0.006 A 
ATOM     83  C   UNL A   1      46.881  24.473  26.936  1.00  0.00     0.015 A 
ATOM     84  C   UNL A   1      45.371  23.689  28.665  1.00  0.00     0.000 A 
ATOM     85  C   UNL A   1      46.435  24.504  28.258  1.00  0.00     0.001 A 
ENDBRANCH  74  77
ENDBRANCH  72  73
ENDBRANCH  71  72
ENDBRANCH  70  71
ENDBRANCH   3  70
TORSDOF 13
ENDMDL
MODEL 2
REMARK VINA RESULT:     -10.8      4.955     11.801
REMARK SMILES O=C(NCCCNC(=O)[C@@H]1CSc2ccccc21)c1ccc(-c2c3nc(c(-c4cccc(S(=O)(=O)[O-])c4F)c4ccc([nH]4)c(-c4cccc(S(=O)(=O)[O-])c4F)c4nc(c(-c5cccc(S(=O)(=O)[O-])c5F)c5ccc2[nH]5)C=C4)C=C3)cc1
REMARK SMILES IDX 1 1 2 2 3 3 19 5 20 6 81 7 21 8 80 9 22 10 23 11 24 12 74 13
REMARK SMILES IDX 25 14 79 15 73 16 75 17 26 18 78 19 72 20 71 21 27 23 59 24
REMARK SMILES IDX 39 25 58 26 40 27 43 28 57 29 76 30 41 31 42 32 56 34 77 35
REMARK SMILES IDX 44 36 28 37 29 38 37 39 30 40 32 41 38 42 31 43 33 44 34 45
REMARK SMILES IDX 35 46 36 47 60 48 61 49 69 50 62 51 64 52 70 53 63 54 65 55
REMARK SMILES IDX 66 56 67 57 68 58 45 59 46 60 54 61 47 62 49 63 55 64 48 65
REMARK SMILES IDX 50 66 51 67 52 68 53 69 4 70 5 71 6 72 7 73 8 74 9 76 10 77
REMARK SMILES IDX 11 78 18 79 12 80 13 81 17 82 14 83 16 84 15 85
REMARK H PARENT 3 4 75 22 43 33 7 75
REMARK Flexibility Score: inf
ROOT
ATOM      1  O   UNL A   1      33.685  30.260  27.456  1.00  0.00    -0.269 OA
ATOM      2  C   UNL A   1      34.641  30.940  27.828  1.00  0.00     0.251 C 
ATOM      3  N   UNL A   1      34.484  32.296  27.932  1.00  0.00    -0.352 N 
ATOM      4  H   UNL A   1      33.550  32.608  27.911  1.00  0.00     0.163 HD
ENDROOT
BRANCH   2   5
ATOM      5  C   UNL A   1      35.922  30.282  28.170  1.00  0.00     0.039 A 
ATOM      6  C   UNL A   1      36.060  29.711  29.441  1.00  0.00     0.014 A 
ATOM      7  C   UNL A   1      37.017  30.318  27.301  1.00  0.00     0.014 A 
ATOM      8  C   UNL A   1      37.288  29.178  29.839  1.00  0.00     0.010 A 
ATOM      9  C   UNL A   1      38.227  29.735  27.679  1.00  0.00     0.010 A 
ATOM     10  C   UNL A   1      38.381  29.188  28.961  1.00  0.00    -0.014 A 
BRANCH  10  11
ATOM     11  C   UNL A   1      39.717  28.700  29.386  1.00  0.00     0.031 A 
ATOM     12  C   UNL A   1      40.449  29.411  30.493  1.00  0.00     0.074 A 
ATOM     13  C   UNL A   1      40.286  27.656  28.755  1.00  0.00     0.049 A 
ATOM     14  N   UNL A   1      41.662  29.213  30.937  1.00  0.00    -0.248 NA
ATOM     15  C   UNL A   1      39.732  30.500  31.183  1.00  0.00     0.031 C 
ATOM     16  C   UNL A   1      39.681  26.895  27.658  1.00  0.00     0.029 A 
ATOM     17  N   UNL A   1      41.509  27.060  28.936  1.00  0.00    -0.354 N 
ATOM     18  C   UNL A   1      41.868  30.170  31.923  1.00  0.00     0.074 A 
ATOM     19  C   UNL A   1      40.660  30.960  32.011  1.00  0.00     0.031 C 
ATOM     20  C   UNL A   1      40.530  25.927  27.275  1.00  0.00     0.029 A 
ATOM     21  C   UNL A   1      41.750  26.017  28.074  1.00  0.00     0.049 A 
ATOM     22  H   UNL A   1      42.153  27.352  29.622  1.00  0.00     0.167 HD
ATOM     23  C   UNL A   1      42.955  30.357  32.705  1.00  0.00     0.034 A 
ATOM     24  C   UNL A   1      42.831  25.224  27.942  1.00  0.00     0.034 A 
ATOM     25  C   UNL A   1      44.127  29.527  32.667  1.00  0.00     0.049 A 
ATOM     26  C   UNL A   1      44.013  25.436  28.848  1.00  0.00     0.074 A 
ATOM     27  C   UNL A   1      45.266  29.618  33.447  1.00  0.00     0.029 A 
ATOM     28  N   UNL A   1      44.301  28.444  31.822  1.00  0.00    -0.354 N 
ATOM     29  N   UNL A   1      44.163  26.313  29.810  1.00  0.00    -0.248 NA
ATOM     30  C   UNL A   1      45.162  24.537  28.670  1.00  0.00     0.031 C 
ATOM     31  C   UNL A   1      46.126  28.579  33.082  1.00  0.00     0.029 A 
ATOM     32  C   UNL A   1      45.518  27.842  32.078  1.00  0.00     0.049 A 
ATOM     33  H   UNL A   1      43.654  28.146  31.142  1.00  0.00     0.167 HD
ATOM     34  C   UNL A   1      45.402  26.045  30.378  1.00  0.00     0.074 A 
ATOM     35  C   UNL A   1      45.963  24.923  29.655  1.00  0.00     0.031 C 
ATOM     36  C   UNL A   1      46.023  26.681  31.399  1.00  0.00     0.034 A 
BRANCH  23  37
ATOM     37  C   UNL A   1      42.922  31.452  33.733  1.00  0.00     0.023 A 
ATOM     38  C   UNL A   1      43.471  32.707  33.409  1.00  0.00     0.012 A 
ATOM     39  C   UNL A   1      42.227  31.287  34.947  1.00  0.00     0.148 A 
ATOM     40  C   UNL A   1      43.330  33.787  34.279  1.00  0.00     0.002 A 
ATOM     41  C   UNL A   1      42.065  32.376  35.796  1.00  0.00     0.091 A 
ATOM     42  F   UNL A   1      41.717  30.080  35.231  1.00  0.00    -0.205 F 
ATOM     43  C   UNL A   1      42.617  33.624  35.464  1.00  0.00     0.022 A 
BRANCH  41  44
ATOM     44  S   UNL A   1      41.116  32.293  37.319  1.00  0.00     0.127 S 
ATOM     45  O   UNL A   1      39.917  31.578  36.882  1.00  0.00    -0.237 OA
ATOM     46  O   UNL A   1      42.003  31.524  38.190  1.00  0.00    -0.237 OA
ATOM     47  O   UNL A   1      40.889  33.672  37.730  1.00  0.00    -0.744 OA
ENDBRANCH  41  44
ENDBRANCH  23  37
BRANCH  24  48
ATOM     48  C   UNL A   1      42.811  24.098  26.968  1.00  0.00     0.023 A 
ATOM     49  C   UNL A   1      43.484  24.251  25.739  1.00  0.00     0.012 A 
ATOM     50  C   UNL A   1      42.169  22.880  27.256  1.00  0.00     0.148 A 
ATOM     51  C   UNL A   1      43.500  23.215  24.806  1.00  0.00     0.002 A 
ATOM     52  C   UNL A   1      42.224  21.837  26.339  1.00  0.00     0.091 A 
ATOM     53  F   UNL A   1      41.524  22.763  28.426  1.00  0.00    -0.205 F 
ATOM     54  C   UNL A   1      42.880  22.006  25.108  1.00  0.00     0.022 A 
BRANCH  52  55
ATOM     55  S   UNL A   1      41.543  20.211  26.683  1.00  0.00     0.127 S 
ATOM     56  O   UNL A   1      42.277  19.829  27.887  1.00  0.00    -0.237 OA
ATOM     57  O   UNL A   1      40.127  20.513  26.893  1.00  0.00    -0.237 OA
ATOM     58  O   UNL A   1      41.817  19.412  25.495  1.00  0.00    -0.744 OA
ENDBRANCH  52  55
ENDBRANCH  24  48
BRANCH  36  59
ATOM     59  C   UNL A   1      47.359  26.162  31.849  1.00  0.00     0.023 A 
ATOM     60  C   UNL A   1      48.532  26.649  31.243  1.00  0.00     0.012 A 
ATOM     61  C   UNL A   1      47.450  25.300  32.960  1.00  0.00     0.148 A 
ATOM     62  C   UNL A   1      49.783  26.279  31.735  1.00  0.00     0.002 A 
ATOM     63  C   UNL A   1      48.698  24.963  33.465  1.00  0.00     0.091 A 
ATOM     64  F   UNL A   1      46.315  24.845  33.509  1.00  0.00    -0.205 F 
ATOM     65  C   UNL A   1      49.866  25.448  32.851  1.00  0.00     0.022 A 
BRANCH  63  66
ATOM     66  S   UNL A   1      48.905  23.965  34.944  1.00  0.00     0.127 S 
ATOM     67  O   UNL A   1      48.319  22.692  34.527  1.00  0.00    -0.237 OA
ATOM     68  O   UNL A   1      50.358  23.945  35.105  1.00  0.00    -0.237 OA
ATOM     69  O   UNL A   1      48.187  24.661  36.004  1.00  0.00    -0.744 OA
ENDBRANCH  63  66
ENDBRANCH  36  59
ENDBRANCH  10  11
ENDBRANCH   2   5
BRANCH   3  70
ATOM     70  C   UNL A   1      35.479  33.349  28.069  1.00  0.00     0.118 C 
BRANCH  70  71
ATOM     71  C   UNL A   1      34.929  34.530  28.866  1.00  0.00     0.042 C 
BRANCH  71  72
ATOM     72  C   UNL A   1      34.187  34.109  30.133  1.00  0.00     0.117 C 
BRANCH  72  73
ATOM     73  N   UNL A   1      34.593  34.896  31.283  1.00  0.00    -0.355 N 
ATOM     74  C   UNL A   1      35.543  34.730  32.234  1.00  0.00     0.228 C 
ATOM     75  H   UNL A   1      34.069  35.723  31.396  1.00  0.00     0.163 HD
ATOM     76  O   UNL A   1      35.570  35.609  33.110  1.00  0.00    -0.274 OA
BRANCH  74  77
ATOM     77  C   UNL A   1      36.587  33.620  32.298  1.00  0.00     0.120 C 
ATOM     78  C   UNL A   1      36.774  33.217  33.774  1.00  0.00     0.093 C 
ATOM     79  C   UNL A   1      37.971  33.833  31.746  1.00  0.00    -0.021 A 
ATOM     80  S   UNL A   1      38.306  34.012  34.358  1.00  0.00    -0.125 SA
ATOM     81  C   UNL A   1      38.947  34.097  32.715  1.00  0.00     0.011 A 
ATOM     82  C   UNL A   1      38.317  33.811  30.397  1.00  0.00     0.006 A 
ATOM     83  C   UNL A   1      40.250  34.409  32.357  1.00  0.00     0.015 A 
ATOM     84  C   UNL A   1      39.628  34.125  30.029  1.00  0.00     0.000 A 
ATOM     85  C   UNL A   1      40.587  34.434  31.003  1.00  0.00     0.001 A 
ENDBRANCH  74  77
ENDBRANCH  72  73
ENDBRANCH  71  72
ENDBRANCH  70  71
ENDBRANCH   3  70
TORSDOF 13
ENDMDL
MODEL 3
REMARK VINA RESULT:     -10.7      4.626     10.041
REMARK SMILES O=C(NCCCNC(=O)[C@@H]1CSc2ccccc21)c1ccc(-c2c3nc(c(-c4cccc(S(=O)(=O)[O-])c4F)c4ccc([nH]4)c(-c4cccc(S(=O)(=O)[O-])c4F)c4nc(c(-c5cccc(S(=O)(=O)[O-])c5F)c5ccc2[nH]5)C=C4)C=C3)cc1
REMARK SMILES IDX 1 1 2 2 3 3 19 5 20 6 81 7 21 8 80 9 22 10 23 11 24 12 74 13
REMARK SMILES IDX 25 14 79 15 73 16 75 17 26 18 78 19 72 20 71 21 27 23 59 24
REMARK SMILES IDX 39 25 58 26 40 27 43 28 57 29 76 30 41 31 42 32 56 34 77 35
REMARK SMILES IDX 44 36 28 37 29 38 37 39 30 40 32 41 38 42 31 43 33 44 34 45
REMARK SMILES IDX 35 46 36 47 60 48 61 49 69 50 62 51 64 52 70 53 63 54 65 55
REMARK SMILES IDX 66 56 67 57 68 58 45 59 46 60 54 61 47 62 49 63 55 64 48 65
REMARK SMILES IDX 50 66 51 67 52 68 53 69 4 70 5 71 6 72 7 73 8 74 9 76 10 77
REMARK SMILES IDX 11 78 18 79 12 80 13 81 17 82 14 83 16 84 15 85
REMARK H PARENT 3 4 75 22 43 33 7 75
REMARK Flexibility Score: inf
ROOT
ATOM      1  O   UNL A   1      33.930  29.102  27.250  1.00  0.00    -0.269 OA
ATOM      2  C   UNL A   1      34.578  30.054  27.683  1.00  0.00     0.251 C 
ATOM      3  N   UNL A   1      33.993  31.291  27.708  1.00  0.00    -0.352 N 
ATOM      4  H   UNL A   1      33.017  31.291  27.581  1.00  0.00     0.163 HD
ENDROOT
BRANCH   2   5
ATOM      5  C   UNL A   1      35.956  29.840  28.179  1.00  0.00     0.039 A 
ATOM      6  C   UNL A   1      37.022  30.042  27.295  1.00  0.00     0.014 A 
ATOM      7  C   UNL A   1      36.202  29.340  29.462  1.00  0.00     0.014 A 
ATOM      8  C   UNL A   1      38.328  29.746  27.693  1.00  0.00     0.010 A 
ATOM      9  C   UNL A   1      37.511  29.097  29.877  1.00  0.00     0.010 A 
ATOM     10  C   UNL A   1      38.581  29.269  28.988  1.00  0.00    -0.014 A 
BRANCH  10  11
ATOM     11  C   UNL A   1      39.947  28.873  29.410  1.00  0.00     0.031 A 
ATOM     12  C   UNL A   1      40.626  27.711  28.733  1.00  0.00     0.074 A 
ATOM     13  C   UNL A   1      40.556  29.521  30.421  1.00  0.00     0.049 A 
ATOM     14  N   UNL A   1      41.766  27.141  29.023  1.00  0.00    -0.248 NA
ATOM     15  C   UNL A   1      39.927  27.098  27.588  1.00  0.00     0.031 C 
ATOM     16  C   UNL A   1      39.993  30.651  31.164  1.00  0.00     0.029 A 
ATOM     17  N   UNL A   1      41.779  29.313  31.009  1.00  0.00    -0.354 N 
ATOM     18  C   UNL A   1      41.901  26.085  28.130  1.00  0.00     0.074 A 
ATOM     19  C   UNL A   1      40.724  26.082  27.291  1.00  0.00     0.031 C 
ATOM     20  C   UNL A   1      40.874  31.044  32.099  1.00  0.00     0.029 A 
ATOM     21  C   UNL A   1      42.048  30.176  32.044  1.00  0.00     0.049 A 
ATOM     22  H   UNL A   1      42.404  28.612  30.715  1.00  0.00     0.167 HD
ATOM     23  C   UNL A   1      42.926  25.213  28.004  1.00  0.00     0.034 A 
ATOM     24  C   UNL A   1      43.120  30.258  32.857  1.00  0.00     0.034 A 
ATOM     25  C   UNL A   1      44.127  25.260  28.792  1.00  0.00     0.049 A 
ATOM     26  C   UNL A   1      44.259  29.294  32.669  1.00  0.00     0.074 A 
ATOM     27  C   UNL A   1      45.237  24.439  28.711  1.00  0.00     0.029 A 
ATOM     28  N   UNL A   1      44.383  26.190  29.785  1.00  0.00    -0.354 N 
ATOM     29  N   UNL A   1      44.389  28.338  31.784  1.00  0.00    -0.248 NA
ATOM     30  C   UNL A   1      45.409  29.434  33.575  1.00  0.00     0.031 C 
ATOM     31  C   UNL A   1      46.174  24.881  29.648  1.00  0.00     0.029 A 
ATOM     32  C   UNL A   1      45.645  25.979  30.308  1.00  0.00     0.049 A 
ATOM     33  H   UNL A   1      43.762  26.897  30.073  1.00  0.00     0.167 HD
ATOM     34  C   UNL A   1      45.648  27.791  31.996  1.00  0.00     0.074 A 
ATOM     35  C   UNL A   1      46.245  28.522  33.095  1.00  0.00     0.031 C 
ATOM     36  C   UNL A   1      46.249  26.766  31.347  1.00  0.00     0.034 A 
BRANCH  23  37
ATOM     37  C   UNL A   1      42.851  24.166  26.928  1.00  0.00     0.023 A 
ATOM     38  C   UNL A   1      43.552  24.375  25.725  1.00  0.00     0.012 A 
ATOM     39  C   UNL A   1      42.216  22.931  27.160  1.00  0.00     0.148 A 
ATOM     40  C   UNL A   1      43.624  23.367  24.765  1.00  0.00     0.002 A 
ATOM     41  C   UNL A   1      42.317  21.920  26.211  1.00  0.00     0.091 A 
ATOM     42  F   UNL A   1      41.553  22.762  28.313  1.00  0.00    -0.205 F 
ATOM     43  C   UNL A   1      43.018  22.138  25.014  1.00  0.00     0.022 A 
BRANCH  41  44
ATOM     44  S   UNL A   1      41.626  20.280  26.454  1.00  0.00     0.127 S 
ATOM     45  O   UNL A   1      42.203  19.903  27.744  1.00  0.00    -0.237 OA
ATOM     46  O   UNL A   1      40.190  20.556  26.484  1.00  0.00    -0.237 OA
ATOM     47  O   UNL A   1      42.078  19.479  25.324  1.00  0.00    -0.744 OA
ENDBRANCH  41  44
ENDBRANCH  23  37
BRANCH  24  48
ATOM     48  C   UNL A   1      43.205  31.351  33.865  1.00  0.00     0.023 A 
ATOM     49  C   UNL A   1      43.837  32.558  33.507  1.00  0.00     0.012 A 
ATOM     50  C   UNL A   1      42.642  31.221  35.148  1.00  0.00     0.148 A 
ATOM     51  C   UNL A   1      43.925  33.610  34.417  1.00  0.00     0.002 A 
ATOM     52  C   UNL A   1      42.696  32.288  36.036  1.00  0.00     0.091 A 
ATOM     53  F   UNL A   1      42.057  30.058  35.470  1.00  0.00    -0.205 F 
ATOM     54  C   UNL A   1      43.347  33.480  35.677  1.00  0.00     0.022 A 
BRANCH  52  55
ATOM     55  S   UNL A   1      41.891  32.250  37.642  1.00  0.00     0.127 S 
ATOM     56  O   UNL A   1      42.631  31.191  38.322  1.00  0.00    -0.237 OA
ATOM     57  O   UNL A   1      42.148  33.601  38.142  1.00  0.00    -0.237 OA
ATOM     58  O   UNL A   1      40.488  31.968  37.370  1.00  0.00    -0.744 OA
ENDBRANCH  52  55
ENDBRANCH  24  48
BRANCH  36  59
ATOM     59  C   UNL A   1      47.645  26.391  31.754  1.00  0.00     0.023 A 
ATOM     60  C   UNL A   1      47.840  25.514  32.838  1.00  0.00     0.012 A 
ATOM     61  C   UNL A   1      48.747  26.800  30.977  1.00  0.00     0.148 A 
ATOM     62  C   UNL A   1      49.118  25.051  33.147  1.00  0.00     0.002 A 
ATOM     63  C   UNL A   1      50.012  26.309  31.271  1.00  0.00     0.091 A 
ATOM     64  F   UNL A   1      48.531  27.644  29.959  1.00  0.00    -0.205 F 
ATOM     65  C   UNL A   1      50.200  25.438  32.358  1.00  0.00     0.022 A 
BRANCH  63  66
ATOM     66  S   UNL A   1      51.451  26.687  30.265  1.00  0.00     0.127 S 
ATOM     67  O   UNL A   1      51.081  26.093  28.981  1.00  0.00    -0.237 OA
ATOM     68  O   UNL A   1      51.467  28.149  30.281  1.00  0.00    -0.237 OA
ATOM     69  O   UNL A   1      52.585  26.062  30.934  1.00  0.00    -0.744 OA
ENDBRANCH  63  66
ENDBRANCH  36  59
ENDBRANCH  10  11
ENDBRANCH   2   5
BRANCH   3  70
ATOM     70  C   UNL A   1      34.586  32.608  27.894  1.00  0.00     0.118 C 
BRANCH  70  71
ATOM     71  C   UNL A   1      33.569  33.600  28.452  1.00  0.00     0.042 C 
BRANCH  71  72
ATOM     72  C   UNL A   1      34.163  34.557  29.485  1.00  0.00     0.117 C 
BRANCH  72  73
ATOM     73  N   UNL A   1      33.889  34.122  30.843  1.00  0.00    -0.355 N 
ATOM     74  C   UNL A   1      34.497  33.247  31.679  1.00  0.00     0.228 C 
ATOM     75  H   UNL A   1      33.097  34.553  31.238  1.00  0.00     0.163 HD
ATOM     76  O   UNL A   1      33.939  33.094  32.776  1.00  0.00    -0.274 OA
BRANCH  74  77
ATOM     77  C   UNL A   1      35.796  32.490  31.421  1.00  0.00     0.120 C 
ATOM     78  C   UNL A   1      36.158  31.705  32.697  1.00  0.00     0.093 C 
ATOM     79  C   UNL A   1      37.046  33.224  31.015  1.00  0.00    -0.021 A 
ATOM     80  S   UNL A   1      37.458  32.648  33.558  1.00  0.00    -0.125 SA
ATOM     81  C   UNL A   1      37.968  33.415  32.052  1.00  0.00     0.011 A 
ATOM     82  C   UNL A   1      37.315  33.723  29.744  1.00  0.00     0.006 A 
ATOM     83  C   UNL A   1      39.124  34.157  31.859  1.00  0.00     0.015 A 
ATOM     84  C   UNL A   1      38.478  34.471  29.541  1.00  0.00     0.000 A 
ATOM     85  C   UNL A   1      39.372  34.697  30.596  1.00  0.00     0.001 A 
ENDBRANCH  74  77
ENDBRANCH  72  73
ENDBRANCH  71  72
ENDBRANCH  70  71
ENDBRANCH   3  70
TORSDOF 13
ENDMDL
