MODEL 1
REMARK VINA RESULT:     -12.2      0.000      0.000
REMARK SMILES Cn1ncc2c(NCCC3=CCCCC3)c(C(=O)NCCCNC(=O)c3ccc(-c4c5nc(c(-c6cccc(S(=O)(=O)[O-])c6F)c6ccc([nH]6)c(-c6cccc(S(=O)(=O)[O-])c6F)c6nc(c(-c7cccc(S(=O)(=O)[O-])c7F)c7ccc4[nH]7)C=C6)C=C5)cc3)cnc21
REMARK SMILES IDX 20 1 19 2 17 3 18 4 16 6 1 7 2 8 3 9 91 10 4 11 5 12 90 13
REMARK SMILES IDX 6 14 89 15 7 16 8 18 9 19 10 20 11 21 15 22 12 23 14 24
REMARK SMILES IDX 13 25 21 26 22 27 23 28 24 29 25 31 26 32 27 33 88 34 28 35
REMARK SMILES IDX 87 36 29 37 30 38 31 39 81 40 32 41 86 42 80 43 82 44 33 45
REMARK SMILES IDX 85 46 79 47 78 48 34 50 66 51 46 52 65 53 47 54 50 55 64 56
REMARK SMILES IDX 83 57 48 58 49 59 63 61 84 62 51 63 35 64 36 65 44 66 37 67
REMARK SMILES IDX 39 68 45 69 38 70 40 71 41 72 42 73 43 74 67 75 68 76 76 77
REMARK SMILES IDX 69 78 71 79 77 80 70 81 72 82 73 83 74 84 75 85 52 86 53 87
REMARK SMILES IDX 61 88 54 89 56 90 62 91 55 92 57 93 58 94 59 95 60 96
REMARK H PARENT 19 5 7 17 23 30 82 49 50 60
REMARK Flexibility Score: inf
ROOT
ATOM      1  C   UNL A   1      37.455  23.114  25.687  1.00  0.00     0.118 C 
ENDROOT
BRANCH   1   2
ATOM      2  N   UNL A   1      36.237  22.741  26.388  1.00  0.00    -0.352 N 
ATOM      3  C   UNL A   1      34.925  23.138  26.314  1.00  0.00     0.254 C 
ATOM      4  O   UNL A   1      34.158  22.588  27.107  1.00  0.00    -0.269 OA
ATOM      5  H   UNL A   1      36.388  22.048  27.071  1.00  0.00     0.163 HD
BRANCH   3   6
ATOM      6  C   UNL A   1      34.381  24.128  25.327  1.00  0.00     0.082 A 
ATOM      7  C   UNL A   1      33.193  28.247  22.491  1.00  0.00     0.176 C 
ATOM      8  N   UNL A   1      33.166  26.808  22.541  1.00  0.00    -0.250 N 
ATOM      9  N   UNL A   1      32.717  26.102  21.486  1.00  0.00    -0.179 NA
ATOM     10  C   UNL A   1      33.589  26.033  23.583  1.00  0.00     0.159 A 
ATOM     11  C   UNL A   1      32.851  24.835  21.901  1.00  0.00     0.147 A 
ATOM     12  C   UNL A   1      33.401  24.709  23.204  1.00  0.00     0.063 A 
ATOM     13  N   UNL A   1      34.072  26.494  24.748  1.00  0.00    -0.236 NA
ATOM     14  C   UNL A   1      33.760  23.678  24.114  1.00  0.00     0.061 A 
ATOM     15  C   UNL A   1      34.431  25.495  25.584  1.00  0.00     0.129 A 
BRANCH  14  16
ATOM     16  N   UNL A   1      33.555  22.324  23.906  1.00  0.00    -0.383 N 
ATOM     17  H   UNL A   1      34.385  21.799  23.831  1.00  0.00     0.160 HD
BRANCH  16  18
ATOM     18  C   UNL A   1      32.344  21.538  23.778  1.00  0.00     0.117 C 
BRANCH  18  19
ATOM     19  C   UNL A   1      32.165  20.613  24.993  1.00  0.00     0.052 C 
BRANCH  19  20
ATOM     20  C   UNL A   1      32.641  19.199  24.722  1.00  0.00    -0.072 C 
ATOM     21  C   UNL A   1      32.795  18.300  25.712  1.00  0.00    -0.028 C 
ATOM     22  C   UNL A   1      32.879  18.828  23.277  1.00  0.00     0.031 C 
ATOM     23  C   UNL A   1      33.153  16.861  25.493  1.00  0.00     0.027 C 
ATOM     24  C   UNL A   1      32.939  17.319  23.026  1.00  0.00     0.005 C 
ATOM     25  C   UNL A   1      33.736  16.597  24.107  1.00  0.00     0.004 C 
ENDBRANCH  19  20
ENDBRANCH  18  19
ENDBRANCH  16  18
ENDBRANCH  14  16
ENDBRANCH   3   6
ENDBRANCH   1   2
BRANCH   1  26
ATOM     26  C   UNL A   1      38.459  21.953  25.672  1.00  0.00     0.042 C 
BRANCH  26  27
ATOM     27  C   UNL A   1      39.566  22.165  26.693  1.00  0.00     0.118 C 
BRANCH  27  28
ATOM     28  N   UNL A   1      40.885  22.013  26.081  1.00  0.00    -0.352 N 
ATOM     29  C   UNL A   1      41.842  22.967  25.836  1.00  0.00     0.251 C 
ATOM     30  H   UNL A   1      41.121  21.097  25.804  1.00  0.00     0.163 HD
ATOM     31  O   UNL A   1      42.745  22.728  25.032  1.00  0.00    -0.269 OA
BRANCH  29  32
ATOM     32  C   UNL A   1      41.789  24.261  26.532  1.00  0.00     0.039 A 
ATOM     33  C   UNL A   1      41.041  25.315  25.994  1.00  0.00     0.014 A 
ATOM     34  C   UNL A   1      42.530  24.439  27.700  1.00  0.00     0.014 A 
ATOM     35  C   UNL A   1      41.013  26.532  26.663  1.00  0.00     0.010 A 
ATOM     36  C   UNL A   1      42.404  25.595  28.426  1.00  0.00     0.010 A 
ATOM     37  C   UNL A   1      41.698  26.658  27.879  1.00  0.00    -0.014 A 
BRANCH  37  38
ATOM     38  C   UNL A   1      41.614  27.885  28.650  1.00  0.00     0.031 A 
ATOM     39  C   UNL A   1      42.604  28.918  28.258  1.00  0.00     0.074 A 
ATOM     40  C   UNL A   1      40.583  28.140  29.481  1.00  0.00     0.049 A 
ATOM     41  N   UNL A   1      43.632  29.324  28.928  1.00  0.00    -0.248 NA
ATOM     42  C   UNL A   1      42.530  29.458  26.891  1.00  0.00     0.031 C 
ATOM     43  C   UNL A   1      39.365  27.345  29.686  1.00  0.00     0.029 A 
ATOM     44  N   UNL A   1      40.341  29.255  30.218  1.00  0.00    -0.354 N 
ATOM     45  C   UNL A   1      44.176  30.358  28.173  1.00  0.00     0.074 A 
ATOM     46  C   UNL A   1      43.607  30.244  26.856  1.00  0.00     0.031 C 
ATOM     47  C   UNL A   1      38.426  28.109  30.289  1.00  0.00     0.029 A 
ATOM     48  C   UNL A   1      39.026  29.374  30.661  1.00  0.00     0.049 A 
ATOM     49  H   UNL A   1      41.037  29.922  30.422  1.00  0.00     0.167 HD
ATOM     50  C   UNL A   1      44.820  31.402  28.763  1.00  0.00     0.034 A 
ATOM     51  C   UNL A   1      38.480  30.471  31.240  1.00  0.00     0.034 A 
ATOM     52  C   UNL A   1      45.157  31.115  30.133  1.00  0.00     0.049 A 
ATOM     53  C   UNL A   1      39.614  31.262  31.777  1.00  0.00     0.074 A 
ATOM     54  C   UNL A   1      45.891  30.142  30.782  1.00  0.00     0.029 A 
ATOM     55  N   UNL A   1      44.356  31.686  31.091  1.00  0.00    -0.354 N 
ATOM     56  N   UNL A   1      40.402  30.848  32.731  1.00  0.00    -0.248 NA
ATOM     57  C   UNL A   1      40.121  32.362  30.975  1.00  0.00     0.031 C 
ATOM     58  C   UNL A   1      45.155  29.861  31.971  1.00  0.00     0.029 A 
ATOM     59  C   UNL A   1      44.053  30.718  32.010  1.00  0.00     0.049 A 
ATOM     60  H   UNL A   1      44.053  32.623  31.113  1.00  0.00     0.167 HD
ATOM     61  C   UNL A   1      41.657  31.316  32.367  1.00  0.00     0.074 A 
ATOM     62  C   UNL A   1      41.400  32.338  31.355  1.00  0.00     0.031 C 
ATOM     63  C   UNL A   1      42.788  30.634  32.707  1.00  0.00     0.034 A 
BRANCH  50  64
ATOM     64  C   UNL A   1      44.796  32.820  28.244  1.00  0.00     0.023 A 
ATOM     65  C   UNL A   1      43.541  33.457  28.136  1.00  0.00     0.012 A 
ATOM     66  C   UNL A   1      45.890  33.449  27.606  1.00  0.00     0.148 A 
ATOM     67  C   UNL A   1      43.381  34.642  27.409  1.00  0.00     0.002 A 
ATOM     68  C   UNL A   1      45.744  34.670  26.961  1.00  0.00     0.091 A 
ATOM     69  F   UNL A   1      47.056  32.806  27.488  1.00  0.00    -0.205 F 
ATOM     70  C   UNL A   1      44.486  35.259  26.834  1.00  0.00     0.022 A 
BRANCH  68  71
ATOM     71  S   UNL A   1      47.156  35.519  26.244  1.00  0.00     0.127 S 
ATOM     72  O   UNL A   1      47.457  34.665  25.100  1.00  0.00    -0.237 OA
ATOM     73  O   UNL A   1      46.586  36.826  25.915  1.00  0.00    -0.237 OA
ATOM     74  O   UNL A   1      48.155  35.557  27.305  1.00  0.00    -0.744 OA
ENDBRANCH  68  71
ENDBRANCH  50  64
BRANCH  51  75
ATOM     75  C   UNL A   1      37.111  31.038  31.149  1.00  0.00     0.023 A 
ATOM     76  C   UNL A   1      36.519  31.565  32.317  1.00  0.00     0.012 A 
ATOM     77  C   UNL A   1      36.517  31.356  29.907  1.00  0.00     0.148 A 
ATOM     78  C   UNL A   1      35.428  32.438  32.250  1.00  0.00     0.002 A 
ATOM     79  C   UNL A   1      35.421  32.217  29.847  1.00  0.00     0.091 A 
ATOM     80  F   UNL A   1      37.080  30.900  28.781  1.00  0.00    -0.205 F 
ATOM     81  C   UNL A   1      34.889  32.777  31.014  1.00  0.00     0.022 A 
BRANCH  79  82
ATOM     82  S   UNL A   1      34.670  32.700  28.285  1.00  0.00     0.127 S 
ATOM     83  O   UNL A   1      35.791  33.334  27.589  1.00  0.00    -0.237 OA
ATOM     84  O   UNL A   1      34.258  31.412  27.734  1.00  0.00    -0.237 OA
ATOM     85  O   UNL A   1      33.592  33.617  28.635  1.00  0.00    -0.744 OA
ENDBRANCH  79  82
ENDBRANCH  51  75
BRANCH  63  86
ATOM     86  C   UNL A   1      42.669  29.516  33.713  1.00  0.00     0.023 A 
ATOM     87  C   UNL A   1      42.124  28.259  33.383  1.00  0.00     0.012 A 
ATOM     88  C   UNL A   1      43.315  29.677  34.949  1.00  0.00     0.148 A 
ATOM     89  C   UNL A   1      42.223  27.182  34.270  1.00  0.00     0.002 A 
ATOM     90  C   UNL A   1      43.446  28.597  35.811  1.00  0.00     0.091 A 
ATOM     91  F   UNL A   1      43.837  30.880  35.235  1.00  0.00    -0.205 F 
ATOM     92  C   UNL A   1      42.898  27.347  35.478  1.00  0.00     0.022 A 
BRANCH  90  93
ATOM     93  S   UNL A   1      44.401  28.706  37.327  1.00  0.00     0.127 S 
ATOM     94  O   UNL A   1      43.822  29.885  37.967  1.00  0.00    -0.237 OA
ATOM     95  O   UNL A   1      44.086  27.436  37.982  1.00  0.00    -0.237 OA
ATOM     96  O   UNL A   1      45.794  28.843  36.920  1.00  0.00    -0.744 OA
ENDBRANCH  90  93
ENDBRANCH  63  86
ENDBRANCH  37  38
ENDBRANCH  29  32
ENDBRANCH  27  28
ENDBRANCH  26  27
ENDBRANCH   1  26
TORSDOF 17
ENDMDL
MODEL 2
REMARK VINA RESULT:     -12.1      1.645      2.129
REMARK SMILES Cn1ncc2c(NCCC3=CCCCC3)c(C(=O)NCCCNC(=O)c3ccc(-c4c5nc(c(-c6cccc(S(=O)(=O)[O-])c6F)c6ccc([nH]6)c(-c6cccc(S(=O)(=O)[O-])c6F)c6nc(c(-c7cccc(S(=O)(=O)[O-])c7F)c7ccc4[nH]7)C=C6)C=C5)cc3)cnc21
REMARK SMILES IDX 20 1 19 2 17 3 18 4 16 6 1 7 2 8 3 9 91 10 4 11 5 12 90 13
REMARK SMILES IDX 6 14 89 15 7 16 8 18 9 19 10 20 11 21 15 22 12 23 14 24
REMARK SMILES IDX 13 25 21 26 22 27 23 28 24 29 25 31 26 32 27 33 88 34 28 35
REMARK SMILES IDX 87 36 29 37 30 38 31 39 81 40 32 41 86 42 80 43 82 44 33 45
REMARK SMILES IDX 85 46 79 47 78 48 34 50 66 51 46 52 65 53 47 54 50 55 64 56
REMARK SMILES IDX 83 57 48 58 49 59 63 61 84 62 51 63 35 64 36 65 44 66 37 67
REMARK SMILES IDX 39 68 45 69 38 70 40 71 41 72 42 73 43 74 67 75 68 76 76 77
REMARK SMILES IDX 69 78 71 79 77 80 70 81 72 82 73 83 74 84 75 85 52 86 53 87
REMARK SMILES IDX 61 88 54 89 56 90 62 91 55 92 57 93 58 94 59 95 60 96
REMARK H PARENT 19 5 7 17 23 30 82 49 50 60
REMARK Flexibility Score: inf
ROOT
ATOM      1  C   UNL A   1      37.008  22.809  25.322  1.00  0.00     0.118 C 
ENDROOT
BRANCH   1   2
ATOM      2  N   UNL A   1      36.337  22.875  24.034  1.00  0.00    -0.352 N 
ATOM      3  C   UNL A   1      35.150  23.406  23.594  1.00  0.00     0.254 C 
ATOM      4  O   UNL A   1      34.908  23.245  22.395  1.00  0.00    -0.269 OA
ATOM      5  H   UNL A   1      36.850  22.439  23.315  1.00  0.00     0.163 HD
BRANCH   3   6
ATOM      6  C   UNL A   1      34.190  24.185  24.443  1.00  0.00     0.082 A 
ATOM      7  C   UNL A   1      31.496  27.748  26.987  1.00  0.00     0.176 C 
ATOM      8  N   UNL A   1      31.485  26.393  26.498  1.00  0.00    -0.250 N 
ATOM      9  N   UNL A   1      30.387  25.628  26.650  1.00  0.00    -0.179 NA
ATOM     10  C   UNL A   1      32.505  25.768  25.840  1.00  0.00     0.159 A 
ATOM     11  C   UNL A   1      30.751  24.473  26.077  1.00  0.00     0.147 A 
ATOM     12  C   UNL A   1      32.064  24.485  25.537  1.00  0.00     0.063 A 
ATOM     13  N   UNL A   1      33.703  26.311  25.570  1.00  0.00    -0.236 NA
ATOM     14  C   UNL A   1      32.940  23.606  24.845  1.00  0.00     0.061 A 
ATOM     15  C   UNL A   1      34.506  25.465  24.889  1.00  0.00     0.129 A 
BRANCH  14  16
ATOM     16  N   UNL A   1      32.669  22.279  24.548  1.00  0.00    -0.383 N 
ATOM     17  H   UNL A   1      32.291  22.138  23.650  1.00  0.00     0.160 HD
BRANCH  16  18
ATOM     18  C   UNL A   1      32.837  21.063  25.318  1.00  0.00     0.117 C 
BRANCH  18  19
ATOM     19  C   UNL A   1      34.029  20.247  24.790  1.00  0.00     0.052 C 
BRANCH  19  20
ATOM     20  C   UNL A   1      33.780  18.752  24.851  1.00  0.00    -0.072 C 
ATOM     21  C   UNL A   1      32.689  18.238  25.450  1.00  0.00    -0.028 C 
ATOM     22  C   UNL A   1      34.787  17.867  24.157  1.00  0.00     0.031 C 
ATOM     23  C   UNL A   1      32.334  16.782  25.444  1.00  0.00     0.027 C 
ATOM     24  C   UNL A   1      34.283  16.448  23.885  1.00  0.00     0.005 C 
ATOM     25  C   UNL A   1      33.512  15.884  25.074  1.00  0.00     0.004 C 
ENDBRANCH  19  20
ENDBRANCH  18  19
ENDBRANCH  16  18
ENDBRANCH  14  16
ENDBRANCH   3   6
ENDBRANCH   1   2
BRANCH   1  26
ATOM     26  C   UNL A   1      38.173  21.810  25.286  1.00  0.00     0.042 C 
BRANCH  26  27
ATOM     27  C   UNL A   1      39.166  22.077  26.407  1.00  0.00     0.118 C 
BRANCH  27  28
ATOM     28  N   UNL A   1      40.542  21.888  25.949  1.00  0.00    -0.352 N 
ATOM     29  C   UNL A   1      41.565  22.800  25.881  1.00  0.00     0.251 C 
ATOM     30  H   UNL A   1      40.766  20.978  25.647  1.00  0.00     0.163 HD
ATOM     31  O   UNL A   1      42.548  22.559  25.178  1.00  0.00    -0.269 OA
BRANCH  29  32
ATOM     32  C   UNL A   1      41.489  24.055  26.645  1.00  0.00     0.039 A 
ATOM     33  C   UNL A   1      42.125  24.159  27.887  1.00  0.00     0.014 A 
ATOM     34  C   UNL A   1      40.737  25.116  26.141  1.00  0.00     0.014 A 
ATOM     35  C   UNL A   1      42.031  25.350  28.595  1.00  0.00     0.010 A 
ATOM     36  C   UNL A   1      40.747  26.331  26.776  1.00  0.00     0.010 A 
ATOM     37  C   UNL A   1      41.341  26.428  28.027  1.00  0.00    -0.014 A 
BRANCH  37  38
ATOM     38  C   UNL A   1      41.303  27.716  28.697  1.00  0.00     0.031 A 
ATOM     39  C   UNL A   1      42.275  28.705  28.169  1.00  0.00     0.074 A 
ATOM     40  C   UNL A   1      40.318  28.048  29.556  1.00  0.00     0.049 A 
ATOM     41  N   UNL A   1      43.338  29.157  28.748  1.00  0.00    -0.248 NA
ATOM     42  C   UNL A   1      42.131  29.130  26.767  1.00  0.00     0.031 C 
ATOM     43  C   UNL A   1      39.109  27.282  29.889  1.00  0.00     0.029 A 
ATOM     44  N   UNL A   1      40.119  29.222  30.209  1.00  0.00    -0.354 N 
ATOM     45  C   UNL A   1      43.846  30.120  27.882  1.00  0.00     0.074 A 
ATOM     46  C   UNL A   1      43.208  29.901  26.610  1.00  0.00     0.031 C 
ATOM     47  C   UNL A   1      38.207  28.102  30.474  1.00  0.00     0.029 A 
ATOM     48  C   UNL A   1      38.830  29.389  30.708  1.00  0.00     0.049 A 
ATOM     49  H   UNL A   1      40.827  29.898  30.320  1.00  0.00     0.167 HD
ATOM     50  C   UNL A   1      44.524  31.204  28.348  1.00  0.00     0.034 A 
ATOM     51  C   UNL A   1      38.319  30.534  31.221  1.00  0.00     0.034 A 
ATOM     52  C   UNL A   1      44.931  31.030  29.718  1.00  0.00     0.049 A 
ATOM     53  C   UNL A   1      39.482  31.358  31.630  1.00  0.00     0.074 A 
ATOM     54  C   UNL A   1      45.695  30.108  30.407  1.00  0.00     0.029 A 
ATOM     55  N   UNL A   1      44.184  31.685  30.665  1.00  0.00    -0.354 N 
ATOM     56  N   UNL A   1      40.318  31.019  32.573  1.00  0.00    -0.248 NA
ATOM     57  C   UNL A   1      39.951  32.383  30.713  1.00  0.00     0.031 C 
ATOM     58  C   UNL A   1      45.021  29.933  31.652  1.00  0.00     0.029 A 
ATOM     59  C   UNL A   1      43.926  30.799  31.676  1.00  0.00     0.049 A 
ATOM     60  H   UNL A   1      43.886  32.623  30.625  1.00  0.00     0.167 HD
ATOM     61  C   UNL A   1      41.554  31.445  32.106  1.00  0.00     0.074 A 
ATOM     62  C   UNL A   1      41.248  32.380  31.027  1.00  0.00     0.031 C 
ATOM     63  C   UNL A   1      42.698  30.784  32.443  1.00  0.00     0.034 A 
BRANCH  50  64
ATOM     64  C   UNL A   1      44.478  32.574  27.714  1.00  0.00     0.023 A 
ATOM     65  C   UNL A   1      45.550  32.943  26.872  1.00  0.00     0.012 A 
ATOM     66  C   UNL A   1      43.596  33.604  28.115  1.00  0.00     0.148 A 
ATOM     67  C   UNL A   1      45.746  34.269  26.473  1.00  0.00     0.002 A 
ATOM     68  C   UNL A   1      43.744  34.903  27.646  1.00  0.00     0.091 A 
ATOM     69  F   UNL A   1      42.690  33.375  29.071  1.00  0.00    -0.205 F 
ATOM     70  C   UNL A   1      44.833  35.249  26.846  1.00  0.00     0.022 A 
BRANCH  68  71
ATOM     71  S   UNL A   1      42.560  36.185  28.071  1.00  0.00     0.127 S 
ATOM     72  O   UNL A   1      41.295  35.474  27.918  1.00  0.00    -0.237 OA
ATOM     73  O   UNL A   1      42.936  36.498  29.450  1.00  0.00    -0.237 OA
ATOM     74  O   UNL A   1      42.814  37.266  27.126  1.00  0.00    -0.744 OA
ENDBRANCH  68  71
ENDBRANCH  50  64
BRANCH  51  75
ATOM     75  C   UNL A   1      36.949  31.103  31.153  1.00  0.00     0.023 A 
ATOM     76  C   UNL A   1      36.368  31.606  32.338  1.00  0.00     0.012 A 
ATOM     77  C   UNL A   1      36.344  31.446  29.924  1.00  0.00     0.148 A 
ATOM     78  C   UNL A   1      35.277  32.481  32.298  1.00  0.00     0.002 A 
ATOM     79  C   UNL A   1      35.247  32.307  29.891  1.00  0.00     0.091 A 
ATOM     80  F   UNL A   1      36.896  31.013  28.784  1.00  0.00    -0.205 F 
ATOM     81  C   UNL A   1      34.726  32.844  31.074  1.00  0.00     0.022 A 
BRANCH  79  82
ATOM     82  S   UNL A   1      34.482  32.821  28.346  1.00  0.00     0.127 S 
ATOM     83  O   UNL A   1      33.557  33.864  28.794  1.00  0.00    -0.237 OA
ATOM     84  O   UNL A   1      35.629  33.307  27.585  1.00  0.00    -0.237 OA
ATOM     85  O   UNL A   1      33.826  31.630  27.819  1.00  0.00    -0.744 OA
ENDBRANCH  79  82
ENDBRANCH  51  75
BRANCH  63  86
ATOM     86  C   UNL A   1      42.628  29.755  33.544  1.00  0.00     0.023 A 
ATOM     87  C   UNL A   1      42.156  28.445  33.323  1.00  0.00     0.012 A 
ATOM     88  C   UNL A   1      43.250  30.061  34.765  1.00  0.00     0.148 A 
ATOM     89  C   UNL A   1      42.303  27.459  34.304  1.00  0.00     0.002 A 
ATOM     90  C   UNL A   1      43.429  29.070  35.721  1.00  0.00     0.091 A 
ATOM     91  F   UNL A   1      43.702  31.311  34.946  1.00  0.00    -0.205 F 
ATOM     92  C   UNL A   1      42.954  27.767  35.497  1.00  0.00     0.022 A 
BRANCH  90  93
ATOM     93  S   UNL A   1      44.358  29.366  37.227  1.00  0.00     0.127 S 
ATOM     94  O   UNL A   1      44.248  28.080  37.911  1.00  0.00    -0.237 OA
ATOM     95  O   UNL A   1      45.693  29.674  36.712  1.00  0.00    -0.237 OA
ATOM     96  O   UNL A   1      43.701  30.482  37.897  1.00  0.00    -0.744 OA
ENDBRANCH  90  93
ENDBRANCH  63  86
ENDBRANCH  37  38
ENDBRANCH  29  32
ENDBRANCH  27  28
ENDBRANCH  26  27
ENDBRANCH   1  26
TORSDOF 17
ENDMDL
MODEL 3
REMARK VINA RESULT:     -12.0      1.484      3.569
REMARK SMILES Cn1ncc2c(NCCC3=CCCCC3)c(C(=O)NCCCNC(=O)c3ccc(-c4c5nc(c(-c6cccc(S(=O)(=O)[O-])c6F)c6ccc([nH]6)c(-c6cccc(S(=O)(=O)[O-])c6F)c6nc(c(-c7cccc(S(=O)(=O)[O-])c7F)c7ccc4[nH]7)C=C6)C=C5)cc3)cnc21
REMARK SMILES IDX 20 1 19 2 17 3 18 4 16 6 1 7 2 8 3 9 91 10 4 11 5 12 90 13
REMARK SMILES IDX 6 14 89 15 7 16 8 18 9 19 10 20 11 21 15 22 12 23 14 24
REMARK SMILES IDX 13 25 21 26 22 27 23 28 24 29 25 31 26 32 27 33 88 34 28 35
REMARK SMILES IDX 87 36 29 37 30 38 31 39 81 40 32 41 86 42 80 43 82 44 33 45
REMARK SMILES IDX 85 46 79 47 78 48 34 50 66 51 46 52 65 53 47 54 50 55 64 56
REMARK SMILES IDX 83 57 48 58 49 59 63 61 84 62 51 63 35 64 36 65 44 66 37 67
REMARK SMILES IDX 39 68 45 69 38 70 40 71 41 72 42 73 43 74 67 75 68 76 76 77
REMARK SMILES IDX 69 78 71 79 77 80 70 81 72 82 73 83 74 84 75 85 52 86 53 87
REMARK SMILES IDX 61 88 54 89 56 90 62 91 55 92 57 93 58 94 59 95 60 96
REMARK H PARENT 19 5 7 17 23 30 82 49 50 60
REMARK Flexibility Score: inf
ROOT
ATOM      1  C   UNL A   1      36.718  22.661  25.355  1.00  0.00     0.118 C 
ENDROOT
BRANCH   1   2
ATOM      2  N   UNL A   1      36.234  22.841  23.996  1.00  0.00    -0.352 N 
ATOM      3  C   UNL A   1      34.998  23.055  23.437  1.00  0.00     0.254 C 
ATOM      4  O   UNL A   1      34.981  23.145  22.207  1.00  0.00    -0.269 OA
ATOM      5  H   UNL A   1      36.954  22.801  23.326  1.00  0.00     0.163 HD
BRANCH   3   6
ATOM      6  C   UNL A   1      33.723  23.229  24.208  1.00  0.00     0.082 A 
ATOM      7  C   UNL A   1      29.547  22.753  27.166  1.00  0.00     0.176 C 
ATOM      8  N   UNL A   1      30.433  23.691  26.527  1.00  0.00    -0.250 N 
ATOM      9  N   UNL A   1      30.264  25.015  26.709  1.00  0.00    -0.179 NA
ATOM     10  C   UNL A   1      31.500  23.376  25.734  1.00  0.00     0.159 A 
ATOM     11  C   UNL A   1      31.258  25.542  25.982  1.00  0.00     0.147 A 
ATOM     12  C   UNL A   1      32.083  24.577  25.346  1.00  0.00     0.063 A 
ATOM     13  N   UNL A   1      31.875  22.133  25.395  1.00  0.00    -0.236 NA
ATOM     14  C   UNL A   1      33.226  24.542  24.503  1.00  0.00     0.061 A 
ATOM     15  C   UNL A   1      32.979  22.126  24.616  1.00  0.00     0.129 A 
BRANCH  14  16
ATOM     16  N   UNL A   1      33.862  25.654  23.974  1.00  0.00    -0.383 N 
ATOM     17  H   UNL A   1      34.742  25.842  24.374  1.00  0.00     0.160 HD
BRANCH  16  18
ATOM     18  C   UNL A   1      33.468  26.592  22.941  1.00  0.00     0.117 C 
BRANCH  18  19
ATOM     19  C   UNL A   1      33.797  28.033  23.362  1.00  0.00     0.052 C 
BRANCH  19  20
ATOM     20  C   UNL A   1      33.252  28.375  24.736  1.00  0.00    -0.072 C 
ATOM     21  C   UNL A   1      33.947  28.113  25.859  1.00  0.00    -0.028 C 
ATOM     22  C   UNL A   1      31.916  29.077  24.783  1.00  0.00     0.031 C 
ATOM     23  C   UNL A   1      33.513  28.528  27.233  1.00  0.00     0.027 C 
ATOM     24  C   UNL A   1      31.622  29.763  26.119  1.00  0.00     0.005 C 
ATOM     25  C   UNL A   1      32.032  28.894  27.303  1.00  0.00     0.004 C 
ENDBRANCH  19  20
ENDBRANCH  18  19
ENDBRANCH  16  18
ENDBRANCH  14  16
ENDBRANCH   3   6
ENDBRANCH   1   2
BRANCH   1  26
ATOM     26  C   UNL A   1      38.046  21.890  25.368  1.00  0.00     0.042 C 
BRANCH  26  27
ATOM     27  C   UNL A   1      39.019  22.481  26.377  1.00  0.00     0.118 C 
BRANCH  27  28
ATOM     28  N   UNL A   1      40.401  22.153  26.032  1.00  0.00    -0.352 N 
ATOM     29  C   UNL A   1      41.503  22.971  25.994  1.00  0.00     0.251 C 
ATOM     30  H   UNL A   1      40.566  21.211  25.792  1.00  0.00     0.163 HD
ATOM     31  O   UNL A   1      42.507  22.610  25.378  1.00  0.00    -0.269 OA
BRANCH  29  32
ATOM     32  C   UNL A   1      41.483  24.268  26.687  1.00  0.00     0.039 A 
ATOM     33  C   UNL A   1      40.758  25.338  26.149  1.00  0.00     0.014 A 
ATOM     34  C   UNL A   1      42.232  24.431  27.852  1.00  0.00     0.014 A 
ATOM     35  C   UNL A   1      40.762  26.557  26.816  1.00  0.00     0.010 A 
ATOM     36  C   UNL A   1      42.136  25.591  28.576  1.00  0.00     0.010 A 
ATOM     37  C   UNL A   1      41.453  26.669  28.028  1.00  0.00    -0.014 A 
BRANCH  37  38
ATOM     38  C   UNL A   1      41.401  27.899  28.798  1.00  0.00     0.031 A 
ATOM     39  C   UNL A   1      42.414  28.908  28.400  1.00  0.00     0.074 A 
ATOM     40  C   UNL A   1      40.379  28.181  29.631  1.00  0.00     0.049 A 
ATOM     41  N   UNL A   1      43.453  29.291  29.066  1.00  0.00    -0.248 NA
ATOM     42  C   UNL A   1      42.348  29.447  27.032  1.00  0.00     0.031 C 
ATOM     43  C   UNL A   1      39.143  27.415  29.841  1.00  0.00     0.029 A 
ATOM     44  N   UNL A   1      40.165  29.303  30.366  1.00  0.00    -0.354 N 
ATOM     45  C   UNL A   1      44.020  30.310  28.307  1.00  0.00     0.074 A 
ATOM     46  C   UNL A   1      43.444  30.207  26.991  1.00  0.00     0.031 C 
ATOM     47  C   UNL A   1      38.225  28.203  30.445  1.00  0.00     0.029 A 
ATOM     48  C   UNL A   1      38.856  29.454  30.813  1.00  0.00     0.049 A 
ATOM     49  H   UNL A   1      40.878  29.954  30.566  1.00  0.00     0.167 HD
ATOM     50  C   UNL A   1      44.690  31.340  28.893  1.00  0.00     0.034 A 
ATOM     51  C   UNL A   1      38.337  30.565  31.391  1.00  0.00     0.034 A 
ATOM     52  C   UNL A   1      45.025  31.048  30.262  1.00  0.00     0.049 A 
ATOM     53  C   UNL A   1      39.491  31.330  31.923  1.00  0.00     0.074 A 
ATOM     54  C   UNL A   1      45.737  30.059  30.911  1.00  0.00     0.029 A 
ATOM     55  N   UNL A   1      44.240  31.640  31.221  1.00  0.00    -0.354 N 
ATOM     56  N   UNL A   1      40.273  30.899  32.875  1.00  0.00    -0.248 NA
ATOM     57  C   UNL A   1      40.022  32.416  31.116  1.00  0.00     0.031 C 
ATOM     58  C   UNL A   1      44.998  29.798  32.103  1.00  0.00     0.029 A 
ATOM     59  C   UNL A   1      43.917  30.681  32.143  1.00  0.00     0.049 A 
ATOM     60  H   UNL A   1      43.960  32.584  31.242  1.00  0.00     0.167 HD
ATOM     61  C   UNL A   1      41.537  31.337  32.507  1.00  0.00     0.074 A 
ATOM     62  C   UNL A   1      41.302  32.362  31.493  1.00  0.00     0.031 C 
ATOM     63  C   UNL A   1      42.652  30.629  32.845  1.00  0.00     0.034 A 
BRANCH  50  64
ATOM     64  C   UNL A   1      44.698  32.757  28.370  1.00  0.00     0.023 A 
ATOM     65  C   UNL A   1      43.465  33.442  28.315  1.00  0.00     0.012 A 
ATOM     66  C   UNL A   1      45.787  33.341  27.683  1.00  0.00     0.148 A 
ATOM     67  C   UNL A   1      43.319  34.631  27.592  1.00  0.00     0.002 A 
ATOM     68  C   UNL A   1      45.660  34.566  27.041  1.00  0.00     0.091 A 
ATOM     69  F   UNL A   1      46.921  32.654  27.516  1.00  0.00    -0.205 F 
ATOM     70  C   UNL A   1      44.421  35.204  26.967  1.00  0.00     0.022 A 
BRANCH  68  71
ATOM     71  S   UNL A   1      47.071  35.359  26.261  1.00  0.00     0.127 S 
ATOM     72  O   UNL A   1      47.292  34.489  25.110  1.00  0.00    -0.237 OA
ATOM     73  O   UNL A   1      46.536  36.684  25.947  1.00  0.00    -0.237 OA
ATOM     74  O   UNL A   1      48.114  35.365  27.278  1.00  0.00    -0.744 OA
ENDBRANCH  68  71
ENDBRANCH  50  64
BRANCH  51  75
ATOM     75  C   UNL A   1      36.982  31.165  31.302  1.00  0.00     0.023 A 
ATOM     76  C   UNL A   1      36.388  31.667  32.481  1.00  0.00     0.012 A 
ATOM     77  C   UNL A   1      36.410  31.535  30.066  1.00  0.00     0.148 A 
ATOM     78  C   UNL A   1      35.317  32.565  32.429  1.00  0.00     0.002 A 
ATOM     79  C   UNL A   1      35.333  32.420  30.020  1.00  0.00     0.091 A 
ATOM     80  F   UNL A   1      36.975  31.102  28.931  1.00  0.00    -0.205 F 
ATOM     81  C   UNL A   1      34.799  32.955  31.199  1.00  0.00     0.022 A 
BRANCH  79  82
ATOM     82  S   UNL A   1      34.611  32.969  28.466  1.00  0.00     0.127 S 
ATOM     83  O   UNL A   1      33.996  31.739  27.963  1.00  0.00    -0.237 OA
ATOM     84  O   UNL A   1      33.665  33.987  28.913  1.00  0.00    -0.237 OA
ATOM     85  O   UNL A   1      35.729  33.447  27.662  1.00  0.00    -0.744 OA
ENDBRANCH  79  82
ENDBRANCH  51  75
BRANCH  63  86
ATOM     86  C   UNL A   1      42.510  29.517  33.854  1.00  0.00     0.023 A 
ATOM     87  C   UNL A   1      41.848  28.308  33.556  1.00  0.00     0.012 A 
ATOM     88  C   UNL A   1      43.245  29.617  35.046  1.00  0.00     0.148 A 
ATOM     89  C   UNL A   1      41.918  27.221  34.432  1.00  0.00     0.002 A 
ATOM     90  C   UNL A   1      43.345  28.524  35.895  1.00  0.00     0.091 A 
ATOM     91  F   UNL A   1      43.876  30.773  35.301  1.00  0.00    -0.205 F 
ATOM     92  C   UNL A   1      42.680  27.323  35.595  1.00  0.00     0.022 A 
BRANCH  90  93
ATOM     93  S   UNL A   1      44.399  28.546  37.346  1.00  0.00     0.127 S 
ATOM     94  O   UNL A   1      45.731  28.649  36.755  1.00  0.00    -0.237 OA
ATOM     95  O   UNL A   1      43.943  29.751  38.042  1.00  0.00    -0.237 OA
ATOM     96  O   UNL A   1      44.133  27.304  38.062  1.00  0.00    -0.744 OA
ENDBRANCH  90  93
ENDBRANCH  63  86
ENDBRANCH  37  38
ENDBRANCH  29  32
ENDBRANCH  27  28
ENDBRANCH  26  27
ENDBRANCH   1  26
TORSDOF 17
ENDMDL
