MODEL 1
REMARK VINA RESULT:     -12.4      0.000      0.000
REMARK SMILES O=C(NCCCNC(=O)[C@@H](Cc1cccc(F)c1)[C@H]1CCOC2(CCC2)C1)c1ccc(-c2c3nc(c(-c4cccc(S(=O)(=O)[O-])c4F)c4ccc([nH]4)c(-c4cccc(S(=O)(=O)[O-])c4F)c4nc(c(-c5cccc(S(=O)(=O)[O-])c5F)c5ccc2[nH]5)C=C4)C=C3)cc1
REMARK SMILES IDX 4 1 3 2 1 3 2 4 28 6 29 7 90 8 30 9 89 10 31 11 32 12 33 13
REMARK SMILES IDX 83 14 34 15 88 16 82 17 84 18 35 19 87 20 81 21 80 22 36 24
REMARK SMILES IDX 68 25 48 26 67 27 49 28 52 29 66 30 85 31 50 32 51 33 65 35
REMARK SMILES IDX 86 36 53 37 37 38 38 39 46 40 39 41 41 42 47 43 40 44 42 45
REMARK SMILES IDX 43 46 44 47 45 48 69 49 70 50 78 51 71 52 73 53 79 54 72 55
REMARK SMILES IDX 74 56 75 57 76 58 77 59 54 60 55 61 63 62 56 63 58 64 64 65
REMARK SMILES IDX 57 66 59 67 60 68 61 69 62 70 5 71 6 72 7 73 8 74 9 76 10 77
REMARK SMILES IDX 11 78 12 79 13 80 18 81 14 82 16 83 15 84 17 85 19 86 20 87
REMARK SMILES IDX 27 88 21 89 23 90 22 91 24 92 26 93 25 94
REMARK H PARENT 3 5 84 23 52 34 7 75
REMARK Flexibility Score: inf
ROOT
ATOM      1  C   UNL A   1      32.652  30.318  26.322  1.00  0.00     0.118 C 
ENDROOT
BRANCH   1   2
ATOM      2  N   UNL A   1      32.630  31.735  26.670  1.00  0.00    -0.352 N 
ATOM      3  O   UNL A   1      33.061  33.695  27.635  1.00  0.00    -0.269 OA
ATOM      4  C   UNL A   1      33.436  32.537  27.450  1.00  0.00     0.251 C 
ATOM      5  H   UNL A   1      31.881  32.224  26.259  1.00  0.00     0.163 HD
BRANCH   4   6
ATOM      6  C   UNL A   1      34.686  32.062  28.110  1.00  0.00     0.039 A 
ATOM      7  C   UNL A   1      34.789  30.828  28.740  1.00  0.00     0.014 A 
ATOM      8  C   UNL A   1      35.834  32.871  28.059  1.00  0.00     0.014 A 
ATOM      9  C   UNL A   1      35.936  30.474  29.441  1.00  0.00     0.010 A 
ATOM     10  C   UNL A   1      37.039  32.453  28.649  1.00  0.00     0.010 A 
ATOM     11  C   UNL A   1      37.094  31.258  29.376  1.00  0.00    -0.014 A 
BRANCH  11  12
ATOM     12  C   UNL A   1      38.333  30.742  30.024  1.00  0.00     0.031 A 
ATOM     13  C   UNL A   1      38.704  31.130  31.430  1.00  0.00     0.074 A 
ATOM     14  C   UNL A   1      39.102  29.858  29.349  1.00  0.00     0.049 A 
ATOM     15  N   UNL A   1      39.713  30.714  32.153  1.00  0.00    -0.248 NA
ATOM     16  C   UNL A   1      37.850  32.115  32.113  1.00  0.00     0.031 C 
ATOM     17  C   UNL A   1      38.871  29.430  27.965  1.00  0.00     0.029 A 
ATOM     18  N   UNL A   1      40.208  29.139  29.730  1.00  0.00    -0.354 N 
ATOM     19  C   UNL A   1      39.642  31.413  33.350  1.00  0.00     0.074 A 
ATOM     20  C   UNL A   1      38.498  32.291  33.257  1.00  0.00     0.031 C 
ATOM     21  C   UNL A   1      39.758  28.481  27.639  1.00  0.00     0.029 A 
ATOM     22  C   UNL A   1      40.676  28.287  28.755  1.00  0.00     0.049 A 
ATOM     23  H   UNL A   1      40.627  29.224  30.617  1.00  0.00     0.167 HD
ATOM     24  C   UNL A   1      40.445  31.314  34.437  1.00  0.00     0.034 A 
ATOM     25  C   UNL A   1      41.736  27.454  28.740  1.00  0.00     0.034 A 
ATOM     26  C   UNL A   1      41.548  30.398  34.546  1.00  0.00     0.049 A 
ATOM     27  C   UNL A   1      42.598  27.357  29.965  1.00  0.00     0.074 A 
ATOM     28  C   UNL A   1      42.374  30.182  35.635  1.00  0.00     0.029 A 
ATOM     29  N   UNL A   1      41.981  29.548  33.541  1.00  0.00    -0.354 N 
ATOM     30  N   UNL A   1      42.445  27.949  31.124  1.00  0.00    -0.248 NA
ATOM     31  C   UNL A   1      43.770  26.473  29.891  1.00  0.00     0.031 C 
ATOM     32  C   UNL A   1      43.329  29.228  35.277  1.00  0.00     0.029 A 
ATOM     33  C   UNL A   1      43.076  28.821  33.977  1.00  0.00     0.049 A 
ATOM     34  H   UNL A   1      41.572  29.473  32.648  1.00  0.00     0.167 HD
ATOM     35  C   UNL A   1      43.489  27.501  31.921  1.00  0.00     0.074 A 
ATOM     36  C   UNL A   1      44.252  26.563  31.124  1.00  0.00     0.031 C 
ATOM     37  C   UNL A   1      43.800  27.854  33.192  1.00  0.00     0.034 A 
BRANCH  24  38
ATOM     38  C   UNL A   1      40.150  32.189  35.627  1.00  0.00     0.023 A 
ATOM     39  C   UNL A   1      40.832  33.413  35.780  1.00  0.00     0.012 A 
ATOM     40  C   UNL A   1      39.113  31.858  36.523  1.00  0.00     0.148 A 
ATOM     41  C   UNL A   1      40.497  34.287  36.814  1.00  0.00     0.002 A 
ATOM     42  C   UNL A   1      38.755  32.755  37.524  1.00  0.00     0.091 A 
ATOM     43  F   UNL A   1      38.486  30.683  36.369  1.00  0.00    -0.205 F 
ATOM     44  C   UNL A   1      39.451  33.964  37.675  1.00  0.00     0.022 A 
BRANCH  42  45
ATOM     45  S   UNL A   1      37.367  32.475  38.630  1.00  0.00     0.127 S 
ATOM     46  O   UNL A   1      37.702  33.354  39.751  1.00  0.00    -0.237 OA
ATOM     47  O   UNL A   1      36.235  32.929  37.818  1.00  0.00    -0.237 OA
ATOM     48  O   UNL A   1      37.369  31.053  38.934  1.00  0.00    -0.744 OA
ENDBRANCH  42  45
ENDBRANCH  24  38
BRANCH  25  49
ATOM     49  C   UNL A   1      42.017  26.637  27.524  1.00  0.00     0.023 A 
ATOM     50  C   UNL A   1      42.684  27.219  26.429  1.00  0.00     0.012 A 
ATOM     51  C   UNL A   1      41.682  25.269  27.474  1.00  0.00     0.148 A 
ATOM     52  C   UNL A   1      42.998  26.457  25.302  1.00  0.00     0.002 A 
ATOM     53  C   UNL A   1      42.057  24.502  26.378  1.00  0.00     0.091 A 
ATOM     54  F   UNL A   1      41.031  24.737  28.518  1.00  0.00    -0.205 F 
ATOM     55  C   UNL A   1      42.699  25.097  25.283  1.00  0.00     0.022 A 
BRANCH  53  56
ATOM     56  S   UNL A   1      41.853  22.718  26.339  1.00  0.00     0.127 S 
ATOM     57  O   UNL A   1      42.525  22.313  27.572  1.00  0.00    -0.237 OA
ATOM     58  O   UNL A   1      40.395  22.582  26.360  1.00  0.00    -0.237 OA
ATOM     59  O   UNL A   1      42.477  22.275  25.103  1.00  0.00    -0.744 OA
ENDBRANCH  53  56
ENDBRANCH  25  49
BRANCH  37  60
ATOM     60  C   UNL A   1      45.010  27.225  33.826  1.00  0.00     0.023 A 
ATOM     61  C   UNL A   1      46.250  27.892  33.771  1.00  0.00     0.012 A 
ATOM     62  C   UNL A   1      44.889  26.047  34.591  1.00  0.00     0.148 A 
ATOM     63  C   UNL A   1      47.354  27.391  34.458  1.00  0.00     0.002 A 
ATOM     64  C   UNL A   1      45.979  25.582  35.313  1.00  0.00     0.091 A 
ATOM     65  F   UNL A   1      43.703  25.423  34.617  1.00  0.00    -0.205 F 
ATOM     66  C   UNL A   1      47.216  26.247  35.241  1.00  0.00     0.022 A 
BRANCH  64  67
ATOM     67  S   UNL A   1      45.875  24.180  36.433  1.00  0.00     0.127 S 
ATOM     68  O   UNL A   1      45.368  23.131  35.552  1.00  0.00    -0.237 OA
ATOM     69  O   UNL A   1      47.267  24.012  36.847  1.00  0.00    -0.237 OA
ATOM     70  O   UNL A   1      44.966  24.584  37.501  1.00  0.00    -0.744 OA
ENDBRANCH  64  67
ENDBRANCH  37  60
ENDBRANCH  11  12
ENDBRANCH   4   6
ENDBRANCH   1   2
BRANCH   1  71
ATOM     71  C   UNL A   1      31.777  29.469  27.239  1.00  0.00     0.042 C 
BRANCH  71  72
ATOM     72  C   UNL A   1      32.210  28.012  27.184  1.00  0.00     0.117 C 
BRANCH  72  73
ATOM     73  N   UNL A   1      31.111  27.062  27.095  1.00  0.00    -0.356 N 
ATOM     74  C   UNL A   1      30.628  26.284  26.090  1.00  0.00     0.223 C 
ATOM     75  H   UNL A   1      30.612  26.963  27.938  1.00  0.00     0.163 HD
ATOM     76  O   UNL A   1      29.746  25.477  26.422  1.00  0.00    -0.275 OA
BRANCH  74  77
ATOM     77  C   UNL A   1      31.075  26.317  24.614  1.00  0.00     0.086 C 
BRANCH  77  78
ATOM     78  C   UNL A   1      30.746  25.018  23.821  1.00  0.00     0.049 C 
BRANCH  78  79
ATOM     79  C   UNL A   1      31.682  23.837  23.846  1.00  0.00    -0.044 A 
ATOM     80  C   UNL A   1      31.407  22.710  24.639  1.00  0.00     0.004 A 
ATOM     81  C   UNL A   1      32.867  23.847  23.094  1.00  0.00     0.043 A 
ATOM     82  C   UNL A   1      32.348  21.684  24.780  1.00  0.00     0.003 A 
ATOM     83  C   UNL A   1      33.791  22.811  23.228  1.00  0.00     0.123 A 
ATOM     84  C   UNL A   1      33.554  21.745  24.086  1.00  0.00     0.039 A 
ATOM     85  F   UNL A   1      34.955  22.883  22.573  1.00  0.00    -0.207 F 
ENDBRANCH  78  79
ENDBRANCH  77  78
BRANCH  77  86
ATOM     86  C   UNL A   1      31.001  27.729  23.937  1.00  0.00     0.007 C 
ATOM     87  C   UNL A   1      31.693  27.799  22.567  1.00  0.00     0.033 C 
ATOM     88  C   UNL A   1      29.587  28.264  23.848  1.00  0.00     0.040 C 
ATOM     89  C   UNL A   1      31.532  29.198  21.980  1.00  0.00     0.161 C 
ATOM     90  C   UNL A   1      29.312  29.464  22.957  1.00  0.00     0.069 C 
ATOM     91  O   UNL A   1      30.149  29.469  21.779  1.00  0.00    -0.375 OA
ATOM     92  C   UNL A   1      27.784  29.479  22.652  1.00  0.00     0.035 C 
ATOM     93  C   UNL A   1      29.129  30.809  23.707  1.00  0.00     0.035 C 
ATOM     94  C   UNL A   1      27.677  30.891  23.217  1.00  0.00     0.006 C 
ENDBRANCH  77  86
ENDBRANCH  74  77
ENDBRANCH  72  73
ENDBRANCH  71  72
ENDBRANCH   1  71
TORSDOF 16
ENDMDL
MODEL 2
REMARK VINA RESULT:     -12.4      1.429      3.381
REMARK SMILES O=C(NCCCNC(=O)[C@@H](Cc1cccc(F)c1)[C@H]1CCOC2(CCC2)C1)c1ccc(-c2c3nc(c(-c4cccc(S(=O)(=O)[O-])c4F)c4ccc([nH]4)c(-c4cccc(S(=O)(=O)[O-])c4F)c4nc(c(-c5cccc(S(=O)(=O)[O-])c5F)c5ccc2[nH]5)C=C4)C=C3)cc1
REMARK SMILES IDX 4 1 3 2 1 3 2 4 28 6 29 7 90 8 30 9 89 10 31 11 32 12 33 13
REMARK SMILES IDX 83 14 34 15 88 16 82 17 84 18 35 19 87 20 81 21 80 22 36 24
REMARK SMILES IDX 68 25 48 26 67 27 49 28 52 29 66 30 85 31 50 32 51 33 65 35
REMARK SMILES IDX 86 36 53 37 37 38 38 39 46 40 39 41 41 42 47 43 40 44 42 45
REMARK SMILES IDX 43 46 44 47 45 48 69 49 70 50 78 51 71 52 73 53 79 54 72 55
REMARK SMILES IDX 74 56 75 57 76 58 77 59 54 60 55 61 63 62 56 63 58 64 64 65
REMARK SMILES IDX 57 66 59 67 60 68 61 69 62 70 5 71 6 72 7 73 8 74 9 76 10 77
REMARK SMILES IDX 11 78 12 79 13 80 18 81 14 82 16 83 15 84 17 85 19 86 20 87
REMARK SMILES IDX 27 88 21 89 23 90 22 91 24 92 26 93 25 94
REMARK H PARENT 3 5 84 23 52 34 7 75
REMARK Flexibility Score: inf
ROOT
ATOM      1  C   UNL A   1      32.770  30.051  26.232  1.00  0.00     0.118 C 
ENDROOT
BRANCH   1   2
ATOM      2  N   UNL A   1      32.716  31.460  26.611  1.00  0.00    -0.352 N 
ATOM      3  O   UNL A   1      33.092  33.405  27.627  1.00  0.00    -0.269 OA
ATOM      4  C   UNL A   1      33.492  32.259  27.424  1.00  0.00     0.251 C 
ATOM      5  H   UNL A   1      31.965  31.943  26.198  1.00  0.00     0.163 HD
BRANCH   4   6
ATOM      6  C   UNL A   1      34.739  31.791  28.095  1.00  0.00     0.039 A 
ATOM      7  C   UNL A   1      34.861  30.539  28.682  1.00  0.00     0.014 A 
ATOM      8  C   UNL A   1      35.866  32.632  28.100  1.00  0.00     0.014 A 
ATOM      9  C   UNL A   1      36.000  30.189  29.397  1.00  0.00     0.010 A 
ATOM     10  C   UNL A   1      37.067  32.224  28.704  1.00  0.00     0.010 A 
ATOM     11  C   UNL A   1      37.139  31.004  29.387  1.00  0.00    -0.014 A 
BRANCH  11  12
ATOM     12  C   UNL A   1      38.376  30.497  30.045  1.00  0.00     0.031 A 
ATOM     13  C   UNL A   1      38.753  30.918  31.440  1.00  0.00     0.074 A 
ATOM     14  C   UNL A   1      39.137  29.592  29.391  1.00  0.00     0.049 A 
ATOM     15  N   UNL A   1      39.761  30.514  32.171  1.00  0.00    -0.248 NA
ATOM     16  C   UNL A   1      37.907  31.926  32.100  1.00  0.00     0.031 C 
ATOM     17  C   UNL A   1      38.900  29.130  28.019  1.00  0.00     0.029 A 
ATOM     18  N   UNL A   1      40.240  28.875  29.788  1.00  0.00    -0.354 N 
ATOM     19  C   UNL A   1      39.698  31.244  33.350  1.00  0.00     0.074 A 
ATOM     20  C   UNL A   1      38.559  32.128  33.238  1.00  0.00     0.031 C 
ATOM     21  C   UNL A   1      39.780  28.167  27.715  1.00  0.00     0.029 A 
ATOM     22  C   UNL A   1      40.700  27.996  28.833  1.00  0.00     0.049 A 
ATOM     23  H   UNL A   1      40.662  28.981  30.671  1.00  0.00     0.167 HD
ATOM     24  C   UNL A   1      40.503  31.168  34.437  1.00  0.00     0.034 A 
ATOM     25  C   UNL A   1      41.755  27.156  28.837  1.00  0.00     0.034 A 
ATOM     26  C   UNL A   1      41.600  30.248  34.567  1.00  0.00     0.049 A 
ATOM     27  C   UNL A   1      42.619  27.085  30.062  1.00  0.00     0.074 A 
ATOM     28  C   UNL A   1      42.428  30.055  35.659  1.00  0.00     0.029 A 
ATOM     29  N   UNL A   1      42.026  29.370  33.582  1.00  0.00    -0.354 N 
ATOM     30  N   UNL A   1      42.473  27.707  31.206  1.00  0.00    -0.248 NA
ATOM     31  C   UNL A   1      43.785  26.192  30.008  1.00  0.00     0.031 C 
ATOM     32  C   UNL A   1      43.375  29.086  35.323  1.00  0.00     0.029 A 
ATOM     33  C   UNL A   1      43.117  28.647  34.034  1.00  0.00     0.049 A 
ATOM     34  H   UNL A   1      41.614  29.275  32.693  1.00  0.00     0.167 HD
ATOM     35  C   UNL A   1      43.517  27.272  32.012  1.00  0.00     0.074 A 
ATOM     36  C   UNL A   1      44.271  26.310  31.237  1.00  0.00     0.031 C 
ATOM     37  C   UNL A   1      43.832  27.656  33.273  1.00  0.00     0.034 A 
BRANCH  24  38
ATOM     38  C   UNL A   1      40.217  32.075  35.605  1.00  0.00     0.023 A 
ATOM     39  C   UNL A   1      40.930  33.283  35.743  1.00  0.00     0.012 A 
ATOM     40  C   UNL A   1      39.159  31.791  36.493  1.00  0.00     0.148 A 
ATOM     41  C   UNL A   1      40.606  34.186  36.755  1.00  0.00     0.002 A 
ATOM     42  C   UNL A   1      38.813  32.717  37.470  1.00  0.00     0.091 A 
ATOM     43  F   UNL A   1      38.502  30.631  36.353  1.00  0.00    -0.205 F 
ATOM     44  C   UNL A   1      39.540  33.910  37.607  1.00  0.00     0.022 A 
BRANCH  42  45
ATOM     45  S   UNL A   1      37.402  32.499  38.562  1.00  0.00     0.127 S 
ATOM     46  O   UNL A   1      37.775  33.344  39.698  1.00  0.00    -0.237 OA
ATOM     47  O   UNL A   1      36.304  33.024  37.749  1.00  0.00    -0.237 OA
ATOM     48  O   UNL A   1      37.325  31.075  38.847  1.00  0.00    -0.744 OA
ENDBRANCH  42  45
ENDBRANCH  24  38
BRANCH  25  49
ATOM     49  C   UNL A   1      42.028  26.306  27.642  1.00  0.00     0.023 A 
ATOM     50  C   UNL A   1      42.774  26.829  26.568  1.00  0.00     0.012 A 
ATOM     51  C   UNL A   1      41.604  24.963  27.592  1.00  0.00     0.148 A 
ATOM     52  C   UNL A   1      43.079  26.033  25.462  1.00  0.00     0.002 A 
ATOM     53  C   UNL A   1      41.970  24.159  26.520  1.00  0.00     0.091 A 
ATOM     54  F   UNL A   1      40.880  24.489  28.615  1.00  0.00    -0.205 F 
ATOM     55  C   UNL A   1      42.691  24.696  25.445  1.00  0.00     0.022 A 
BRANCH  53  56
ATOM     56  S   UNL A   1      41.649  22.392  26.492  1.00  0.00     0.127 S 
ATOM     57  O   UNL A   1      42.216  21.965  27.769  1.00  0.00    -0.237 OA
ATOM     58  O   UNL A   1      40.186  22.353  26.424  1.00  0.00    -0.237 OA
ATOM     59  O   UNL A   1      42.316  21.887  25.302  1.00  0.00    -0.744 OA
ENDBRANCH  53  56
ENDBRANCH  25  49
BRANCH  37  60
ATOM     60  C   UNL A   1      45.041  27.036  33.920  1.00  0.00     0.023 A 
ATOM     61  C   UNL A   1      46.285  27.692  33.842  1.00  0.00     0.012 A 
ATOM     62  C   UNL A   1      44.914  25.880  34.716  1.00  0.00     0.148 A 
ATOM     63  C   UNL A   1      47.387  27.202  34.539  1.00  0.00     0.002 A 
ATOM     64  C   UNL A   1      46.003  25.426  35.447  1.00  0.00     0.091 A 
ATOM     65  F   UNL A   1      43.723  25.265  34.763  1.00  0.00    -0.205 F 
ATOM     66  C   UNL A   1      47.244  26.080  35.353  1.00  0.00     0.022 A 
BRANCH  64  67
ATOM     67  S   UNL A   1      45.893  24.057  36.605  1.00  0.00     0.127 S 
ATOM     68  O   UNL A   1      45.152  24.659  37.711  1.00  0.00    -0.237 OA
ATOM     69  O   UNL A   1      45.144  23.063  35.836  1.00  0.00    -0.237 OA
ATOM     70  O   UNL A   1      47.267  23.678  36.915  1.00  0.00    -0.744 OA
ENDBRANCH  64  67
ENDBRANCH  37  60
ENDBRANCH  11  12
ENDBRANCH   4   6
ENDBRANCH   1   2
BRANCH   1  71
ATOM     71  C   UNL A   1      31.793  29.186  27.024  1.00  0.00     0.042 C 
BRANCH  71  72
ATOM     72  C   UNL A   1      32.142  27.714  26.865  1.00  0.00     0.117 C 
BRANCH  72  73
ATOM     73  N   UNL A   1      30.995  26.819  26.900  1.00  0.00    -0.356 N 
ATOM     74  C   UNL A   1      30.422  25.999  25.980  1.00  0.00     0.223 C 
ATOM     75  H   UNL A   1      30.538  26.804  27.772  1.00  0.00     0.163 HD
ATOM     76  O   UNL A   1      29.522  25.264  26.412  1.00  0.00    -0.275 OA
BRANCH  74  77
ATOM     77  C   UNL A   1      30.791  25.906  24.484  1.00  0.00     0.086 C 
BRANCH  77  78
ATOM     78  C   UNL A   1      30.967  27.286  23.786  1.00  0.00     0.049 C 
BRANCH  78  79
ATOM     79  C   UNL A   1      29.796  28.217  23.603  1.00  0.00    -0.044 A 
ATOM     80  C   UNL A   1      28.490  27.721  23.454  1.00  0.00     0.004 A 
ATOM     81  C   UNL A   1      29.987  29.607  23.551  1.00  0.00     0.043 A 
ATOM     82  C   UNL A   1      27.429  28.573  23.131  1.00  0.00     0.003 A 
ATOM     83  C   UNL A   1      28.920  30.450  23.246  1.00  0.00     0.123 A 
ATOM     84  C   UNL A   1      27.650  29.943  23.008  1.00  0.00     0.039 A 
ATOM     85  F   UNL A   1      29.141  31.763  23.111  1.00  0.00    -0.207 F 
ENDBRANCH  78  79
ENDBRANCH  77  78
BRANCH  77  86
ATOM     86  C   UNL A   1      31.688  24.677  24.104  1.00  0.00     0.007 C 
ATOM     87  C   UNL A   1      32.156  24.677  22.641  1.00  0.00     0.033 C 
ATOM     88  C   UNL A   1      32.865  24.498  25.040  1.00  0.00     0.040 C 
ATOM     89  C   UNL A   1      33.048  23.467  22.386  1.00  0.00     0.161 C 
ATOM     90  C   UNL A   1      33.986  23.554  24.637  1.00  0.00     0.069 C 
ATOM     91  O   UNL A   1      34.207  23.552  23.209  1.00  0.00    -0.375 OA
ATOM     92  C   UNL A   1      35.242  23.936  25.475  1.00  0.00     0.035 C 
ATOM     93  C   UNL A   1      33.977  22.181  25.359  1.00  0.00     0.035 C 
ATOM     94  C   UNL A   1      35.326  22.512  26.014  1.00  0.00     0.006 C 
ENDBRANCH  77  86
ENDBRANCH  74  77
ENDBRANCH  72  73
ENDBRANCH  71  72
ENDBRANCH   1  71
TORSDOF 16
ENDMDL
MODEL 3
REMARK VINA RESULT:     -12.3      5.292     10.018
REMARK SMILES O=C(NCCCNC(=O)[C@@H](Cc1cccc(F)c1)[C@H]1CCOC2(CCC2)C1)c1ccc(-c2c3nc(c(-c4cccc(S(=O)(=O)[O-])c4F)c4ccc([nH]4)c(-c4cccc(S(=O)(=O)[O-])c4F)c4nc(c(-c5cccc(S(=O)(=O)[O-])c5F)c5ccc2[nH]5)C=C4)C=C3)cc1
REMARK SMILES IDX 4 1 3 2 1 3 2 4 28 6 29 7 90 8 30 9 89 10 31 11 32 12 33 13
REMARK SMILES IDX 83 14 34 15 88 16 82 17 84 18 35 19 87 20 81 21 80 22 36 24
REMARK SMILES IDX 68 25 48 26 67 27 49 28 52 29 66 30 85 31 50 32 51 33 65 35
REMARK SMILES IDX 86 36 53 37 37 38 38 39 46 40 39 41 41 42 47 43 40 44 42 45
REMARK SMILES IDX 43 46 44 47 45 48 69 49 70 50 78 51 71 52 73 53 79 54 72 55
REMARK SMILES IDX 74 56 75 57 76 58 77 59 54 60 55 61 63 62 56 63 58 64 64 65
REMARK SMILES IDX 57 66 59 67 60 68 61 69 62 70 5 71 6 72 7 73 8 74 9 76 10 77
REMARK SMILES IDX 11 78 12 79 13 80 18 81 14 82 16 83 15 84 17 85 19 86 20 87
REMARK SMILES IDX 27 88 21 89 23 90 22 91 24 92 26 93 25 94
REMARK H PARENT 3 5 84 23 52 34 7 75
REMARK Flexibility Score: inf
ROOT
ATOM      1  C   UNL A   1      36.636  21.498  25.455  1.00  0.00     0.118 C 
ENDROOT
BRANCH   1   2
ATOM      2  N   UNL A   1      37.729  20.546  25.633  1.00  0.00    -0.352 N 
ATOM      3  O   UNL A   1      39.747  19.659  25.942  1.00  0.00    -0.269 OA
ATOM      4  C   UNL A   1      39.049  20.671  26.009  1.00  0.00     0.251 C 
ATOM      5  H   UNL A   1      37.467  19.616  25.445  1.00  0.00     0.163 HD
BRANCH   4   6
ATOM      6  C   UNL A   1      39.670  21.959  26.434  1.00  0.00     0.039 A 
ATOM      7  C   UNL A   1      40.877  22.030  27.117  1.00  0.00     0.014 A 
ATOM      8  C   UNL A   1      39.037  23.166  26.092  1.00  0.00     0.014 A 
ATOM      9  C   UNL A   1      41.361  23.242  27.595  1.00  0.00     0.010 A 
ATOM     10  C   UNL A   1      39.597  24.403  26.454  1.00  0.00     0.010 A 
ATOM     11  C   UNL A   1      40.755  24.454  27.238  1.00  0.00    -0.014 A 
BRANCH  11  12
ATOM     12  C   UNL A   1      41.415  25.723  27.657  1.00  0.00     0.031 A 
ATOM     13  C   UNL A   1      42.816  26.059  27.224  1.00  0.00     0.074 A 
ATOM     14  C   UNL A   1      40.709  26.613  28.389  1.00  0.00     0.049 A 
ATOM     15  N   UNL A   1      43.502  27.151  27.451  1.00  0.00    -0.248 NA
ATOM     16  C   UNL A   1      43.553  25.046  26.451  1.00  0.00     0.031 C 
ATOM     17  C   UNL A   1      39.354  26.390  28.904  1.00  0.00     0.029 A 
ATOM     18  N   UNL A   1      41.008  27.887  28.805  1.00  0.00    -0.354 N 
ATOM     19  C   UNL A   1      44.755  26.942  26.892  1.00  0.00     0.074 A 
ATOM     20  C   UNL A   1      44.745  25.613  26.322  1.00  0.00     0.031 C 
ATOM     21  C   UNL A   1      38.916  27.505  29.503  1.00  0.00     0.029 A 
ATOM     22  C   UNL A   1      39.983  28.498  29.494  1.00  0.00     0.049 A 
ATOM     23  H   UNL A   1      41.873  28.323  28.629  1.00  0.00     0.167 HD
ATOM     24  C   UNL A   1      45.811  27.789  26.839  1.00  0.00     0.034 A 
ATOM     25  C   UNL A   1      39.907  29.712  30.075  1.00  0.00     0.034 A 
ATOM     26  C   UNL A   1      45.796  29.131  27.356  1.00  0.00     0.049 A 
ATOM     27  C   UNL A   1      41.088  30.633  29.986  1.00  0.00     0.074 A 
ATOM     28  C   UNL A   1      46.798  30.084  27.287  1.00  0.00     0.029 A 
ATOM     29  N   UNL A   1      44.738  29.712  28.037  1.00  0.00    -0.354 N 
ATOM     30  N   UNL A   1      42.224  30.453  29.357  1.00  0.00    -0.248 NA
ATOM     31  C   UNL A   1      40.981  31.928  30.673  1.00  0.00     0.031 C 
ATOM     32  C   UNL A   1      46.358  31.228  27.955  1.00  0.00     0.029 A 
ATOM     33  C   UNL A   1      45.069  31.004  28.410  1.00  0.00     0.049 A 
ATOM     34  H   UNL A   1      43.878  29.272  28.227  1.00  0.00     0.167 HD
ATOM     35  C   UNL A   1      42.960  31.612  29.558  1.00  0.00     0.074 A 
ATOM     36  C   UNL A   1      42.131  32.504  30.342  1.00  0.00     0.031 C 
ATOM     37  C   UNL A   1      44.219  31.901  29.149  1.00  0.00     0.034 A 
BRANCH  24  38
ATOM     38  C   UNL A   1      47.072  27.321  26.162  1.00  0.00     0.023 A 
ATOM     39  C   UNL A   1      47.333  27.703  24.831  1.00  0.00     0.012 A 
ATOM     40  C   UNL A   1      48.053  26.610  26.883  1.00  0.00     0.148 A 
ATOM     41  C   UNL A   1      48.543  27.371  24.222  1.00  0.00     0.002 A 
ATOM     42  C   UNL A   1      49.275  26.322  26.284  1.00  0.00     0.091 A 
ATOM     43  F   UNL A   1      47.780  26.244  28.144  1.00  0.00    -0.205 F 
ATOM     44  C   UNL A   1      49.517  26.694  24.952  1.00  0.00     0.022 A 
BRANCH  42  45
ATOM     45  S   UNL A   1      50.629  25.534  27.163  1.00  0.00     0.127 S 
ATOM     46  O   UNL A   1      51.601  25.332  26.088  1.00  0.00    -0.237 OA
ATOM     47  O   UNL A   1      51.001  26.563  28.135  1.00  0.00    -0.237 OA
ATOM     48  O   UNL A   1      50.083  24.316  27.741  1.00  0.00    -0.744 OA
ENDBRANCH  42  45
ENDBRANCH  24  38
BRANCH  25  49
ATOM     49  C   UNL A   1      38.653  30.120  30.772  1.00  0.00     0.023 A 
ATOM     50  C   UNL A   1      38.490  29.836  32.142  1.00  0.00     0.012 A 
ATOM     51  C   UNL A   1      37.649  30.843  30.098  1.00  0.00     0.148 A 
ATOM     52  C   UNL A   1      37.343  30.252  32.822  1.00  0.00     0.002 A 
ATOM     53  C   UNL A   1      36.543  31.312  30.797  1.00  0.00     0.091 A 
ATOM     54  F   UNL A   1      37.813  31.089  28.791  1.00  0.00    -0.205 F 
ATOM     55  C   UNL A   1      36.379  31.003  32.154  1.00  0.00     0.022 A 
BRANCH  53  56
ATOM     56  S   UNL A   1      35.336  32.416  30.055  1.00  0.00     0.127 S 
ATOM     57  O   UNL A   1      34.399  32.619  31.158  1.00  0.00    -0.237 OA
ATOM     58  O   UNL A   1      36.158  33.581  29.722  1.00  0.00    -0.237 OA
ATOM     59  O   UNL A   1      34.809  31.706  28.900  1.00  0.00    -0.744 OA
ENDBRANCH  53  56
ENDBRANCH  25  49
BRANCH  37  60
ATOM     60  C   UNL A   1      44.796  33.239  29.522  1.00  0.00     0.023 A 
ATOM     61  C   UNL A   1      45.555  33.365  30.702  1.00  0.00     0.012 A 
ATOM     62  C   UNL A   1      44.701  34.333  28.638  1.00  0.00     0.148 A 
ATOM     63  C   UNL A   1      46.202  34.562  31.002  1.00  0.00     0.002 A 
ATOM     64  C   UNL A   1      45.390  35.505  28.918  1.00  0.00     0.091 A 
ATOM     65  F   UNL A   1      43.961  34.193  27.528  1.00  0.00    -0.205 F 
ATOM     66  C   UNL A   1      46.134  35.625  30.104  1.00  0.00     0.022 A 
BRANCH  64  67
ATOM     67  S   UNL A   1      45.452  36.891  27.776  1.00  0.00     0.127 S 
ATOM     68  O   UNL A   1      46.123  36.297  26.622  1.00  0.00    -0.237 OA
ATOM     69  O   UNL A   1      44.034  37.187  27.575  1.00  0.00    -0.237 OA
ATOM     70  O   UNL A   1      46.203  37.941  28.456  1.00  0.00    -0.744 OA
ENDBRANCH  64  67
ENDBRANCH  37  60
ENDBRANCH  11  12
ENDBRANCH   4   6
ENDBRANCH   1   2
BRANCH   1  71
ATOM     71  C   UNL A   1      36.579  22.078  24.046  1.00  0.00     0.042 C 
BRANCH  71  72
ATOM     72  C   UNL A   1      35.580  23.224  23.985  1.00  0.00     0.117 C 
BRANCH  72  73
ATOM     73  N   UNL A   1      34.613  23.120  22.902  1.00  0.00    -0.356 N 
ATOM     74  C   UNL A   1      33.306  22.750  22.850  1.00  0.00     0.223 C 
ATOM     75  H   UNL A   1      34.982  23.369  22.024  1.00  0.00     0.163 HD
ATOM     76  O   UNL A   1      32.751  22.920  21.754  1.00  0.00    -0.275 OA
BRANCH  74  77
ATOM     77  C   UNL A   1      32.477  22.156  24.009  1.00  0.00     0.086 C 
BRANCH  77  78
ATOM     78  C   UNL A   1      33.198  21.016  24.785  1.00  0.00     0.049 C 
BRANCH  78  79
ATOM     79  C   UNL A   1      33.354  19.644  24.180  1.00  0.00    -0.044 A 
ATOM     80  C   UNL A   1      32.475  19.185  23.186  1.00  0.00     0.004 A 
ATOM     81  C   UNL A   1      34.371  18.781  24.617  1.00  0.00     0.043 A 
ATOM     82  C   UNL A   1      32.525  17.861  22.737  1.00  0.00     0.003 A 
ATOM     83  C   UNL A   1      34.424  17.468  24.150  1.00  0.00     0.123 A 
ATOM     84  C   UNL A   1      33.494  16.993  23.236  1.00  0.00     0.039 A 
ATOM     85  F   UNL A   1      35.345  16.633  24.646  1.00  0.00    -0.207 F 
ENDBRANCH  78  79
ENDBRANCH  77  78
BRANCH  77  86
ATOM     86  C   UNL A   1      31.544  23.181  24.741  1.00  0.00     0.007 C 
ATOM     87  C   UNL A   1      30.977  22.666  26.072  1.00  0.00     0.033 C 
ATOM     88  C   UNL A   1      32.193  24.537  24.927  1.00  0.00     0.040 C 
ATOM     89  C   UNL A   1      30.117  23.747  26.718  1.00  0.00     0.161 C 
ATOM     90  C   UNL A   1      31.549  25.534  25.875  1.00  0.00     0.069 C 
ATOM     91  O   UNL A   1      30.925  24.884  27.005  1.00  0.00    -0.375 OA
ATOM     92  C   UNL A   1      32.637  26.579  26.263  1.00  0.00     0.035 C 
ATOM     93  C   UNL A   1      30.760  26.678  25.187  1.00  0.00     0.035 C 
ATOM     94  C   UNL A   1      31.745  27.708  25.758  1.00  0.00     0.006 C 
ENDBRANCH  77  86
ENDBRANCH  74  77
ENDBRANCH  72  73
ENDBRANCH  71  72
ENDBRANCH   1  71
TORSDOF 16
ENDMDL
