MODEL 1
REMARK VINA RESULT:     -12.7      0.000      0.000
REMARK SMILES CC(=O)c1ccc(N2/C(=[NH+]/C(=O)CCC(=O)NCCCNC(=O)c3ccc(-c4c5nc(c(-c6cccc(S(=O)(=O)[O-])c6F)c6ccc([nH]6)c(-c6cccc(S(=O)(=O)[O-])c6F)c6nc(c(-c7cccc(S(=O)(=O)[O-])c7F)c7ccc4[nH]7)C=C6)C=C5)cc3)S[C@H]3CS(=O)(=O)C[C@@H]32)cc1
REMARK SMILES IDX 18 1 17 2 15 3 16 4 14 6 13 7 11 8 8 9 9 10 94 11 10 12
REMARK SMILES IDX 87 13 88 14 93 15 89 17 90 18 12 19 91 20 92 21 7 22 4 23
REMARK SMILES IDX 5 24 96 25 6 26 95 27 2 28 1 29 3 30 19 31 20 32 21 33 22 34
REMARK SMILES IDX 23 36 24 37 25 38 86 39 26 40 85 41 27 42 28 43 29 44 79 45
REMARK SMILES IDX 30 46 84 47 78 48 80 49 31 50 83 51 77 52 76 53 32 55 64 56
REMARK SMILES IDX 44 57 63 58 45 59 48 60 62 61 81 62 46 63 47 64 61 66 82 67
REMARK SMILES IDX 49 68 33 69 34 70 42 71 35 72 37 73 43 74 36 75 38 76 39 77
REMARK SMILES IDX 40 78 41 79 65 80 66 81 74 82 67 83 69 84 75 85 68 86 70 87
REMARK SMILES IDX 71 88 72 89 73 90 50 91 51 92 59 93 52 94 54 95 60 96 53 97
REMARK SMILES IDX 55 98 56 99 57 100 58 101
REMARK H PARENT 17 5 10 16 21 35 80 54 48 65
REMARK Flexibility Score: inf
ROOT
ATOM      1  C   UNL A   1      32.720  21.451  24.692  1.00  0.00     0.117 C 
ENDROOT
BRANCH   1   2
ATOM      2  N   UNL A   1      32.800  21.813  23.267  1.00  0.00    -0.356 N 
ATOM      3  C   UNL A   1      33.084  22.972  22.602  1.00  0.00     0.220 C 
ATOM      4  O   UNL A   1      33.276  22.902  21.383  1.00  0.00    -0.275 OA
ATOM      5  H   UNL A   1      32.608  21.058  22.665  1.00  0.00     0.163 HD
BRANCH   3   6
ATOM      6  C   UNL A   1      33.158  24.316  23.294  1.00  0.00     0.112 C 
BRANCH   6   7
ATOM      7  C   UNL A   1      33.283  25.436  22.259  1.00  0.00     0.138 C 
BRANCH   7   8
ATOM      8  C   UNL A   1      32.081  26.300  22.466  1.00  0.00     0.308 C 
ATOM      9  N   UNL A   1      31.230  29.092  24.507  1.00  0.00    -0.217 N 
ATOM     10  C   UNL A   1      31.180  27.805  23.940  1.00  0.00     0.319 C 
ATOM     11  C   UNL A   1      29.814  29.827  24.028  1.00  0.00     0.212 C 
ATOM     12  N   UNL A   1      32.221  27.175  23.511  1.00  0.00    -0.204 N 
ATOM     13  S   UNL A   1      29.495  27.322  23.574  1.00  0.00    -0.029 SA
ATOM     14  C   UNL A   1      29.282  28.931  22.856  1.00  0.00     0.120 C 
ATOM     15  C   UNL A   1      29.604  31.142  23.233  1.00  0.00     0.188 C 
ATOM     16  H   UNL A   1      33.101  27.322  23.927  1.00  0.00     0.316 HD
ATOM     17  C   UNL A   1      27.936  29.400  22.307  1.00  0.00     0.156 C 
ATOM     18  S   UNL A   1      27.946  31.140  22.623  1.00  0.00     0.155 S 
ATOM     19  O   UNL A   1      31.261  26.397  21.552  1.00  0.00    -0.247 OA
ATOM     20  O   UNL A   1      27.927  31.903  21.400  1.00  0.00    -0.229 OA
ATOM     21  O   UNL A   1      27.051  31.440  23.729  1.00  0.00    -0.229 OA
BRANCH   9  22
ATOM     22  C   UNL A   1      32.202  29.316  25.564  1.00  0.00     0.128 A 
ATOM     23  C   UNL A   1      34.460  29.815  27.495  1.00  0.00     0.018 A 
ATOM     24  C   UNL A   1      33.409  30.732  27.292  1.00  0.00     0.016 A 
ATOM     25  C   UNL A   1      34.303  28.618  26.877  1.00  0.00     0.016 A 
ATOM     26  C   UNL A   1      32.276  30.468  26.382  1.00  0.00     0.052 A 
ATOM     27  C   UNL A   1      33.248  28.441  25.966  1.00  0.00     0.052 A 
BRANCH  23  28
ATOM     28  C   UNL A   1      35.746  30.025  28.248  1.00  0.00     0.159 C 
ATOM     29  C   UNL A   1      37.070  30.064  27.466  1.00  0.00     0.093 C 
ATOM     30  O   UNL A   1      35.725  30.184  29.463  1.00  0.00    -0.295 OA
ENDBRANCH  23  28
ENDBRANCH   9  22
ENDBRANCH   7   8
ENDBRANCH   6   7
ENDBRANCH   3   6
ENDBRANCH   1   2
BRANCH   1  31
ATOM     31  C   UNL A   1      34.039  21.554  25.554  1.00  0.00     0.042 C 
BRANCH  31  32
ATOM     32  C   UNL A   1      35.200  20.680  25.005  1.00  0.00     0.118 C 
BRANCH  32  33
ATOM     33  N   UNL A   1      36.734  21.211  24.771  1.00  0.00    -0.352 N 
ATOM     34  C   UNL A   1      38.040  21.168  25.522  1.00  0.00     0.251 C 
ATOM     35  H   UNL A   1      36.827  21.681  23.911  1.00  0.00     0.163 HD
ATOM     36  O   UNL A   1      38.667  20.108  25.469  1.00  0.00    -0.269 OA
BRANCH  34  37
ATOM     37  C   UNL A   1      38.840  22.478  26.141  1.00  0.00     0.039 A 
ATOM     38  C   UNL A   1      40.011  22.408  26.919  1.00  0.00     0.014 A 
ATOM     39  C   UNL A   1      38.413  23.806  26.026  1.00  0.00     0.014 A 
ATOM     40  C   UNL A   1      40.785  23.587  27.302  1.00  0.00     0.010 A 
ATOM     41  C   UNL A   1      39.211  24.967  26.248  1.00  0.00     0.010 A 
ATOM     42  C   UNL A   1      40.434  24.890  26.902  1.00  0.00    -0.014 A 
BRANCH  42  43
ATOM     43  C   UNL A   1      41.093  26.203  27.305  1.00  0.00     0.031 A 
ATOM     44  C   UNL A   1      42.543  26.438  26.895  1.00  0.00     0.074 A 
ATOM     45  C   UNL A   1      40.573  27.067  28.215  1.00  0.00     0.049 A 
ATOM     46  N   UNL A   1      43.341  27.453  27.127  1.00  0.00    -0.248 NA
ATOM     47  C   UNL A   1      43.186  25.336  26.165  1.00  0.00     0.031 C 
ATOM     48  C   UNL A   1      39.275  26.925  28.869  1.00  0.00     0.029 A 
ATOM     49  N   UNL A   1      41.097  28.212  28.797  1.00  0.00    -0.354 N 
ATOM     50  C   UNL A   1      44.574  27.108  26.573  1.00  0.00     0.074 A 
ATOM     51  C   UNL A   1      44.434  25.764  26.060  1.00  0.00     0.031 C 
ATOM     52  C   UNL A   1      39.106  27.925  29.759  1.00  0.00     0.029 A 
ATOM     53  C   UNL A   1      40.276  28.802  29.741  1.00  0.00     0.049 A 
ATOM     54  H   UNL A   1      41.980  28.576  28.556  1.00  0.00     0.167 HD
ATOM     55  C   UNL A   1      45.717  27.834  26.465  1.00  0.00     0.034 A 
ATOM     56  C   UNL A   1      40.429  29.925  30.486  1.00  0.00     0.034 A 
ATOM     57  C   UNL A   1      45.891  29.147  27.025  1.00  0.00     0.049 A 
ATOM     58  C   UNL A   1      41.680  30.764  30.324  1.00  0.00     0.074 A 
ATOM     59  C   UNL A   1      46.964  30.012  26.899  1.00  0.00     0.029 A 
ATOM     60  N   UNL A   1      44.978  29.764  27.866  1.00  0.00    -0.354 N 
ATOM     61  N   UNL A   1      42.733  30.540  29.574  1.00  0.00    -0.248 NA
ATOM     62  C   UNL A   1      41.748  32.032  31.073  1.00  0.00     0.031 C 
ATOM     63  C   UNL A   1      46.714  31.136  27.698  1.00  0.00     0.029 A 
ATOM     64  C   UNL A   1      45.465  30.990  28.282  1.00  0.00     0.049 A 
ATOM     65  H   UNL A   1      44.108  29.385  28.129  1.00  0.00     0.167 HD
ATOM     66  C   UNL A   1      43.559  31.653  29.720  1.00  0.00     0.074 A 
ATOM     67  C   UNL A   1      42.882  32.557  30.627  1.00  0.00     0.031 C 
ATOM     68  C   UNL A   1      44.766  31.902  29.153  1.00  0.00     0.034 A 
BRANCH  55  69
ATOM     69  C   UNL A   1      46.847  27.221  25.661  1.00  0.00     0.023 A 
ATOM     70  C   UNL A   1      47.625  26.195  26.244  1.00  0.00     0.012 A 
ATOM     71  C   UNL A   1      47.157  27.652  24.356  1.00  0.00     0.148 A 
ATOM     72  C   UNL A   1      48.736  25.672  25.584  1.00  0.00     0.002 A 
ATOM     73  C   UNL A   1      48.237  27.085  23.681  1.00  0.00     0.091 A 
ATOM     74  F   UNL A   1      46.416  28.624  23.807  1.00  0.00    -0.205 F 
ATOM     75  C   UNL A   1      49.040  26.116  24.303  1.00  0.00     0.022 A 
BRANCH  73  76
ATOM     76  S   UNL A   1      48.670  27.521  21.992  1.00  0.00     0.127 S 
ATOM     77  O   UNL A   1      47.371  27.906  21.442  1.00  0.00    -0.237 OA
ATOM     78  O   UNL A   1      49.599  28.635  22.192  1.00  0.00    -0.237 OA
ATOM     79  O   UNL A   1      49.269  26.328  21.411  1.00  0.00    -0.744 OA
ENDBRANCH  73  76
ENDBRANCH  55  69
BRANCH  56  80
ATOM     80  C   UNL A   1      39.314  30.418  31.365  1.00  0.00     0.023 A 
ATOM     81  C   UNL A   1      39.119  29.810  32.624  1.00  0.00     0.012 A 
ATOM     82  C   UNL A   1      38.461  31.475  30.988  1.00  0.00     0.148 A 
ATOM     83  C   UNL A   1      38.093  30.225  33.478  1.00  0.00     0.002 A 
ATOM     84  C   UNL A   1      37.468  31.916  31.864  1.00  0.00     0.091 A 
ATOM     85  F   UNL A   1      38.641  32.035  29.785  1.00  0.00    -0.205 F 
ATOM     86  C   UNL A   1      37.275  31.284  33.103  1.00  0.00     0.022 A 
BRANCH  84  87
ATOM     87  S   UNL A   1      36.425  33.342  31.527  1.00  0.00     0.127 S 
ATOM     88  O   UNL A   1      35.235  33.042  32.319  1.00  0.00    -0.237 OA
ATOM     89  O   UNL A   1      37.246  34.439  32.042  1.00  0.00    -0.237 OA
ATOM     90  O   UNL A   1      36.229  33.357  30.084  1.00  0.00    -0.744 OA
ENDBRANCH  84  87
ENDBRANCH  56  80
BRANCH  68  91
ATOM     91  C   UNL A   1      45.432  33.224  29.445  1.00  0.00     0.023 A 
ATOM     92  C   UNL A   1      46.322  33.350  30.530  1.00  0.00     0.012 A 
ATOM     93  C   UNL A   1      45.248  34.318  28.574  1.00  0.00     0.148 A 
ATOM     94  C   UNL A   1      46.996  34.552  30.760  1.00  0.00     0.002 A 
ATOM     95  C   UNL A   1      45.962  35.492  28.777  1.00  0.00     0.091 A 
ATOM     96  F   UNL A   1      44.383  34.186  27.559  1.00  0.00    -0.205 F 
ATOM     97  C   UNL A   1      46.826  35.616  29.877  1.00  0.00     0.022 A 
BRANCH  95  98
ATOM     98  S   UNL A   1      45.892  36.873  27.630  1.00  0.00     0.127 S 
ATOM     99  O   UNL A   1      44.569  37.429  27.913  1.00  0.00    -0.237 OA
ATOM    100  O   UNL A   1      47.011  37.704  28.076  1.00  0.00    -0.237 OA
ATOM    101  O   UNL A   1      46.054  36.302  26.299  1.00  0.00    -0.744 OA
ENDBRANCH  95  98
ENDBRANCH  68  91
ENDBRANCH  42  43
ENDBRANCH  34  37
ENDBRANCH  32  33
ENDBRANCH  31  32
ENDBRANCH   1  31
TORSDOF 17
ENDMDL
MODEL 2
REMARK VINA RESULT:     -12.5      2.027      2.361
REMARK SMILES CC(=O)c1ccc(N2/C(=[NH+]/C(=O)CCC(=O)NCCCNC(=O)c3ccc(-c4c5nc(c(-c6cccc(S(=O)(=O)[O-])c6F)c6ccc([nH]6)c(-c6cccc(S(=O)(=O)[O-])c6F)c6nc(c(-c7cccc(S(=O)(=O)[O-])c7F)c7ccc4[nH]7)C=C6)C=C5)cc3)S[C@H]3CS(=O)(=O)C[C@@H]32)cc1
REMARK SMILES IDX 18 1 17 2 15 3 16 4 14 6 13 7 11 8 8 9 9 10 94 11 10 12
REMARK SMILES IDX 87 13 88 14 93 15 89 17 90 18 12 19 91 20 92 21 7 22 4 23
REMARK SMILES IDX 5 24 96 25 6 26 95 27 2 28 1 29 3 30 19 31 20 32 21 33 22 34
REMARK SMILES IDX 23 36 24 37 25 38 86 39 26 40 85 41 27 42 28 43 29 44 79 45
REMARK SMILES IDX 30 46 84 47 78 48 80 49 31 50 83 51 77 52 76 53 32 55 64 56
REMARK SMILES IDX 44 57 63 58 45 59 48 60 62 61 81 62 46 63 47 64 61 66 82 67
REMARK SMILES IDX 49 68 33 69 34 70 42 71 35 72 37 73 43 74 36 75 38 76 39 77
REMARK SMILES IDX 40 78 41 79 65 80 66 81 74 82 67 83 69 84 75 85 68 86 70 87
REMARK SMILES IDX 71 88 72 89 73 90 50 91 51 92 59 93 52 94 54 95 60 96 53 97
REMARK SMILES IDX 55 98 56 99 57 100 58 101
REMARK H PARENT 17 5 10 16 21 35 80 54 48 65
REMARK Flexibility Score: inf
ROOT
ATOM      1  C   UNL A   1      33.632  21.455  24.397  1.00  0.00     0.117 C 
ENDROOT
BRANCH   1   2
ATOM      2  N   UNL A   1      33.127  22.403  25.404  1.00  0.00    -0.356 N 
ATOM      3  C   UNL A   1      33.153  23.765  25.516  1.00  0.00     0.220 C 
ATOM      4  O   UNL A   1      32.451  24.282  26.391  1.00  0.00    -0.275 OA
ATOM      5  H   UNL A   1      32.673  21.961  26.158  1.00  0.00     0.163 HD
BRANCH   3   6
ATOM      6  C   UNL A   1      34.008  24.643  24.627  1.00  0.00     0.112 C 
BRANCH   6   7
ATOM      7  C   UNL A   1      33.464  24.634  23.198  1.00  0.00     0.138 C 
BRANCH   7   8
ATOM      8  C   UNL A   1      32.246  25.498  23.234  1.00  0.00     0.308 C 
ATOM      9  N   UNL A   1      31.336  28.615  24.700  1.00  0.00    -0.217 N 
ATOM     10  C   UNL A   1      31.312  27.242  24.391  1.00  0.00     0.319 C 
ATOM     11  C   UNL A   1      29.909  29.217  24.088  1.00  0.00     0.212 C 
ATOM     12  N   UNL A   1      32.365  26.561  24.092  1.00  0.00    -0.204 N 
ATOM     13  S   UNL A   1      29.637  26.666  24.123  1.00  0.00    -0.029 SA
ATOM     14  C   UNL A   1      29.398  28.103  23.109  1.00  0.00     0.120 C 
ATOM     15  C   UNL A   1      29.678  30.351  23.055  1.00  0.00     0.188 C 
ATOM     16  H   UNL A   1      33.241  26.801  24.473  1.00  0.00     0.316 HD
ATOM     17  C   UNL A   1      28.047  28.433  22.479  1.00  0.00     0.156 C 
ATOM     18  S   UNL A   1      28.023  30.201  22.456  1.00  0.00     0.155 S 
ATOM     19  O   UNL A   1      31.428  25.403  22.318  1.00  0.00    -0.247 OA
ATOM     20  O   UNL A   1      27.996  30.714  21.109  1.00  0.00    -0.229 OA
ATOM     21  O   UNL A   1      27.119  30.691  23.483  1.00  0.00    -0.229 OA
BRANCH   9  22
ATOM     22  C   UNL A   1      32.298  29.055  25.695  1.00  0.00     0.128 A 
ATOM     23  C   UNL A   1      34.483  30.104  27.485  1.00  0.00     0.018 A 
ATOM     24  C   UNL A   1      33.179  30.637  27.476  1.00  0.00     0.016 A 
ATOM     25  C   UNL A   1      34.648  28.980  26.745  1.00  0.00     0.016 A 
ATOM     26  C   UNL A   1      32.093  30.093  26.635  1.00  0.00     0.052 A 
ATOM     27  C   UNL A   1      33.609  28.544  25.907  1.00  0.00     0.052 A 
BRANCH  23  28
ATOM     28  C   UNL A   1      35.712  30.662  28.153  1.00  0.00     0.159 C 
ATOM     29  C   UNL A   1      36.322  29.904  29.344  1.00  0.00     0.093 C 
ATOM     30  O   UNL A   1      36.222  31.693  27.732  1.00  0.00    -0.295 OA
ENDBRANCH  23  28
ENDBRANCH   9  22
ENDBRANCH   7   8
ENDBRANCH   6   7
ENDBRANCH   3   6
ENDBRANCH   1   2
BRANCH   1  31
ATOM     31  C   UNL A   1      34.899  20.588  24.769  1.00  0.00     0.042 C 
BRANCH  31  32
ATOM     32  C   UNL A   1      35.831  21.277  25.802  1.00  0.00     0.118 C 
BRANCH  32  33
ATOM     33  N   UNL A   1      37.326  21.861  25.462  1.00  0.00    -0.352 N 
ATOM     34  C   UNL A   1      38.674  21.895  26.137  1.00  0.00     0.251 C 
ATOM     35  H   UNL A   1      37.350  22.305  24.584  1.00  0.00     0.163 HD
ATOM     36  O   UNL A   1      39.340  20.859  26.080  1.00  0.00    -0.269 OA
BRANCH  34  37
ATOM     37  C   UNL A   1      39.452  23.255  26.668  1.00  0.00     0.039 A 
ATOM     38  C   UNL A   1      40.435  23.274  27.675  1.00  0.00     0.014 A 
ATOM     39  C   UNL A   1      39.180  24.556  26.231  1.00  0.00     0.014 A 
ATOM     40  C   UNL A   1      41.223  24.462  27.998  1.00  0.00     0.010 A 
ATOM     41  C   UNL A   1      40.022  25.695  26.407  1.00  0.00     0.010 A 
ATOM     42  C   UNL A   1      41.079  25.680  27.307  1.00  0.00    -0.014 A 
BRANCH  42  43
ATOM     43  C   UNL A   1      41.764  27.009  27.600  1.00  0.00     0.031 A 
ATOM     44  C   UNL A   1      43.242  27.151  27.254  1.00  0.00     0.074 A 
ATOM     45  C   UNL A   1      41.227  27.986  28.376  1.00  0.00     0.049 A 
ATOM     46  N   UNL A   1      44.063  28.161  27.418  1.00  0.00    -0.248 NA
ATOM     47  C   UNL A   1      43.883  25.954  26.690  1.00  0.00     0.031 C 
ATOM     48  C   UNL A   1      39.889  27.960  28.963  1.00  0.00     0.029 A 
ATOM     49  N   UNL A   1      41.760  29.173  28.857  1.00  0.00    -0.354 N 
ATOM     50  C   UNL A   1      45.312  27.718  26.980  1.00  0.00     0.074 A 
ATOM     51  C   UNL A   1      45.150  26.329  26.613  1.00  0.00     0.031 C 
ATOM     52  C   UNL A   1      39.708  29.058  29.724  1.00  0.00     0.029 A 
ATOM     53  C   UNL A   1      40.910  29.891  29.678  1.00  0.00     0.049 A 
ATOM     54  H   UNL A   1      42.668  29.480  28.630  1.00  0.00     0.167 HD
ATOM     55  C   UNL A   1      46.485  28.391  26.861  1.00  0.00     0.034 A 
ATOM     56  C   UNL A   1      41.063  31.086  30.302  1.00  0.00     0.034 A 
ATOM     57  C   UNL A   1      46.676  29.753  27.281  1.00  0.00     0.049 A 
ATOM     58  C   UNL A   1      42.352  31.862  30.123  1.00  0.00     0.074 A 
ATOM     59  C   UNL A   1      47.787  30.564  27.124  1.00  0.00     0.029 A 
ATOM     60  N   UNL A   1      45.741  30.489  27.991  1.00  0.00    -0.354 N 
ATOM     61  N   UNL A   1      43.436  31.522  29.466  1.00  0.00    -0.248 NA
ATOM     62  C   UNL A   1      42.425  33.205  30.729  1.00  0.00     0.031 C 
ATOM     63  C   UNL A   1      47.535  31.778  27.777  1.00  0.00     0.029 A 
ATOM     64  C   UNL A   1      46.250  31.739  28.297  1.00  0.00     0.049 A 
ATOM     65  H   UNL A   1      44.845  30.169  28.243  1.00  0.00     0.167 HD
ATOM     66  C   UNL A   1      44.293  32.619  29.537  1.00  0.00     0.074 A 
ATOM     67  C   UNL A   1      43.601  33.640  30.295  1.00  0.00     0.031 C 
ATOM     68  C   UNL A   1      45.539  32.764  29.018  1.00  0.00     0.034 A 
BRANCH  55  69
ATOM     69  C   UNL A   1      47.634  27.656  26.199  1.00  0.00     0.023 A 
ATOM     70  C   UNL A   1      47.762  27.705  24.792  1.00  0.00     0.012 A 
ATOM     71  C   UNL A   1      48.572  26.910  26.941  1.00  0.00     0.148 A 
ATOM     72  C   UNL A   1      48.741  26.964  24.132  1.00  0.00     0.002 A 
ATOM     73  C   UNL A   1      49.581  26.216  26.278  1.00  0.00     0.091 A 
ATOM     74  F   UNL A   1      48.448  26.867  28.275  1.00  0.00    -0.205 F 
ATOM     75  C   UNL A   1      49.650  26.221  24.875  1.00  0.00     0.022 A 
BRANCH  73  76
ATOM     76  S   UNL A   1      50.861  25.292  27.139  1.00  0.00     0.127 S 
ATOM     77  O   UNL A   1      50.078  24.248  27.800  1.00  0.00    -0.237 OA
ATOM     78  O   UNL A   1      51.693  24.818  26.032  1.00  0.00    -0.237 OA
ATOM     79  O   UNL A   1      51.514  26.244  28.026  1.00  0.00    -0.744 OA
ENDBRANCH  73  76
ENDBRANCH  55  69
BRANCH  56  80
ATOM     80  C   UNL A   1      39.920  31.710  31.053  1.00  0.00     0.023 A 
ATOM     81  C   UNL A   1      39.008  32.527  30.350  1.00  0.00     0.012 A 
ATOM     82  C   UNL A   1      39.714  31.502  32.432  1.00  0.00     0.148 A 
ATOM     83  C   UNL A   1      37.932  33.137  31.001  1.00  0.00     0.002 A 
ATOM     84  C   UNL A   1      38.613  32.076  33.067  1.00  0.00     0.091 A 
ATOM     85  F   UNL A   1      40.594  30.740  33.095  1.00  0.00    -0.205 F 
ATOM     86  C   UNL A   1      37.728  32.903  32.356  1.00  0.00     0.022 A 
BRANCH  84  87
ATOM     87  S   UNL A   1      38.194  31.756  34.786  1.00  0.00     0.127 S 
ATOM     88  O   UNL A   1      39.281  32.428  35.494  1.00  0.00    -0.237 OA
ATOM     89  O   UNL A   1      36.889  32.408  34.900  1.00  0.00    -0.237 OA
ATOM     90  O   UNL A   1      38.161  30.306  34.923  1.00  0.00    -0.744 OA
ENDBRANCH  84  87
ENDBRANCH  56  80
BRANCH  68  91
ATOM     91  C   UNL A   1      46.236  34.090  29.201  1.00  0.00     0.023 A 
ATOM     92  C   UNL A   1      47.101  34.297  30.294  1.00  0.00     0.012 A 
ATOM     93  C   UNL A   1      46.108  35.099  28.223  1.00  0.00     0.148 A 
ATOM     94  C   UNL A   1      47.804  35.495  30.426  1.00  0.00     0.002 A 
ATOM     95  C   UNL A   1      46.852  36.267  28.332  1.00  0.00     0.091 A 
ATOM     96  F   UNL A   1      45.266  34.893  27.201  1.00  0.00    -0.205 F 
ATOM     97  C   UNL A   1      47.690  36.473  29.440  1.00  0.00     0.022 A 
BRANCH  95  98
ATOM     98  S   UNL A   1      46.853  37.531  27.056  1.00  0.00     0.127 S 
ATOM     99  O   UNL A   1      47.965  38.381  27.479  1.00  0.00    -0.237 OA
ATOM    100  O   UNL A   1      47.108  36.749  25.846  1.00  0.00    -0.237 OA
ATOM    101  O   UNL A   1      45.538  38.157  27.107  1.00  0.00    -0.744 OA
ENDBRANCH  95  98
ENDBRANCH  68  91
ENDBRANCH  42  43
ENDBRANCH  34  37
ENDBRANCH  32  33
ENDBRANCH  31  32
ENDBRANCH   1  31
TORSDOF 17
ENDMDL
MODEL 3
REMARK VINA RESULT:     -12.0      4.894     10.401
REMARK SMILES CC(=O)c1ccc(N2/C(=[NH+]/C(=O)CCC(=O)NCCCNC(=O)c3ccc(-c4c5nc(c(-c6cccc(S(=O)(=O)[O-])c6F)c6ccc([nH]6)c(-c6cccc(S(=O)(=O)[O-])c6F)c6nc(c(-c7cccc(S(=O)(=O)[O-])c7F)c7ccc4[nH]7)C=C6)C=C5)cc3)S[C@H]3CS(=O)(=O)C[C@@H]32)cc1
REMARK SMILES IDX 18 1 17 2 15 3 16 4 14 6 13 7 11 8 8 9 9 10 94 11 10 12
REMARK SMILES IDX 87 13 88 14 93 15 89 17 90 18 12 19 91 20 92 21 7 22 4 23
REMARK SMILES IDX 5 24 96 25 6 26 95 27 2 28 1 29 3 30 19 31 20 32 21 33 22 34
REMARK SMILES IDX 23 36 24 37 25 38 86 39 26 40 85 41 27 42 28 43 29 44 79 45
REMARK SMILES IDX 30 46 84 47 78 48 80 49 31 50 83 51 77 52 76 53 32 55 64 56
REMARK SMILES IDX 44 57 63 58 45 59 48 60 62 61 81 62 46 63 47 64 61 66 82 67
REMARK SMILES IDX 49 68 33 69 34 70 42 71 35 72 37 73 43 74 36 75 38 76 39 77
REMARK SMILES IDX 40 78 41 79 65 80 66 81 74 82 67 83 69 84 75 85 68 86 70 87
REMARK SMILES IDX 71 88 72 89 73 90 50 91 51 92 59 93 52 94 54 95 60 96 53 97
REMARK SMILES IDX 55 98 56 99 57 100 58 101
REMARK H PARENT 17 5 10 16 21 35 80 54 48 65
REMARK Flexibility Score: inf
ROOT
ATOM      1  C   UNL A   1      32.823  27.292  24.947  1.00  0.00     0.117 C 
ENDROOT
BRANCH   1   2
ATOM      2  N   UNL A   1      32.208  26.260  24.096  1.00  0.00    -0.356 N 
ATOM      3  C   UNL A   1      31.209  25.348  24.289  1.00  0.00     0.220 C 
ATOM      4  O   UNL A   1      30.777  24.751  23.298  1.00  0.00    -0.275 OA
ATOM      5  H   UNL A   1      32.600  26.220  23.193  1.00  0.00     0.163 HD
BRANCH   3   6
ATOM      6  C   UNL A   1      30.634  25.042  25.655  1.00  0.00     0.112 C 
BRANCH   6   7
ATOM      7  C   UNL A   1      31.644  24.247  26.486  1.00  0.00     0.138 C 
BRANCH   7   8
ATOM      8  C   UNL A   1      31.891  22.994  25.711  1.00  0.00     0.308 C 
ATOM      9  N   UNL A   1      34.712  20.975  24.900  1.00  0.00    -0.217 N 
ATOM     10  C   UNL A   1      33.575  21.788  24.732  1.00  0.00     0.319 C 
ATOM     11  C   UNL A   1      34.280  19.496  24.269  1.00  0.00     0.212 C 
ATOM     12  N   UNL A   1      33.223  22.702  25.570  1.00  0.00    -0.204 N 
ATOM     13  S   UNL A   1      32.518  21.161  23.428  1.00  0.00    -0.029 SA
ATOM     14  C   UNL A   1      32.716  19.556  24.158  1.00  0.00     0.120 C 
ATOM     15  C   UNL A   1      34.265  18.100  24.943  1.00  0.00     0.188 C 
ATOM     16  H   UNL A   1      33.900  23.183  26.100  1.00  0.00     0.316 HD
ATOM     17  C   UNL A   1      32.111  18.301  23.531  1.00  0.00     0.156 C 
ATOM     18  S   UNL A   1      33.271  17.033  23.946  1.00  0.00     0.155 S 
ATOM     19  O   UNL A   1      30.962  22.198  25.566  1.00  0.00    -0.247 OA
ATOM     20  O   UNL A   1      32.686  16.040  24.812  1.00  0.00    -0.229 OA
ATOM     21  O   UNL A   1      34.037  16.666  22.766  1.00  0.00    -0.229 OA
BRANCH   9  22
ATOM     22  C   UNL A   1      35.968  21.642  25.197  1.00  0.00     0.128 A 
ATOM     23  C   UNL A   1      38.477  23.006  26.157  1.00  0.00     0.018 A 
ATOM     24  C   UNL A   1      38.476  21.718  25.585  1.00  0.00     0.016 A 
ATOM     25  C   UNL A   1      37.289  23.658  26.102  1.00  0.00     0.016 A 
ATOM     26  C   UNL A   1      37.255  21.068  25.069  1.00  0.00     0.052 A 
ATOM     27  C   UNL A   1      36.142  22.972  25.670  1.00  0.00     0.052 A 
BRANCH  23  28
ATOM     28  C   UNL A   1      39.603  23.707  26.870  1.00  0.00     0.159 C 
ATOM     29  C   UNL A   1      40.541  22.885  27.770  1.00  0.00     0.093 C 
ATOM     30  O   UNL A   1      39.772  24.910  26.711  1.00  0.00    -0.295 OA
ENDBRANCH  23  28
ENDBRANCH   9  22
ENDBRANCH   7   8
ENDBRANCH   6   7
ENDBRANCH   3   6
ENDBRANCH   1   2
BRANCH   1  31
ATOM     31  C   UNL A   1      32.691  28.798  24.492  1.00  0.00     0.042 C 
BRANCH  31  32
ATOM     32  C   UNL A   1      31.960  29.691  25.532  1.00  0.00     0.118 C 
BRANCH  32  33
ATOM     33  N   UNL A   1      32.618  30.208  26.942  1.00  0.00    -0.352 N 
ATOM     34  C   UNL A   1      33.671  31.199  27.368  1.00  0.00     0.251 C 
ATOM     35  H   UNL A   1      32.218  29.750  27.717  1.00  0.00     0.163 HD
ATOM     36  O   UNL A   1      33.331  32.384  27.383  1.00  0.00    -0.269 OA
BRANCH  34  37
ATOM     37  C   UNL A   1      35.110  30.826  28.092  1.00  0.00     0.039 A 
ATOM     38  C   UNL A   1      36.248  31.655  28.089  1.00  0.00     0.014 A 
ATOM     39  C   UNL A   1      35.394  29.616  28.736  1.00  0.00     0.014 A 
ATOM     40  C   UNL A   1      37.443  31.372  28.882  1.00  0.00     0.010 A 
ATOM     41  C   UNL A   1      36.473  29.377  29.638  1.00  0.00     0.010 A 
ATOM     42  C   UNL A   1      37.541  30.258  29.736  1.00  0.00    -0.014 A 
BRANCH  42  43
ATOM     43  C   UNL A   1      38.751  29.799  30.541  1.00  0.00     0.031 A 
ATOM     44  C   UNL A   1      39.007  30.451  31.895  1.00  0.00     0.074 A 
ATOM     45  C   UNL A   1      39.757  29.040  30.034  1.00  0.00     0.049 A 
ATOM     46  N   UNL A   1      39.971  30.262  32.765  1.00  0.00    -0.248 NA
ATOM     47  C   UNL A   1      38.060  31.506  32.285  1.00  0.00     0.031 C 
ATOM     48  C   UNL A   1      39.791  28.470  28.690  1.00  0.00     0.029 A 
ATOM     49  N   UNL A   1      40.979  28.659  30.570  1.00  0.00    -0.354 N 
ATOM     50  C   UNL A   1      39.743  31.171  33.798  1.00  0.00     0.074 A 
ATOM     51  C   UNL A   1      38.594  31.958  33.408  1.00  0.00     0.031 C 
ATOM     52  C   UNL A   1      40.963  27.829  28.500  1.00  0.00     0.029 A 
ATOM     53  C   UNL A   1      41.774  27.919  29.714  1.00  0.00     0.049 A 
ATOM     54  H   UNL A   1      41.257  28.896  31.484  1.00  0.00     0.167 HD
ATOM     55  C   UNL A   1      40.396  31.335  34.977  1.00  0.00     0.034 A 
ATOM     56  C   UNL A   1      42.997  27.357  29.886  1.00  0.00     0.034 A 
ATOM     57  C   UNL A   1      41.577  30.605  35.350  1.00  0.00     0.049 A 
ATOM     58  C   UNL A   1      43.700  27.495  31.221  1.00  0.00     0.074 A 
ATOM     59  C   UNL A   1      42.266  30.618  36.551  1.00  0.00     0.029 A 
ATOM     60  N   UNL A   1      42.275  29.762  34.499  1.00  0.00    -0.354 N 
ATOM     61  N   UNL A   1      43.322  28.157  32.289  1.00  0.00    -0.248 NA
ATOM     62  C   UNL A   1      44.974  26.773  31.394  1.00  0.00     0.031 C 
ATOM     63  C   UNL A   1      43.404  29.813  36.409  1.00  0.00     0.029 A 
ATOM     64  C   UNL A   1      43.396  29.262  35.137  1.00  0.00     0.049 A 
ATOM     65  H   UNL A   1      42.012  29.551  33.574  1.00  0.00     0.167 HD
ATOM     66  C   UNL A   1      44.277  27.892  33.269  1.00  0.00     0.074 A 
ATOM     67  C   UNL A   1      45.251  27.003  32.671  1.00  0.00     0.031 C 
ATOM     68  C   UNL A   1      44.339  28.345  34.547  1.00  0.00     0.034 A 
BRANCH  55  69
ATOM     69  C   UNL A   1      39.798  32.321  35.961  1.00  0.00     0.023 A 
ATOM     70  C   UNL A   1      38.749  31.896  36.808  1.00  0.00     0.012 A 
ATOM     71  C   UNL A   1      40.244  33.656  36.049  1.00  0.00     0.148 A 
ATOM     72  C   UNL A   1      38.101  32.792  37.657  1.00  0.00     0.002 A 
ATOM     73  C   UNL A   1      39.627  34.531  36.939  1.00  0.00     0.091 A 
ATOM     74  F   UNL A   1      41.239  34.055  35.246  1.00  0.00    -0.205 F 
ATOM     75  C   UNL A   1      38.541  34.108  37.723  1.00  0.00     0.022 A 
BRANCH  73  76
ATOM     76  S   UNL A   1      40.166  36.231  37.170  1.00  0.00     0.127 S 
ATOM     77  O   UNL A   1      39.314  36.665  38.276  1.00  0.00    -0.237 OA
ATOM     78  O   UNL A   1      41.577  36.058  37.523  1.00  0.00    -0.237 OA
ATOM     79  O   UNL A   1      39.935  36.901  35.899  1.00  0.00    -0.744 OA
ENDBRANCH  73  76
ENDBRANCH  55  69
BRANCH  56  80
ATOM     80  C   UNL A   1      43.598  26.487  28.818  1.00  0.00     0.023 A 
ATOM     81  C   UNL A   1      43.290  25.110  28.808  1.00  0.00     0.012 A 
ATOM     82  C   UNL A   1      44.449  26.995  27.816  1.00  0.00     0.148 A 
ATOM     83  C   UNL A   1      43.827  24.255  27.842  1.00  0.00     0.002 A 
ATOM     84  C   UNL A   1      44.945  26.145  26.826  1.00  0.00     0.091 A 
ATOM     85  F   UNL A   1      44.751  28.300  27.843  1.00  0.00    -0.205 F 
ATOM     86  C   UNL A   1      44.645  24.774  26.845  1.00  0.00     0.022 A 
BRANCH  84  87
ATOM     87  S   UNL A   1      45.923  26.726  25.433  1.00  0.00     0.127 S 
ATOM     88  O   UNL A   1      47.142  27.191  26.091  1.00  0.00    -0.237 OA
ATOM     89  O   UNL A   1      46.077  25.502  24.647  1.00  0.00    -0.237 OA
ATOM     90  O   UNL A   1      45.124  27.762  24.793  1.00  0.00    -0.744 OA
ENDBRANCH  84  87
ENDBRANCH  56  80
BRANCH  68  91
ATOM     91  C   UNL A   1      45.468  27.858  35.422  1.00  0.00     0.023 A 
ATOM     92  C   UNL A   1      45.317  26.693  36.200  1.00  0.00     0.012 A 
ATOM     93  C   UNL A   1      46.719  28.508  35.390  1.00  0.00     0.148 A 
ATOM     94  C   UNL A   1      46.384  26.200  36.953  1.00  0.00     0.002 A 
ATOM     95  C   UNL A   1      47.791  27.981  36.099  1.00  0.00     0.091 A 
ATOM     96  F   UNL A   1      46.839  29.626  34.660  1.00  0.00    -0.205 F 
ATOM     97  C   UNL A   1      47.622  26.834  36.892  1.00  0.00     0.022 A 
BRANCH  95  98
ATOM     98  S   UNL A   1      49.448  28.667  35.992  1.00  0.00     0.127 S 
ATOM     99  O   UNL A   1      49.715  28.581  34.556  1.00  0.00    -0.237 OA
ATOM    100  O   UNL A   1      49.254  30.027  36.495  1.00  0.00    -0.237 OA
ATOM    101  O   UNL A   1      50.289  27.824  36.832  1.00  0.00    -0.744 OA
ENDBRANCH  95  98
ENDBRANCH  68  91
ENDBRANCH  42  43
ENDBRANCH  34  37
ENDBRANCH  32  33
ENDBRANCH  31  32
ENDBRANCH   1  31
TORSDOF 17
ENDMDL
