MODEL 1
REMARK VINA RESULT:     -10.6      0.000      0.000
REMARK SMILES C[NH2+][C@](C)(C(=O)NCCCNC(=O)c1ccc(-c2c3nc(c(-c4cccc(S(=O)(=O)[O-])c4F)c4ccc([nH]4)c(-c4cccc(S(=O)(=O)[O-])c4F)c4nc(c(-c5cccc(S(=O)(=O)[O-])c5F)c5ccc2[nH]5)C=C4)C=C3)cc1)c1cccc(Cl)c1
REMARK SMILES IDX 10 1 9 2 8 3 7 4 5 5 6 6 3 8 4 9 2 10 1 11 77 14 78 15 83 16
REMARK SMILES IDX 79 17 81 18 80 19 82 20 11 21 12 22 13 24 14 25 15 26 76 27
REMARK SMILES IDX 16 28 75 29 17 30 18 31 19 32 69 33 20 34 74 35 68 36 70 37
REMARK SMILES IDX 21 38 73 39 67 40 66 41 22 43 54 44 34 45 53 46 35 47 38 48
REMARK SMILES IDX 52 49 71 50 36 51 37 52 51 54 72 55 39 56 23 57 24 58 32 59
REMARK SMILES IDX 25 60 27 61 33 62 26 63 28 64 29 65 30 66 31 67 55 68 56 69
REMARK SMILES IDX 64 70 57 71 59 72 65 73 58 74 60 75 61 76 62 77 63 78 40 79
REMARK SMILES IDX 41 80 49 81 42 82 44 83 50 84 43 85 45 86 46 87 47 88 48 89
REMARK H PARENT 7 7 2 12 2 13 11 23 70 42 38 53
REMARK Flexibility Score: inf
ROOT
ATOM      1  C   UNL A   1      35.474  33.374  28.337  1.00  0.00     0.118 C 
ENDROOT
BRANCH   1   2
ATOM      2  C   UNL A   1      34.882  34.568  29.070  1.00  0.00     0.042 C 
BRANCH   2   3
ATOM      3  C   UNL A   1      34.125  34.198  30.332  1.00  0.00     0.118 C 
BRANCH   3   4
ATOM      4  N   UNL A   1      34.138  35.245  31.337  1.00  0.00    -0.350 N 
ATOM      5  C   UNL A   1      34.863  35.365  32.494  1.00  0.00     0.285 C 
ATOM      6  O   UNL A   1      34.885  36.504  32.975  1.00  0.00    -0.267 OA
ATOM      7  H   UNL A   1      33.524  35.994  31.158  1.00  0.00     0.163 HD
BRANCH   5   8
ATOM      8  C   UNL A   1      35.660  34.139  33.109  1.00  0.00     0.198 C 
ATOM      9  C   UNL A   1      35.595  34.180  34.663  1.00  0.00     0.096 C 
BRANCH   8  10
ATOM     10  N   UNL A   1      35.141  32.837  32.585  1.00  0.00    -0.332 N 
ATOM     11  C   UNL A   1      35.966  31.648  32.625  1.00  0.00     0.332 C 
ATOM     12  H   UNL A   1      34.297  32.625  33.116  1.00  0.00     0.347 HD
ATOM     13  H   UNL A   1      35.044  33.015  31.585  1.00  0.00     0.347 HD
ENDBRANCH   8  10
BRANCH   8  14
ATOM     14  C   UNL A   1      37.194  34.185  32.804  1.00  0.00     0.023 A 
ATOM     15  C   UNL A   1      38.116  34.250  33.877  1.00  0.00     0.011 A 
ATOM     16  C   UNL A   1      37.717  34.311  31.504  1.00  0.00     0.031 A 
ATOM     17  C   UNL A   1      39.487  34.410  33.665  1.00  0.00     0.002 A 
ATOM     18  C   UNL A   1      39.093  34.451  31.295  1.00  0.00     0.041 A 
ATOM     19  C   UNL A   1      39.979  34.506  32.369  1.00  0.00     0.020 A 
ATOM     20  Cl  UNL A   1      39.708  34.582  29.691  1.00  0.00    -0.084 Cl
ENDBRANCH   8  14
ENDBRANCH   5   8
ENDBRANCH   3   4
ENDBRANCH   2   3
ENDBRANCH   1   2
BRANCH   1  21
ATOM     21  N   UNL A   1      34.467  32.398  27.929  1.00  0.00    -0.352 N 
ATOM     22  C   UNL A   1      34.568  31.038  27.747  1.00  0.00     0.251 C 
ATOM     23  H   UNL A   1      33.573  32.773  27.756  1.00  0.00     0.163 HD
ATOM     24  O   UNL A   1      33.647  30.425  27.224  1.00  0.00    -0.269 OA
BRANCH  22  25
ATOM     25  C   UNL A   1      35.796  30.328  28.165  1.00  0.00     0.039 A 
ATOM     26  C   UNL A   1      36.899  30.312  27.307  1.00  0.00     0.014 A 
ATOM     27  C   UNL A   1      35.866  29.693  29.405  1.00  0.00     0.014 A 
ATOM     28  C   UNL A   1      38.096  29.731  27.733  1.00  0.00     0.010 A 
ATOM     29  C   UNL A   1      37.084  29.218  29.870  1.00  0.00     0.010 A 
ATOM     30  C   UNL A   1      38.212  29.220  29.037  1.00  0.00    -0.014 A 
BRANCH  30  31
ATOM     31  C   UNL A   1      39.501  28.694  29.555  1.00  0.00     0.031 A 
ATOM     32  C   UNL A   1      40.212  29.400  30.678  1.00  0.00     0.074 A 
ATOM     33  C   UNL A   1      40.085  27.646  28.941  1.00  0.00     0.049 A 
ATOM     34  N   UNL A   1      41.375  29.134  31.213  1.00  0.00    -0.248 NA
ATOM     35  C   UNL A   1      39.550  30.585  31.249  1.00  0.00     0.031 C 
ATOM     36  C   UNL A   1      39.549  26.942  27.774  1.00  0.00     0.029 A 
ATOM     37  N   UNL A   1      41.276  27.011  29.192  1.00  0.00    -0.354 N 
ATOM     38  C   UNL A   1      41.604  30.141  32.143  1.00  0.00     0.074 A 
ATOM     39  C   UNL A   1      40.479  31.046  32.073  1.00  0.00     0.031 C 
ATOM     40  C   UNL A   1      40.405  25.972  27.412  1.00  0.00     0.029 A 
ATOM     41  C   UNL A   1      41.564  26.005  28.298  1.00  0.00     0.049 A 
ATOM     42  H   UNL A   1      41.869  27.252  29.940  1.00  0.00     0.167 HD
ATOM     43  C   UNL A   1      42.643  30.285  33.000  1.00  0.00     0.034 A 
ATOM     44  C   UNL A   1      42.644  25.206  28.194  1.00  0.00     0.034 A 
ATOM     45  C   UNL A   1      43.731  29.354  33.103  1.00  0.00     0.049 A 
ATOM     46  C   UNL A   1      43.750  25.339  29.204  1.00  0.00     0.074 A 
ATOM     47  C   UNL A   1      44.768  29.340  34.020  1.00  0.00     0.029 A 
ATOM     48  N   UNL A   1      43.935  28.278  32.252  1.00  0.00    -0.354 N 
ATOM     49  N   UNL A   1      43.859  26.185  30.200  1.00  0.00    -0.248 NA
ATOM     50  C   UNL A   1      44.862  24.383  29.105  1.00  0.00     0.031 C 
ATOM     51  C   UNL A   1      45.615  28.274  33.703  1.00  0.00     0.029 A 
ATOM     52  C   UNL A   1      45.089  27.603  32.611  1.00  0.00     0.049 A 
ATOM     53  H   UNL A   1      43.345  28.031  31.504  1.00  0.00     0.167 HD
ATOM     54  C   UNL A   1      45.033  25.847  30.862  1.00  0.00     0.074 A 
ATOM     55  C   UNL A   1      45.587  24.703  30.168  1.00  0.00     0.031 C 
ATOM     56  C   UNL A   1      45.607  26.439  31.938  1.00  0.00     0.034 A 
BRANCH  43  57
ATOM     57  C   UNL A   1      42.626  31.475  33.926  1.00  0.00     0.023 A 
ATOM     58  C   UNL A   1      43.159  32.708  33.494  1.00  0.00     0.012 A 
ATOM     59  C   UNL A   1      42.044  31.386  35.205  1.00  0.00     0.148 A 
ATOM     60  C   UNL A   1      43.152  33.820  34.334  1.00  0.00     0.002 A 
ATOM     61  C   UNL A   1      41.994  32.512  36.018  1.00  0.00     0.091 A 
ATOM     62  F   UNL A   1      41.563  30.202  35.609  1.00  0.00    -0.205 F 
ATOM     63  C   UNL A   1      42.560  33.725  35.592  1.00  0.00     0.022 A 
BRANCH  61  64
ATOM     64  S   UNL A   1      41.179  32.515  37.618  1.00  0.00     0.127 S 
ATOM     65  O   UNL A   1      39.853  32.003  37.274  1.00  0.00    -0.237 OA
ATOM     66  O   UNL A   1      42.009  31.589  38.388  1.00  0.00    -0.237 OA
ATOM     67  O   UNL A   1      41.216  33.895  38.085  1.00  0.00    -0.744 OA
ENDBRANCH  61  64
ENDBRANCH  43  57
BRANCH  44  68
ATOM     68  C   UNL A   1      42.696  24.172  27.122  1.00  0.00     0.023 A 
ATOM     69  C   UNL A   1      43.418  24.431  25.940  1.00  0.00     0.012 A 
ATOM     70  C   UNL A   1      42.077  22.919  27.289  1.00  0.00     0.148 A 
ATOM     71  C   UNL A   1      43.499  23.469  24.932  1.00  0.00     0.002 A 
ATOM     72  C   UNL A   1      42.211  21.944  26.307  1.00  0.00     0.091 A 
ATOM     73  F   UNL A   1      41.390  22.696  28.418  1.00  0.00    -0.205 F 
ATOM     74  C   UNL A   1      42.905  22.223  25.120  1.00  0.00     0.022 A 
BRANCH  72  75
ATOM     75  S   UNL A   1      41.605  20.267  26.524  1.00  0.00     0.127 S 
ATOM     76  O   UNL A   1      40.159  20.460  26.455  1.00  0.00    -0.237 OA
ATOM     77  O   UNL A   1      42.192  19.584  25.372  1.00  0.00    -0.237 OA
ATOM     78  O   UNL A   1      42.123  19.824  27.812  1.00  0.00    -0.744 OA
ENDBRANCH  72  75
ENDBRANCH  44  68
BRANCH  56  79
ATOM     79  C   UNL A   1      46.891  25.847  32.460  1.00  0.00     0.023 A 
ATOM     80  C   UNL A   1      48.129  26.308  31.968  1.00  0.00     0.012 A 
ATOM     81  C   UNL A   1      46.870  24.890  33.494  1.00  0.00     0.148 A 
ATOM     82  C   UNL A   1      49.324  25.799  32.474  1.00  0.00     0.002 A 
ATOM     83  C   UNL A   1      48.066  24.427  34.028  1.00  0.00     0.091 A 
ATOM     84  F   UNL A   1      45.682  24.452  33.934  1.00  0.00    -0.205 F 
ATOM     85  C   UNL A   1      49.293  24.869  33.511  1.00  0.00     0.022 A 
BRANCH  83  86
ATOM     86  S   UNL A   1      48.122  23.305  35.430  1.00  0.00     0.127 S 
ATOM     87  O   UNL A   1      49.561  23.113  35.600  1.00  0.00    -0.237 OA
ATOM     88  O   UNL A   1      47.483  24.095  36.484  1.00  0.00    -0.237 OA
ATOM     89  O   UNL A   1      47.375  22.121  35.028  1.00  0.00    -0.744 OA
ENDBRANCH  83  86
ENDBRANCH  56  79
ENDBRANCH  30  31
ENDBRANCH  22  25
ENDBRANCH   1  21
TORSDOF 15
ENDMDL
MODEL 2
REMARK VINA RESULT:     -10.5      4.059      6.470
REMARK SMILES C[NH2+][C@](C)(C(=O)NCCCNC(=O)c1ccc(-c2c3nc(c(-c4cccc(S(=O)(=O)[O-])c4F)c4ccc([nH]4)c(-c4cccc(S(=O)(=O)[O-])c4F)c4nc(c(-c5cccc(S(=O)(=O)[O-])c5F)c5ccc2[nH]5)C=C4)C=C3)cc1)c1cccc(Cl)c1
REMARK SMILES IDX 10 1 9 2 8 3 7 4 5 5 6 6 3 8 4 9 2 10 1 11 77 14 78 15 83 16
REMARK SMILES IDX 79 17 81 18 80 19 82 20 11 21 12 22 13 24 14 25 15 26 76 27
REMARK SMILES IDX 16 28 75 29 17 30 18 31 19 32 69 33 20 34 74 35 68 36 70 37
REMARK SMILES IDX 21 38 73 39 67 40 66 41 22 43 54 44 34 45 53 46 35 47 38 48
REMARK SMILES IDX 52 49 71 50 36 51 37 52 51 54 72 55 39 56 23 57 24 58 32 59
REMARK SMILES IDX 25 60 27 61 33 62 26 63 28 64 29 65 30 66 31 67 55 68 56 69
REMARK SMILES IDX 64 70 57 71 59 72 65 73 58 74 60 75 61 76 62 77 63 78 40 79
REMARK SMILES IDX 41 80 49 81 42 82 44 83 50 84 43 85 45 86 46 87 47 88 48 89
REMARK H PARENT 7 7 2 12 2 13 11 23 70 42 38 53
REMARK Flexibility Score: inf
ROOT
ATOM      1  C   UNL A   1      32.741  29.966  25.851  1.00  0.00     0.118 C 
ENDROOT
BRANCH   1   2
ATOM      2  C   UNL A   1      31.674  29.019  26.380  1.00  0.00     0.042 C 
BRANCH   2   3
ATOM      3  C   UNL A   1      32.160  27.595  26.569  1.00  0.00     0.118 C 
BRANCH   3   4
ATOM      4  N   UNL A   1      31.084  26.647  26.793  1.00  0.00    -0.350 N 
ATOM      5  C   UNL A   1      30.552  25.688  25.970  1.00  0.00     0.285 C 
ATOM      6  O   UNL A   1      29.862  24.838  26.545  1.00  0.00    -0.267 OA
ATOM      7  H   UNL A   1      30.666  26.702  27.683  1.00  0.00     0.163 HD
BRANCH   5   8
ATOM      8  C   UNL A   1      30.869  25.653  24.417  1.00  0.00     0.198 C 
ATOM      9  C   UNL A   1      32.405  25.721  24.180  1.00  0.00     0.096 C 
BRANCH   8  10
ATOM     10  N   UNL A   1      30.279  24.440  23.769  1.00  0.00    -0.332 N 
ATOM     11  C   UNL A   1      31.100  23.278  23.502  1.00  0.00     0.332 C 
ATOM     12  H   UNL A   1      29.519  24.128  24.372  1.00  0.00     0.347 HD
ATOM     13  H   UNL A   1      30.042  24.773  22.834  1.00  0.00     0.347 HD
ENDBRANCH   8  10
BRANCH   8  14
ATOM     14  C   UNL A   1      30.324  26.902  23.647  1.00  0.00     0.023 A 
ATOM     15  C   UNL A   1      31.231  27.763  22.984  1.00  0.00     0.011 A 
ATOM     16  C   UNL A   1      28.977  27.307  23.694  1.00  0.00     0.031 A 
ATOM     17  C   UNL A   1      30.817  28.953  22.381  1.00  0.00     0.002 A 
ATOM     18  C   UNL A   1      28.563  28.490  23.072  1.00  0.00     0.041 A 
ATOM     19  C   UNL A   1      29.476  29.315  22.421  1.00  0.00     0.020 A 
ATOM     20  Cl  UNL A   1      26.904  28.951  23.126  1.00  0.00    -0.084 Cl
ENDBRANCH   8  14
ENDBRANCH   5   8
ENDBRANCH   3   4
ENDBRANCH   2   3
ENDBRANCH   1   2
BRANCH   1  21
ATOM     21  N   UNL A   1      32.563  31.341  26.312  1.00  0.00    -0.352 N 
ATOM     22  C   UNL A   1      33.262  32.062  27.252  1.00  0.00     0.251 C 
ATOM     23  H   UNL A   1      31.825  31.829  25.881  1.00  0.00     0.163 HD
ATOM     24  O   UNL A   1      32.838  33.147  27.624  1.00  0.00    -0.269 OA
BRANCH  22  25
ATOM     25  C   UNL A   1      34.511  31.512  27.823  1.00  0.00     0.039 A 
ATOM     26  C   UNL A   1      35.592  32.368  28.047  1.00  0.00     0.014 A 
ATOM     27  C   UNL A   1      34.610  30.159  28.150  1.00  0.00     0.014 A 
ATOM     28  C   UNL A   1      36.740  31.880  28.677  1.00  0.00     0.010 A 
ATOM     29  C   UNL A   1      35.702  29.703  28.876  1.00  0.00     0.010 A 
ATOM     30  C   UNL A   1      36.786  30.554  29.139  1.00  0.00    -0.014 A 
BRANCH  30  31
ATOM     31  C   UNL A   1      37.947  30.036  29.907  1.00  0.00     0.031 A 
ATOM     32  C   UNL A   1      38.201  30.513  31.312  1.00  0.00     0.074 A 
ATOM     33  C   UNL A   1      38.835  29.224  29.300  1.00  0.00     0.049 A 
ATOM     34  N   UNL A   1      39.198  30.231  32.110  1.00  0.00    -0.248 NA
ATOM     35  C   UNL A   1      37.230  31.462  31.883  1.00  0.00     0.031 C 
ATOM     36  C   UNL A   1      38.760  28.775  27.908  1.00  0.00     0.029 A 
ATOM     37  N   UNL A   1      39.995  28.657  29.768  1.00  0.00    -0.354 N 
ATOM     38  C   UNL A   1      39.000  31.002  33.250  1.00  0.00     0.074 A 
ATOM     39  C   UNL A   1      37.811  31.792  33.026  1.00  0.00     0.031 C 
ATOM     40  C   UNL A   1      39.823  28.002  27.635  1.00  0.00     0.029 A 
ATOM     41  C   UNL A   1      40.672  27.925  28.819  1.00  0.00     0.049 A 
ATOM     42  H   UNL A   1      40.313  28.763  30.693  1.00  0.00     0.167 HD
ATOM     43  C   UNL A   1      39.726  31.029  34.392  1.00  0.00     0.034 A 
ATOM     44  C   UNL A   1      41.850  27.275  28.889  1.00  0.00     0.034 A 
ATOM     45  C   UNL A   1      40.876  30.201  34.631  1.00  0.00     0.049 A 
ATOM     46  C   UNL A   1      42.599  27.260  30.192  1.00  0.00     0.074 A 
ATOM     47  C   UNL A   1      41.608  30.060  35.797  1.00  0.00     0.029 A 
ATOM     48  N   UNL A   1      41.473  29.385  33.683  1.00  0.00    -0.354 N 
ATOM     49  N   UNL A   1      42.295  27.848  31.324  1.00  0.00    -0.248 NA
ATOM     50  C   UNL A   1      43.831  26.460  30.244  1.00  0.00     0.031 C 
ATOM     51  C   UNL A   1      42.666  29.182  35.543  1.00  0.00     0.029 A 
ATOM     52  C   UNL A   1      42.574  28.749  34.231  1.00  0.00     0.049 A 
ATOM     53  H   UNL A   1      41.158  29.272  32.756  1.00  0.00     0.167 HD
ATOM     54  C   UNL A   1      43.279  27.468  32.230  1.00  0.00     0.074 A 
ATOM     55  C   UNL A   1      44.175  26.578  31.520  1.00  0.00     0.031 C 
ATOM     56  C   UNL A   1      43.433  27.833  33.525  1.00  0.00     0.034 A 
BRANCH  43  57
ATOM     57  C   UNL A   1      39.268  31.954  35.491  1.00  0.00     0.023 A 
ATOM     58  C   UNL A   1      38.337  31.500  36.449  1.00  0.00     0.012 A 
ATOM     59  C   UNL A   1      39.792  33.257  35.603  1.00  0.00     0.148 A 
ATOM     60  C   UNL A   1      37.903  32.339  37.473  1.00  0.00     0.002 A 
ATOM     61  C   UNL A   1      39.393  34.071  36.656  1.00  0.00     0.091 A 
ATOM     62  F   UNL A   1      40.658  33.681  34.672  1.00  0.00    -0.205 F 
ATOM     63  C   UNL A   1      38.438  33.620  37.583  1.00  0.00     0.022 A 
BRANCH  61  64
ATOM     64  S   UNL A   1      40.087  35.704  36.934  1.00  0.00     0.127 S 
ATOM     65  O   UNL A   1      39.654  36.416  35.733  1.00  0.00    -0.237 OA
ATOM     66  O   UNL A   1      39.414  36.118  38.165  1.00  0.00    -0.237 OA
ATOM     67  O   UNL A   1      41.525  35.511  37.063  1.00  0.00    -0.744 OA
ENDBRANCH  61  64
ENDBRANCH  43  57
BRANCH  44  68
ATOM     68  C   UNL A   1      42.358  26.538  27.697  1.00  0.00     0.023 A 
ATOM     69  C   UNL A   1      43.212  27.191  26.787  1.00  0.00     0.012 A 
ATOM     70  C   UNL A   1      42.039  25.182  27.489  1.00  0.00     0.148 A 
ATOM     71  C   UNL A   1      43.716  26.514  25.675  1.00  0.00     0.002 A 
ATOM     72  C   UNL A   1      42.592  24.498  26.413  1.00  0.00     0.091 A 
ATOM     73  F   UNL A   1      41.219  24.582  28.363  1.00  0.00    -0.205 F 
ATOM     74  C   UNL A   1      43.416  25.166  25.495  1.00  0.00     0.022 A 
BRANCH  72  75
ATOM     75  S   UNL A   1      42.377  22.729  26.182  1.00  0.00     0.127 S 
ATOM     76  O   UNL A   1      43.023  22.191  27.376  1.00  0.00    -0.237 OA
ATOM     77  O   UNL A   1      40.919  22.606  26.159  1.00  0.00    -0.237 OA
ATOM     78  O   UNL A   1      43.025  22.415  24.916  1.00  0.00    -0.744 OA
ENDBRANCH  72  75
ENDBRANCH  44  68
BRANCH  56  79
ATOM     79  C   UNL A   1      44.599  27.251  34.282  1.00  0.00     0.023 A 
ATOM     80  C   UNL A   1      45.819  27.953  34.343  1.00  0.00     0.012 A 
ATOM     81  C   UNL A   1      44.459  26.044  34.996  1.00  0.00     0.148 A 
ATOM     82  C   UNL A   1      46.892  27.446  35.076  1.00  0.00     0.002 A 
ATOM     83  C   UNL A   1      45.515  25.572  35.765  1.00  0.00     0.091 A 
ATOM     84  F   UNL A   1      43.297  25.382  34.909  1.00  0.00    -0.205 F 
ATOM     85  C   UNL A   1      46.736  26.264  35.796  1.00  0.00     0.022 A 
BRANCH  83  86
ATOM     86  S   UNL A   1      45.372  24.112  36.803  1.00  0.00     0.127 S 
ATOM     87  O   UNL A   1      44.461  24.579  37.847  1.00  0.00    -0.237 OA
ATOM     88  O   UNL A   1      44.794  23.133  35.882  1.00  0.00    -0.237 OA
ATOM     89  O   UNL A   1      46.724  23.800  37.246  1.00  0.00    -0.744 OA
ENDBRANCH  83  86
ENDBRANCH  56  79
ENDBRANCH  30  31
ENDBRANCH  22  25
ENDBRANCH   1  21
TORSDOF 15
ENDMDL
MODEL 3
REMARK VINA RESULT:     -10.5      4.033      6.393
REMARK SMILES C[NH2+][C@](C)(C(=O)NCCCNC(=O)c1ccc(-c2c3nc(c(-c4cccc(S(=O)(=O)[O-])c4F)c4ccc([nH]4)c(-c4cccc(S(=O)(=O)[O-])c4F)c4nc(c(-c5cccc(S(=O)(=O)[O-])c5F)c5ccc2[nH]5)C=C4)C=C3)cc1)c1cccc(Cl)c1
REMARK SMILES IDX 10 1 9 2 8 3 7 4 5 5 6 6 3 8 4 9 2 10 1 11 77 14 78 15 83 16
REMARK SMILES IDX 79 17 81 18 80 19 82 20 11 21 12 22 13 24 14 25 15 26 76 27
REMARK SMILES IDX 16 28 75 29 17 30 18 31 19 32 69 33 20 34 74 35 68 36 70 37
REMARK SMILES IDX 21 38 73 39 67 40 66 41 22 43 54 44 34 45 53 46 35 47 38 48
REMARK SMILES IDX 52 49 71 50 36 51 37 52 51 54 72 55 39 56 23 57 24 58 32 59
REMARK SMILES IDX 25 60 27 61 33 62 26 63 28 64 29 65 30 66 31 67 55 68 56 69
REMARK SMILES IDX 64 70 57 71 59 72 65 73 58 74 60 75 61 76 62 77 63 78 40 79
REMARK SMILES IDX 41 80 49 81 42 82 44 83 50 84 43 85 45 86 46 87 47 88 48 89
REMARK H PARENT 7 7 2 12 2 13 11 23 70 42 38 53
REMARK Flexibility Score: inf
ROOT
ATOM      1  C   UNL A   1      32.638  29.946  25.976  1.00  0.00     0.118 C 
ENDROOT
BRANCH   1   2
ATOM      2  C   UNL A   1      31.775  28.997  26.794  1.00  0.00     0.042 C 
BRANCH   2   3
ATOM      3  C   UNL A   1      32.191  27.542  26.682  1.00  0.00     0.118 C 
BRANCH   3   4
ATOM      4  N   UNL A   1      31.090  26.615  26.876  1.00  0.00    -0.350 N 
ATOM      5  C   UNL A   1      30.566  25.663  26.040  1.00  0.00     0.285 C 
ATOM      6  O   UNL A   1      29.843  24.828  26.597  1.00  0.00    -0.267 OA
ATOM      7  H   UNL A   1      30.646  26.682  27.752  1.00  0.00     0.163 HD
BRANCH   5   8
ATOM      8  C   UNL A   1      30.931  25.615  24.498  1.00  0.00     0.198 C 
ATOM      9  C   UNL A   1      32.476  25.569  24.312  1.00  0.00     0.096 C 
BRANCH   8  10
ATOM     10  N   UNL A   1      30.275  24.454  23.820  1.00  0.00    -0.332 N 
ATOM     11  C   UNL A   1      31.071  23.371  23.283  1.00  0.00     0.332 C 
ATOM     12  H   UNL A   1      29.639  24.040  24.501  1.00  0.00     0.347 HD
ATOM     13  H   UNL A   1      29.870  24.877  22.985  1.00  0.00     0.347 HD
ENDBRANCH   8  10
BRANCH   8  14
ATOM     14  C   UNL A   1      30.507  26.907  23.723  1.00  0.00     0.023 A 
ATOM     15  C   UNL A   1      31.497  27.698  23.092  1.00  0.00     0.011 A 
ATOM     16  C   UNL A   1      29.195  27.415  23.735  1.00  0.00     0.031 A 
ATOM     17  C   UNL A   1      31.193  28.920  22.487  1.00  0.00     0.002 A 
ATOM     18  C   UNL A   1      28.891  28.630  23.111  1.00  0.00     0.041 A 
ATOM     19  C   UNL A   1      29.884  29.385  22.492  1.00  0.00     0.020 A 
ATOM     20  Cl  UNL A   1      27.272  29.218  23.123  1.00  0.00    -0.084 Cl
ENDBRANCH   8  14
ENDBRANCH   5   8
ENDBRANCH   3   4
ENDBRANCH   2   3
ENDBRANCH   1   2
BRANCH   1  21
ATOM     21  N   UNL A   1      32.502  31.340  26.388  1.00  0.00    -0.352 N 
ATOM     22  C   UNL A   1      33.244  32.081  27.280  1.00  0.00     0.251 C 
ATOM     23  H   UNL A   1      31.761  31.828  25.961  1.00  0.00     0.163 HD
ATOM     24  O   UNL A   1      32.853  33.188  27.623  1.00  0.00    -0.269 OA
BRANCH  22  25
ATOM     25  C   UNL A   1      34.498  31.527  27.834  1.00  0.00     0.039 A 
ATOM     26  C   UNL A   1      35.573  32.385  28.078  1.00  0.00     0.014 A 
ATOM     27  C   UNL A   1      34.608  30.166  28.125  1.00  0.00     0.014 A 
ATOM     28  C   UNL A   1      36.726  31.889  28.693  1.00  0.00     0.010 A 
ATOM     29  C   UNL A   1      35.705  29.700  28.837  1.00  0.00     0.010 A 
ATOM     30  C   UNL A   1      36.783  30.552  29.120  1.00  0.00    -0.014 A 
BRANCH  30  31
ATOM     31  C   UNL A   1      37.950  30.024  29.872  1.00  0.00     0.031 A 
ATOM     32  C   UNL A   1      38.216  30.485  31.280  1.00  0.00     0.074 A 
ATOM     33  C   UNL A   1      38.831  29.216  29.249  1.00  0.00     0.049 A 
ATOM     34  N   UNL A   1      39.219  30.192  32.066  1.00  0.00    -0.248 NA
ATOM     35  C   UNL A   1      37.252  31.429  31.870  1.00  0.00     0.031 C 
ATOM     36  C   UNL A   1      38.742  28.784  27.852  1.00  0.00     0.029 A 
ATOM     37  N   UNL A   1      39.993  28.642  29.700  1.00  0.00    -0.354 N 
ATOM     38  C   UNL A   1      39.033  30.951  33.217  1.00  0.00     0.074 A 
ATOM     39  C   UNL A   1      37.844  31.745  33.012  1.00  0.00     0.031 C 
ATOM     40  C   UNL A   1      39.801  28.011  27.562  1.00  0.00     0.029 A 
ATOM     41  C   UNL A   1      40.661  27.920  28.738  1.00  0.00     0.049 A 
ATOM     42  H   UNL A   1      40.319  28.738  30.624  1.00  0.00     0.167 HD
ATOM     43  C   UNL A   1      39.769  30.963  34.353  1.00  0.00     0.034 A 
ATOM     44  C   UNL A   1      41.838  27.267  28.790  1.00  0.00     0.034 A 
ATOM     45  C   UNL A   1      40.919  30.131  34.572  1.00  0.00     0.049 A 
ATOM     46  C   UNL A   1      42.598  27.235  30.087  1.00  0.00     0.074 A 
ATOM     47  C   UNL A   1      41.661  29.976  35.730  1.00  0.00     0.029 A 
ATOM     48  N   UNL A   1      41.506  29.324  33.610  1.00  0.00    -0.354 N 
ATOM     49  N   UNL A   1      42.305  27.812  31.227  1.00  0.00    -0.248 NA
ATOM     50  C   UNL A   1      43.829  26.433  30.119  1.00  0.00     0.031 C 
ATOM     51  C   UNL A   1      42.716  29.099  35.458  1.00  0.00     0.029 A 
ATOM     52  C   UNL A   1      42.611  28.680  34.141  1.00  0.00     0.049 A 
ATOM     53  H   UNL A   1      41.184  29.222  32.685  1.00  0.00     0.167 HD
ATOM     54  C   UNL A   1      43.296  27.420  32.120  1.00  0.00     0.074 A 
ATOM     55  C   UNL A   1      44.184  26.536  31.393  1.00  0.00     0.031 C 
ATOM     56  C   UNL A   1      43.462  27.770  33.418  1.00  0.00     0.034 A 
BRANCH  43  57
ATOM     57  C   UNL A   1      39.323  31.877  35.466  1.00  0.00     0.023 A 
ATOM     58  C   UNL A   1      39.651  33.249  35.421  1.00  0.00     0.012 A 
ATOM     59  C   UNL A   1      38.542  31.390  36.531  1.00  0.00     0.148 A 
ATOM     60  C   UNL A   1      39.246  34.111  36.439  1.00  0.00     0.002 A 
ATOM     61  C   UNL A   1      38.099  32.265  37.516  1.00  0.00     0.091 A 
ATOM     62  F   UNL A   1      38.259  30.080  36.571  1.00  0.00    -0.205 F 
ATOM     63  C   UNL A   1      38.461  33.621  37.480  1.00  0.00     0.022 A 
BRANCH  61  64
ATOM     64  S   UNL A   1      37.014  31.749  38.852  1.00  0.00     0.127 S 
ATOM     65  O   UNL A   1      37.871  31.946  40.020  1.00  0.00    -0.237 OA
ATOM     66  O   UNL A   1      35.911  32.703  38.737  1.00  0.00    -0.237 OA
ATOM     67  O   UNL A   1      36.654  30.367  38.564  1.00  0.00    -0.744 OA
ENDBRANCH  61  64
ENDBRANCH  43  57
BRANCH  44  68
ATOM     68  C   UNL A   1      42.334  26.542  27.586  1.00  0.00     0.023 A 
ATOM     69  C   UNL A   1      43.142  27.218  26.650  1.00  0.00     0.012 A 
ATOM     70  C   UNL A   1      42.051  25.177  27.390  1.00  0.00     0.148 A 
ATOM     71  C   UNL A   1      43.635  26.554  25.526  1.00  0.00     0.002 A 
ATOM     72  C   UNL A   1      42.594  24.507  26.300  1.00  0.00     0.091 A 
ATOM     73  F   UNL A   1      41.275  24.555  28.288  1.00  0.00    -0.205 F 
ATOM     74  C   UNL A   1      43.370  25.197  25.357  1.00  0.00     0.022 A 
BRANCH  72  75
ATOM     75  S   UNL A   1      42.426  22.731  26.079  1.00  0.00     0.127 S 
ATOM     76  O   UNL A   1      43.142  22.216  27.243  1.00  0.00    -0.237 OA
ATOM     77  O   UNL A   1      40.974  22.560  26.121  1.00  0.00    -0.237 OA
ATOM     78  O   UNL A   1      43.027  22.437  24.785  1.00  0.00    -0.744 OA
ENDBRANCH  72  75
ENDBRANCH  44  68
BRANCH  56  79
ATOM     79  C   UNL A   1      44.634  27.177  34.158  1.00  0.00     0.023 A 
ATOM     80  C   UNL A   1      45.864  27.863  34.192  1.00  0.00     0.012 A 
ATOM     81  C   UNL A   1      44.490  25.978  34.884  1.00  0.00     0.148 A 
ATOM     82  C   UNL A   1      46.943  27.347  34.909  1.00  0.00     0.002 A 
ATOM     83  C   UNL A   1      45.553  25.497  35.637  1.00  0.00     0.091 A 
ATOM     84  F   UNL A   1      43.317  25.331  34.824  1.00  0.00    -0.205 F 
ATOM     85  C   UNL A   1      46.784  26.172  35.641  1.00  0.00     0.022 A 
BRANCH  83  86
ATOM     86  S   UNL A   1      45.408  24.048  36.689  1.00  0.00     0.127 S 
ATOM     87  O   UNL A   1      46.798  23.832  37.090  1.00  0.00    -0.237 OA
ATOM     88  O   UNL A   1      44.532  24.527  37.759  1.00  0.00    -0.237 OA
ATOM     89  O   UNL A   1      44.828  23.003  35.856  1.00  0.00    -0.744 OA
ENDBRANCH  83  86
ENDBRANCH  56  79
ENDBRANCH  30  31
ENDBRANCH  22  25
ENDBRANCH   1  21
TORSDOF 15
ENDMDL
