MODEL 1
REMARK VINA RESULT:     -11.1      0.000      0.000
REMARK SMILES CCC[N@@H+]1CCO[C@H](c2nc(CC(=O)NCCCNC(=O)c3ccc(-c4c5nc(c(-c6cccc(S(=O)(=O)[O-])c6F)c6ccc([nH]6)c(-c6cccc(S(=O)(=O)[O-])c6F)c6nc(c(-c7cccc(S(=O)(=O)[O-])c7F)c7ccc4[nH]7)C=C6)C=C5)cc3)cs2)C1
REMARK SMILES IDX 16 1 15 2 13 3 14 4 12 6 11 7 9 8 10 9 86 10 85 11 8 12 4 13
REMARK SMILES IDX 5 14 87 15 6 17 7 18 3 19 2 20 1 21 17 22 18 23 19 24 20 25
REMARK SMILES IDX 21 27 22 28 23 29 84 30 24 31 83 32 25 33 26 34 27 35 77 36
REMARK SMILES IDX 28 37 82 38 76 39 78 40 29 41 81 42 75 43 74 44 30 46 62 47
REMARK SMILES IDX 42 48 61 49 43 50 46 51 60 52 79 53 44 54 45 55 59 57 80 58
REMARK SMILES IDX 47 59 31 60 32 61 40 62 33 63 35 64 41 65 34 66 36 67 37 68
REMARK SMILES IDX 38 69 39 70 63 71 64 72 72 73 65 74 67 75 73 76 66 77 68 78
REMARK SMILES IDX 69 79 70 80 71 81 48 82 49 83 57 84 50 85 52 86 58 87 51 88
REMARK SMILES IDX 53 89 54 90 55 91 56 92
REMARK H PARENT 15 5 4 16 19 26 78 45 46 56
REMARK Flexibility Score: inf
ROOT
ATOM      1  C   UNL A   1      36.419  20.272  24.942  1.00  0.00     0.117 C 
ENDROOT
BRANCH   1   2
ATOM      2  N   UNL A   1      36.526  21.595  25.537  1.00  0.00    -0.356 N 
ATOM      3  C   UNL A   1      36.435  22.814  24.927  1.00  0.00     0.226 C 
ATOM      4  O   UNL A   1      36.600  23.827  25.612  1.00  0.00    -0.275 OA
ATOM      5  H   UNL A   1      36.687  21.615  26.508  1.00  0.00     0.163 HD
BRANCH   3   6
ATOM      6  C   UNL A   1      36.091  22.908  23.454  1.00  0.00     0.157 C 
BRANCH   6   7
ATOM      7  C   UNL A   1      34.709  23.417  23.222  1.00  0.00     0.061 A 
ATOM      8  C   UNL A   1      33.287  25.046  22.635  1.00  0.00     0.128 A 
ATOM      9  N   UNL A   1      34.553  24.751  22.877  1.00  0.00    -0.243 NA
ATOM     10  S   UNL A   1      32.194  23.770  23.070  1.00  0.00    -0.124 S 
ATOM     11  C   UNL A   1      33.526  22.714  23.310  1.00  0.00     0.091 A 
BRANCH   8  12
ATOM     12  C   UNL A   1      32.769  26.313  21.943  1.00  0.00     0.232 C 
ATOM     13  N   UNL A   1      32.878  28.090  23.753  1.00  0.00    -0.331 N 
ATOM     14  C   UNL A   1      31.532  28.523  23.435  1.00  0.00     0.291 C 
ATOM     15  C   UNL A   1      33.474  27.569  22.503  1.00  0.00     0.302 C 
ATOM     16  H   UNL A   1      33.387  28.907  24.090  1.00  0.00     0.348 HD
ATOM     17  C   UNL A   1      30.722  27.580  22.523  1.00  0.00     0.222 C 
ATOM     18  O   UNL A   1      31.330  26.355  22.085  1.00  0.00    -0.359 OA
BRANCH  13  19
ATOM     19  C   UNL A   1      33.061  27.226  24.923  1.00  0.00     0.262 C 
BRANCH  19  20
ATOM     20  C   UNL A   1      31.972  26.806  25.943  1.00  0.00     0.058 C 
ATOM     21  C   UNL A   1      31.462  27.725  27.042  1.00  0.00     0.010 C 
ENDBRANCH  19  20
ENDBRANCH  13  19
ENDBRANCH   8  12
ENDBRANCH   6   7
ENDBRANCH   3   6
ENDBRANCH   1   2
BRANCH   1  22
ATOM     22  C   UNL A   1      37.757  19.550  24.854  1.00  0.00     0.042 C 
BRANCH  22  23
ATOM     23  C   UNL A   1      38.854  20.124  25.732  1.00  0.00     0.118 C 
BRANCH  23  24
ATOM     24  N   UNL A   1      39.937  19.184  25.954  1.00  0.00    -0.352 N 
ATOM     25  C   UNL A   1      41.267  19.420  26.208  1.00  0.00     0.251 C 
ATOM     26  H   UNL A   1      39.680  18.234  25.919  1.00  0.00     0.163 HD
ATOM     27  O   UNL A   1      42.058  18.482  26.169  1.00  0.00    -0.269 OA
BRANCH  25  28
ATOM     28  C   UNL A   1      41.754  20.788  26.505  1.00  0.00     0.039 A 
ATOM     29  C   UNL A   1      41.853  21.705  25.455  1.00  0.00     0.014 A 
ATOM     30  C   UNL A   1      42.142  21.169  27.792  1.00  0.00     0.014 A 
ATOM     31  C   UNL A   1      42.292  23.009  25.705  1.00  0.00     0.010 A 
ATOM     32  C   UNL A   1      42.491  22.493  28.056  1.00  0.00     0.010 A 
ATOM     33  C   UNL A   1      42.585  23.425  27.013  1.00  0.00    -0.014 A 
BRANCH  33  34
ATOM     34  C   UNL A   1      42.995  24.825  27.304  1.00  0.00     0.031 A 
ATOM     35  C   UNL A   1      42.031  25.780  27.961  1.00  0.00     0.074 A 
ATOM     36  C   UNL A   1      44.210  25.260  26.911  1.00  0.00     0.049 A 
ATOM     37  N   UNL A   1      42.196  27.046  28.253  1.00  0.00    -0.248 NA
ATOM     38  C   UNL A   1      40.701  25.257  28.316  1.00  0.00     0.031 C 
ATOM     39  C   UNL A   1      45.208  24.458  26.199  1.00  0.00     0.029 A 
ATOM     40  N   UNL A   1      44.803  26.494  27.028  1.00  0.00    -0.354 N 
ATOM     41  C   UNL A   1      40.984  27.479  28.777  1.00  0.00     0.074 A 
ATOM     42  C   UNL A   1      40.083  26.348  28.748  1.00  0.00     0.031 C 
ATOM     43  C   UNL A   1      46.288  25.216  25.949  1.00  0.00     0.029 A 
ATOM     44  C   UNL A   1      46.049  26.567  26.448  1.00  0.00     0.049 A 
ATOM     45  H   UNL A   1      44.377  27.255  27.485  1.00  0.00     0.167 HD
ATOM     46  C   UNL A   1      40.656  28.700  29.259  1.00  0.00     0.034 A 
ATOM     47  C   UNL A   1      46.898  27.606  26.319  1.00  0.00     0.034 A 
ATOM     48  C   UNL A   1      41.571  29.807  29.343  1.00  0.00     0.049 A 
ATOM     49  C   UNL A   1      46.517  28.939  26.906  1.00  0.00     0.074 A 
ATOM     50  C   UNL A   1      41.365  31.046  29.922  1.00  0.00     0.029 A 
ATOM     51  N   UNL A   1      42.853  29.815  28.822  1.00  0.00    -0.354 N 
ATOM     52  N   UNL A   1      45.432  29.274  27.562  1.00  0.00    -0.248 NA
ATOM     53  C   UNL A   1      47.493  30.031  26.766  1.00  0.00     0.031 C 
ATOM     54  C   UNL A   1      42.511  31.820  29.718  1.00  0.00     0.029 A 
ATOM     55  C   UNL A   1      43.444  31.047  29.047  1.00  0.00     0.049 A 
ATOM     56  H   UNL A   1      43.282  29.058  28.360  1.00  0.00     0.167 HD
ATOM     57  C   UNL A   1      45.616  30.596  27.951  1.00  0.00     0.074 A 
ATOM     58  C   UNL A   1      46.923  30.995  27.476  1.00  0.00     0.031 C 
ATOM     59  C   UNL A   1      44.771  31.412  28.628  1.00  0.00     0.034 A 
BRANCH  46  60
ATOM     60  C   UNL A   1      39.258  28.912  29.780  1.00  0.00     0.023 A 
ATOM     61  C   UNL A   1      38.940  28.545  31.103  1.00  0.00     0.012 A 
ATOM     62  C   UNL A   1      38.297  29.578  28.996  1.00  0.00     0.148 A 
ATOM     63  C   UNL A   1      37.679  28.819  31.630  1.00  0.00     0.002 A 
ATOM     64  C   UNL A   1      37.058  29.889  29.543  1.00  0.00     0.091 A 
ATOM     65  F   UNL A   1      38.616  29.902  27.734  1.00  0.00    -0.205 F 
ATOM     66  C   UNL A   1      36.745  29.502  30.856  1.00  0.00     0.022 A 
BRANCH  64  67
ATOM     67  S   UNL A   1      35.818  30.843  28.659  1.00  0.00     0.127 S 
ATOM     68  O   UNL A   1      35.145  29.801  27.883  1.00  0.00    -0.237 OA
ATOM     69  O   UNL A   1      35.022  31.396  29.756  1.00  0.00    -0.237 OA
ATOM     70  O   UNL A   1      36.547  31.827  27.874  1.00  0.00    -0.744 OA
ENDBRANCH  64  67
ENDBRANCH  46  60
BRANCH  47  71
ATOM     71  C   UNL A   1      48.217  27.427  25.644  1.00  0.00     0.023 A 
ATOM     72  C   UNL A   1      49.355  27.117  26.417  1.00  0.00     0.012 A 
ATOM     73  C   UNL A   1      48.356  27.578  24.252  1.00  0.00     0.148 A 
ATOM     74  C   UNL A   1      50.613  27.014  25.822  1.00  0.00     0.002 A 
ATOM     75  C   UNL A   1      49.602  27.412  23.657  1.00  0.00     0.091 A 
ATOM     76  F   UNL A   1      47.269  27.888  23.532  1.00  0.00    -0.205 F 
ATOM     77  C   UNL A   1      50.735  27.154  24.443  1.00  0.00     0.022 A 
BRANCH  75  78
ATOM     78  S   UNL A   1      49.818  27.437  21.874  1.00  0.00     0.127 S 
ATOM     79  O   UNL A   1      51.162  26.887  21.726  1.00  0.00    -0.237 OA
ATOM     80  O   UNL A   1      48.738  26.558  21.423  1.00  0.00    -0.237 OA
ATOM     81  O   UNL A   1      49.650  28.830  21.482  1.00  0.00    -0.744 OA
ENDBRANCH  75  78
ENDBRANCH  47  71
BRANCH  59  82
ATOM     82  C   UNL A   1      45.247  32.804  28.951  1.00  0.00     0.023 A 
ATOM     83  C   UNL A   1      45.955  33.050  30.143  1.00  0.00     0.012 A 
ATOM     84  C   UNL A   1      45.053  33.855  28.032  1.00  0.00     0.148 A 
ATOM     85  C   UNL A   1      46.433  34.328  30.432  1.00  0.00     0.002 A 
ATOM     86  C   UNL A   1      45.578  35.112  28.301  1.00  0.00     0.091 A 
ATOM     87  F   UNL A   1      44.360  33.605  26.911  1.00  0.00    -0.205 F 
ATOM     88  C   UNL A   1      46.255  35.355  29.507  1.00  0.00     0.022 A 
BRANCH  86  89
ATOM     89  S   UNL A   1      45.487  36.466  27.124  1.00  0.00     0.127 S 
ATOM     90  O   UNL A   1      46.290  37.492  27.787  1.00  0.00    -0.237 OA
ATOM     91  O   UNL A   1      46.105  35.883  25.932  1.00  0.00    -0.237 OA
ATOM     92  O   UNL A   1      44.071  36.778  26.979  1.00  0.00    -0.744 OA
ENDBRANCH  86  89
ENDBRANCH  59  82
ENDBRANCH  33  34
ENDBRANCH  25  28
ENDBRANCH  23  24
ENDBRANCH  22  23
ENDBRANCH   1  22
TORSDOF 17
ENDMDL
MODEL 2
REMARK VINA RESULT:     -11.0      6.390     11.758
REMARK SMILES CCC[N@@H+]1CCO[C@H](c2nc(CC(=O)NCCCNC(=O)c3ccc(-c4c5nc(c(-c6cccc(S(=O)(=O)[O-])c6F)c6ccc([nH]6)c(-c6cccc(S(=O)(=O)[O-])c6F)c6nc(c(-c7cccc(S(=O)(=O)[O-])c7F)c7ccc4[nH]7)C=C6)C=C5)cc3)cs2)C1
REMARK SMILES IDX 16 1 15 2 13 3 14 4 12 6 11 7 9 8 10 9 86 10 85 11 8 12 4 13
REMARK SMILES IDX 5 14 87 15 6 17 7 18 3 19 2 20 1 21 17 22 18 23 19 24 20 25
REMARK SMILES IDX 21 27 22 28 23 29 84 30 24 31 83 32 25 33 26 34 27 35 77 36
REMARK SMILES IDX 28 37 82 38 76 39 78 40 29 41 81 42 75 43 74 44 30 46 62 47
REMARK SMILES IDX 42 48 61 49 43 50 46 51 60 52 79 53 44 54 45 55 59 57 80 58
REMARK SMILES IDX 47 59 31 60 32 61 40 62 33 63 35 64 41 65 34 66 36 67 37 68
REMARK SMILES IDX 38 69 39 70 63 71 64 72 72 73 65 74 67 75 73 76 66 77 68 78
REMARK SMILES IDX 69 79 70 80 71 81 48 82 49 83 57 84 50 85 52 86 58 87 51 88
REMARK SMILES IDX 53 89 54 90 55 91 56 92
REMARK H PARENT 15 5 4 16 19 26 78 45 46 56
REMARK Flexibility Score: inf
ROOT
ATOM      1  C   UNL A   1      31.575  30.813  25.860  1.00  0.00     0.117 C 
ENDROOT
BRANCH   1   2
ATOM      2  N   UNL A   1      32.780  30.146  26.327  1.00  0.00    -0.356 N 
ATOM      3  C   UNL A   1      32.889  29.004  27.071  1.00  0.00     0.226 C 
ATOM      4  O   UNL A   1      34.015  28.625  27.402  1.00  0.00    -0.275 OA
ATOM      5  H   UNL A   1      33.631  30.573  26.076  1.00  0.00     0.163 HD
BRANCH   3   6
ATOM      6  C   UNL A   1      31.652  28.207  27.432  1.00  0.00     0.157 C 
BRANCH   6   7
ATOM      7  C   UNL A   1      31.473  27.008  26.563  1.00  0.00     0.061 A 
ATOM      8  C   UNL A   1      31.492  24.791  26.245  1.00  0.00     0.128 A 
ATOM      9  N   UNL A   1      31.760  25.762  27.099  1.00  0.00    -0.243 NA
ATOM     10  S   UNL A   1      31.118  25.367  24.652  1.00  0.00    -0.124 S 
ATOM     11  C   UNL A   1      31.046  26.973  25.252  1.00  0.00     0.091 A 
BRANCH   8  12
ATOM     12  C   UNL A   1      31.390  23.296  26.575  1.00  0.00     0.232 C 
ATOM     13  N   UNL A   1      33.788  22.472  26.437  1.00  0.00    -0.331 N 
ATOM     14  C   UNL A   1      33.373  21.341  25.632  1.00  0.00     0.291 C 
ATOM     15  C   UNL A   1      32.654  22.814  27.323  1.00  0.00     0.302 C 
ATOM     16  H   UNL A   1      34.601  22.176  26.977  1.00  0.00     0.348 HD
ATOM     17  C   UNL A   1      31.939  21.410  25.068  1.00  0.00     0.222 C 
ATOM     18  O   UNL A   1      31.144  22.572  25.347  1.00  0.00    -0.359 OA
BRANCH  13  19
ATOM     19  C   UNL A   1      34.392  23.617  25.749  1.00  0.00     0.262 C 
BRANCH  19  20
ATOM     20  C   UNL A   1      35.901  23.963  25.678  1.00  0.00     0.058 C 
ATOM     21  C   UNL A   1      36.991  22.912  25.530  1.00  0.00     0.010 C 
ENDBRANCH  19  20
ENDBRANCH  13  19
ENDBRANCH   8  12
ENDBRANCH   6   7
ENDBRANCH   3   6
ENDBRANCH   1   2
BRANCH   1  22
ATOM     22  C   UNL A   1      31.350  32.166  26.522  1.00  0.00     0.042 C 
BRANCH  22  23
ATOM     23  C   UNL A   1      32.551  32.724  27.264  1.00  0.00     0.118 C 
BRANCH  23  24
ATOM     24  N   UNL A   1      32.374  34.114  27.642  1.00  0.00    -0.352 N 
ATOM     25  C   UNL A   1      33.007  34.846  28.618  1.00  0.00     0.251 C 
ATOM     26  H   UNL A   1      31.699  34.606  27.121  1.00  0.00     0.163 HD
ATOM     27  O   UNL A   1      32.571  35.956  28.909  1.00  0.00    -0.269 OA
BRANCH  25  28
ATOM     28  C   UNL A   1      34.189  34.304  29.329  1.00  0.00     0.039 A 
ATOM     29  C   UNL A   1      34.040  33.892  30.656  1.00  0.00     0.014 A 
ATOM     30  C   UNL A   1      35.444  34.226  28.719  1.00  0.00     0.014 A 
ATOM     31  C   UNL A   1      35.131  33.360  31.350  1.00  0.00     0.010 A 
ATOM     32  C   UNL A   1      36.507  33.611  29.380  1.00  0.00     0.010 A 
ATOM     33  C   UNL A   1      36.368  33.185  30.709  1.00  0.00    -0.014 A 
BRANCH  33  34
ATOM     34  C   UNL A   1      37.522  32.565  31.413  1.00  0.00     0.031 A 
ATOM     35  C   UNL A   1      38.283  31.430  30.777  1.00  0.00     0.074 A 
ATOM     36  C   UNL A   1      37.841  32.973  32.660  1.00  0.00     0.049 A 
ATOM     37  N   UNL A   1      39.286  30.739  31.257  1.00  0.00    -0.248 NA
ATOM     38  C   UNL A   1      37.850  30.996  29.437  1.00  0.00     0.031 C 
ATOM     39  C   UNL A   1      37.137  34.009  33.418  1.00  0.00     0.029 A 
ATOM     40  N   UNL A   1      38.821  32.545  33.521  1.00  0.00    -0.354 N 
ATOM     41  C   UNL A   1      39.570  29.765  30.307  1.00  0.00     0.074 A 
ATOM     42  C   UNL A   1      38.623  29.939  29.227  1.00  0.00     0.031 C 
ATOM     43  C   UNL A   1      37.710  34.141  34.625  1.00  0.00     0.029 A 
ATOM     44  C   UNL A   1      38.799  33.175  34.744  1.00  0.00     0.049 A 
ATOM     45  H   UNL A   1      39.481  31.852  33.285  1.00  0.00     0.167 HD
ATOM     46  C   UNL A   1      40.544  28.825  30.319  1.00  0.00     0.034 A 
ATOM     47  C   UNL A   1      39.557  32.989  35.843  1.00  0.00     0.034 A 
ATOM     48  C   UNL A   1      41.522  28.692  31.365  1.00  0.00     0.049 A 
ATOM     49  C   UNL A   1      40.660  31.963  35.805  1.00  0.00     0.074 A 
ATOM     50  C   UNL A   1      42.617  27.847  31.410  1.00  0.00     0.029 A 
ATOM     51  N   UNL A   1      41.518  29.408  32.550  1.00  0.00    -0.354 N 
ATOM     52  N   UNL A   1      41.025  31.178  34.820  1.00  0.00    -0.248 NA
ATOM     53  C   UNL A   1      41.479  31.822  37.019  1.00  0.00     0.031 C 
ATOM     54  C   UNL A   1      43.254  28.024  32.642  1.00  0.00     0.029 A 
ATOM     55  C   UNL A   1      42.579  29.008  33.344  1.00  0.00     0.049 A 
ATOM     56  H   UNL A   1      40.859  30.098  32.792  1.00  0.00     0.167 HD
ATOM     57  C   UNL A   1      42.140  30.485  35.279  1.00  0.00     0.074 A 
ATOM     58  C   UNL A   1      42.404  30.959  36.621  1.00  0.00     0.031 C 
ATOM     59  C   UNL A   1      42.871  29.533  34.652  1.00  0.00     0.034 A 
BRANCH  46  60
ATOM     60  C   UNL A   1      40.642  27.880  29.151  1.00  0.00     0.023 A 
ATOM     61  C   UNL A   1      39.756  26.788  29.056  1.00  0.00     0.012 A 
ATOM     62  C   UNL A   1      41.535  28.141  28.093  1.00  0.00     0.148 A 
ATOM     63  C   UNL A   1      39.772  25.958  27.936  1.00  0.00     0.002 A 
ATOM     64  C   UNL A   1      41.513  27.337  26.960  1.00  0.00     0.091 A 
ATOM     65  F   UNL A   1      42.381  29.175  28.213  1.00  0.00    -0.205 F 
ATOM     66  C   UNL A   1      40.639  26.240  26.884  1.00  0.00     0.022 A 
BRANCH  64  67
ATOM     67  S   UNL A   1      42.528  27.669  25.515  1.00  0.00     0.127 S 
ATOM     68  O   UNL A   1      42.241  26.502  24.681  1.00  0.00    -0.237 OA
ATOM     69  O   UNL A   1      41.957  28.923  25.024  1.00  0.00    -0.237 OA
ATOM     70  O   UNL A   1      43.898  27.765  25.995  1.00  0.00    -0.744 OA
ENDBRANCH  64  67
ENDBRANCH  46  60
BRANCH  47  71
ATOM     71  C   UNL A   1      39.339  33.818  37.063  1.00  0.00     0.023 A 
ATOM     72  C   UNL A   1      39.845  35.133  37.108  1.00  0.00     0.012 A 
ATOM     73  C   UNL A   1      38.653  33.310  38.182  1.00  0.00     0.148 A 
ATOM     74  C   UNL A   1      39.718  35.905  38.263  1.00  0.00     0.002 A 
ATOM     75  C   UNL A   1      38.473  34.108  39.307  1.00  0.00     0.091 A 
ATOM     76  F   UNL A   1      38.190  32.053  38.131  1.00  0.00    -0.205 F 
ATOM     77  C   UNL A   1      39.026  35.397  39.359  1.00  0.00     0.022 A 
BRANCH  75  78
ATOM     78  S   UNL A   1      37.475  33.578  40.703  1.00  0.00     0.127 S 
ATOM     79  O   UNL A   1      38.315  32.543  41.298  1.00  0.00    -0.237 OA
ATOM     80  O   UNL A   1      37.365  34.810  41.486  1.00  0.00    -0.237 OA
ATOM     81  O   UNL A   1      36.214  33.127  40.129  1.00  0.00    -0.744 OA
ENDBRANCH  75  78
ENDBRANCH  47  71
BRANCH  59  82
ATOM     82  C   UNL A   1      44.065  28.970  35.378  1.00  0.00     0.023 A 
ATOM     83  C   UNL A   1      45.319  29.603  35.275  1.00  0.00     0.012 A 
ATOM     84  C   UNL A   1      43.922  27.852  36.225  1.00  0.00     0.148 A 
ATOM     85  C   UNL A   1      46.420  29.112  35.974  1.00  0.00     0.002 A 
ATOM     86  C   UNL A   1      45.010  27.402  36.961  1.00  0.00     0.091 A 
ATOM     87  F   UNL A   1      42.725  27.253  36.297  1.00  0.00    -0.205 F 
ATOM     88  C   UNL A   1      46.264  28.020  36.826  1.00  0.00     0.022 A 
BRANCH  86  89
ATOM     89  S   UNL A   1      44.878  26.069  38.158  1.00  0.00     0.127 S 
ATOM     90  O   UNL A   1      43.748  26.510  38.974  1.00  0.00    -0.237 OA
ATOM     91  O   UNL A   1      44.599  24.913  37.304  1.00  0.00    -0.237 OA
ATOM     92  O   UNL A   1      46.162  26.016  38.845  1.00  0.00    -0.744 OA
ENDBRANCH  86  89
ENDBRANCH  59  82
ENDBRANCH  33  34
ENDBRANCH  25  28
ENDBRANCH  23  24
ENDBRANCH  22  23
ENDBRANCH   1  22
TORSDOF 17
ENDMDL
MODEL 3
REMARK VINA RESULT:     -10.8      1.945      7.992
REMARK SMILES CCC[N@@H+]1CCO[C@H](c2nc(CC(=O)NCCCNC(=O)c3ccc(-c4c5nc(c(-c6cccc(S(=O)(=O)[O-])c6F)c6ccc([nH]6)c(-c6cccc(S(=O)(=O)[O-])c6F)c6nc(c(-c7cccc(S(=O)(=O)[O-])c7F)c7ccc4[nH]7)C=C6)C=C5)cc3)cs2)C1
REMARK SMILES IDX 16 1 15 2 13 3 14 4 12 6 11 7 9 8 10 9 86 10 85 11 8 12 4 13
REMARK SMILES IDX 5 14 87 15 6 17 7 18 3 19 2 20 1 21 17 22 18 23 19 24 20 25
REMARK SMILES IDX 21 27 22 28 23 29 84 30 24 31 83 32 25 33 26 34 27 35 77 36
REMARK SMILES IDX 28 37 82 38 76 39 78 40 29 41 81 42 75 43 74 44 30 46 62 47
REMARK SMILES IDX 42 48 61 49 43 50 46 51 60 52 79 53 44 54 45 55 59 57 80 58
REMARK SMILES IDX 47 59 31 60 32 61 40 62 33 63 35 64 41 65 34 66 36 67 37 68
REMARK SMILES IDX 38 69 39 70 63 71 64 72 72 73 65 74 67 75 73 76 66 77 68 78
REMARK SMILES IDX 69 79 70 80 71 81 48 82 49 83 57 84 50 85 52 86 58 87 51 88
REMARK SMILES IDX 53 89 54 90 55 91 56 92
REMARK H PARENT 15 5 4 16 19 26 78 45 46 56
REMARK Flexibility Score: inf
ROOT
ATOM      1  C   UNL A   1      35.328  21.349  25.838  1.00  0.00     0.117 C 
ENDROOT
BRANCH   1   2
ATOM      2  N   UNL A   1      34.599  21.547  27.081  1.00  0.00    -0.356 N 
ATOM      3  C   UNL A   1      33.373  22.123  27.268  1.00  0.00     0.226 C 
ATOM      4  O   UNL A   1      32.947  22.234  28.421  1.00  0.00    -0.275 OA
ATOM      5  H   UNL A   1      35.048  21.226  27.896  1.00  0.00     0.163 HD
BRANCH   3   6
ATOM      6  C   UNL A   1      32.546  22.564  26.077  1.00  0.00     0.157 C 
BRANCH   6   7
ATOM      7  C   UNL A   1      32.592  24.040  25.868  1.00  0.00     0.061 A 
ATOM      8  C   UNL A   1      31.634  25.968  25.247  1.00  0.00     0.128 A 
ATOM      9  N   UNL A   1      31.483  24.656  25.309  1.00  0.00    -0.243 NA
ATOM     10  S   UNL A   1      33.244  26.488  25.631  1.00  0.00    -0.124 S 
ATOM     11  C   UNL A   1      33.626  24.902  26.167  1.00  0.00     0.091 A 
BRANCH   8  12
ATOM     12  C   UNL A   1      30.527  26.996  24.981  1.00  0.00     0.232 C 
ATOM     13  N   UNL A   1      30.631  27.376  22.473  1.00  0.00    -0.331 N 
ATOM     14  C   UNL A   1      30.592  28.811  22.669  1.00  0.00     0.291 C 
ATOM     15  C   UNL A   1      29.887  26.762  23.593  1.00  0.00     0.302 C 
ATOM     16  H   UNL A   1      30.179  27.180  21.580  1.00  0.00     0.348 HD
ATOM     17  C   UNL A   1      30.825  29.296  24.115  1.00  0.00     0.222 C 
ATOM     18  O   UNL A   1      31.087  28.320  25.135  1.00  0.00    -0.359 OA
BRANCH  13  19
ATOM     19  C   UNL A   1      31.932  26.758  22.193  1.00  0.00     0.262 C 
BRANCH  19  20
ATOM     20  C   UNL A   1      32.180  25.329  21.651  1.00  0.00     0.058 C 
ATOM     21  C   UNL A   1      33.238  24.394  22.219  1.00  0.00     0.010 C 
ENDBRANCH  19  20
ENDBRANCH  13  19
ENDBRANCH   8  12
ENDBRANCH   6   7
ENDBRANCH   3   6
ENDBRANCH   1   2
BRANCH   1  22
ATOM     22  C   UNL A   1      36.169  22.556  25.444  1.00  0.00     0.042 C 
BRANCH  22  23
ATOM     23  C   UNL A   1      37.508  22.224  24.810  1.00  0.00     0.118 C 
BRANCH  23  24
ATOM     24  N   UNL A   1      38.247  21.228  25.563  1.00  0.00    -0.352 N 
ATOM     25  C   UNL A   1      39.346  21.377  26.374  1.00  0.00     0.251 C 
ATOM     26  H   UNL A   1      37.910  20.306  25.480  1.00  0.00     0.163 HD
ATOM     27  O   UNL A   1      39.942  20.377  26.763  1.00  0.00    -0.269 OA
BRANCH  25  28
ATOM     28  C   UNL A   1      39.826  22.724  26.764  1.00  0.00     0.039 A 
ATOM     29  C   UNL A   1      40.819  22.823  27.743  1.00  0.00     0.014 A 
ATOM     30  C   UNL A   1      39.291  23.887  26.204  1.00  0.00     0.014 A 
ATOM     31  C   UNL A   1      41.306  24.078  28.120  1.00  0.00     0.010 A 
ATOM     32  C   UNL A   1      39.841  25.131  26.514  1.00  0.00     0.010 A 
ATOM     33  C   UNL A   1      40.844  25.243  27.487  1.00  0.00    -0.014 A 
BRANCH  33  34
ATOM     34  C   UNL A   1      41.395  26.580  27.834  1.00  0.00     0.031 A 
ATOM     35  C   UNL A   1      42.829  26.920  27.516  1.00  0.00     0.074 A 
ATOM     36  C   UNL A   1      40.627  27.465  28.503  1.00  0.00     0.049 A 
ATOM     37  N   UNL A   1      43.494  28.016  27.781  1.00  0.00    -0.248 NA
ATOM     38  C   UNL A   1      43.630  25.890  26.833  1.00  0.00     0.031 C 
ATOM     39  C   UNL A   1      39.247  27.232  28.937  1.00  0.00     0.029 A 
ATOM     40  N   UNL A   1      40.906  28.730  28.962  1.00  0.00    -0.354 N 
ATOM     41  C   UNL A   1      44.794  27.790  27.345  1.00  0.00     0.074 A 
ATOM     42  C   UNL A   1      44.833  26.446  26.812  1.00  0.00     0.031 C 
ATOM     43  C   UNL A   1      38.800  28.316  29.591  1.00  0.00     0.029 A 
ATOM     44  C   UNL A   1      39.869  29.308  29.657  1.00  0.00     0.049 A 
ATOM     45  H   UNL A   1      41.767  29.181  28.807  1.00  0.00     0.167 HD
ATOM     46  C   UNL A   1      45.854  28.632  27.364  1.00  0.00     0.034 A 
ATOM     47  C   UNL A   1      39.789  30.496  30.289  1.00  0.00     0.034 A 
ATOM     48  C   UNL A   1      45.798  29.988  27.837  1.00  0.00     0.049 A 
ATOM     49  C   UNL A   1      40.975  31.425  30.252  1.00  0.00     0.074 A 
ATOM     50  C   UNL A   1      46.788  30.954  27.789  1.00  0.00     0.029 A 
ATOM     51  N   UNL A   1      44.704  30.567  28.457  1.00  0.00    -0.354 N 
ATOM     52  N   UNL A   1      42.138  31.258  29.671  1.00  0.00    -0.248 NA
ATOM     53  C   UNL A   1      40.825  32.722  30.930  1.00  0.00     0.031 C 
ATOM     54  C   UNL A   1      46.306  32.107  28.416  1.00  0.00     0.029 A 
ATOM     55  C   UNL A   1      45.001  31.870  28.817  1.00  0.00     0.049 A 
ATOM     56  H   UNL A   1      43.842  30.118  28.618  1.00  0.00     0.167 HD
ATOM     57  C   UNL A   1      42.838  32.442  29.873  1.00  0.00     0.074 A 
ATOM     58  C   UNL A   1      41.962  33.326  30.611  1.00  0.00     0.031 C 
ATOM     59  C   UNL A   1      44.099  32.764  29.493  1.00  0.00     0.034 A 
BRANCH  46  60
ATOM     60  C   UNL A   1      47.169  28.139  26.820  1.00  0.00     0.023 A 
ATOM     61  C   UNL A   1      48.155  27.655  27.702  1.00  0.00     0.012 A 
ATOM     62  C   UNL A   1      47.380  28.050  25.430  1.00  0.00     0.148 A 
ATOM     63  C   UNL A   1      49.340  27.110  27.210  1.00  0.00     0.002 A 
ATOM     64  C   UNL A   1      48.543  27.463  24.947  1.00  0.00     0.091 A 
ATOM     65  F   UNL A   1      46.436  28.533  24.610  1.00  0.00    -0.205 F 
ATOM     66  C   UNL A   1      49.528  27.002  25.835  1.00  0.00     0.022 A 
BRANCH  64  67
ATOM     67  S   UNL A   1      48.840  27.198  23.195  1.00  0.00     0.127 S 
ATOM     68  O   UNL A   1      50.302  27.153  23.148  1.00  0.00    -0.237 OA
ATOM     69  O   UNL A   1      48.185  25.909  22.967  1.00  0.00    -0.237 OA
ATOM     70  O   UNL A   1      48.233  28.325  22.504  1.00  0.00    -0.744 OA
ENDBRANCH  64  67
ENDBRANCH  46  60
BRANCH  47  71
ATOM     71  C   UNL A   1      38.531  30.907  30.977  1.00  0.00     0.023 A 
ATOM     72  C   UNL A   1      38.360  30.613  32.345  1.00  0.00     0.012 A 
ATOM     73  C   UNL A   1      37.498  31.567  30.285  1.00  0.00     0.148 A 
ATOM     74  C   UNL A   1      37.165  30.922  32.995  1.00  0.00     0.002 A 
ATOM     75  C   UNL A   1      36.335  31.929  30.955  1.00  0.00     0.091 A 
ATOM     76  F   UNL A   1      37.669  31.826  28.981  1.00  0.00    -0.205 F 
ATOM     77  C   UNL A   1      36.156  31.586  32.304  1.00  0.00     0.022 A 
BRANCH  75  78
ATOM     78  S   UNL A   1      35.049  32.909  30.172  1.00  0.00     0.127 S 
ATOM     79  O   UNL A   1      34.533  31.982  29.169  1.00  0.00    -0.237 OA
ATOM     80  O   UNL A   1      34.143  33.175  31.290  1.00  0.00    -0.237 OA
ATOM     81  O   UNL A   1      35.722  34.096  29.660  1.00  0.00    -0.744 OA
ENDBRANCH  75  78
ENDBRANCH  47  71
BRANCH  59  82
ATOM     82  C   UNL A   1      44.599  34.148  29.816  1.00  0.00     0.023 A 
ATOM     83  C   UNL A   1      45.344  34.375  30.989  1.00  0.00     0.012 A 
ATOM     84  C   UNL A   1      44.390  35.209  28.912  1.00  0.00     0.148 A 
ATOM     85  C   UNL A   1      45.843  35.644  31.276  1.00  0.00     0.002 A 
ATOM     86  C   UNL A   1      44.937  36.458  29.177  1.00  0.00     0.091 A 
ATOM     87  F   UNL A   1      43.664  34.977  27.809  1.00  0.00    -0.205 F 
ATOM     88  C   UNL A   1      45.651  36.682  30.366  1.00  0.00     0.022 A 
BRANCH  86  89
ATOM     89  S   UNL A   1      44.828  37.824  28.016  1.00  0.00     0.127 S 
ATOM     90  O   UNL A   1      45.412  37.239  26.811  1.00  0.00    -0.237 OA
ATOM     91  O   UNL A   1      43.384  38.055  27.945  1.00  0.00    -0.237 OA
ATOM     92  O   UNL A   1      45.586  38.918  28.610  1.00  0.00    -0.744 OA
ENDBRANCH  86  89
ENDBRANCH  59  82
ENDBRANCH  33  34
ENDBRANCH  25  28
ENDBRANCH  23  24
ENDBRANCH  22  23
ENDBRANCH   1  22
TORSDOF 17
ENDMDL
