MODEL 1
REMARK VINA RESULT:     -13.6      0.000      0.000
REMARK SMILES O=C(C[C@H]1C(=O)N[NH+]=C2c3ccc(F)cc3N=CN21)NCCCNC(=O)c1ccc(-c2c3nc(c(-c4cccc(S(=O)(=O)[O-])c4F)c4ccc([nH]4)c(-c4cccc(S(=O)(=O)[O-])c4F)c4nc(c(-c5cccc(S(=O)(=O)[O-])c5F)c5ccc2[nH]5)C=C4)C=C3)cc1
REMARK SMILES IDX 23 1 22 2 21 3 20 4 1 5 2 6 3 8 4 9 5 10 19 11 6 12 7 13
REMARK SMILES IDX 9 14 18 15 8 16 10 18 17 19 11 21 16 22 12 23 15 24 13 25
REMARK SMILES IDX 14 26 24 27 25 28 26 30 27 31 28 32 89 33 29 34 88 35 30 36
REMARK SMILES IDX 31 37 32 38 82 39 33 40 87 41 81 42 83 43 34 44 86 45 80 46
REMARK SMILES IDX 79 47 35 49 67 50 47 51 66 52 48 53 51 54 65 55 84 56 49 57
REMARK SMILES IDX 50 58 64 60 85 61 52 62 36 63 37 64 45 65 38 66 40 67 46 68
REMARK SMILES IDX 39 69 41 70 42 71 43 72 44 73 68 74 69 75 77 76 70 77 72 78
REMARK SMILES IDX 78 79 71 80 73 81 74 82 75 83 76 84 53 85 54 86 62 87 55 88
REMARK SMILES IDX 57 89 63 90 56 91 58 92 59 93 60 94 61 95
REMARK H PARENT 20 7 7 17 8 20 24 29 83 48 51 59
REMARK Flexibility Score: inf
ROOT
ATOM      1  C   UNL A   1      37.262  21.578  25.126  1.00  0.00     0.118 C 
ENDROOT
BRANCH   1   2
ATOM      2  C   UNL A   1      35.840  21.079  25.374  1.00  0.00     0.042 C 
BRANCH   2   3
ATOM      3  C   UNL A   1      34.769  21.687  24.475  1.00  0.00     0.117 C 
BRANCH   3   4
ATOM      4  N   UNL A   1      33.935  22.627  25.193  1.00  0.00    -0.356 N 
ATOM      5  O   UNL A   1      35.378  24.416  25.193  1.00  0.00    -0.275 OA
ATOM      6  C   UNL A   1      34.293  23.921  25.474  1.00  0.00     0.224 C 
ATOM      7  H   UNL A   1      33.053  22.319  25.499  1.00  0.00     0.163 HD
BRANCH   6   8
ATOM      8  C   UNL A   1      33.192  24.733  26.126  1.00  0.00     0.160 C 
BRANCH   8   9
ATOM      9  C   UNL A   1      31.864  24.455  25.402  1.00  0.00     0.284 C 
ATOM     10  C   UNL A   1      30.800  24.144  26.466  1.00  0.00     0.300 C 
ATOM     11  N   UNL A   1      31.453  25.570  24.523  1.00  0.00    -0.203 N 
ATOM     12  O   UNL A   1      31.031  23.446  27.457  1.00  0.00    -0.267 OA
ATOM     13  N   UNL A   1      29.540  24.628  26.270  1.00  0.00    -0.193 N 
ATOM     14  C   UNL A   1      30.142  26.024  24.593  1.00  0.00     0.309 C 
ATOM     15  C   UNL A   1      32.312  26.044  23.554  1.00  0.00     0.317 C 
ATOM     16  N   UNL A   1      29.206  25.579  25.375  1.00  0.00    -0.169 N 
ATOM     17  H   UNL A   1      28.819  24.253  26.825  1.00  0.00     0.216 HD
ATOM     18  C   UNL A   1      29.799  27.160  23.691  1.00  0.00     0.092 A 
ATOM     19  N   UNL A   1      32.079  27.019  22.733  1.00  0.00    -0.216 NA
ATOM     20  H   UNL A   1      28.286  25.924  25.317  1.00  0.00     0.340 HD
ATOM     21  C   UNL A   1      28.542  27.776  23.742  1.00  0.00     0.022 A 
ATOM     22  C   UNL A   1      30.815  27.638  22.843  1.00  0.00     0.085 A 
ATOM     23  C   UNL A   1      28.305  28.907  22.968  1.00  0.00     0.040 A 
ATOM     24  C   UNL A   1      30.560  28.775  22.077  1.00  0.00     0.068 A 
ATOM     25  C   UNL A   1      29.318  29.403  22.153  1.00  0.00     0.125 A 
ATOM     26  F   UNL A   1      29.094  30.510  21.433  1.00  0.00    -0.207 F 
ENDBRANCH   8   9
ENDBRANCH   6   8
ENDBRANCH   3   4
ENDBRANCH   2   3
ENDBRANCH   1   2
BRANCH   1  27
ATOM     27  N   UNL A   1      38.297  20.585  25.377  1.00  0.00    -0.352 N 
ATOM     28  C   UNL A   1      39.491  20.745  26.055  1.00  0.00     0.251 C 
ATOM     29  H   UNL A   1      38.125  19.686  25.018  1.00  0.00     0.163 HD
ATOM     30  O   UNL A   1      40.291  19.824  26.124  1.00  0.00    -0.269 OA
BRANCH  28  31
ATOM     31  C   UNL A   1      39.807  22.066  26.648  1.00  0.00     0.039 A 
ATOM     32  C   UNL A   1      39.210  23.228  26.152  1.00  0.00     0.014 A 
ATOM     33  C   UNL A   1      40.778  22.143  27.649  1.00  0.00     0.014 A 
ATOM     34  C   UNL A   1      39.719  24.471  26.521  1.00  0.00     0.010 A 
ATOM     35  C   UNL A   1      41.235  23.396  28.071  1.00  0.00     0.010 A 
ATOM     36  C   UNL A   1      40.758  24.567  27.462  1.00  0.00    -0.014 A 
BRANCH  36  37
ATOM     37  C   UNL A   1      41.368  25.890  27.761  1.00  0.00     0.031 A 
ATOM     38  C   UNL A   1      42.758  26.220  27.278  1.00  0.00     0.074 A 
ATOM     39  C   UNL A   1      40.661  26.815  28.438  1.00  0.00     0.049 A 
ATOM     40  N   UNL A   1      43.455  27.313  27.463  1.00  0.00    -0.248 NA
ATOM     41  C   UNL A   1      43.458  25.195  26.485  1.00  0.00     0.031 C 
ATOM     42  C   UNL A   1      39.308  26.625  28.962  1.00  0.00     0.029 A 
ATOM     43  N   UNL A   1      40.981  28.100  28.798  1.00  0.00    -0.354 N 
ATOM     44  C   UNL A   1      44.685  27.091  26.853  1.00  0.00     0.074 A 
ATOM     45  C   UNL A   1      44.643  25.761  26.289  1.00  0.00     0.031 C 
ATOM     46  C   UNL A   1      38.903  27.759  29.553  1.00  0.00     0.029 A 
ATOM     47  C   UNL A   1      39.983  28.740  29.492  1.00  0.00     0.049 A 
ATOM     48  H   UNL A   1      41.842  28.523  28.580  1.00  0.00     0.167 HD
ATOM     49  C   UNL A   1      45.745  27.927  26.751  1.00  0.00     0.034 A 
ATOM     50  C   UNL A   1      39.941  29.972  30.036  1.00  0.00     0.034 A 
ATOM     51  C   UNL A   1      45.772  29.274  27.254  1.00  0.00     0.049 A 
ATOM     52  C   UNL A   1      41.130  30.879  29.910  1.00  0.00     0.074 A 
ATOM     53  C   UNL A   1      46.789  30.206  27.152  1.00  0.00     0.029 A 
ATOM     54  N   UNL A   1      44.738  29.882  27.945  1.00  0.00    -0.354 N 
ATOM     55  N   UNL A   1      42.257  30.671  29.273  1.00  0.00    -0.248 NA
ATOM     56  C   UNL A   1      41.040  32.191  30.566  1.00  0.00     0.031 C 
ATOM     57  C   UNL A   1      46.372  31.381  27.785  1.00  0.00     0.029 A 
ATOM     58  C   UNL A   1      45.093  31.178  28.278  1.00  0.00     0.049 A 
ATOM     59  H   UNL A   1      43.879  29.457  28.167  1.00  0.00     0.167 HD
ATOM     60  C   UNL A   1      43.008  31.827  29.446  1.00  0.00     0.074 A 
ATOM     61  C   UNL A   1      42.199  32.742  30.225  1.00  0.00     0.031 C 
ATOM     62  C   UNL A   1      44.266  32.094  29.019  1.00  0.00     0.034 A 
BRANCH  49  63
ATOM     63  C   UNL A   1      46.964  27.437  26.018  1.00  0.00     0.023 A 
ATOM     64  C   UNL A   1      47.856  26.566  26.674  1.00  0.00     0.012 A 
ATOM     65  C   UNL A   1      47.167  27.750  24.660  1.00  0.00     0.148 A 
ATOM     66  C   UNL A   1      48.941  26.019  25.990  1.00  0.00     0.002 A 
ATOM     67  C   UNL A   1      48.235  27.179  23.978  1.00  0.00     0.091 A 
ATOM     68  F   UNL A   1      46.310  28.590  24.064  1.00  0.00    -0.205 F 
ATOM     69  C   UNL A   1      49.124  26.317  24.642  1.00  0.00     0.022 A 
BRANCH  67  70
ATOM     70  S   UNL A   1      48.534  27.453  22.228  1.00  0.00     0.127 S 
ATOM     71  O   UNL A   1      47.342  28.207  21.839  1.00  0.00    -0.237 OA
ATOM     72  O   UNL A   1      49.771  28.234  22.247  1.00  0.00    -0.237 OA
ATOM     73  O   UNL A   1      48.654  26.132  21.628  1.00  0.00    -0.744 OA
ENDBRANCH  67  70
ENDBRANCH  49  63
BRANCH  50  74
ATOM     74  C   UNL A   1      38.699  30.422  30.718  1.00  0.00     0.023 A 
ATOM     75  C   UNL A   1      38.587  30.268  32.112  1.00  0.00     0.012 A 
ATOM     76  C   UNL A   1      37.670  31.068  30.008  1.00  0.00     0.148 A 
ATOM     77  C   UNL A   1      37.467  30.750  32.789  1.00  0.00     0.002 A 
ATOM     78  C   UNL A   1      36.579  31.586  30.693  1.00  0.00     0.091 A 
ATOM     79  F   UNL A   1      37.800  31.192  28.679  1.00  0.00    -0.205 F 
ATOM     80  C   UNL A   1      36.471  31.419  32.083  1.00  0.00     0.022 A 
BRANCH  78  81
ATOM     81  S   UNL A   1      35.304  32.563  29.889  1.00  0.00     0.127 S 
ATOM     82  O   UNL A   1      34.387  32.825  30.996  1.00  0.00    -0.237 OA
ATOM     83  O   UNL A   1      36.066  33.725  29.430  1.00  0.00    -0.237 OA
ATOM     84  O   UNL A   1      34.776  31.726  28.822  1.00  0.00    -0.744 OA
ENDBRANCH  78  81
ENDBRANCH  50  74
BRANCH  62  85
ATOM     85  C   UNL A   1      44.862  33.424  29.384  1.00  0.00     0.023 A 
ATOM     86  C   UNL A   1      45.640  33.529  30.553  1.00  0.00     0.012 A 
ATOM     87  C   UNL A   1      44.738  34.536  28.528  1.00  0.00     0.148 A 
ATOM     88  C   UNL A   1      46.276  34.727  30.873  1.00  0.00     0.002 A 
ATOM     89  C   UNL A   1      45.400  35.717  28.837  1.00  0.00     0.091 A 
ATOM     90  F   UNL A   1      43.980  34.414  27.429  1.00  0.00    -0.205 F 
ATOM     91  C   UNL A   1      46.166  35.816  30.012  1.00  0.00     0.022 A 
BRANCH  89  92
ATOM     92  S   UNL A   1      45.376  37.151  27.755  1.00  0.00     0.127 S 
ATOM     93  O   UNL A   1      43.944  37.432  27.667  1.00  0.00    -0.237 OA
ATOM     94  O   UNL A   1      46.145  38.132  28.521  1.00  0.00    -0.237 OA
ATOM     95  O   UNL A   1      46.005  36.725  26.512  1.00  0.00    -0.744 OA
ENDBRANCH  89  92
ENDBRANCH  62  85
ENDBRANCH  36  37
ENDBRANCH  28  31
ENDBRANCH   1  27
TORSDOF 14
ENDMDL
MODEL 2
REMARK VINA RESULT:     -13.6      1.375      7.620
REMARK SMILES O=C(C[C@H]1C(=O)N[NH+]=C2c3ccc(F)cc3N=CN21)NCCCNC(=O)c1ccc(-c2c3nc(c(-c4cccc(S(=O)(=O)[O-])c4F)c4ccc([nH]4)c(-c4cccc(S(=O)(=O)[O-])c4F)c4nc(c(-c5cccc(S(=O)(=O)[O-])c5F)c5ccc2[nH]5)C=C4)C=C3)cc1
REMARK SMILES IDX 23 1 22 2 21 3 20 4 1 5 2 6 3 8 4 9 5 10 19 11 6 12 7 13
REMARK SMILES IDX 9 14 18 15 8 16 10 18 17 19 11 21 16 22 12 23 15 24 13 25
REMARK SMILES IDX 14 26 24 27 25 28 26 30 27 31 28 32 89 33 29 34 88 35 30 36
REMARK SMILES IDX 31 37 32 38 82 39 33 40 87 41 81 42 83 43 34 44 86 45 80 46
REMARK SMILES IDX 79 47 35 49 67 50 47 51 66 52 48 53 51 54 65 55 84 56 49 57
REMARK SMILES IDX 50 58 64 60 85 61 52 62 36 63 37 64 45 65 38 66 40 67 46 68
REMARK SMILES IDX 39 69 41 70 42 71 43 72 44 73 68 74 69 75 77 76 70 77 72 78
REMARK SMILES IDX 78 79 71 80 73 81 74 82 75 83 76 84 53 85 54 86 62 87 55 88
REMARK SMILES IDX 57 89 63 90 56 91 58 92 59 93 60 94 61 95
REMARK H PARENT 20 7 7 17 8 20 24 29 83 48 51 59
REMARK Flexibility Score: inf
ROOT
ATOM      1  C   UNL A   1      37.165  21.416  24.892  1.00  0.00     0.118 C 
ENDROOT
BRANCH   1   2
ATOM      2  C   UNL A   1      35.786  21.215  25.517  1.00  0.00     0.042 C 
BRANCH   2   3
ATOM      3  C   UNL A   1      34.608  21.634  24.646  1.00  0.00     0.117 C 
BRANCH   3   4
ATOM      4  N   UNL A   1      33.813  22.667  25.276  1.00  0.00    -0.356 N 
ATOM      5  O   UNL A   1      35.236  24.437  24.929  1.00  0.00    -0.275 OA
ATOM      6  C   UNL A   1      34.176  23.987  25.348  1.00  0.00     0.224 C 
ATOM      7  H   UNL A   1      32.955  22.404  25.680  1.00  0.00     0.163 HD
BRANCH   6   8
ATOM      8  C   UNL A   1      33.112  24.883  25.949  1.00  0.00     0.160 C 
BRANCH   8   9
ATOM      9  C   UNL A   1      31.767  24.603  25.257  1.00  0.00     0.284 C 
ATOM     10  C   UNL A   1      30.731  24.284  26.347  1.00  0.00     0.300 C 
ATOM     11  N   UNL A   1      31.330  25.719  24.393  1.00  0.00    -0.203 N 
ATOM     12  O   UNL A   1      30.989  23.583  27.328  1.00  0.00    -0.267 OA
ATOM     13  N   UNL A   1      29.465  24.764  26.183  1.00  0.00    -0.193 N 
ATOM     14  C   UNL A   1      30.019  26.169  24.498  1.00  0.00     0.309 C 
ATOM     15  C   UNL A   1      32.163  26.200  23.404  1.00  0.00     0.317 C 
ATOM     16  N   UNL A   1      29.106  25.717  25.301  1.00  0.00    -0.169 N 
ATOM     17  H   UNL A   1      28.759  24.385  26.755  1.00  0.00     0.216 HD
ATOM     18  C   UNL A   1      29.650  27.306  23.608  1.00  0.00     0.092 A 
ATOM     19  N   UNL A   1      31.906  27.177  22.593  1.00  0.00    -0.216 NA
ATOM     20  H   UNL A   1      28.183  26.058  25.267  1.00  0.00     0.340 HD
ATOM     21  C   UNL A   1      28.393  27.918  23.693  1.00  0.00     0.022 A 
ATOM     22  C   UNL A   1      30.643  27.791  22.737  1.00  0.00     0.085 A 
ATOM     23  C   UNL A   1      28.132  29.050  22.929  1.00  0.00     0.040 A 
ATOM     24  C   UNL A   1      30.365  28.930  21.981  1.00  0.00     0.068 A 
ATOM     25  C   UNL A   1      29.123  29.553  22.091  1.00  0.00     0.125 A 
ATOM     26  F   UNL A   1      28.877  30.661  21.381  1.00  0.00    -0.207 F 
ENDBRANCH   8   9
ENDBRANCH   6   8
ENDBRANCH   3   4
ENDBRANCH   2   3
ENDBRANCH   1   2
BRANCH   1  27
ATOM     27  N   UNL A   1      38.120  20.360  25.197  1.00  0.00    -0.352 N 
ATOM     28  C   UNL A   1      39.294  20.449  25.922  1.00  0.00     0.251 C 
ATOM     29  H   UNL A   1      37.903  19.469  24.840  1.00  0.00     0.163 HD
ATOM     30  O   UNL A   1      40.026  19.478  26.034  1.00  0.00    -0.269 OA
BRANCH  28  31
ATOM     31  C   UNL A   1      39.673  21.754  26.512  1.00  0.00     0.039 A 
ATOM     32  C   UNL A   1      39.045  22.931  26.098  1.00  0.00     0.014 A 
ATOM     33  C   UNL A   1      40.731  21.803  27.424  1.00  0.00     0.014 A 
ATOM     34  C   UNL A   1      39.596  24.162  26.446  1.00  0.00     0.010 A 
ATOM     35  C   UNL A   1      41.235  23.042  27.830  1.00  0.00     0.010 A 
ATOM     36  C   UNL A   1      40.716  24.230  27.292  1.00  0.00    -0.014 A 
BRANCH  36  37
ATOM     37  C   UNL A   1      41.362  25.542  27.564  1.00  0.00     0.031 A 
ATOM     38  C   UNL A   1      40.634  26.607  28.345  1.00  0.00     0.074 A 
ATOM     39  C   UNL A   1      42.620  25.769  27.139  1.00  0.00     0.049 A 
ATOM     40  N   UNL A   1      41.034  27.814  28.657  1.00  0.00    -0.248 NA
ATOM     41  C   UNL A   1      39.287  26.279  28.842  1.00  0.00     0.031 C 
ATOM     42  C   UNL A   1      43.434  24.825  26.373  1.00  0.00     0.029 A 
ATOM     43  N   UNL A   1      43.434  26.862  27.295  1.00  0.00    -0.354 N 
ATOM     44  C   UNL A   1      39.976  28.402  29.343  1.00  0.00     0.074 A 
ATOM     45  C   UNL A   1      38.916  27.422  29.405  1.00  0.00     0.031 C 
ATOM     46  C   UNL A   1      44.640  25.368  26.148  1.00  0.00     0.029 A 
ATOM     47  C   UNL A   1      44.669  26.715  26.711  1.00  0.00     0.049 A 
ATOM     48  H   UNL A   1      43.159  27.675  27.778  1.00  0.00     0.167 HD
ATOM     49  C   UNL A   1      39.902  29.638  29.891  1.00  0.00     0.034 A 
ATOM     50  C   UNL A   1      45.706  27.570  26.621  1.00  0.00     0.034 A 
ATOM     51  C   UNL A   1      40.974  30.596  29.888  1.00  0.00     0.049 A 
ATOM     52  C   UNL A   1      45.598  28.934  27.236  1.00  0.00     0.074 A 
ATOM     53  C   UNL A   1      41.000  31.855  30.463  1.00  0.00     0.029 A 
ATOM     54  N   UNL A   1      42.208  30.403  29.291  1.00  0.00    -0.354 N 
ATOM     55  N   UNL A   1      44.613  29.443  27.935  1.00  0.00    -0.248 NA
ATOM     56  C   UNL A   1      46.745  29.837  27.062  1.00  0.00     0.031 C 
ATOM     57  C   UNL A   1      42.251  32.426  30.211  1.00  0.00     0.029 A 
ATOM     58  C   UNL A   1      43.004  31.519  29.482  1.00  0.00     0.049 A 
ATOM     59  H   UNL A   1      42.480  29.592  28.804  1.00  0.00     0.167 HD
ATOM     60  C   UNL A   1      45.022  30.724  28.288  1.00  0.00     0.074 A 
ATOM     61  C   UNL A   1      46.355  30.903  27.750  1.00  0.00     0.031 C 
ATOM     62  C   UNL A   1      44.342  31.673  28.976  1.00  0.00     0.034 A 
BRANCH  49  63
ATOM     63  C   UNL A   1      38.631  30.023  30.598  1.00  0.00     0.023 A 
ATOM     64  C   UNL A   1      38.463  29.667  31.950  1.00  0.00     0.012 A 
ATOM     65  C   UNL A   1      37.661  30.821  29.962  1.00  0.00     0.148 A 
ATOM     66  C   UNL A   1      37.341  30.093  32.659  1.00  0.00     0.002 A 
ATOM     67  C   UNL A   1      36.558  31.265  30.682  1.00  0.00     0.091 A 
ATOM     68  F   UNL A   1      37.840  31.135  28.671  1.00  0.00    -0.205 F 
ATOM     69  C   UNL A   1      36.395  30.899  32.029  1.00  0.00     0.022 A 
BRANCH  67  70
ATOM     70  S   UNL A   1      35.308  32.349  29.985  1.00  0.00     0.127 S 
ATOM     71  O   UNL A   1      34.409  32.533  31.124  1.00  0.00    -0.237 OA
ATOM     72  O   UNL A   1      36.092  33.532  29.628  1.00  0.00    -0.237 OA
ATOM     73  O   UNL A   1      34.736  31.631  28.855  1.00  0.00    -0.744 OA
ENDBRANCH  67  70
ENDBRANCH  49  63
BRANCH  50  74
ATOM     74  C   UNL A   1      46.954  27.127  25.944  1.00  0.00     0.023 A 
ATOM     75  C   UNL A   1      47.137  27.421  24.580  1.00  0.00     0.012 A 
ATOM     76  C   UNL A   1      47.986  26.491  26.660  1.00  0.00     0.148 A 
ATOM     77  C   UNL A   1      48.329  27.086  23.939  1.00  0.00     0.002 A 
ATOM     78  C   UNL A   1      49.187  26.201  26.027  1.00  0.00     0.091 A 
ATOM     79  F   UNL A   1      47.779  26.215  27.956  1.00  0.00    -0.205 F 
ATOM     80  C   UNL A   1      49.357  26.489  24.664  1.00  0.00     0.022 A 
BRANCH  78  81
ATOM     81  S   UNL A   1      50.609  25.540  26.903  1.00  0.00     0.127 S 
ATOM     82  O   UNL A   1      50.958  26.651  27.785  1.00  0.00    -0.237 OA
ATOM     83  O   UNL A   1      50.029  24.377  27.575  1.00  0.00    -0.237 OA
ATOM     84  O   UNL A   1      51.592  25.220  25.879  1.00  0.00    -0.744 OA
ENDBRANCH  78  81
ENDBRANCH  50  74
BRANCH  62  85
ATOM     85  C   UNL A   1      45.013  33.001  29.186  1.00  0.00     0.023 A 
ATOM     86  C   UNL A   1      45.823  33.187  30.323  1.00  0.00     0.012 A 
ATOM     87  C   UNL A   1      44.927  34.021  28.218  1.00  0.00     0.148 A 
ATOM     88  C   UNL A   1      46.527  34.377  30.502  1.00  0.00     0.002 A 
ATOM     89  C   UNL A   1      45.656  35.191  28.387  1.00  0.00     0.091 A 
ATOM     90  F   UNL A   1      44.138  33.824  27.152  1.00  0.00    -0.205 F 
ATOM     91  C   UNL A   1      46.452  35.373  29.531  1.00  0.00     0.022 A 
BRANCH  89  92
ATOM     92  S   UNL A   1      45.680  36.501  27.158  1.00  0.00     0.127 S 
ATOM     93  O   UNL A   1      46.245  35.812  26.000  1.00  0.00    -0.237 OA
ATOM     94  O   UNL A   1      44.262  36.839  27.036  1.00  0.00    -0.237 OA
ATOM     95  O   UNL A   1      46.508  37.561  27.719  1.00  0.00    -0.744 OA
ENDBRANCH  89  92
ENDBRANCH  62  85
ENDBRANCH  36  37
ENDBRANCH  28  31
ENDBRANCH   1  27
TORSDOF 14
ENDMDL
MODEL 3
REMARK VINA RESULT:     -13.5      5.472      8.237
REMARK SMILES O=C(C[C@H]1C(=O)N[NH+]=C2c3ccc(F)cc3N=CN21)NCCCNC(=O)c1ccc(-c2c3nc(c(-c4cccc(S(=O)(=O)[O-])c4F)c4ccc([nH]4)c(-c4cccc(S(=O)(=O)[O-])c4F)c4nc(c(-c5cccc(S(=O)(=O)[O-])c5F)c5ccc2[nH]5)C=C4)C=C3)cc1
REMARK SMILES IDX 23 1 22 2 21 3 20 4 1 5 2 6 3 8 4 9 5 10 19 11 6 12 7 13
REMARK SMILES IDX 9 14 18 15 8 16 10 18 17 19 11 21 16 22 12 23 15 24 13 25
REMARK SMILES IDX 14 26 24 27 25 28 26 30 27 31 28 32 89 33 29 34 88 35 30 36
REMARK SMILES IDX 31 37 32 38 82 39 33 40 87 41 81 42 83 43 34 44 86 45 80 46
REMARK SMILES IDX 79 47 35 49 67 50 47 51 66 52 48 53 51 54 65 55 84 56 49 57
REMARK SMILES IDX 50 58 64 60 85 61 52 62 36 63 37 64 45 65 38 66 40 67 46 68
REMARK SMILES IDX 39 69 41 70 42 71 43 72 44 73 68 74 69 75 77 76 70 77 72 78
REMARK SMILES IDX 78 79 71 80 73 81 74 82 75 83 76 84 53 85 54 86 62 87 55 88
REMARK SMILES IDX 57 89 63 90 56 91 58 92 59 93 60 94 61 95
REMARK H PARENT 20 7 7 17 8 20 24 29 83 48 51 59
REMARK Flexibility Score: inf
ROOT
ATOM      1  C   UNL A   1      32.358  30.157  26.060  1.00  0.00     0.118 C 
ENDROOT
BRANCH   1   2
ATOM      2  C   UNL A   1      31.294  29.648  25.090  1.00  0.00     0.042 C 
BRANCH   2   3
ATOM      3  C   UNL A   1      31.763  28.580  24.109  1.00  0.00     0.117 C 
BRANCH   3   4
ATOM      4  N   UNL A   1      31.279  27.265  24.473  1.00  0.00    -0.356 N 
ATOM      5  O   UNL A   1      31.155  26.362  22.364  1.00  0.00    -0.275 OA
ATOM      6  C   UNL A   1      31.036  26.255  23.579  1.00  0.00     0.224 C 
ATOM      7  H   UNL A   1      31.113  27.084  25.426  1.00  0.00     0.163 HD
BRANCH   6   8
ATOM      8  C   UNL A   1      30.655  24.939  24.228  1.00  0.00     0.160 C 
BRANCH   8   9
ATOM      9  C   UNL A   1      31.907  24.309  24.862  1.00  0.00     0.284 C 
ATOM     10  C   UNL A   1      31.768  24.413  26.389  1.00  0.00     0.300 C 
ATOM     11  N   UNL A   1      32.122  22.914  24.423  1.00  0.00    -0.203 N 
ATOM     12  O   UNL A   1      31.326  25.418  26.952  1.00  0.00    -0.267 OA
ATOM     13  N   UNL A   1      32.200  23.362  27.142  1.00  0.00    -0.193 N 
ATOM     14  C   UNL A   1      32.399  21.950  25.385  1.00  0.00     0.309 C 
ATOM     15  C   UNL A   1      32.193  22.611  23.080  1.00  0.00     0.317 C 
ATOM     16  N   UNL A   1      32.481  22.132  26.667  1.00  0.00    -0.169 N 
ATOM     17  H   UNL A   1      32.314  23.512  28.108  1.00  0.00     0.216 HD
ATOM     18  C   UNL A   1      32.591  20.562  24.875  1.00  0.00     0.092 A 
ATOM     19  N   UNL A   1      32.364  21.433  22.567  1.00  0.00    -0.216 NA
ATOM     20  H   UNL A   1      32.740  21.399  27.271  1.00  0.00     0.340 HD
ATOM     21  C   UNL A   1      32.771  19.484  25.751  1.00  0.00     0.022 A 
ATOM     22  C   UNL A   1      32.505  20.369  23.484  1.00  0.00     0.085 A 
ATOM     23  C   UNL A   1      32.828  18.191  25.240  1.00  0.00     0.040 A 
ATOM     24  C   UNL A   1      32.559  19.065  22.990  1.00  0.00     0.068 A 
ATOM     25  C   UNL A   1      32.708  17.993  23.867  1.00  0.00     0.125 A 
ATOM     26  F   UNL A   1      32.732  16.745  23.383  1.00  0.00    -0.207 F 
ENDBRANCH   8   9
ENDBRANCH   6   8
ENDBRANCH   3   4
ENDBRANCH   2   3
ENDBRANCH   1   2
BRANCH   1  27
ATOM     27  N   UNL A   1      32.136  31.515  26.534  1.00  0.00    -0.352 N 
ATOM     28  C   UNL A   1      32.968  32.300  27.311  1.00  0.00     0.251 C 
ATOM     29  H   UNL A   1      31.283  31.929  26.267  1.00  0.00     0.163 HD
ATOM     30  O   UNL A   1      32.606  33.406  27.683  1.00  0.00    -0.269 OA
BRANCH  28  31
ATOM     31  C   UNL A   1      34.281  31.754  27.729  1.00  0.00     0.039 A 
ATOM     32  C   UNL A   1      34.439  30.387  27.967  1.00  0.00     0.014 A 
ATOM     33  C   UNL A   1      35.335  32.638  27.969  1.00  0.00     0.014 A 
ATOM     34  C   UNL A   1      35.581  29.932  28.621  1.00  0.00     0.010 A 
ATOM     35  C   UNL A   1      36.511  32.165  28.560  1.00  0.00     0.010 A 
ATOM     36  C   UNL A   1      36.617  30.821  28.953  1.00  0.00    -0.014 A 
BRANCH  36  37
ATOM     37  C   UNL A   1      37.777  30.344  29.751  1.00  0.00     0.031 A 
ATOM     38  C   UNL A   1      38.791  29.407  29.145  1.00  0.00     0.074 A 
ATOM     39  C   UNL A   1      37.944  30.780  31.015  1.00  0.00     0.049 A 
ATOM     40  N   UNL A   1      39.851  28.874  29.698  1.00  0.00    -0.248 NA
ATOM     41  C   UNL A   1      38.594  29.017  27.738  1.00  0.00     0.031 C 
ATOM     42  C   UNL A   1      37.038  31.685  31.721  1.00  0.00     0.029 A 
ATOM     43  N   UNL A   1      38.936  30.521  31.927  1.00  0.00    -0.354 N 
ATOM     44  C   UNL A   1      40.418  28.054  28.728  1.00  0.00     0.074 A 
ATOM     45  C   UNL A   1      39.589  28.159  27.549  1.00  0.00     0.031 C 
ATOM     46  C   UNL A   1      37.527  31.929  32.946  1.00  0.00     0.029 A 
ATOM     47  C   UNL A   1      38.755  31.161  33.130  1.00  0.00     0.049 A 
ATOM     48  H   UNL A   1      39.703  29.934  31.739  1.00  0.00     0.167 HD
ATOM     49  C   UNL A   1      41.540  27.300  28.803  1.00  0.00     0.034 A 
ATOM     50  C   UNL A   1      39.483  31.124  34.263  1.00  0.00     0.034 A 
ATOM     51  C   UNL A   1      42.405  27.239  29.951  1.00  0.00     0.049 A 
ATOM     52  C   UNL A   1      40.722  30.279  34.321  1.00  0.00     0.074 A 
ATOM     53  C   UNL A   1      43.589  26.537  30.095  1.00  0.00     0.029 A 
ATOM     54  N   UNL A   1      42.187  27.907  31.144  1.00  0.00    -0.354 N 
ATOM     55  N   UNL A   1      41.274  29.565  33.371  1.00  0.00    -0.248 NA
ATOM     56  C   UNL A   1      41.445  30.244  35.601  1.00  0.00     0.031 C 
ATOM     57  C   UNL A   1      44.088  26.778  31.379  1.00  0.00     0.029 A 
ATOM     58  C   UNL A   1      43.213  27.632  32.031  1.00  0.00     0.049 A 
ATOM     59  H   UNL A   1      41.417  28.490  31.333  1.00  0.00     0.167 HD
ATOM     60  C   UNL A   1      42.410  28.998  33.934  1.00  0.00     0.074 A 
ATOM     61  C   UNL A   1      42.484  29.474  35.301  1.00  0.00     0.031 C 
ATOM     62  C   UNL A   1      43.298  28.141  33.375  1.00  0.00     0.034 A 
BRANCH  49  63
ATOM     63  C   UNL A   1      41.944  26.509  27.589  1.00  0.00     0.023 A 
ATOM     64  C   UNL A   1      42.681  27.144  26.571  1.00  0.00     0.012 A 
ATOM     65  C   UNL A   1      41.690  25.127  27.507  1.00  0.00     0.148 A 
ATOM     66  C   UNL A   1      43.153  26.415  25.480  1.00  0.00     0.002 A 
ATOM     67  C   UNL A   1      42.186  24.401  26.431  1.00  0.00     0.091 A 
ATOM     68  F   UNL A   1      40.976  24.551  28.484  1.00  0.00    -0.205 F 
ATOM     69  C   UNL A   1      42.915  25.044  25.415  1.00  0.00     0.022 A 
BRANCH  67  70
ATOM     70  S   UNL A   1      41.983  22.623  26.274  1.00  0.00     0.127 S 
ATOM     71  O   UNL A   1      42.651  22.361  25.000  1.00  0.00    -0.237 OA
ATOM     72  O   UNL A   1      42.697  22.129  27.451  1.00  0.00    -0.237 OA
ATOM     73  O   UNL A   1      40.548  22.379  26.282  1.00  0.00    -0.744 OA
ENDBRANCH  67  70
ENDBRANCH  49  63
BRANCH  50  74
ATOM     74  C   UNL A   1      39.061  31.953  35.423  1.00  0.00     0.023 A 
ATOM     75  C   UNL A   1      39.266  33.344  35.383  1.00  0.00     0.012 A 
ATOM     76  C   UNL A   1      38.391  31.382  36.522  1.00  0.00     0.148 A 
ATOM     77  C   UNL A   1      38.811  34.156  36.422  1.00  0.00     0.002 A 
ATOM     78  C   UNL A   1      37.901  32.201  37.531  1.00  0.00     0.091 A 
ATOM     79  F   UNL A   1      38.219  30.053  36.536  1.00  0.00    -0.205 F 
ATOM     80  C   UNL A   1      38.119  33.587  37.488  1.00  0.00     0.022 A 
BRANCH  78  81
ATOM     81  S   UNL A   1      36.898  31.576  38.883  1.00  0.00     0.127 S 
ATOM     82  O   UNL A   1      36.649  30.200  38.459  1.00  0.00    -0.237 OA
ATOM     83  O   UNL A   1      37.809  31.716  40.019  1.00  0.00    -0.237 OA
ATOM     84  O   UNL A   1      35.725  32.437  38.938  1.00  0.00    -0.744 OA
ENDBRANCH  78  81
ENDBRANCH  50  74
BRANCH  62  85
ATOM     85  C   UNL A   1      44.429  27.646  34.232  1.00  0.00     0.023 A 
ATOM     86  C   UNL A   1      45.567  28.457  34.400  1.00  0.00     0.012 A 
ATOM     87  C   UNL A   1      44.324  26.436  34.946  1.00  0.00     0.148 A 
ATOM     88  C   UNL A   1      46.595  28.065  35.256  1.00  0.00     0.002 A 
ATOM     89  C   UNL A   1      45.337  26.067  35.822  1.00  0.00     0.091 A 
ATOM     90  F   UNL A   1      43.236  25.676  34.758  1.00  0.00    -0.205 F 
ATOM     91  C   UNL A   1      46.475  26.877  35.974  1.00  0.00     0.022 A 
BRANCH  89  92
ATOM     92  S   UNL A   1      45.242  24.592  36.843  1.00  0.00     0.127 S 
ATOM     93  O   UNL A   1      44.053  24.864  37.650  1.00  0.00    -0.237 OA
ATOM     94  O   UNL A   1      45.074  23.534  35.846  1.00  0.00    -0.237 OA
ATOM     95  O   UNL A   1      46.497  24.534  37.581  1.00  0.00    -0.744 OA
ENDBRANCH  89  92
ENDBRANCH  62  85
ENDBRANCH  36  37
ENDBRANCH  28  31
ENDBRANCH   1  27
TORSDOF 14
ENDMDL
