MODEL 1
REMARK VINA RESULT:     -13.1      0.000      0.000
REMARK SMILES CC1(C)[C@H](O)CC[C@@]2(C)[C@@H]1CC[C@@]1(C)Oc3oc(C(=O)NCCCNC(=O)c4ccc(-c5c6nc(c(-c7cccc(S(=O)(=O)[O-])c7F)c7ccc([nH]7)c(-c7cccc(S(=O)(=O)[O-])c7F)c7nc(c(-c8cccc(S(=O)(=O)[O-])c8F)c8ccc5[nH]8)C=C7)C=C6)cc4)cc(=O)c3C[C@@H]21
REMARK SMILES IDX 24 1 23 2 22 3 21 4 19 5 20 6 18 8 1 9 2 10 4 11 10 12 3 13
REMARK SMILES IDX 6 14 8 15 11 16 7 17 96 18 9 19 12 20 13 21 95 22 15 23
REMARK SMILES IDX 14 24 94 25 16 26 92 27 17 28 91 29 93 30 5 31 25 33 26 34
REMARK SMILES IDX 27 36 28 37 29 38 90 39 30 40 89 41 31 42 32 43 33 44 83 45
REMARK SMILES IDX 34 46 88 47 82 48 84 49 35 50 87 51 81 52 80 53 36 55 68 56
REMARK SMILES IDX 48 57 67 58 49 59 52 60 66 61 85 62 50 63 51 64 65 66 86 67
REMARK SMILES IDX 53 68 37 69 38 70 46 71 39 72 41 73 47 74 40 75 42 76 43 77
REMARK SMILES IDX 44 78 45 79 69 80 70 81 78 82 71 83 73 84 79 85 72 86 74 87
REMARK SMILES IDX 75 88 76 89 77 90 54 91 55 92 63 93 56 94 58 95 64 96 57 97
REMARK SMILES IDX 59 98 60 99 61 100 62 101
REMARK H PARENT 21 7 5 32 25 35 84 54 52 65
REMARK Flexibility Score: inf
ROOT
ATOM      1  C   UNL A   1      42.632  19.533  25.382  1.00  0.00     0.118 C 
ENDROOT
BRANCH   1   2
ATOM      2  C   UNL A   1      42.366  18.832  26.709  1.00  0.00     0.042 C 
BRANCH   2   3
ATOM      3  C   UNL A   1      41.619  19.667  27.743  1.00  0.00     0.118 C 
BRANCH   3   4
ATOM      4  N   UNL A   1      42.384  20.812  28.236  1.00  0.00    -0.349 N 
ATOM      5  C   UNL A   1      42.165  22.162  28.145  1.00  0.00     0.287 C 
ATOM      6  O   UNL A   1      43.018  22.931  28.585  1.00  0.00    -0.266 OA
ATOM      7  H   UNL A   1      43.205  20.569  28.720  1.00  0.00     0.163 HD
BRANCH   5   8
ATOM      8  C   UNL A   1      40.918  22.699  27.521  1.00  0.00     0.199 A 
ATOM      9  C   UNL A   1      32.092  22.907  22.837  1.00  0.00     0.014 C 
ATOM     10  C   UNL A   1      32.951  23.628  23.906  1.00  0.00    -0.006 C 
ATOM     11  C   UNL A   1      32.079  23.778  25.187  1.00  0.00     0.120 C 
ATOM     12  C   UNL A   1      34.259  22.750  24.237  1.00  0.00     0.004 C 
ATOM     13  C   UNL A   1      33.280  25.028  23.328  1.00  0.00     0.014 C 
ATOM     14  C   UNL A   1      32.809  24.512  26.302  1.00  0.00     0.033 C 
ATOM     15  C   UNL A   1      34.708  22.819  25.754  1.00  0.00    -0.022 C 
ATOM     16  C   UNL A   1      35.398  22.890  23.190  1.00  0.00     0.009 C 
ATOM     17  C   UNL A   1      34.293  24.188  26.361  1.00  0.00     0.010 C 
ATOM     18  C   UNL A   1      36.248  22.572  25.984  1.00  0.00     0.044 C 
ATOM     19  C   UNL A   1      33.953  21.698  26.560  1.00  0.00     0.012 C 
ATOM     20  C   UNL A   1      36.804  22.358  23.545  1.00  0.00     0.049 C 
ATOM     21  C   UNL A   1      36.939  21.685  24.923  1.00  0.00     0.113 C 
ATOM     22  C   UNL A   1      37.082  23.864  26.149  1.00  0.00     0.055 C 
ATOM     23  O   UNL A   1      38.345  21.458  25.244  1.00  0.00    -0.458 OA
ATOM     24  C   UNL A   1      36.376  20.256  24.839  1.00  0.00     0.057 C 
ATOM     25  C   UNL A   1      38.491  23.505  26.444  1.00  0.00     0.081 A 
ATOM     26  C   UNL A   1      39.022  22.330  26.083  1.00  0.00     0.292 A 
ATOM     27  C   UNL A   1      39.274  24.436  27.277  1.00  0.00     0.192 A 
ATOM     28  O   UNL A   1      40.258  21.910  26.578  1.00  0.00    -0.420 OA
ATOM     29  C   UNL A   1      40.553  23.955  27.795  1.00  0.00     0.105 A 
ATOM     30  O   UNL A   1      38.875  25.556  27.569  1.00  0.00    -0.289 OA
BRANCH  11  31
ATOM     31  O   UNL A   1      30.856  24.467  24.930  1.00  0.00    -0.393 OA
ATOM     32  H   UNL A   1      30.758  24.609  23.975  1.00  0.00     0.210 HD
ENDBRANCH  11  31
ENDBRANCH   5   8
ENDBRANCH   3   4
ENDBRANCH   2   3
ENDBRANCH   1   2
BRANCH   1  33
ATOM     33  N   UNL A   1      43.773  18.985  24.661  1.00  0.00    -0.352 N 
ATOM     34  C   UNL A   1      44.931  19.602  24.237  1.00  0.00     0.251 C 
ATOM     35  H   UNL A   1      43.708  18.028  24.443  1.00  0.00     0.163 HD
ATOM     36  O   UNL A   1      45.713  18.996  23.517  1.00  0.00    -0.269 OA
BRANCH  34  37
ATOM     37  C   UNL A   1      45.217  21.003  24.627  1.00  0.00     0.039 A 
ATOM     38  C   UNL A   1      45.050  22.017  23.678  1.00  0.00     0.014 A 
ATOM     39  C   UNL A   1      45.660  21.315  25.914  1.00  0.00     0.014 A 
ATOM     40  C   UNL A   1      45.255  23.350  24.044  1.00  0.00     0.010 A 
ATOM     41  C   UNL A   1      45.799  22.647  26.296  1.00  0.00     0.010 A 
ATOM     42  C   UNL A   1      45.602  23.678  25.364  1.00  0.00    -0.014 A 
BRANCH  42  43
ATOM     43  C   UNL A   1      45.787  25.087  25.788  1.00  0.00     0.031 A 
ATOM     44  C   UNL A   1      47.169  25.679  25.837  1.00  0.00     0.074 A 
ATOM     45  C   UNL A   1      44.725  25.815  26.190  1.00  0.00     0.049 A 
ATOM     46  N   UNL A   1      47.538  26.869  26.233  1.00  0.00    -0.248 NA
ATOM     47  C   UNL A   1      48.280  24.819  25.397  1.00  0.00     0.031 C 
ATOM     48  C   UNL A   1      43.340  25.342  26.231  1.00  0.00     0.029 A 
ATOM     49  N   UNL A   1      44.650  27.103  26.660  1.00  0.00    -0.354 N 
ATOM     50  C   UNL A   1      48.921  26.893  26.110  1.00  0.00     0.074 A 
ATOM     51  C   UNL A   1      49.331  25.592  25.631  1.00  0.00     0.031 C 
ATOM     52  C   UNL A   1      42.553  26.327  26.693  1.00  0.00     0.029 A 
ATOM     53  C   UNL A   1      43.378  27.493  27.004  1.00  0.00     0.049 A 
ATOM     54  H   UNL A   1      45.434  27.693  26.741  1.00  0.00     0.167 HD
ATOM     55  C   UNL A   1      49.772  27.919  26.343  1.00  0.00     0.034 A 
ATOM     56  C   UNL A   1      42.924  28.654  27.516  1.00  0.00     0.034 A 
ATOM     57  C   UNL A   1      49.364  29.224  26.780  1.00  0.00     0.049 A 
ATOM     58  C   UNL A   1      43.891  29.779  27.767  1.00  0.00     0.074 A 
ATOM     59  C   UNL A   1      50.154  30.343  26.986  1.00  0.00     0.029 A 
ATOM     60  N   UNL A   1      48.063  29.590  27.078  1.00  0.00    -0.354 N 
ATOM     61  N   UNL A   1      45.182  29.816  27.544  1.00  0.00    -0.248 NA
ATOM     62  C   UNL A   1      43.339  31.029  28.311  1.00  0.00     0.031 C 
ATOM     63  C   UNL A   1      49.330  31.383  27.421  1.00  0.00     0.029 A 
ATOM     64  C   UNL A   1      48.025  30.915  27.468  1.00  0.00     0.049 A 
ATOM     65  H   UNL A   1      47.280  28.995  27.021  1.00  0.00     0.167 HD
ATOM     66  C   UNL A   1      45.593  31.098  27.892  1.00  0.00     0.074 A 
ATOM     67  C   UNL A   1      44.412  31.811  28.334  1.00  0.00     0.031 C 
ATOM     68  C   UNL A   1      46.837  31.629  27.857  1.00  0.00     0.034 A 
BRANCH  55  69
ATOM     69  C   UNL A   1      51.232  27.702  26.064  1.00  0.00     0.023 A 
ATOM     70  C   UNL A   1      52.098  27.420  27.139  1.00  0.00     0.012 A 
ATOM     71  C   UNL A   1      51.723  27.669  24.745  1.00  0.00     0.148 A 
ATOM     72  C   UNL A   1      53.436  27.112  26.906  1.00  0.00     0.002 A 
ATOM     73  C   UNL A   1      53.051  27.331  24.518  1.00  0.00     0.091 A 
ATOM     74  F   UNL A   1      50.879  27.954  23.743  1.00  0.00    -0.205 F 
ATOM     75  C   UNL A   1      53.909  27.056  25.597  1.00  0.00     0.022 A 
BRANCH  73  76
ATOM     76  S   UNL A   1      53.750  27.180  22.872  1.00  0.00     0.127 S 
ATOM     77  O   UNL A   1      52.880  26.168  22.273  1.00  0.00    -0.237 OA
ATOM     78  O   UNL A   1      53.572  28.530  22.339  1.00  0.00    -0.237 OA
ATOM     79  O   UNL A   1      55.135  26.769  23.056  1.00  0.00    -0.744 OA
ENDBRANCH  73  76
ENDBRANCH  55  69
BRANCH  56  80
ATOM     80  C   UNL A   1      41.465  28.834  27.752  1.00  0.00     0.023 A 
ATOM     81  C   UNL A   1      40.631  29.151  26.663  1.00  0.00     0.012 A 
ATOM     82  C   UNL A   1      40.896  28.638  29.025  1.00  0.00     0.148 A 
ATOM     83  C   UNL A   1      39.254  29.283  26.839  1.00  0.00     0.002 A 
ATOM     84  C   UNL A   1      39.520  28.736  29.186  1.00  0.00     0.091 A 
ATOM     85  F   UNL A   1      41.713  28.337  30.044  1.00  0.00    -0.205 F 
ATOM     86  C   UNL A   1      38.697  29.068  28.097  1.00  0.00     0.022 A 
BRANCH  84  87
ATOM     87  S   UNL A   1      38.695  28.388  30.745  1.00  0.00     0.127 S 
ATOM     88  O   UNL A   1      37.352  28.908  30.495  1.00  0.00    -0.237 OA
ATOM     89  O   UNL A   1      38.789  26.930  30.812  1.00  0.00    -0.237 OA
ATOM     90  O   UNL A   1      39.457  29.094  31.764  1.00  0.00    -0.744 OA
ENDBRANCH  84  87
ENDBRANCH  56  80
BRANCH  68  91
ATOM     91  C   UNL A   1      47.016  33.061  28.282  1.00  0.00     0.023 A 
ATOM     92  C   UNL A   1      47.248  33.356  29.639  1.00  0.00     0.012 A 
ATOM     93  C   UNL A   1      47.099  34.087  27.320  1.00  0.00     0.148 A 
ATOM     94  C   UNL A   1      47.556  34.657  30.035  1.00  0.00     0.002 A 
ATOM     95  C   UNL A   1      47.441  35.373  27.717  1.00  0.00     0.091 A 
ATOM     96  F   UNL A   1      46.870  33.777  26.036  1.00  0.00    -0.205 F 
ATOM     97  C   UNL A   1      47.665  35.661  29.074  1.00  0.00     0.022 A 
BRANCH  95  98
ATOM     98  S   UNL A   1      47.680  36.717  26.550  1.00  0.00     0.127 S 
ATOM     99  O   UNL A   1      48.081  37.811  27.433  1.00  0.00    -0.237 OA
ATOM    100  O   UNL A   1      48.750  36.198  25.697  1.00  0.00    -0.237 OA
ATOM    101  O   UNL A   1      46.400  36.903  25.878  1.00  0.00    -0.744 OA
ENDBRANCH  95  98
ENDBRANCH  68  91
ENDBRANCH  42  43
ENDBRANCH  34  37
ENDBRANCH   1  33
TORSDOF 14
ENDMDL
MODEL 2
REMARK VINA RESULT:     -12.5      6.654     12.079
REMARK SMILES CC1(C)[C@H](O)CC[C@@]2(C)[C@@H]1CC[C@@]1(C)Oc3oc(C(=O)NCCCNC(=O)c4ccc(-c5c6nc(c(-c7cccc(S(=O)(=O)[O-])c7F)c7ccc([nH]7)c(-c7cccc(S(=O)(=O)[O-])c7F)c7nc(c(-c8cccc(S(=O)(=O)[O-])c8F)c8ccc5[nH]8)C=C7)C=C6)cc4)cc(=O)c3C[C@@H]21
REMARK SMILES IDX 24 1 23 2 22 3 21 4 19 5 20 6 18 8 1 9 2 10 4 11 10 12 3 13
REMARK SMILES IDX 6 14 8 15 11 16 7 17 96 18 9 19 12 20 13 21 95 22 15 23
REMARK SMILES IDX 14 24 94 25 16 26 92 27 17 28 91 29 93 30 5 31 25 33 26 34
REMARK SMILES IDX 27 36 28 37 29 38 90 39 30 40 89 41 31 42 32 43 33 44 83 45
REMARK SMILES IDX 34 46 88 47 82 48 84 49 35 50 87 51 81 52 80 53 36 55 68 56
REMARK SMILES IDX 48 57 67 58 49 59 52 60 66 61 85 62 50 63 51 64 65 66 86 67
REMARK SMILES IDX 53 68 37 69 38 70 46 71 39 72 41 73 47 74 40 75 42 76 43 77
REMARK SMILES IDX 44 78 45 79 69 80 70 81 78 82 71 83 73 84 79 85 72 86 74 87
REMARK SMILES IDX 75 88 76 89 77 90 54 91 55 92 63 93 56 94 58 95 64 96 57 97
REMARK SMILES IDX 59 98 60 99 61 100 62 101
REMARK H PARENT 21 7 5 32 25 35 84 54 52 65
REMARK Flexibility Score: inf
ROOT
ATOM      1  C   UNL A   1      31.998  30.815  26.143  1.00  0.00     0.118 C 
ENDROOT
BRANCH   1   2
ATOM      2  C   UNL A   1      31.132  30.437  24.947  1.00  0.00     0.042 C 
BRANCH   2   3
ATOM      3  C   UNL A   1      29.919  31.332  24.717  1.00  0.00     0.118 C 
BRANCH   3   4
ATOM      4  N   UNL A   1      29.475  31.372  23.324  1.00  0.00    -0.349 N 
ATOM      5  C   UNL A   1      29.359  30.389  22.375  1.00  0.00     0.287 C 
ATOM      6  O   UNL A   1      29.030  30.705  21.234  1.00  0.00    -0.266 OA
ATOM      7  H   UNL A   1      29.214  32.268  23.010  1.00  0.00     0.163 HD
BRANCH   5   8
ATOM      8  C   UNL A   1      29.630  28.959  22.713  1.00  0.00     0.199 A 
ATOM      9  C   UNL A   1      34.669  20.525  24.543  1.00  0.00     0.014 C 
ATOM     10  C   UNL A   1      33.391  21.317  24.916  1.00  0.00    -0.006 C 
ATOM     11  C   UNL A   1      33.335  21.416  26.469  1.00  0.00     0.120 C 
ATOM     12  C   UNL A   1      33.458  22.793  24.278  1.00  0.00     0.004 C 
ATOM     13  C   UNL A   1      32.194  20.479  24.400  1.00  0.00     0.014 C 
ATOM     14  C   UNL A   1      32.092  22.144  26.958  1.00  0.00     0.033 C 
ATOM     15  C   UNL A   1      32.809  23.914  25.190  1.00  0.00    -0.022 C 
ATOM     16  C   UNL A   1      33.086  22.851  22.771  1.00  0.00     0.009 C 
ATOM     17  C   UNL A   1      31.676  23.293  26.054  1.00  0.00     0.010 C 
ATOM     18  C   UNL A   1      32.259  25.157  24.392  1.00  0.00     0.044 C 
ATOM     19  C   UNL A   1      33.904  24.467  26.174  1.00  0.00     0.012 C 
ATOM     20  C   UNL A   1      32.808  24.226  22.125  1.00  0.00     0.049 C 
ATOM     21  C   UNL A   1      32.970  25.446  23.050  1.00  0.00     0.113 C 
ATOM     22  C   UNL A   1      30.735  25.122  24.132  1.00  0.00     0.055 C 
ATOM     23  O   UNL A   1      32.440  26.646  22.408  1.00  0.00    -0.458 OA
ATOM     24  C   UNL A   1      34.467  25.771  23.193  1.00  0.00     0.057 C 
ATOM     25  C   UNL A   1      30.323  26.376  23.455  1.00  0.00     0.081 A 
ATOM     26  C   UNL A   1      31.174  27.112  22.729  1.00  0.00     0.292 A 
ATOM     27  C   UNL A   1      28.960  26.877  23.711  1.00  0.00     0.192 A 
ATOM     28  O   UNL A   1      30.843  28.401  22.308  1.00  0.00    -0.420 OA
ATOM     29  C   UNL A   1      28.655  28.238  23.277  1.00  0.00     0.105 A 
ATOM     30  O   UNL A   1      28.112  26.214  24.296  1.00  0.00    -0.289 OA
BRANCH  11  31
ATOM     31  O   UNL A   1      33.370  20.133  27.093  1.00  0.00    -0.393 OA
ATOM     32  H   UNL A   1      32.474  19.882  27.369  1.00  0.00     0.210 HD
ENDBRANCH  11  31
ENDBRANCH   5   8
ENDBRANCH   3   4
ENDBRANCH   2   3
ENDBRANCH   1   2
BRANCH   1  33
ATOM     33  N   UNL A   1      31.895  32.223  26.503  1.00  0.00    -0.352 N 
ATOM     34  C   UNL A   1      32.676  32.978  27.352  1.00  0.00     0.251 C 
ATOM     35  H   UNL A   1      31.154  32.710  26.076  1.00  0.00     0.163 HD
ATOM     36  O   UNL A   1      32.338  34.120  27.633  1.00  0.00    -0.269 OA
BRANCH  34  37
ATOM     37  C   UNL A   1      33.905  32.404  27.946  1.00  0.00     0.039 A 
ATOM     38  C   UNL A   1      34.978  33.253  28.236  1.00  0.00     0.014 A 
ATOM     39  C   UNL A   1      34.007  31.035  28.205  1.00  0.00     0.014 A 
ATOM     40  C   UNL A   1      36.122  32.740  28.854  1.00  0.00     0.010 A 
ATOM     41  C   UNL A   1      35.119  30.537  28.880  1.00  0.00     0.010 A 
ATOM     42  C   UNL A   1      36.189  31.383  29.208  1.00  0.00    -0.014 A 
BRANCH  42  43
ATOM     43  C   UNL A   1      37.375  30.822  29.899  1.00  0.00     0.031 A 
ATOM     44  C   UNL A   1      37.728  31.292  31.284  1.00  0.00     0.074 A 
ATOM     45  C   UNL A   1      38.171  29.939  29.262  1.00  0.00     0.049 A 
ATOM     46  N   UNL A   1      38.752  30.963  32.026  1.00  0.00    -0.248 NA
ATOM     47  C   UNL A   1      36.819  32.267  31.910  1.00  0.00     0.031 C 
ATOM     48  C   UNL A   1      37.962  29.438  27.902  1.00  0.00     0.029 A 
ATOM     49  N   UNL A   1      39.329  29.324  29.669  1.00  0.00    -0.354 N 
ATOM     50  C   UNL A   1      38.624  31.704  33.193  1.00  0.00     0.074 A 
ATOM     51  C   UNL A   1      37.440  32.521  33.054  1.00  0.00     0.031 C 
ATOM     52  C   UNL A   1      38.954  28.587  27.591  1.00  0.00     0.029 A 
ATOM     53  C   UNL A   1      39.882  28.501  28.716  1.00  0.00     0.049 A 
ATOM     54  H   UNL A   1      39.726  29.458  30.559  1.00  0.00     0.167 HD
ATOM     55  C   UNL A   1      39.404  31.680  34.299  1.00  0.00     0.034 A 
ATOM     56  C   UNL A   1      41.008  27.761  28.742  1.00  0.00     0.034 A 
ATOM     57  C   UNL A   1      40.557  30.840  34.457  1.00  0.00     0.049 A 
ATOM     58  C   UNL A   1      41.858  27.753  29.983  1.00  0.00     0.074 A 
ATOM     59  C   UNL A   1      41.373  30.709  35.567  1.00  0.00     0.029 A 
ATOM     60  N   UNL A   1      41.059  29.991  33.485  1.00  0.00    -0.354 N 
ATOM     61  N   UNL A   1      41.662  28.381  31.117  1.00  0.00    -0.248 NA
ATOM     62  C   UNL A   1      43.068  26.916  29.962  1.00  0.00     0.031 C 
ATOM     63  C   UNL A   1      42.377  29.788  35.262  1.00  0.00     0.029 A 
ATOM     64  C   UNL A   1      42.174  29.334  33.967  1.00  0.00     0.049 A 
ATOM     65  H   UNL A   1      40.677  29.873  32.585  1.00  0.00     0.167 HD
ATOM     66  C   UNL A   1      42.703  27.994  31.953  1.00  0.00     0.074 A 
ATOM     67  C   UNL A   1      43.526  27.071  31.199  1.00  0.00     0.031 C 
ATOM     68  C   UNL A   1      42.956  28.379  33.226  1.00  0.00     0.034 A 
BRANCH  55  69
ATOM     69  C   UNL A   1      39.002  32.539  35.464  1.00  0.00     0.023 A 
ATOM     70  C   UNL A   1      38.132  32.007  36.436  1.00  0.00     0.012 A 
ATOM     71  C   UNL A   1      39.564  33.815  35.654  1.00  0.00     0.148 A 
ATOM     72  C   UNL A   1      37.820  32.737  37.581  1.00  0.00     0.002 A 
ATOM     73  C   UNL A   1      39.273  34.524  36.813  1.00  0.00     0.091 A 
ATOM     74  F   UNL A   1      40.379  34.301  34.707  1.00  0.00    -0.205 F 
ATOM     75  C   UNL A   1      38.400  33.989  37.774  1.00  0.00     0.022 A 
BRANCH  73  76
ATOM     76  S   UNL A   1      40.003  36.121  37.187  1.00  0.00     0.127 S 
ATOM     77  O   UNL A   1      41.384  35.749  37.495  1.00  0.00    -0.237 OA
ATOM     78  O   UNL A   1      39.833  36.839  35.924  1.00  0.00    -0.237 OA
ATOM     79  O   UNL A   1      39.247  36.660  38.308  1.00  0.00    -0.744 OA
ENDBRANCH  73  76
ENDBRANCH  55  69
BRANCH  56  80
ATOM     80  C   UNL A   1      41.353  26.904  27.574  1.00  0.00     0.023 A 
ATOM     81  C   UNL A   1      41.954  27.496  26.448  1.00  0.00     0.012 A 
ATOM     82  C   UNL A   1      41.141  25.512  27.595  1.00  0.00     0.148 A 
ATOM     83  C   UNL A   1      42.331  26.718  25.353  1.00  0.00     0.002 A 
ATOM     84  C   UNL A   1      41.551  24.738  26.516  1.00  0.00     0.091 A 
ATOM     85  F   UNL A   1      40.567  24.975  28.680  1.00  0.00    -0.205 F 
ATOM     86  C   UNL A   1      42.137  25.339  25.390  1.00  0.00     0.022 A 
BRANCH  84  87
ATOM     87  S   UNL A   1      41.431  22.945  26.504  1.00  0.00     0.127 S 
ATOM     88  O   UNL A   1      42.051  22.595  27.780  1.00  0.00    -0.237 OA
ATOM     89  O   UNL A   1      39.983  22.744  26.447  1.00  0.00    -0.237 OA
ATOM     90  O   UNL A   1      42.153  22.506  25.319  1.00  0.00    -0.744 OA
ENDBRANCH  84  87
ENDBRANCH  56  80
BRANCH  68  91
ATOM     91  C   UNL A   1      44.157  27.800  33.922  1.00  0.00     0.023 A 
ATOM     92  C   UNL A   1      45.377  28.503  33.896  1.00  0.00     0.012 A 
ATOM     93  C   UNL A   1      44.034  26.644  34.718  1.00  0.00     0.148 A 
ATOM     94  C   UNL A   1      46.463  28.058  34.650  1.00  0.00     0.002 A 
ATOM     95  C   UNL A   1      45.108  26.227  35.493  1.00  0.00     0.091 A 
ATOM     96  F   UNL A   1      42.861  25.994  34.720  1.00  0.00    -0.205 F 
ATOM     97  C   UNL A   1      46.324  26.930  35.457  1.00  0.00     0.022 A 
BRANCH  95  98
ATOM     98  S   UNL A   1      45.007  24.832  36.621  1.00  0.00     0.127 S 
ATOM     99  O   UNL A   1      43.931  25.253  37.518  1.00  0.00    -0.237 OA
ATOM    100  O   UNL A   1      44.656  23.733  35.721  1.00  0.00    -0.237 OA
ATOM    101  O   UNL A   1      46.320  24.718  37.242  1.00  0.00    -0.744 OA
ENDBRANCH  95  98
ENDBRANCH  68  91
ENDBRANCH  42  43
ENDBRANCH  34  37
ENDBRANCH   1  33
TORSDOF 14
ENDMDL
MODEL 3
REMARK VINA RESULT:     -12.5      3.046      5.465
REMARK SMILES CC1(C)[C@H](O)CC[C@@]2(C)[C@@H]1CC[C@@]1(C)Oc3oc(C(=O)NCCCNC(=O)c4ccc(-c5c6nc(c(-c7cccc(S(=O)(=O)[O-])c7F)c7ccc([nH]7)c(-c7cccc(S(=O)(=O)[O-])c7F)c7nc(c(-c8cccc(S(=O)(=O)[O-])c8F)c8ccc5[nH]8)C=C7)C=C6)cc4)cc(=O)c3C[C@@H]21
REMARK SMILES IDX 24 1 23 2 22 3 21 4 19 5 20 6 18 8 1 9 2 10 4 11 10 12 3 13
REMARK SMILES IDX 6 14 8 15 11 16 7 17 96 18 9 19 12 20 13 21 95 22 15 23
REMARK SMILES IDX 14 24 94 25 16 26 92 27 17 28 91 29 93 30 5 31 25 33 26 34
REMARK SMILES IDX 27 36 28 37 29 38 90 39 30 40 89 41 31 42 32 43 33 44 83 45
REMARK SMILES IDX 34 46 88 47 82 48 84 49 35 50 87 51 81 52 80 53 36 55 68 56
REMARK SMILES IDX 48 57 67 58 49 59 52 60 66 61 85 62 50 63 51 64 65 66 86 67
REMARK SMILES IDX 53 68 37 69 38 70 46 71 39 72 41 73 47 74 40 75 42 76 43 77
REMARK SMILES IDX 44 78 45 79 69 80 70 81 78 82 71 83 73 84 79 85 72 86 74 87
REMARK SMILES IDX 75 88 76 89 77 90 54 91 55 92 63 93 56 94 58 95 64 96 57 97
REMARK SMILES IDX 59 98 60 99 61 100 62 101
REMARK H PARENT 21 7 5 32 25 35 84 54 52 65
REMARK Flexibility Score: inf
ROOT
ATOM      1  C   UNL A   1      37.024  20.838  25.376  1.00  0.00     0.118 C 
ENDROOT
BRANCH   1   2
ATOM      2  C   UNL A   1      35.683  20.195  25.042  1.00  0.00     0.042 C 
BRANCH   2   3
ATOM      3  C   UNL A   1      35.756  18.730  24.622  1.00  0.00     0.118 C 
BRANCH   3   4
ATOM      4  N   UNL A   1      34.593  17.944  25.034  1.00  0.00    -0.349 N 
ATOM      5  C   UNL A   1      33.259  18.255  25.099  1.00  0.00     0.287 C 
ATOM      6  O   UNL A   1      32.480  17.424  25.564  1.00  0.00    -0.266 OA
ATOM      7  H   UNL A   1      34.807  17.027  25.318  1.00  0.00     0.163 HD
BRANCH   5   8
ATOM      8  C   UNL A   1      32.752  19.577  24.620  1.00  0.00     0.199 A 
ATOM      9  C   UNL A   1      30.629  29.342  24.493  1.00  0.00     0.014 C 
ATOM     10  C   UNL A   1      31.011  28.139  23.594  1.00  0.00    -0.006 C 
ATOM     11  C   UNL A   1      32.230  28.569  22.725  1.00  0.00     0.120 C 
ATOM     12  C   UNL A   1      31.414  26.879  24.511  1.00  0.00     0.004 C 
ATOM     13  C   UNL A   1      29.787  27.870  22.683  1.00  0.00     0.014 C 
ATOM     14  C   UNL A   1      32.673  27.474  21.766  1.00  0.00     0.033 C 
ATOM     15  C   UNL A   1      32.576  25.991  23.903  1.00  0.00    -0.022 C 
ATOM     16  C   UNL A   1      30.200  26.097  25.084  1.00  0.00     0.009 C 
ATOM     17  C   UNL A   1      32.544  26.077  22.352  1.00  0.00     0.010 C 
ATOM     18  C   UNL A   1      32.545  24.483  24.360  1.00  0.00     0.044 C 
ATOM     19  C   UNL A   1      33.960  26.570  24.378  1.00  0.00     0.012 C 
ATOM     20  C   UNL A   1      30.438  24.705  25.709  1.00  0.00     0.049 C 
ATOM     21  C   UNL A   1      31.901  24.227  25.742  1.00  0.00     0.113 C 
ATOM     22  C   UNL A   1      31.891  23.523  23.339  1.00  0.00     0.055 C 
ATOM     23  O   UNL A   1      31.967  22.816  26.114  1.00  0.00    -0.458 OA
ATOM     24  C   UNL A   1      32.627  24.918  26.909  1.00  0.00     0.057 C 
ATOM     25  C   UNL A   1      31.997  22.129  23.838  1.00  0.00     0.081 A 
ATOM     26  C   UNL A   1      32.122  21.841  25.140  1.00  0.00     0.292 A 
ATOM     27  C   UNL A   1      32.096  21.050  22.838  1.00  0.00     0.192 A 
ATOM     28  O   UNL A   1      32.465  20.558  25.569  1.00  0.00    -0.420 OA
ATOM     29  C   UNL A   1      32.478  19.725  23.321  1.00  0.00     0.105 A 
ATOM     30  O   UNL A   1      31.907  21.238  21.643  1.00  0.00    -0.289 OA
BRANCH  11  31
ATOM     31  O   UNL A   1      31.960  29.744  21.961  1.00  0.00    -0.393 OA
ATOM     32  H   UNL A   1      31.879  29.508  21.023  1.00  0.00     0.210 HD
ENDBRANCH  11  31
ENDBRANCH   5   8
ENDBRANCH   3   4
ENDBRANCH   2   3
ENDBRANCH   1   2
BRANCH   1  33
ATOM     33  N   UNL A   1      38.094  19.868  25.570  1.00  0.00    -0.352 N 
ATOM     34  C   UNL A   1      39.407  20.062  25.941  1.00  0.00     0.251 C 
ATOM     35  H   UNL A   1      37.840  18.931  25.412  1.00  0.00     0.163 HD
ATOM     36  O   UNL A   1      40.191  19.123  25.912  1.00  0.00    -0.269 OA
BRANCH  34  37
ATOM     37  C   UNL A   1      39.879  21.407  26.346  1.00  0.00     0.039 A 
ATOM     38  C   UNL A   1      40.922  21.508  27.271  1.00  0.00     0.014 A 
ATOM     39  C   UNL A   1      39.288  22.562  25.829  1.00  0.00     0.014 A 
ATOM     40  C   UNL A   1      41.423  22.766  27.619  1.00  0.00     0.010 A 
ATOM     41  C   UNL A   1      39.830  23.811  26.125  1.00  0.00     0.010 A 
ATOM     42  C   UNL A   1      40.900  23.926  27.025  1.00  0.00    -0.014 A 
BRANCH  42  43
ATOM     43  C   UNL A   1      41.438  25.270  27.347  1.00  0.00     0.031 A 
ATOM     44  C   UNL A   1      42.853  25.618  26.976  1.00  0.00     0.074 A 
ATOM     45  C   UNL A   1      40.680  26.154  28.028  1.00  0.00     0.049 A 
ATOM     46  N   UNL A   1      43.520  26.716  27.222  1.00  0.00    -0.248 NA
ATOM     47  C   UNL A   1      43.624  24.597  26.248  1.00  0.00     0.031 C 
ATOM     48  C   UNL A   1      39.309  25.920  28.483  1.00  0.00     0.029 A 
ATOM     49  N   UNL A   1      40.967  27.421  28.473  1.00  0.00    -0.354 N 
ATOM     50  C   UNL A   1      44.789  26.510  26.699  1.00  0.00     0.074 A 
ATOM     51  C   UNL A   1      44.813  25.174  26.147  1.00  0.00     0.031 C 
ATOM     52  C   UNL A   1      38.871  27.009  29.136  1.00  0.00     0.029 A 
ATOM     53  C   UNL A   1      39.937  28.009  29.168  1.00  0.00     0.049 A 
ATOM     54  H   UNL A   1      41.829  27.867  28.308  1.00  0.00     0.167 HD
ATOM     55  C   UNL A   1      45.833  27.370  26.651  1.00  0.00     0.034 A 
ATOM     56  C   UNL A   1      39.857  29.214  29.766  1.00  0.00     0.034 A 
ATOM     57  C   UNL A   1      45.799  28.711  27.162  1.00  0.00     0.049 A 
ATOM     58  C   UNL A   1      41.032  30.151  29.700  1.00  0.00     0.074 A 
ATOM     59  C   UNL A   1      46.793  29.674  27.104  1.00  0.00     0.029 A 
ATOM     60  N   UNL A   1      44.724  29.282  27.821  1.00  0.00    -0.354 N 
ATOM     61  N   UNL A   1      42.189  29.977  29.108  1.00  0.00    -0.248 NA
ATOM     62  C   UNL A   1      40.885  31.459  30.356  1.00  0.00     0.031 C 
ATOM     63  C   UNL A   1      46.322  30.824  27.741  1.00  0.00     0.029 A 
ATOM     64  C   UNL A   1      45.029  30.582  28.178  1.00  0.00     0.049 A 
ATOM     65  H   UNL A   1      43.870  28.829  28.008  1.00  0.00     0.167 HD
ATOM     66  C   UNL A   1      42.895  31.160  29.294  1.00  0.00     0.074 A 
ATOM     67  C   UNL A   1      42.034  32.048  30.048  1.00  0.00     0.031 C 
ATOM     68  C   UNL A   1      44.146  31.474  28.884  1.00  0.00     0.034 A 
BRANCH  55  69
ATOM     69  C   UNL A   1      47.088  26.919  25.960  1.00  0.00     0.023 A 
ATOM     70  C   UNL A   1      47.230  27.157  24.579  1.00  0.00     0.012 A 
ATOM     71  C   UNL A   1      48.159  26.366  26.687  1.00  0.00     0.148 A 
ATOM     72  C   UNL A   1      48.421  26.846  23.927  1.00  0.00     0.002 A 
ATOM     73  C   UNL A   1      49.354  26.086  26.037  1.00  0.00     0.091 A 
ATOM     74  F   UNL A   1      47.990  26.139  27.997  1.00  0.00    -0.205 F 
ATOM     75  C   UNL A   1      49.486  26.322  24.658  1.00  0.00     0.022 A 
BRANCH  73  76
ATOM     76  S   UNL A   1      50.804  25.458  26.889  1.00  0.00     0.127 S 
ATOM     77  O   UNL A   1      50.249  24.309  27.605  1.00  0.00    -0.237 OA
ATOM     78  O   UNL A   1      51.688  25.114  25.776  1.00  0.00    -0.237 OA
ATOM     79  O   UNL A   1      51.276  26.542  27.738  1.00  0.00    -0.744 OA
ENDBRANCH  73  76
ENDBRANCH  55  69
BRANCH  56  80
ATOM     80  C   UNL A   1      38.584  29.629  30.416  1.00  0.00     0.023 A 
ATOM     81  C   UNL A   1      38.313  29.194  31.727  1.00  0.00     0.012 A 
ATOM     82  C   UNL A   1      37.675  30.490  29.771  1.00  0.00     0.148 A 
ATOM     83  C   UNL A   1      37.151  29.600  32.383  1.00  0.00     0.002 A 
ATOM     84  C   UNL A   1      36.537  30.919  30.444  1.00  0.00     0.091 A 
ATOM     85  F   UNL A   1      37.958  30.889  28.524  1.00  0.00    -0.205 F 
ATOM     86  C   UNL A   1      36.268  30.467  31.746  1.00  0.00     0.022 A 
BRANCH  84  87
ATOM     87  S   UNL A   1      35.385  32.108  29.746  1.00  0.00     0.127 S 
ATOM     88  O   UNL A   1      34.800  31.346  28.644  1.00  0.00    -0.237 OA
ATOM     89  O   UNL A   1      34.486  32.349  30.874  1.00  0.00    -0.237 OA
ATOM     90  O   UNL A   1      36.188  33.256  29.351  1.00  0.00    -0.744 OA
ENDBRANCH  84  87
ENDBRANCH  56  80
BRANCH  68  91
ATOM     91  C   UNL A   1      44.682  32.841  29.209  1.00  0.00     0.023 A 
ATOM     92  C   UNL A   1      45.414  33.033  30.396  1.00  0.00     0.012 A 
ATOM     93  C   UNL A   1      44.586  33.888  28.271  1.00  0.00     0.148 A 
ATOM     94  C   UNL A   1      46.039  34.253  30.649  1.00  0.00     0.002 A 
ATOM     95  C   UNL A   1      45.241  35.089  28.513  1.00  0.00     0.091 A 
ATOM     96  F   UNL A   1      43.880  33.677  27.151  1.00  0.00    -0.205 F 
ATOM     97  C   UNL A   1      45.964  35.274  29.703  1.00  0.00     0.022 A 
BRANCH  95  98
ATOM     98  S   UNL A   1      45.267  36.436  27.326  1.00  0.00     0.127 S 
ATOM     99  O   UNL A   1      45.814  35.777  26.140  1.00  0.00    -0.237 OA
ATOM    100  O   UNL A   1      43.850  36.789  27.229  1.00  0.00    -0.237 OA
ATOM    101  O   UNL A   1      46.116  37.469  27.905  1.00  0.00    -0.744 OA
ENDBRANCH  95  98
ENDBRANCH  68  91
ENDBRANCH  42  43
ENDBRANCH  34  37
ENDBRANCH   1  33
TORSDOF 14
ENDMDL
