MODEL 1
REMARK VINA RESULT:     -12.7      0.000      0.000
REMARK SMILES COc1ccc(OC)c(S(=O)(=O)Nc2ccc(N3CCC(C)CC3)c(C(=O)NCCCNC(=O)c3ccc(-c4c5nc(c(-c6cccc(S(=O)(=O)[O-])c6F)c6ccc([nH]6)c(-c6cccc(S(=O)(=O)[O-])c6F)c6nc(c(-c7cccc(S(=O)(=O)[O-])c7F)c7ccc4[nH]7)C=C6)C=C5)cc3)c2)c1
REMARK SMILES IDX 29 1 28 2 26 3 27 4 25 6 14 7 15 8 98 9 16 10 17 11 13 12
REMARK SMILES IDX 10 14 11 15 12 16 9 17 3 18 4 19 99 20 5 21 6 22 2 23 1 24
REMARK SMILES IDX 7 25 8 26 18 27 19 28 24 29 20 30 23 31 21 32 22 33 30 34
REMARK SMILES IDX 31 35 32 36 33 37 34 39 35 40 36 41 97 42 37 43 96 44 38 45
REMARK SMILES IDX 39 46 40 47 90 48 41 49 95 50 89 51 91 52 42 53 94 54 88 55
REMARK SMILES IDX 87 56 43 58 75 59 55 60 74 61 56 62 59 63 73 64 92 65 57 66
REMARK SMILES IDX 58 67 72 69 93 70 60 71 44 72 45 73 53 74 46 75 48 76 54 77
REMARK SMILES IDX 47 78 49 79 50 80 51 81 52 82 76 83 77 84 85 85 78 86 80 87
REMARK SMILES IDX 86 88 79 89 81 90 82 91 83 92 84 93 61 94 62 95 70 96 63 97
REMARK SMILES IDX 65 98 71 99 64 100 66 101 67 102 68 103 69 104
REMARK H PARENT 28 5 13 13 32 38 91 57 59 68
REMARK Flexibility Score: inf
ROOT
ATOM      1  C   UNL A   1      31.080  30.525  25.865  1.00  0.00     0.118 C 
ENDROOT
BRANCH   1   2
ATOM      2  N   UNL A   1      31.994  30.092  24.827  1.00  0.00    -0.352 N 
ATOM      3  C   UNL A   1      32.282  28.871  24.266  1.00  0.00     0.253 C 
ATOM      4  O   UNL A   1      33.286  28.855  23.556  1.00  0.00    -0.269 OA
ATOM      5  H   UNL A   1      32.520  30.830  24.442  1.00  0.00     0.163 HD
BRANCH   3   6
ATOM      6  C   UNL A   1      31.459  27.635  24.496  1.00  0.00     0.065 A 
ATOM      7  C   UNL A   1      31.152  25.600  25.807  1.00  0.00     0.050 A 
ATOM      8  C   UNL A   1      29.974  25.333  25.125  1.00  0.00     0.029 A 
ATOM      9  C   UNL A   1      31.944  26.671  25.405  1.00  0.00     0.042 A 
ATOM     10  C   UNL A   1      29.514  26.230  24.167  1.00  0.00     0.029 A 
ATOM     11  C   UNL A   1      30.189  27.435  23.879  1.00  0.00     0.050 A 
BRANCH   7  12
ATOM     12  N   UNL A   1      31.410  24.798  26.949  1.00  0.00    -0.279 N 
ATOM     13  H   UNL A   1      31.607  25.272  27.790  1.00  0.00     0.180 HD
BRANCH  12  14
ATOM     14  S   UNL A   1      31.413  23.124  27.006  1.00  0.00     0.265 S 
ATOM     15  O   UNL A   1      30.036  22.687  26.922  1.00  0.00    -0.201 OA
ATOM     16  O   UNL A   1      32.257  22.803  28.138  1.00  0.00    -0.201 OA
BRANCH  14  17
ATOM     17  C   UNL A   1      32.264  22.508  25.568  1.00  0.00     0.133 A 
ATOM     18  C   UNL A   1      32.524  20.866  23.801  1.00  0.00     0.120 A 
ATOM     19  C   UNL A   1      33.835  21.300  23.594  1.00  0.00     0.050 A 
ATOM     20  C   UNL A   1      31.722  21.495  24.761  1.00  0.00     0.072 A 
ATOM     21  C   UNL A   1      34.355  22.348  24.347  1.00  0.00     0.052 A 
ATOM     22  C   UNL A   1      33.567  22.964  25.321  1.00  0.00     0.139 A 
BRANCH  18  23
ATOM     23  O   UNL A   1      32.143  19.815  23.012  1.00  0.00    -0.497 OA
ATOM     24  C   UNL A   1      32.537  18.525  23.463  1.00  0.00     0.278 C 
ENDBRANCH  18  23
BRANCH  22  25
ATOM     25  O   UNL A   1      34.178  23.944  26.048  1.00  0.00    -0.495 OA
ATOM     26  C   UNL A   1      35.596  23.946  25.867  1.00  0.00     0.278 C 
ENDBRANCH  22  25
ENDBRANCH  14  17
ENDBRANCH  12  14
ENDBRANCH   7  12
BRANCH  11  27
ATOM     27  N   UNL A   1      29.518  28.375  23.106  1.00  0.00    -0.371 N 
ATOM     28  C   UNL A   1      30.113  28.901  21.876  1.00  0.00     0.117 C 
ATOM     29  C   UNL A   1      28.059  28.480  23.160  1.00  0.00     0.117 C 
ATOM     30  C   UNL A   1      29.812  30.402  21.811  1.00  0.00     0.025 C 
ATOM     31  C   UNL A   1      27.667  29.954  23.091  1.00  0.00     0.025 C 
ATOM     32  C   UNL A   1      28.297  30.666  21.882  1.00  0.00    -0.011 C 
ATOM     33  C   UNL A   1      28.005  32.163  21.947  1.00  0.00     0.008 C 
ENDBRANCH  11  27
ENDBRANCH   3   6
ENDBRANCH   1   2
BRANCH   1  34
ATOM     34  C   UNL A   1      31.216  32.025  26.131  1.00  0.00     0.042 C 
BRANCH  34  35
ATOM     35  C   UNL A   1      32.441  32.385  26.965  1.00  0.00     0.118 C 
BRANCH  35  36
ATOM     36  N   UNL A   1      32.406  33.765  27.430  1.00  0.00    -0.352 N 
ATOM     37  C   UNL A   1      33.204  34.381  28.365  1.00  0.00     0.251 C 
ATOM     38  H   UNL A   1      31.717  34.336  27.017  1.00  0.00     0.163 HD
ATOM     39  O   UNL A   1      32.915  35.502  28.775  1.00  0.00    -0.269 OA
BRANCH  37  40
ATOM     40  C   UNL A   1      34.401  33.685  28.884  1.00  0.00     0.039 A 
ATOM     41  C   UNL A   1      35.664  34.236  28.649  1.00  0.00     0.014 A 
ATOM     42  C   UNL A   1      34.276  32.491  29.602  1.00  0.00     0.014 A 
ATOM     43  C   UNL A   1      36.798  33.624  29.189  1.00  0.00     0.010 A 
ATOM     44  C   UNL A   1      35.401  31.915  30.185  1.00  0.00     0.010 A 
ATOM     45  C   UNL A   1      36.671  32.475  29.987  1.00  0.00    -0.014 A 
BRANCH  45  46
ATOM     46  C   UNL A   1      37.847  31.856  30.650  1.00  0.00     0.031 A 
ATOM     47  C   UNL A   1      38.638  30.787  29.947  1.00  0.00     0.074 A 
ATOM     48  C   UNL A   1      38.125  32.170  31.931  1.00  0.00     0.049 A 
ATOM     49  N   UNL A   1      39.629  30.064  30.399  1.00  0.00    -0.248 NA
ATOM     50  C   UNL A   1      38.245  30.470  28.564  1.00  0.00     0.031 C 
ATOM     51  C   UNL A   1      37.374  33.123  32.750  1.00  0.00     0.029 A 
ATOM     52  N   UNL A   1      39.092  31.692  32.781  1.00  0.00    -0.354 N 
ATOM     53  C   UNL A   1      39.946  29.175  29.379  1.00  0.00     0.074 A 
ATOM     54  C   UNL A   1      39.032  29.438  28.288  1.00  0.00     0.031 C 
ATOM     55  C   UNL A   1      37.901  33.153  33.985  1.00  0.00     0.029 A 
ATOM     56  C   UNL A   1      39.011  32.208  34.053  1.00  0.00     0.049 A 
ATOM     57  H   UNL A   1      39.777  31.040  32.506  1.00  0.00     0.167 HD
ATOM     58  C   UNL A   1      40.928  28.243  29.342  1.00  0.00     0.034 A 
ATOM     59  C   UNL A   1      39.746  31.948  35.152  1.00  0.00     0.034 A 
ATOM     60  C   UNL A   1      41.882  28.036  30.398  1.00  0.00     0.049 A 
ATOM     61  C   UNL A   1      40.880  30.964  35.059  1.00  0.00     0.074 A 
ATOM     62  C   UNL A   1      42.991  27.208  30.404  1.00  0.00     0.029 A 
ATOM     63  N   UNL A   1      41.841  28.661  31.634  1.00  0.00    -0.354 N 
ATOM     64  N   UNL A   1      41.281  30.266  34.024  1.00  0.00    -0.248 NA
ATOM     65  C   UNL A   1      41.684  30.756  36.271  1.00  0.00     0.031 C 
ATOM     66  C   UNL A   1      43.621  27.333  31.648  1.00  0.00     0.029 A 
ATOM     67  C   UNL A   1      42.901  28.235  32.415  1.00  0.00     0.049 A 
ATOM     68  H   UNL A   1      41.158  29.312  31.915  1.00  0.00     0.167 HD
ATOM     69  C   UNL A   1      42.394  29.552  34.453  1.00  0.00     0.074 A 
ATOM     70  C   UNL A   1      42.621  29.923  35.835  1.00  0.00     0.031 C 
ATOM     71  C   UNL A   1      43.147  28.655  33.771  1.00  0.00     0.034 A 
BRANCH  58  72
ATOM     72  C   UNL A   1      41.074  27.431  28.084  1.00  0.00     0.023 A 
ATOM     73  C   UNL A   1      41.656  28.026  26.947  1.00  0.00     0.012 A 
ATOM     74  C   UNL A   1      40.694  26.076  28.039  1.00  0.00     0.148 A 
ATOM     75  C   UNL A   1      41.835  27.294  25.776  1.00  0.00     0.002 A 
ATOM     76  C   UNL A   1      40.906  25.342  26.876  1.00  0.00     0.091 A 
ATOM     77  F   UNL A   1      40.116  25.535  29.120  1.00  0.00    -0.205 F 
ATOM     78  C   UNL A   1      41.470  25.951  25.743  1.00  0.00     0.022 A 
BRANCH  76  79
ATOM     79  S   UNL A   1      40.527  23.590  26.764  1.00  0.00     0.127 S 
ATOM     80  O   UNL A   1      39.118  23.616  26.376  1.00  0.00    -0.237 OA
ATOM     81  O   UNL A   1      41.439  23.137  25.711  1.00  0.00    -0.237 OA
ATOM     82  O   UNL A   1      40.809  23.039  28.082  1.00  0.00    -0.744 OA
ENDBRANCH  76  79
ENDBRANCH  58  72
BRANCH  59  83
ATOM     83  C   UNL A   1      39.480  32.697  36.411  1.00  0.00     0.023 A 
ATOM     84  C   UNL A   1      40.113  33.938  36.614  1.00  0.00     0.012 A 
ATOM     85  C   UNL A   1      38.576  32.220  37.380  1.00  0.00     0.148 A 
ATOM     86  C   UNL A   1      39.865  34.684  37.766  1.00  0.00     0.002 A 
ATOM     87  C   UNL A   1      38.298  32.990  38.505  1.00  0.00     0.091 A 
ATOM     88  F   UNL A   1      37.998  31.026  37.182  1.00  0.00    -0.205 F 
ATOM     89  C   UNL A   1      38.949  34.217  38.705  1.00  0.00     0.022 A 
BRANCH  87  90
ATOM     90  S   UNL A   1      37.039  32.510  39.695  1.00  0.00     0.127 S 
ATOM     91  O   UNL A   1      37.136  33.579  40.684  1.00  0.00    -0.237 OA
ATOM     92  O   UNL A   1      35.819  32.530  38.885  1.00  0.00    -0.237 OA
ATOM     93  O   UNL A   1      37.431  31.180  40.145  1.00  0.00    -0.744 OA
ENDBRANCH  87  90
ENDBRANCH  59  83
BRANCH  71  94
ATOM     94  C   UNL A   1      44.293  28.009  34.499  1.00  0.00     0.023 A 
ATOM     95  C   UNL A   1      45.548  28.648  34.507  1.00  0.00     0.012 A 
ATOM     96  C   UNL A   1      44.111  26.827  35.242  1.00  0.00     0.148 A 
ATOM     97  C   UNL A   1      46.612  28.109  35.230  1.00  0.00     0.002 A 
ATOM     98  C   UNL A   1      45.165  26.316  35.990  1.00  0.00     0.091 A 
ATOM     99  F   UNL A   1      42.914  26.222  35.202  1.00  0.00    -0.205 F 
ATOM    100  C   UNL A   1      46.417  26.953  35.981  1.00  0.00     0.022 A 
BRANCH  98 101
ATOM    101  S   UNL A   1      44.972  24.878  37.050  1.00  0.00     0.127 S 
ATOM    102  O   UNL A   1      43.917  25.318  37.961  1.00  0.00    -0.237 OA
ATOM    103  O   UNL A   1      44.565  23.838  36.103  1.00  0.00    -0.237 OA
ATOM    104  O   UNL A   1      46.278  24.656  37.655  1.00  0.00    -0.744 OA
ENDBRANCH  98 101
ENDBRANCH  71  94
ENDBRANCH  45  46
ENDBRANCH  37  40
ENDBRANCH  35  36
ENDBRANCH  34  35
ENDBRANCH   1  34
TORSDOF 19
ENDMDL
MODEL 2
REMARK VINA RESULT:     -12.7      1.390      2.083
REMARK SMILES COc1ccc(OC)c(S(=O)(=O)Nc2ccc(N3CCC(C)CC3)c(C(=O)NCCCNC(=O)c3ccc(-c4c5nc(c(-c6cccc(S(=O)(=O)[O-])c6F)c6ccc([nH]6)c(-c6cccc(S(=O)(=O)[O-])c6F)c6nc(c(-c7cccc(S(=O)(=O)[O-])c7F)c7ccc4[nH]7)C=C6)C=C5)cc3)c2)c1
REMARK SMILES IDX 29 1 28 2 26 3 27 4 25 6 14 7 15 8 98 9 16 10 17 11 13 12
REMARK SMILES IDX 10 14 11 15 12 16 9 17 3 18 4 19 99 20 5 21 6 22 2 23 1 24
REMARK SMILES IDX 7 25 8 26 18 27 19 28 24 29 20 30 23 31 21 32 22 33 30 34
REMARK SMILES IDX 31 35 32 36 33 37 34 39 35 40 36 41 97 42 37 43 96 44 38 45
REMARK SMILES IDX 39 46 40 47 90 48 41 49 95 50 89 51 91 52 42 53 94 54 88 55
REMARK SMILES IDX 87 56 43 58 75 59 55 60 74 61 56 62 59 63 73 64 92 65 57 66
REMARK SMILES IDX 58 67 72 69 93 70 60 71 44 72 45 73 53 74 46 75 48 76 54 77
REMARK SMILES IDX 47 78 49 79 50 80 51 81 52 82 76 83 77 84 85 85 78 86 80 87
REMARK SMILES IDX 86 88 79 89 81 90 82 91 83 92 84 93 61 94 62 95 70 96 63 97
REMARK SMILES IDX 65 98 71 99 64 100 66 101 67 102 68 103 69 104
REMARK H PARENT 28 5 13 13 32 38 91 57 59 68
REMARK Flexibility Score: inf
ROOT
ATOM      1  C   UNL A   1      31.396  30.378  26.199  1.00  0.00     0.118 C 
ENDROOT
BRANCH   1   2
ATOM      2  N   UNL A   1      32.147  30.053  25.003  1.00  0.00    -0.352 N 
ATOM      3  C   UNL A   1      32.313  28.903  24.270  1.00  0.00     0.253 C 
ATOM      4  O   UNL A   1      33.212  28.951  23.433  1.00  0.00    -0.269 OA
ATOM      5  H   UNL A   1      32.645  30.820  24.639  1.00  0.00     0.163 HD
BRANCH   3   6
ATOM      6  C   UNL A   1      31.481  27.667  24.464  1.00  0.00     0.065 A 
ATOM      7  C   UNL A   1      31.163  25.593  25.713  1.00  0.00     0.050 A 
ATOM      8  C   UNL A   1      29.981  25.356  25.027  1.00  0.00     0.029 A 
ATOM      9  C   UNL A   1      31.962  26.671  25.341  1.00  0.00     0.042 A 
ATOM     10  C   UNL A   1      29.524  26.286  24.099  1.00  0.00     0.029 A 
ATOM     11  C   UNL A   1      30.208  27.495  23.846  1.00  0.00     0.050 A 
BRANCH   7  12
ATOM     12  N   UNL A   1      31.419  24.755  26.829  1.00  0.00    -0.279 N 
ATOM     13  H   UNL A   1      31.248  25.137  27.720  1.00  0.00     0.180 HD
BRANCH  12  14
ATOM     14  S   UNL A   1      31.984  23.179  26.777  1.00  0.00     0.265 S 
ATOM     15  O   UNL A   1      30.949  22.370  26.169  1.00  0.00    -0.201 OA
ATOM     16  O   UNL A   1      32.473  22.927  28.116  1.00  0.00    -0.201 OA
BRANCH  14  17
ATOM     17  C   UNL A   1      33.410  23.121  25.712  1.00  0.00     0.133 A 
ATOM     18  C   UNL A   1      35.732  23.646  25.250  1.00  0.00     0.120 A 
ATOM     19  C   UNL A   1      35.511  23.419  23.891  1.00  0.00     0.050 A 
ATOM     20  C   UNL A   1      34.693  23.460  26.169  1.00  0.00     0.072 A 
ATOM     21  C   UNL A   1      34.256  23.019  23.440  1.00  0.00     0.052 A 
ATOM     22  C   UNL A   1      33.211  22.853  24.350  1.00  0.00     0.139 A 
BRANCH  18  23
ATOM     23  O   UNL A   1      37.001  24.057  25.558  1.00  0.00    -0.497 OA
ATOM     24  C   UNL A   1      37.917  23.029  25.917  1.00  0.00     0.278 C 
ENDBRANCH  18  23
BRANCH  22  25
ATOM     25  O   UNL A   1      32.003  22.514  23.813  1.00  0.00    -0.495 OA
ATOM     26  C   UNL A   1      32.142  21.765  22.603  1.00  0.00     0.278 C 
ENDBRANCH  22  25
ENDBRANCH  14  17
ENDBRANCH  12  14
ENDBRANCH   7  12
BRANCH  11  27
ATOM     27  N   UNL A   1      29.541  28.463  23.105  1.00  0.00    -0.371 N 
ATOM     28  C   UNL A   1      30.128  29.010  21.880  1.00  0.00     0.117 C 
ATOM     29  C   UNL A   1      28.085  28.589  23.181  1.00  0.00     0.117 C 
ATOM     30  C   UNL A   1      29.850  30.516  21.854  1.00  0.00     0.025 C 
ATOM     31  C   UNL A   1      27.715  30.070  23.152  1.00  0.00     0.025 C 
ATOM     32  C   UNL A   1      28.340  30.800  21.952  1.00  0.00    -0.011 C 
ATOM     33  C   UNL A   1      28.072  32.300  22.057  1.00  0.00     0.008 C 
ENDBRANCH  11  27
ENDBRANCH   3   6
ENDBRANCH   1   2
BRANCH   1  34
ATOM     34  C   UNL A   1      31.369  31.888  26.442  1.00  0.00     0.042 C 
BRANCH  34  35
ATOM     35  C   UNL A   1      32.656  32.426  27.060  1.00  0.00     0.118 C 
BRANCH  35  36
ATOM     36  N   UNL A   1      32.498  33.782  27.570  1.00  0.00    -0.352 N 
ATOM     37  C   UNL A   1      33.192  34.411  28.575  1.00  0.00     0.251 C 
ATOM     38  H   UNL A   1      31.798  34.321  27.134  1.00  0.00     0.163 HD
ATOM     39  O   UNL A   1      32.802  35.493  29.005  1.00  0.00    -0.269 OA
BRANCH  37  40
ATOM     40  C   UNL A   1      34.400  33.775  29.145  1.00  0.00     0.039 A 
ATOM     41  C   UNL A   1      35.660  34.231  28.748  1.00  0.00     0.014 A 
ATOM     42  C   UNL A   1      34.287  32.733  30.071  1.00  0.00     0.014 A 
ATOM     43  C   UNL A   1      36.808  33.683  29.327  1.00  0.00     0.010 A 
ATOM     44  C   UNL A   1      35.429  32.230  30.687  1.00  0.00     0.010 A 
ATOM     45  C   UNL A   1      36.700  32.699  30.323  1.00  0.00    -0.014 A 
BRANCH  45  46
ATOM     46  C   UNL A   1      37.896  32.166  31.022  1.00  0.00     0.031 A 
ATOM     47  C   UNL A   1      38.656  31.004  30.444  1.00  0.00     0.074 A 
ATOM     48  C   UNL A   1      38.223  32.650  32.237  1.00  0.00     0.049 A 
ATOM     49  N   UNL A   1      39.660  30.340  30.955  1.00  0.00    -0.248 NA
ATOM     50  C   UNL A   1      38.212  30.505  29.132  1.00  0.00     0.031 C 
ATOM     51  C   UNL A   1      37.506  33.712  32.945  1.00  0.00     0.029 A 
ATOM     52  N   UNL A   1      39.218  32.283  33.110  1.00  0.00    -0.354 N 
ATOM     53  C   UNL A   1      39.936  29.317  30.055  1.00  0.00     0.074 A 
ATOM     54  C   UNL A   1      38.984  29.438  28.972  1.00  0.00     0.031 C 
ATOM     55  C   UNL A   1      38.078  33.905  34.145  1.00  0.00     0.029 A 
ATOM     56  C   UNL A   1      39.187  32.968  34.301  1.00  0.00     0.049 A 
ATOM     57  H   UNL A   1      39.890  31.594  32.902  1.00  0.00     0.167 HD
ATOM     58  C   UNL A   1      40.912  28.381  30.110  1.00  0.00     0.034 A 
ATOM     59  C   UNL A   1      39.960  32.854  35.398  1.00  0.00     0.034 A 
ATOM     60  C   UNL A   1      41.904  28.311  31.150  1.00  0.00     0.049 A 
ATOM     61  C   UNL A   1      41.086  31.856  35.400  1.00  0.00     0.074 A 
ATOM     62  C   UNL A   1      43.009  27.482  31.229  1.00  0.00     0.029 A 
ATOM     63  N   UNL A   1      41.911  29.099  32.290  1.00  0.00    -0.354 N 
ATOM     64  N   UNL A   1      41.445  31.020  34.456  1.00  0.00    -0.248 NA
ATOM     65  C   UNL A   1      41.933  31.808  36.600  1.00  0.00     0.031 C 
ATOM     66  C   UNL A   1      43.684  27.769  32.421  1.00  0.00     0.029 A 
ATOM     67  C   UNL A   1      42.997  28.774  33.083  1.00  0.00     0.049 A 
ATOM     68  H   UNL A   1      41.241  29.789  32.503  1.00  0.00     0.167 HD
ATOM     69  C   UNL A   1      42.571  30.361  34.939  1.00  0.00     0.074 A 
ATOM     70  C   UNL A   1      42.850  30.915  36.248  1.00  0.00     0.031 C 
ATOM     71  C   UNL A   1      43.294  29.373  34.359  1.00  0.00     0.034 A 
BRANCH  58  72
ATOM     72  C   UNL A   1      41.008  27.404  28.971  1.00  0.00     0.023 A 
ATOM     73  C   UNL A   1      40.170  26.271  28.966  1.00  0.00     0.012 A 
ATOM     74  C   UNL A   1      41.876  27.628  27.884  1.00  0.00     0.148 A 
ATOM     75  C   UNL A   1      40.211  25.362  27.911  1.00  0.00     0.002 A 
ATOM     76  C   UNL A   1      41.887  26.734  26.819  1.00  0.00     0.091 A 
ATOM     77  F   UNL A   1      42.685  28.696  27.920  1.00  0.00    -0.205 F 
ATOM     78  C   UNL A   1      41.060  25.598  26.833  1.00  0.00     0.022 A 
BRANCH  76  79
ATOM     79  S   UNL A   1      42.902  26.992  25.359  1.00  0.00     0.127 S 
ATOM     80  O   UNL A   1      44.230  27.157  25.947  1.00  0.00    -0.237 OA
ATOM     81  O   UNL A   1      42.715  25.741  24.621  1.00  0.00    -0.237 OA
ATOM     82  O   UNL A   1      42.353  28.168  24.699  1.00  0.00    -0.744 OA
ENDBRANCH  76  79
ENDBRANCH  58  72
BRANCH  59  83
ATOM     83  C   UNL A   1      39.744  33.770  36.552  1.00  0.00     0.023 A 
ATOM     84  C   UNL A   1      40.077  35.131  36.415  1.00  0.00     0.012 A 
ATOM     85  C   UNL A   1      39.169  33.321  37.758  1.00  0.00     0.148 A 
ATOM     86  C   UNL A   1      39.860  36.026  37.463  1.00  0.00     0.002 A 
ATOM     87  C   UNL A   1      38.912  34.227  38.781  1.00  0.00     0.091 A 
ATOM     88  F   UNL A   1      38.878  32.018  37.879  1.00  0.00    -0.205 F 
ATOM     89  C   UNL A   1      39.267  35.578  38.640  1.00  0.00     0.022 A 
BRANCH  87  90
ATOM     90  S   UNL A   1      38.041  33.745  40.277  1.00  0.00     0.127 S 
ATOM     91  O   UNL A   1      37.921  35.019  40.980  1.00  0.00    -0.237 OA
ATOM     92  O   UNL A   1      36.783  33.215  39.748  1.00  0.00    -0.237 OA
ATOM     93  O   UNL A   1      38.891  32.742  40.905  1.00  0.00    -0.744 OA
ENDBRANCH  87  90
ENDBRANCH  59  83
BRANCH  71  94
ATOM     94  C   UNL A   1      44.463  28.822  35.127  1.00  0.00     0.023 A 
ATOM     95  C   UNL A   1      45.734  29.405  34.955  1.00  0.00     0.012 A 
ATOM     96  C   UNL A   1      44.294  27.795  36.075  1.00  0.00     0.148 A 
ATOM     97  C   UNL A   1      46.823  28.962  35.703  1.00  0.00     0.002 A 
ATOM     98  C   UNL A   1      45.377  27.384  36.844  1.00  0.00     0.091 A 
ATOM     99  F   UNL A   1      43.082  27.237  36.207  1.00  0.00    -0.205 F 
ATOM    100  C   UNL A   1      46.643  27.962  36.656  1.00  0.00     0.022 A 
BRANCH  98 101
ATOM    101  S   UNL A   1      45.208  26.161  38.150  1.00  0.00     0.127 S 
ATOM    102  O   UNL A   1      46.566  26.107  38.687  1.00  0.00    -0.237 OA
ATOM    103  O   UNL A   1      44.224  26.780  39.039  1.00  0.00    -0.237 OA
ATOM    104  O   UNL A   1      44.739  24.947  37.493  1.00  0.00    -0.744 OA
ENDBRANCH  98 101
ENDBRANCH  71  94
ENDBRANCH  45  46
ENDBRANCH  37  40
ENDBRANCH  35  36
ENDBRANCH  34  35
ENDBRANCH   1  34
TORSDOF 19
ENDMDL
MODEL 3
REMARK VINA RESULT:     -12.3      6.034     11.471
REMARK SMILES COc1ccc(OC)c(S(=O)(=O)Nc2ccc(N3CCC(C)CC3)c(C(=O)NCCCNC(=O)c3ccc(-c4c5nc(c(-c6cccc(S(=O)(=O)[O-])c6F)c6ccc([nH]6)c(-c6cccc(S(=O)(=O)[O-])c6F)c6nc(c(-c7cccc(S(=O)(=O)[O-])c7F)c7ccc4[nH]7)C=C6)C=C5)cc3)c2)c1
REMARK SMILES IDX 29 1 28 2 26 3 27 4 25 6 14 7 15 8 98 9 16 10 17 11 13 12
REMARK SMILES IDX 10 14 11 15 12 16 9 17 3 18 4 19 99 20 5 21 6 22 2 23 1 24
REMARK SMILES IDX 7 25 8 26 18 27 19 28 24 29 20 30 23 31 21 32 22 33 30 34
REMARK SMILES IDX 31 35 32 36 33 37 34 39 35 40 36 41 97 42 37 43 96 44 38 45
REMARK SMILES IDX 39 46 40 47 90 48 41 49 95 50 89 51 91 52 42 53 94 54 88 55
REMARK SMILES IDX 87 56 43 58 75 59 55 60 74 61 56 62 59 63 73 64 92 65 57 66
REMARK SMILES IDX 58 67 72 69 93 70 60 71 44 72 45 73 53 74 46 75 48 76 54 77
REMARK SMILES IDX 47 78 49 79 50 80 51 81 52 82 76 83 77 84 85 85 78 86 80 87
REMARK SMILES IDX 86 88 79 89 81 90 82 91 83 92 84 93 61 94 62 95 70 96 63 97
REMARK SMILES IDX 65 98 71 99 64 100 66 101 67 102 68 103 69 104
REMARK H PARENT 28 5 13 13 32 38 91 57 59 68
REMARK Flexibility Score: inf
ROOT
ATOM      1  C   UNL A   1      36.713  21.419  25.265  1.00  0.00     0.118 C 
ENDROOT
BRANCH   1   2
ATOM      2  N   UNL A   1      36.370  22.106  24.035  1.00  0.00    -0.352 N 
ATOM      3  C   UNL A   1      35.337  22.934  23.667  1.00  0.00     0.253 C 
ATOM      4  O   UNL A   1      35.256  23.151  22.460  1.00  0.00    -0.269 OA
ATOM      5  H   UNL A   1      37.014  21.943  23.308  1.00  0.00     0.163 HD
BRANCH   3   6
ATOM      6  C   UNL A   1      34.364  23.533  24.643  1.00  0.00     0.065 A 
ATOM      7  C   UNL A   1      33.505  25.566  25.686  1.00  0.00     0.050 A 
ATOM      8  C   UNL A   1      32.542  24.823  26.352  1.00  0.00     0.029 A 
ATOM      9  C   UNL A   1      34.480  24.907  24.942  1.00  0.00     0.042 A 
ATOM     10  C   UNL A   1      32.456  23.452  26.134  1.00  0.00     0.029 A 
ATOM     11  C   UNL A   1      33.301  22.781  25.224  1.00  0.00     0.050 A 
BRANCH   7  12
ATOM     12  N   UNL A   1      33.356  26.976  25.738  1.00  0.00    -0.279 N 
ATOM     13  H   UNL A   1      33.514  27.408  26.609  1.00  0.00     0.180 HD
BRANCH  12  14
ATOM     14  S   UNL A   1      32.938  27.978  24.463  1.00  0.00     0.265 S 
ATOM     15  O   UNL A   1      32.059  27.226  23.594  1.00  0.00    -0.201 OA
ATOM     16  O   UNL A   1      34.198  28.521  24.003  1.00  0.00    -0.201 OA
BRANCH  14  17
ATOM     17  C   UNL A   1      32.012  29.358  25.104  1.00  0.00     0.133 A 
ATOM     18  C   UNL A   1      30.301  31.060  24.859  1.00  0.00     0.120 A 
ATOM     19  C   UNL A   1      30.864  31.775  25.917  1.00  0.00     0.050 A 
ATOM     20  C   UNL A   1      30.850  29.830  24.475  1.00  0.00     0.072 A 
ATOM     21  C   UNL A   1      31.978  31.278  26.587  1.00  0.00     0.052 A 
ATOM     22  C   UNL A   1      32.542  30.064  26.194  1.00  0.00     0.139 A 
BRANCH  18  23
ATOM     23  O   UNL A   1      29.225  31.667  24.271  1.00  0.00    -0.497 OA
ATOM     24  C   UNL A   1      28.902  31.224  22.958  1.00  0.00     0.278 C 
ENDBRANCH  18  23
BRANCH  22  25
ATOM     25  O   UNL A   1      33.665  29.682  26.871  1.00  0.00    -0.495 OA
ATOM     26  C   UNL A   1      34.300  30.784  27.524  1.00  0.00     0.278 C 
ENDBRANCH  22  25
ENDBRANCH  14  17
ENDBRANCH  12  14
ENDBRANCH   7  12
BRANCH  11  27
ATOM     27  N   UNL A   1      32.967  21.475  24.886  1.00  0.00    -0.371 N 
ATOM     28  C   UNL A   1      33.210  20.371  25.817  1.00  0.00     0.117 C 
ATOM     29  C   UNL A   1      31.928  21.204  23.892  1.00  0.00     0.117 C 
ATOM     30  C   UNL A   1      33.724  19.176  25.008  1.00  0.00     0.025 C 
ATOM     31  C   UNL A   1      32.357  20.012  23.041  1.00  0.00     0.025 C 
ATOM     32  C   UNL A   1      32.729  18.791  23.898  1.00  0.00    -0.011 C 
ATOM     33  C   UNL A   1      33.299  17.685  23.012  1.00  0.00     0.008 C 
ENDBRANCH  11  27
ENDBRANCH   3   6
ENDBRANCH   1   2
BRANCH   1  34
ATOM     34  C   UNL A   1      37.887  20.463  25.054  1.00  0.00     0.042 C 
BRANCH  34  35
ATOM     35  C   UNL A   1      39.081  20.759  25.956  1.00  0.00     0.118 C 
BRANCH  35  36
ATOM     36  N   UNL A   1      40.027  19.652  26.000  1.00  0.00    -0.352 N 
ATOM     37  C   UNL A   1      41.396  19.691  26.119  1.00  0.00     0.251 C 
ATOM     38  H   UNL A   1      39.632  18.752  25.938  1.00  0.00     0.163 HD
ATOM     39  O   UNL A   1      42.056  18.670  25.950  1.00  0.00    -0.269 OA
BRANCH  37  40
ATOM     40  C   UNL A   1      42.070  20.969  26.437  1.00  0.00     0.039 A 
ATOM     41  C   UNL A   1      42.389  21.847  25.398  1.00  0.00     0.014 A 
ATOM     42  C   UNL A   1      42.385  21.299  27.759  1.00  0.00     0.014 A 
ATOM     43  C   UNL A   1      42.967  23.085  25.689  1.00  0.00     0.010 A 
ATOM     44  C   UNL A   1      42.908  22.555  28.051  1.00  0.00     0.010 A 
ATOM     45  C   UNL A   1      43.203  23.461  27.022  1.00  0.00    -0.014 A 
BRANCH  45  46
ATOM     46  C   UNL A   1      43.730  24.805  27.369  1.00  0.00     0.031 A 
ATOM     47  C   UNL A   1      42.804  25.870  27.890  1.00  0.00     0.074 A 
ATOM     48  C   UNL A   1      45.017  25.101  27.099  1.00  0.00     0.049 A 
ATOM     49  N   UNL A   1      43.058  27.125  28.152  1.00  0.00    -0.248 NA
ATOM     50  C   UNL A   1      41.403  25.480  28.119  1.00  0.00     0.031 C 
ATOM     51  C   UNL A   1      45.990  24.182  26.506  1.00  0.00     0.029 A 
ATOM     52  N   UNL A   1      45.718  26.273  27.250  1.00  0.00    -0.354 N 
ATOM     53  C   UNL A   1      41.844  27.688  28.528  1.00  0.00     0.074 A 
ATOM     54  C   UNL A   1      40.849  26.640  28.446  1.00  0.00     0.031 C 
ATOM     55  C   UNL A   1      47.157  24.825  26.337  1.00  0.00     0.029 A 
ATOM     56  C   UNL A   1      47.010  26.206  26.787  1.00  0.00     0.049 A 
ATOM     57  H   UNL A   1      45.330  27.084  27.652  1.00  0.00     0.167 HD
ATOM     58  C   UNL A   1      41.586  28.953  28.934  1.00  0.00     0.034 A 
ATOM     59  C   UNL A   1      47.969  27.150  26.726  1.00  0.00     0.034 A 
ATOM     60  C   UNL A   1      42.590  29.971  29.087  1.00  0.00     0.049 A 
ATOM     61  C   UNL A   1      47.676  28.526  27.257  1.00  0.00     0.074 A 
ATOM     62  C   UNL A   1      42.452  31.244  29.613  1.00  0.00     0.029 A 
ATOM     63  N   UNL A   1      43.918  29.833  28.715  1.00  0.00    -0.354 N 
ATOM     64  N   UNL A   1      46.566  28.986  27.783  1.00  0.00    -0.248 NA
ATOM     65  C   UNL A   1      48.773  29.504  27.218  1.00  0.00     0.031 C 
ATOM     66  C   UNL A   1      43.699  31.876  29.558  1.00  0.00     0.029 A 
ATOM     67  C   UNL A   1      44.611  30.998  28.994  1.00  0.00     0.049 A 
ATOM     68  H   UNL A   1      44.311  29.025  28.312  1.00  0.00     0.167 HD
ATOM     69  C   UNL A   1      46.836  30.298  28.155  1.00  0.00     0.074 A 
ATOM     70  C   UNL A   1      48.223  30.551  27.820  1.00  0.00     0.031 C 
ATOM     71  C   UNL A   1      46.005  31.217  28.706  1.00  0.00     0.034 A 
BRANCH  58  72
ATOM     72  C   UNL A   1      40.172  29.288  29.322  1.00  0.00     0.023 A 
ATOM     73  C   UNL A   1      39.248  29.635  28.316  1.00  0.00     0.012 A 
ATOM     74  C   UNL A   1      39.740  29.205  30.660  1.00  0.00     0.148 A 
ATOM     75  C   UNL A   1      37.922  29.920  28.637  1.00  0.00     0.002 A 
ATOM     76  C   UNL A   1      38.407  29.459  30.969  1.00  0.00     0.091 A 
ATOM     77  F   UNL A   1      40.639  28.901  31.607  1.00  0.00    -0.205 F 
ATOM     78  C   UNL A   1      37.500  29.822  29.960  1.00  0.00     0.022 A 
BRANCH  76  79
ATOM     79  S   UNL A   1      37.759  29.294  32.636  1.00  0.00     0.127 S 
ATOM     80  O   UNL A   1      38.714  30.090  33.405  1.00  0.00    -0.237 OA
ATOM     81  O   UNL A   1      36.427  29.891  32.516  1.00  0.00    -0.237 OA
ATOM     82  O   UNL A   1      37.754  27.866  32.919  1.00  0.00    -0.744 OA
ENDBRANCH  76  79
ENDBRANCH  58  72
BRANCH  59  83
ATOM     83  C   UNL A   1      49.323  26.794  26.219  1.00  0.00     0.023 A 
ATOM     84  C   UNL A   1      50.159  25.984  27.012  1.00  0.00     0.012 A 
ATOM     85  C   UNL A   1      49.770  27.205  24.948  1.00  0.00     0.148 A 
ATOM     86  C   UNL A   1      51.422  25.604  26.556  1.00  0.00     0.002 A 
ATOM     87  C   UNL A   1      51.011  26.785  24.481  1.00  0.00     0.091 A 
ATOM     88  F   UNL A   1      48.970  27.994  24.215  1.00  0.00    -0.205 F 
ATOM     89  C   UNL A   1      51.843  25.994  25.287  1.00  0.00     0.022 A 
BRANCH  87  90
ATOM     90  S   UNL A   1      51.567  27.146  22.810  1.00  0.00     0.127 S 
ATOM     91  O   UNL A   1      52.823  26.405  22.744  1.00  0.00    -0.237 OA
ATOM     92  O   UNL A   1      50.484  26.593  21.994  1.00  0.00    -0.237 OA
ATOM     93  O   UNL A   1      51.673  28.598  22.752  1.00  0.00    -0.744 OA
ENDBRANCH  87  90
ENDBRANCH  59  83
BRANCH  71  94
ATOM     94  C   UNL A   1      46.565  32.584  28.987  1.00  0.00     0.023 A 
ATOM     95  C   UNL A   1      47.086  32.861  30.267  1.00  0.00     0.012 A 
ATOM     96  C   UNL A   1      46.655  33.558  27.975  1.00  0.00     0.148 A 
ATOM     97  C   UNL A   1      47.673  34.096  30.539  1.00  0.00     0.002 A 
ATOM     98  C   UNL A   1      47.275  34.772  28.243  1.00  0.00     0.091 A 
ATOM     99  F   UNL A   1      46.132  33.282  26.771  1.00  0.00    -0.205 F 
ATOM    100  C   UNL A   1      47.780  35.045  29.525  1.00  0.00     0.022 A 
BRANCH  98 101
ATOM    101  S   UNL A   1      47.527  36.014  26.969  1.00  0.00     0.127 S 
ATOM    102  O   UNL A   1      48.253  35.256  25.951  1.00  0.00    -0.237 OA
ATOM    103  O   UNL A   1      46.157  36.374  26.600  1.00  0.00    -0.237 OA
ATOM    104  O   UNL A   1      48.275  37.089  27.609  1.00  0.00    -0.744 OA
ENDBRANCH  98 101
ENDBRANCH  71  94
ENDBRANCH  45  46
ENDBRANCH  37  40
ENDBRANCH  35  36
ENDBRANCH  34  35
ENDBRANCH   1  34
TORSDOF 19
ENDMDL
