MODEL 1
REMARK VINA RESULT:     -11.8      0.000      0.000
REMARK SMILES CC[C@H](C(=O)NCc1ccc(C(=O)NCCCNC(=O)c2ccc(-c3c4nc(c(-c5cccc(S(=O)(=O)[O-])c5F)c5ccc([nH]5)c(-c5cccc(S(=O)(=O)[O-])c5F)c5nc(c(-c6cccc(S(=O)(=O)[O-])c6F)c6ccc3[nH]6)C=C5)C=C4)cc2)o1)c1ccccc1
REMARK SMILES IDX 15 1 14 2 12 3 13 4 11 6 8 7 9 8 84 9 10 10 7 11 6 12 4 13
REMARK SMILES IDX 5 14 3 16 2 17 1 18 85 19 86 20 90 21 87 22 89 23 88 24
REMARK SMILES IDX 16 25 17 26 18 27 19 28 20 30 21 31 22 32 83 33 23 34 82 35
REMARK SMILES IDX 24 36 25 37 26 38 76 39 27 40 81 41 75 42 77 43 28 44 80 45
REMARK SMILES IDX 74 46 73 47 29 49 61 50 41 51 60 52 42 53 45 54 59 55 78 56
REMARK SMILES IDX 43 57 44 58 58 60 79 61 46 62 30 63 31 64 39 65 32 66 34 67
REMARK SMILES IDX 40 68 33 69 35 70 36 71 37 72 38 73 62 74 63 75 71 76 64 77
REMARK SMILES IDX 66 78 72 79 65 80 67 81 68 82 69 83 70 84 47 85 48 86 56 87
REMARK SMILES IDX 49 88 51 89 57 90 50 91 52 92 53 93 54 94 55 95
REMARK H PARENT 14 5 6 15 18 29 77 48 45 59
REMARK Flexibility Score: inf
ROOT
ATOM      1  C   UNL A   1      31.321  28.885  24.493  1.00  0.00     0.118 C 
ENDROOT
BRANCH   1   2
ATOM      2  N   UNL A   1      32.507  29.090  23.687  1.00  0.00    -0.349 N 
ATOM      3  C   UNL A   1      33.639  28.316  23.565  1.00  0.00     0.286 C 
ATOM      4  O   UNL A   1      34.430  28.635  22.684  1.00  0.00    -0.266 OA
ATOM      5  H   UNL A   1      32.504  29.911  23.143  1.00  0.00     0.163 HD
BRANCH   3   6
ATOM      6  C   UNL A   1      33.819  27.160  24.420  1.00  0.00     0.191 A 
ATOM      7  C   UNL A   1      34.324  25.041  24.760  1.00  0.00     0.124 A 
ATOM      8  C   UNL A   1      33.938  25.542  25.982  1.00  0.00     0.048 A 
ATOM      9  O   UNL A   1      34.258  26.012  23.812  1.00  0.00    -0.454 OA
ATOM     10  C   UNL A   1      33.656  26.911  25.771  1.00  0.00     0.056 A 
BRANCH   7  11
ATOM     11  C   UNL A   1      34.735  23.704  24.294  1.00  0.00     0.191 C 
BRANCH  11  12
ATOM     12  N   UNL A   1      34.415  23.515  22.893  1.00  0.00    -0.348 N 
ATOM     13  C   UNL A   1      33.276  23.119  22.260  1.00  0.00     0.227 C 
ATOM     14  O   UNL A   1      33.247  23.246  21.030  1.00  0.00    -0.274 OA
ATOM     15  H   UNL A   1      35.162  23.709  22.282  1.00  0.00     0.163 HD
BRANCH  13  16
ATOM     16  C   UNL A   1      32.087  22.466  22.994  1.00  0.00     0.108 C 
BRANCH  16  17
ATOM     17  C   UNL A   1      32.571  21.095  23.533  1.00  0.00     0.015 C 
ATOM     18  C   UNL A   1      32.182  19.939  22.613  1.00  0.00     0.005 C 
ENDBRANCH  16  17
BRANCH  16  19
ATOM     19  C   UNL A   1      31.358  23.407  23.954  1.00  0.00    -0.036 A 
ATOM     20  C   UNL A   1      31.173  23.127  25.316  1.00  0.00     0.004 A 
ATOM     21  C   UNL A   1      30.814  24.610  23.457  1.00  0.00     0.004 A 
ATOM     22  C   UNL A   1      30.566  24.055  26.167  1.00  0.00     0.000 A 
ATOM     23  C   UNL A   1      30.228  25.547  24.312  1.00  0.00     0.000 A 
ATOM     24  C   UNL A   1      30.118  25.275  25.671  1.00  0.00     0.000 A 
ENDBRANCH  16  19
ENDBRANCH  13  16
ENDBRANCH  11  12
ENDBRANCH   7  11
ENDBRANCH   3   6
ENDBRANCH   1   2
BRANCH   1  25
ATOM     25  C   UNL A   1      31.033  30.085  25.388  1.00  0.00     0.042 C 
BRANCH  25  26
ATOM     26  C   UNL A   1      32.255  30.565  26.165  1.00  0.00     0.118 C 
BRANCH  26  27
ATOM     27  N   UNL A   1      32.162  31.978  26.503  1.00  0.00    -0.352 N 
ATOM     28  C   UNL A   1      32.890  32.721  27.395  1.00  0.00     0.251 C 
ATOM     29  H   UNL A   1      31.469  32.478  26.014  1.00  0.00     0.163 HD
ATOM     30  O   UNL A   1      32.497  33.846  27.694  1.00  0.00    -0.269 OA
BRANCH  28  31
ATOM     31  C   UNL A   1      34.135  32.188  27.990  1.00  0.00     0.039 A 
ATOM     32  C   UNL A   1      34.186  30.833  28.332  1.00  0.00     0.014 A 
ATOM     33  C   UNL A   1      35.218  33.023  28.280  1.00  0.00     0.014 A 
ATOM     34  C   UNL A   1      35.328  30.314  28.947  1.00  0.00     0.010 A 
ATOM     35  C   UNL A   1      36.384  32.489  28.822  1.00  0.00     0.010 A 
ATOM     36  C   UNL A   1      36.439  31.138  29.190  1.00  0.00    -0.014 A 
BRANCH  36  37
ATOM     37  C   UNL A   1      37.648  30.612  29.868  1.00  0.00     0.031 A 
ATOM     38  C   UNL A   1      37.957  31.027  31.283  1.00  0.00     0.074 A 
ATOM     39  C   UNL A   1      38.501  29.818  29.194  1.00  0.00     0.049 A 
ATOM     40  N   UNL A   1      38.979  30.707  32.034  1.00  0.00    -0.248 NA
ATOM     41  C   UNL A   1      37.007  31.949  31.931  1.00  0.00     0.031 C 
ATOM     42  C   UNL A   1      38.352  29.415  27.793  1.00  0.00     0.029 A 
ATOM     43  N   UNL A   1      39.675  29.227  29.586  1.00  0.00    -0.354 N 
ATOM     44  C   UNL A   1      38.819  31.416  33.218  1.00  0.00     0.074 A 
ATOM     45  C   UNL A   1      37.621  32.212  33.076  1.00  0.00     0.031 C 
ATOM     46  C   UNL A   1      39.391  28.639  27.446  1.00  0.00     0.029 A 
ATOM     47  C   UNL A   1      40.288  28.503  28.591  1.00  0.00     0.049 A 
ATOM     48  H   UNL A   1      40.044  29.313  30.495  1.00  0.00     0.167 HD
ATOM     49  C   UNL A   1      39.581  31.383  34.338  1.00  0.00     0.034 A 
ATOM     50  C   UNL A   1      41.439  27.804  28.603  1.00  0.00     0.034 A 
ATOM     51  C   UNL A   1      40.737  30.542  34.494  1.00  0.00     0.049 A 
ATOM     52  C   UNL A   1      42.220  27.713  29.887  1.00  0.00     0.074 A 
ATOM     53  C   UNL A   1      41.531  30.368  35.613  1.00  0.00     0.029 A 
ATOM     54  N   UNL A   1      41.259  29.727  33.502  1.00  0.00    -0.354 N 
ATOM     55  N   UNL A   1      41.968  28.269  31.047  1.00  0.00    -0.248 NA
ATOM     56  C   UNL A   1      43.417  26.860  29.878  1.00  0.00     0.031 C 
ATOM     57  C   UNL A   1      42.538  29.450  35.294  1.00  0.00     0.029 A 
ATOM     58  C   UNL A   1      42.360  29.040  33.983  1.00  0.00     0.049 A 
ATOM     59  H   UNL A   1      40.899  29.647  32.588  1.00  0.00     0.167 HD
ATOM     60  C   UNL A   1      42.946  27.800  31.916  1.00  0.00     0.074 A 
ATOM     61  C   UNL A   1      43.785  26.900  31.151  1.00  0.00     0.031 C 
ATOM     62  C   UNL A   1      43.141  28.097  33.224  1.00  0.00     0.034 A 
BRANCH  49  63
ATOM     63  C   UNL A   1      39.148  32.231  35.505  1.00  0.00     0.023 A 
ATOM     64  C   UNL A   1      39.444  33.611  35.507  1.00  0.00     0.012 A 
ATOM     65  C   UNL A   1      38.411  31.683  36.573  1.00  0.00     0.148 A 
ATOM     66  C   UNL A   1      39.048  34.423  36.568  1.00  0.00     0.002 A 
ATOM     67  C   UNL A   1      37.980  32.509  37.607  1.00  0.00     0.091 A 
ATOM     68  F   UNL A   1      38.158  30.367  36.567  1.00  0.00    -0.205 F 
ATOM     69  C   UNL A   1      38.308  33.874  37.612  1.00  0.00     0.022 A 
BRANCH  67  70
ATOM     70  S   UNL A   1      36.953  31.913  38.956  1.00  0.00     0.127 S 
ATOM     71  O   UNL A   1      37.738  32.314  40.122  1.00  0.00    -0.237 OA
ATOM     72  O   UNL A   1      35.718  32.674  38.763  1.00  0.00    -0.237 OA
ATOM     73  O   UNL A   1      36.819  30.478  38.752  1.00  0.00    -0.744 OA
ENDBRANCH  67  70
ENDBRANCH  49  63
BRANCH  50  74
ATOM     74  C   UNL A   1      41.864  27.053  27.388  1.00  0.00     0.023 A 
ATOM     75  C   UNL A   1      42.420  27.758  26.303  1.00  0.00     0.012 A 
ATOM     76  C   UNL A   1      41.758  25.651  27.314  1.00  0.00     0.148 A 
ATOM     77  C   UNL A   1      42.833  27.085  25.153  1.00  0.00     0.002 A 
ATOM     78  C   UNL A   1      42.223  24.981  26.188  1.00  0.00     0.091 A 
ATOM     79  F   UNL A   1      41.217  24.998  28.352  1.00  0.00    -0.205 F 
ATOM     80  C   UNL A   1      42.745  25.697  25.099  1.00  0.00     0.022 A 
BRANCH  78  81
ATOM     81  S   UNL A   1      42.272  23.187  26.091  1.00  0.00     0.127 S 
ATOM     82  O   UNL A   1      42.911  22.975  24.795  1.00  0.00    -0.237 OA
ATOM     83  O   UNL A   1      43.098  22.843  27.249  1.00  0.00    -0.237 OA
ATOM     84  O   UNL A   1      40.885  22.754  26.197  1.00  0.00    -0.744 OA
ENDBRANCH  78  81
ENDBRANCH  50  74
BRANCH  62  85
ATOM     85  C   UNL A   1      44.277  27.409  33.933  1.00  0.00     0.023 A 
ATOM     86  C   UNL A   1      45.563  27.986  33.921  1.00  0.00     0.012 A 
ATOM     87  C   UNL A   1      44.054  26.229  34.668  1.00  0.00     0.148 A 
ATOM     88  C   UNL A   1      46.617  27.378  34.604  1.00  0.00     0.002 A 
ATOM     89  C   UNL A   1      45.097  25.655  35.384  1.00  0.00     0.091 A 
ATOM     90  F   UNL A   1      42.829  25.683  34.649  1.00  0.00    -0.205 F 
ATOM     91  C   UNL A   1      46.382  26.222  35.343  1.00  0.00     0.022 A 
BRANCH  89  92
ATOM     92  S   UNL A   1      44.853  24.221  36.437  1.00  0.00     0.127 S 
ATOM     93  O   UNL A   1      46.219  23.934  36.873  1.00  0.00    -0.237 OA
ATOM     94  O   UNL A   1      43.975  24.744  37.486  1.00  0.00    -0.237 OA
ATOM     95  O   UNL A   1      44.234  23.210  35.590  1.00  0.00    -0.744 OA
ENDBRANCH  89  92
ENDBRANCH  62  85
ENDBRANCH  36  37
ENDBRANCH  28  31
ENDBRANCH  26  27
ENDBRANCH  25  26
ENDBRANCH   1  25
TORSDOF 18
ENDMDL
MODEL 2
REMARK VINA RESULT:     -11.7      1.871      2.740
REMARK SMILES CC[C@H](C(=O)NCc1ccc(C(=O)NCCCNC(=O)c2ccc(-c3c4nc(c(-c5cccc(S(=O)(=O)[O-])c5F)c5ccc([nH]5)c(-c5cccc(S(=O)(=O)[O-])c5F)c5nc(c(-c6cccc(S(=O)(=O)[O-])c6F)c6ccc3[nH]6)C=C5)C=C4)cc2)o1)c1ccccc1
REMARK SMILES IDX 15 1 14 2 12 3 13 4 11 6 8 7 9 8 84 9 10 10 7 11 6 12 4 13
REMARK SMILES IDX 5 14 3 16 2 17 1 18 85 19 86 20 90 21 87 22 89 23 88 24
REMARK SMILES IDX 16 25 17 26 18 27 19 28 20 30 21 31 22 32 83 33 23 34 82 35
REMARK SMILES IDX 24 36 25 37 26 38 76 39 27 40 81 41 75 42 77 43 28 44 80 45
REMARK SMILES IDX 74 46 73 47 29 49 61 50 41 51 60 52 42 53 45 54 59 55 78 56
REMARK SMILES IDX 43 57 44 58 58 60 79 61 46 62 30 63 31 64 39 65 32 66 34 67
REMARK SMILES IDX 40 68 33 69 35 70 36 71 37 72 38 73 62 74 63 75 71 76 64 77
REMARK SMILES IDX 66 78 72 79 65 80 67 81 68 82 69 83 70 84 47 85 48 86 56 87
REMARK SMILES IDX 49 88 51 89 57 90 50 91 52 92 53 93 54 94 55 95
REMARK H PARENT 14 5 6 15 18 29 77 48 45 59
REMARK Flexibility Score: inf
ROOT
ATOM      1  C   UNL A   1      31.580  29.277  24.863  1.00  0.00     0.118 C 
ENDROOT
BRANCH   1   2
ATOM      2  N   UNL A   1      30.941  29.515  23.585  1.00  0.00    -0.349 N 
ATOM      3  C   UNL A   1      30.450  28.621  22.660  1.00  0.00     0.286 C 
ATOM      4  O   UNL A   1      29.806  29.092  21.729  1.00  0.00    -0.266 OA
ATOM      5  H   UNL A   1      30.844  30.464  23.339  1.00  0.00     0.163 HD
BRANCH   3   6
ATOM      6  C   UNL A   1      30.663  27.200  22.846  1.00  0.00     0.191 A 
ATOM      7  C   UNL A   1      31.787  25.333  22.511  1.00  0.00     0.124 A 
ATOM      8  C   UNL A   1      30.683  24.985  23.255  1.00  0.00     0.048 A 
ATOM      9  O   UNL A   1      31.784  26.668  22.262  1.00  0.00    -0.454 OA
ATOM     10  C   UNL A   1      29.986  26.190  23.506  1.00  0.00     0.056 A 
BRANCH   7  11
ATOM     11  C   UNL A   1      32.898  24.563  21.921  1.00  0.00     0.191 C 
BRANCH  11  12
ATOM     12  N   UNL A   1      32.586  23.148  21.866  1.00  0.00    -0.348 N 
ATOM     13  C   UNL A   1      32.510  22.190  22.831  1.00  0.00     0.227 C 
ATOM     14  O   UNL A   1      32.021  21.103  22.502  1.00  0.00    -0.274 OA
ATOM     15  H   UNL A   1      32.392  22.816  20.960  1.00  0.00     0.163 HD
BRANCH  13  16
ATOM     16  C   UNL A   1      33.066  22.383  24.256  1.00  0.00     0.108 C 
BRANCH  16  17
ATOM     17  C   UNL A   1      32.046  21.754  25.241  1.00  0.00     0.015 C 
ATOM     18  C   UNL A   1      31.669  22.708  26.373  1.00  0.00     0.005 C 
ENDBRANCH  16  17
BRANCH  16  19
ATOM     19  C   UNL A   1      34.541  22.007  24.403  1.00  0.00    -0.036 A 
ATOM     20  C   UNL A   1      34.978  20.820  25.010  1.00  0.00     0.004 A 
ATOM     21  C   UNL A   1      35.528  22.901  23.936  1.00  0.00     0.004 A 
ATOM     22  C   UNL A   1      36.335  20.489  25.052  1.00  0.00     0.000 A 
ATOM     23  C   UNL A   1      36.883  22.559  23.957  1.00  0.00     0.000 A 
ATOM     24  C   UNL A   1      37.285  21.345  24.502  1.00  0.00     0.000 A 
ENDBRANCH  16  19
ENDBRANCH  13  16
ENDBRANCH  11  12
ENDBRANCH   7  11
ENDBRANCH   3   6
ENDBRANCH   1   2
BRANCH   1  25
ATOM     25  C   UNL A   1      31.323  30.416  25.843  1.00  0.00     0.042 C 
BRANCH  25  26
ATOM     26  C   UNL A   1      32.564  30.827  26.629  1.00  0.00     0.118 C 
BRANCH  26  27
ATOM     27  N   UNL A   1      32.625  32.268  26.829  1.00  0.00    -0.352 N 
ATOM     28  C   UNL A   1      33.471  33.014  27.608  1.00  0.00     0.251 C 
ATOM     29  H   UNL A   1      31.957  32.787  26.327  1.00  0.00     0.163 HD
ATOM     30  O   UNL A   1      33.205  34.196  27.813  1.00  0.00    -0.269 OA
BRANCH  28  31
ATOM     31  C   UNL A   1      34.691  32.416  28.193  1.00  0.00     0.039 A 
ATOM     32  C   UNL A   1      34.591  31.171  28.821  1.00  0.00     0.014 A 
ATOM     33  C   UNL A   1      35.909  33.103  28.194  1.00  0.00     0.014 A 
ATOM     34  C   UNL A   1      35.714  30.608  29.431  1.00  0.00     0.010 A 
ATOM     35  C   UNL A   1      37.045  32.507  28.734  1.00  0.00     0.010 A 
ATOM     36  C   UNL A   1      36.953  31.269  29.386  1.00  0.00    -0.014 A 
BRANCH  36  37
ATOM     37  C   UNL A   1      38.149  30.702  30.054  1.00  0.00     0.031 A 
ATOM     38  C   UNL A   1      38.516  31.148  31.445  1.00  0.00     0.074 A 
ATOM     39  C   UNL A   1      38.939  29.839  29.388  1.00  0.00     0.049 A 
ATOM     40  N   UNL A   1      39.539  30.798  32.181  1.00  0.00    -0.248 NA
ATOM     41  C   UNL A   1      37.634  32.143  32.082  1.00  0.00     0.031 C 
ATOM     42  C   UNL A   1      38.732  29.397  28.007  1.00  0.00     0.029 A 
ATOM     43  N   UNL A   1      40.089  29.199  29.773  1.00  0.00    -0.354 N 
ATOM     44  C   UNL A   1      39.448  31.556  33.343  1.00  0.00     0.074 A 
ATOM     45  C   UNL A   1      38.291  32.411  33.201  1.00  0.00     0.031 C 
ATOM     46  C   UNL A   1      39.719  28.553  27.663  1.00  0.00     0.029 A 
ATOM     47  C   UNL A   1      40.636  28.408  28.790  1.00  0.00     0.049 A 
ATOM     48  H   UNL A   1      40.486  29.296  30.669  1.00  0.00     0.167 HD
ATOM     49  C   UNL A   1      40.236  31.519  34.444  1.00  0.00     0.034 A 
ATOM     50  C   UNL A   1      41.748  27.647  28.800  1.00  0.00     0.034 A 
ATOM     51  C   UNL A   1      41.348  30.623  34.603  1.00  0.00     0.049 A 
ATOM     52  C   UNL A   1      42.556  27.558  30.067  1.00  0.00     0.074 A 
ATOM     53  C   UNL A   1      42.161  30.444  35.709  1.00  0.00     0.029 A 
ATOM     54  N   UNL A   1      41.799  29.746  33.629  1.00  0.00    -0.354 N 
ATOM     55  N   UNL A   1      42.364  28.167  31.212  1.00  0.00    -0.248 NA
ATOM     56  C   UNL A   1      43.704  26.641  30.060  1.00  0.00     0.031 C 
ATOM     57  C   UNL A   1      43.108  29.462  35.399  1.00  0.00     0.029 A 
ATOM     58  C   UNL A   1      42.873  29.017  34.108  1.00  0.00     0.049 A 
ATOM     59  H   UNL A   1      41.412  29.655  32.727  1.00  0.00     0.167 HD
ATOM     60  C   UNL A   1      43.337  27.675  32.074  1.00  0.00     0.074 A 
ATOM     61  C   UNL A   1      44.107  26.705  31.321  1.00  0.00     0.031 C 
ATOM     62  C   UNL A   1      43.583  28.007  33.365  1.00  0.00     0.034 A 
BRANCH  49  63
ATOM     63  C   UNL A   1      39.879  32.431  35.590  1.00  0.00     0.023 A 
ATOM     64  C   UNL A   1      39.122  31.926  36.668  1.00  0.00     0.012 A 
ATOM     65  C   UNL A   1      40.329  33.765  35.630  1.00  0.00     0.148 A 
ATOM     66  C   UNL A   1      38.785  32.743  37.746  1.00  0.00     0.002 A 
ATOM     67  C   UNL A   1      40.027  34.561  36.730  1.00  0.00     0.091 A 
ATOM     68  F   UNL A   1      41.028  34.236  34.588  1.00  0.00    -0.205 F 
ATOM     69  C   UNL A   1      39.246  34.056  37.782  1.00  0.00     0.022 A 
BRANCH  67  70
ATOM     70  S   UNL A   1      40.642  36.240  36.907  1.00  0.00     0.127 S 
ATOM     71  O   UNL A   1      39.756  36.770  37.942  1.00  0.00    -0.237 OA
ATOM     72  O   UNL A   1      42.022  36.020  37.341  1.00  0.00    -0.237 OA
ATOM     73  O   UNL A   1      40.510  36.855  35.594  1.00  0.00    -0.744 OA
ENDBRANCH  67  70
ENDBRANCH  49  63
BRANCH  50  74
ATOM     74  C   UNL A   1      42.100  26.833  27.603  1.00  0.00     0.023 A 
ATOM     75  C   UNL A   1      42.786  27.441  26.534  1.00  0.00     0.012 A 
ATOM     76  C   UNL A   1      41.796  25.459  27.531  1.00  0.00     0.148 A 
ATOM     77  C   UNL A   1      43.135  26.705  25.401  1.00  0.00     0.002 A 
ATOM     78  C   UNL A   1      42.196  24.720  26.424  1.00  0.00     0.091 A 
ATOM     79  F   UNL A   1      41.134  24.900  28.554  1.00  0.00    -0.205 F 
ATOM     80  C   UNL A   1      42.851  25.344  25.350  1.00  0.00     0.022 A 
BRANCH  78  81
ATOM     81  S   UNL A   1      41.991  22.937  26.336  1.00  0.00     0.127 S 
ATOM     82  O   UNL A   1      40.538  22.800  26.381  1.00  0.00    -0.237 OA
ATOM     83  O   UNL A   1      42.600  22.624  25.042  1.00  0.00    -0.237 OA
ATOM     84  O   UNL A   1      42.718  22.405  27.480  1.00  0.00    -0.744 OA
ENDBRANCH  78  81
ENDBRANCH  50  74
BRANCH  62  85
ATOM     85  C   UNL A   1      44.698  27.282  34.070  1.00  0.00     0.023 A 
ATOM     86  C   UNL A   1      46.009  27.796  34.021  1.00  0.00     0.012 A 
ATOM     87  C   UNL A   1      44.432  26.132  34.839  1.00  0.00     0.148 A 
ATOM     88  C   UNL A   1      47.046  27.155  34.700  1.00  0.00     0.002 A 
ATOM     89  C   UNL A   1      45.461  25.527  35.550  1.00  0.00     0.091 A 
ATOM     90  F   UNL A   1      43.183  25.646  34.855  1.00  0.00    -0.205 F 
ATOM     91  C   UNL A   1      46.770  26.030  35.473  1.00  0.00     0.022 A 
BRANCH  89  92
ATOM     92  S   UNL A   1      45.169  24.132  36.644  1.00  0.00     0.127 S 
ATOM     93  O   UNL A   1      44.511  23.182  35.748  1.00  0.00    -0.237 OA
ATOM     94  O   UNL A   1      46.525  23.755  37.044  1.00  0.00    -0.237 OA
ATOM     95  O   UNL A   1      44.348  24.649  37.731  1.00  0.00    -0.744 OA
ENDBRANCH  89  92
ENDBRANCH  62  85
ENDBRANCH  36  37
ENDBRANCH  28  31
ENDBRANCH  26  27
ENDBRANCH  25  26
ENDBRANCH   1  25
TORSDOF 18
ENDMDL
MODEL 3
REMARK VINA RESULT:     -11.7      1.273      2.137
REMARK SMILES CC[C@H](C(=O)NCc1ccc(C(=O)NCCCNC(=O)c2ccc(-c3c4nc(c(-c5cccc(S(=O)(=O)[O-])c5F)c5ccc([nH]5)c(-c5cccc(S(=O)(=O)[O-])c5F)c5nc(c(-c6cccc(S(=O)(=O)[O-])c6F)c6ccc3[nH]6)C=C5)C=C4)cc2)o1)c1ccccc1
REMARK SMILES IDX 15 1 14 2 12 3 13 4 11 6 8 7 9 8 84 9 10 10 7 11 6 12 4 13
REMARK SMILES IDX 5 14 3 16 2 17 1 18 85 19 86 20 90 21 87 22 89 23 88 24
REMARK SMILES IDX 16 25 17 26 18 27 19 28 20 30 21 31 22 32 83 33 23 34 82 35
REMARK SMILES IDX 24 36 25 37 26 38 76 39 27 40 81 41 75 42 77 43 28 44 80 45
REMARK SMILES IDX 74 46 73 47 29 49 61 50 41 51 60 52 42 53 45 54 59 55 78 56
REMARK SMILES IDX 43 57 44 58 58 60 79 61 46 62 30 63 31 64 39 65 32 66 34 67
REMARK SMILES IDX 40 68 33 69 35 70 36 71 37 72 38 73 62 74 63 75 71 76 64 77
REMARK SMILES IDX 66 78 72 79 65 80 67 81 68 82 69 83 70 84 47 85 48 86 56 87
REMARK SMILES IDX 49 88 51 89 57 90 50 91 52 92 53 93 54 94 55 95
REMARK H PARENT 14 5 6 15 18 29 77 48 45 59
REMARK Flexibility Score: inf
ROOT
ATOM      1  C   UNL A   1      31.331  29.388  24.927  1.00  0.00     0.118 C 
ENDROOT
BRANCH   1   2
ATOM      2  N   UNL A   1      32.458  29.306  24.021  1.00  0.00    -0.349 N 
ATOM      3  C   UNL A   1      33.296  28.249  23.743  1.00  0.00     0.286 C 
ATOM      4  O   UNL A   1      34.075  28.398  22.808  1.00  0.00    -0.266 OA
ATOM      5  H   UNL A   1      32.656  30.135  23.529  1.00  0.00     0.163 HD
BRANCH   3   6
ATOM      6  C   UNL A   1      33.190  27.024  24.508  1.00  0.00     0.191 A 
ATOM      7  C   UNL A   1      32.264  25.074  24.955  1.00  0.00     0.124 A 
ATOM      8  C   UNL A   1      33.226  25.269  25.920  1.00  0.00     0.048 A 
ATOM      9  O   UNL A   1      32.237  26.128  24.098  1.00  0.00    -0.454 OA
ATOM     10  C   UNL A   1      33.848  26.499  25.606  1.00  0.00     0.056 A 
BRANCH   7  11
ATOM     11  C   UNL A   1      31.272  24.011  24.711  1.00  0.00     0.191 C 
BRANCH  11  12
ATOM     12  N   UNL A   1      31.585  23.267  23.506  1.00  0.00    -0.348 N 
ATOM     13  C   UNL A   1      32.295  22.125  23.294  1.00  0.00     0.227 C 
ATOM     14  O   UNL A   1      32.219  21.620  22.168  1.00  0.00    -0.274 OA
ATOM     15  H   UNL A   1      31.214  23.663  22.684  1.00  0.00     0.163 HD
BRANCH  13  16
ATOM     16  C   UNL A   1      33.222  21.500  24.356  1.00  0.00     0.108 C 
BRANCH  16  17
ATOM     17  C   UNL A   1      33.222  19.966  24.126  1.00  0.00     0.015 C 
ATOM     18  C   UNL A   1      32.403  19.221  25.179  1.00  0.00     0.005 C 
ENDBRANCH  16  17
BRANCH  16  19
ATOM     19  C   UNL A   1      34.568  22.211  24.501  1.00  0.00    -0.036 A 
ATOM     20  C   UNL A   1      35.182  22.919  23.458  1.00  0.00     0.004 A 
ATOM     21  C   UNL A   1      35.255  22.137  25.731  1.00  0.00     0.004 A 
ATOM     22  C   UNL A   1      36.377  23.615  23.664  1.00  0.00     0.000 A 
ATOM     23  C   UNL A   1      36.437  22.851  25.943  1.00  0.00     0.000 A 
ATOM     24  C   UNL A   1      36.990  23.603  24.913  1.00  0.00     0.000 A 
ENDBRANCH  16  19
ENDBRANCH  13  16
ENDBRANCH  11  12
ENDBRANCH   7  11
ENDBRANCH   3   6
ENDBRANCH   1   2
BRANCH   1  25
ATOM     25  C   UNL A   1      31.781  29.576  26.372  1.00  0.00     0.042 C 
BRANCH  25  26
ATOM     26  C   UNL A   1      33.184  30.160  26.496  1.00  0.00     0.118 C 
BRANCH  26  27
ATOM     27  N   UNL A   1      33.154  31.576  26.832  1.00  0.00    -0.352 N 
ATOM     28  C   UNL A   1      33.931  32.291  27.706  1.00  0.00     0.251 C 
ATOM     29  H   UNL A   1      32.471  32.102  26.358  1.00  0.00     0.163 HD
ATOM     30  O   UNL A   1      33.589  33.431  28.012  1.00  0.00    -0.269 OA
BRANCH  28  31
ATOM     31  C   UNL A   1      35.167  31.710  28.275  1.00  0.00     0.039 A 
ATOM     32  C   UNL A   1      35.111  30.427  28.826  1.00  0.00     0.014 A 
ATOM     33  C   UNL A   1      36.355  32.445  28.335  1.00  0.00     0.014 A 
ATOM     34  C   UNL A   1      36.248  29.875  29.420  1.00  0.00     0.010 A 
ATOM     35  C   UNL A   1      37.507  31.865  28.858  1.00  0.00     0.010 A 
ATOM     36  C   UNL A   1      37.458  30.588  29.433  1.00  0.00    -0.014 A 
BRANCH  36  37
ATOM     37  C   UNL A   1      38.668  30.032  30.086  1.00  0.00     0.031 A 
ATOM     38  C   UNL A   1      39.084  30.527  31.446  1.00  0.00     0.074 A 
ATOM     39  C   UNL A   1      39.427  29.133  29.430  1.00  0.00     0.049 A 
ATOM     40  N   UNL A   1      40.125  30.193  32.164  1.00  0.00    -0.248 NA
ATOM     41  C   UNL A   1      38.235  31.557  32.071  1.00  0.00     0.031 C 
ATOM     42  C   UNL A   1      39.171  28.640  28.075  1.00  0.00     0.029 A 
ATOM     43  N   UNL A   1      40.581  28.494  29.805  1.00  0.00    -0.354 N 
ATOM     44  C   UNL A   1      40.080  30.997  33.298  1.00  0.00     0.074 A 
ATOM     45  C   UNL A   1      38.930  31.860  33.158  1.00  0.00     0.031 C 
ATOM     46  C   UNL A   1      40.137  27.771  27.735  1.00  0.00     0.029 A 
ATOM     47  C   UNL A   1      41.087  27.658  28.837  1.00  0.00     0.049 A 
ATOM     48  H   UNL A   1      41.006  28.621  30.683  1.00  0.00     0.167 HD
ATOM     49  C   UNL A   1      40.902  30.993  34.374  1.00  0.00     0.034 A 
ATOM     50  C   UNL A   1      42.190  26.884  28.842  1.00  0.00     0.034 A 
ATOM     51  C   UNL A   1      42.008  30.089  34.534  1.00  0.00     0.049 A 
ATOM     52  C   UNL A   1      43.036  26.834  30.086  1.00  0.00     0.074 A 
ATOM     53  C   UNL A   1      42.853  29.943  35.620  1.00  0.00     0.029 A 
ATOM     54  N   UNL A   1      42.418  29.169  33.581  1.00  0.00    -0.354 N 
ATOM     55  N   UNL A   1      42.888  27.489  31.212  1.00  0.00    -0.248 NA
ATOM     56  C   UNL A   1      44.172  25.902  30.080  1.00  0.00     0.031 C 
ATOM     57  C   UNL A   1      43.778  28.937  35.320  1.00  0.00     0.029 A 
ATOM     58  C   UNL A   1      43.498  28.445  34.055  1.00  0.00     0.049 A 
ATOM     59  H   UNL A   1      42.001  29.047  32.696  1.00  0.00     0.167 HD
ATOM     60  C   UNL A   1      43.882  27.019  32.062  1.00  0.00     0.074 A 
ATOM     61  C   UNL A   1      44.615  26.010  31.325  1.00  0.00     0.031 C 
ATOM     62  C   UNL A   1      44.172  27.398  33.331  1.00  0.00     0.034 A 
BRANCH  49  63
ATOM     63  C   UNL A   1      40.592  31.953  35.494  1.00  0.00     0.023 A 
ATOM     64  C   UNL A   1      41.421  33.076  35.693  1.00  0.00     0.012 A 
ATOM     65  C   UNL A   1      39.463  31.776  36.317  1.00  0.00     0.148 A 
ATOM     66  C   UNL A   1      41.156  33.987  36.714  1.00  0.00     0.002 A 
ATOM     67  C   UNL A   1      39.178  32.712  37.305  1.00  0.00     0.091 A 
ATOM     68  F   UNL A   1      38.698  30.691  36.130  1.00  0.00    -0.205 F 
ATOM     69  C   UNL A   1      40.029  33.810  37.513  1.00  0.00     0.022 A 
BRANCH  67  70
ATOM     70  S   UNL A   1      37.707  32.617  38.333  1.00  0.00     0.127 S 
ATOM     71  O   UNL A   1      37.744  31.223  38.771  1.00  0.00    -0.237 OA
ATOM     72  O   UNL A   1      38.000  33.594  39.384  1.00  0.00    -0.237 OA
ATOM     73  O   UNL A   1      36.592  32.974  37.468  1.00  0.00    -0.744 OA
ENDBRANCH  67  70
ENDBRANCH  49  63
BRANCH  50  74
ATOM     74  C   UNL A   1      42.494  26.019  27.668  1.00  0.00     0.023 A 
ATOM     75  C   UNL A   1      43.299  26.526  26.630  1.00  0.00     0.012 A 
ATOM     76  C   UNL A   1      42.028  24.693  27.589  1.00  0.00     0.148 A 
ATOM     77  C   UNL A   1      43.608  25.740  25.519  1.00  0.00     0.002 A 
ATOM     78  C   UNL A   1      42.385  23.897  26.507  1.00  0.00     0.091 A 
ATOM     79  F   UNL A   1      41.255  24.231  28.582  1.00  0.00    -0.205 F 
ATOM     80  C   UNL A   1      43.161  24.424  25.462  1.00  0.00     0.022 A 
BRANCH  78  81
ATOM     81  S   UNL A   1      41.966  22.152  26.419  1.00  0.00     0.127 S 
ATOM     82  O   UNL A   1      40.521  22.200  26.215  1.00  0.00    -0.237 OA
ATOM     83  O   UNL A   1      42.738  21.712  25.256  1.00  0.00    -0.237 OA
ATOM     84  O   UNL A   1      42.413  21.581  27.682  1.00  0.00    -0.744 OA
ENDBRANCH  78  81
ENDBRANCH  50  74
BRANCH  62  85
ATOM     85  C   UNL A   1      45.300  26.687  34.029  1.00  0.00     0.023 A 
ATOM     86  C   UNL A   1      46.618  27.167  33.900  1.00  0.00     0.012 A 
ATOM     87  C   UNL A   1      45.043  25.586  34.870  1.00  0.00     0.148 A 
ATOM     88  C   UNL A   1      47.668  26.540  34.571  1.00  0.00     0.002 A 
ATOM     89  C   UNL A   1      46.087  24.996  35.571  1.00  0.00     0.091 A 
ATOM     90  F   UNL A   1      43.785  25.130  34.962  1.00  0.00    -0.205 F 
ATOM     91  C   UNL A   1      47.401  25.464  35.413  1.00  0.00     0.022 A 
BRANCH  89  92
ATOM     92  S   UNL A   1      45.811  23.669  36.750  1.00  0.00     0.127 S 
ATOM     93  O   UNL A   1      45.216  22.636  35.903  1.00  0.00    -0.237 OA
ATOM     94  O   UNL A   1      47.168  23.371  37.213  1.00  0.00    -0.237 OA
ATOM     95  O   UNL A   1      44.939  24.226  37.774  1.00  0.00    -0.744 OA
ENDBRANCH  89  92
ENDBRANCH  62  85
ENDBRANCH  36  37
ENDBRANCH  28  31
ENDBRANCH  26  27
ENDBRANCH  25  26
ENDBRANCH   1  25
TORSDOF 18
ENDMDL
