MODEL 1
REMARK VINA RESULT:     -11.7      0.000      0.000
REMARK SMILES C[C@H]1[NH2+]CC[C@H]1C(=O)N1CC(C(=O)NCCCNC(=O)c2ccc(-c3c4nc(c(-c5cccc(S(=O)(=O)[O-])c5F)c5ccc([nH]5)c(-c5cccc(S(=O)(=O)[O-])c5F)c5nc(c(-c6cccc(S(=O)(=O)[O-])c6F)c6ccc3[nH]6)C=C5)C=C4)cc2)C1
REMARK SMILES IDX 17 1 16 2 15 3 14 4 12 5 13 6 11 8 7 9 8 10 9 11 10 12 84 13
REMARK SMILES IDX 6 14 1 15 2 16 3 17 4 18 5 21 18 22 19 23 20 25 21 26 22 27
REMARK SMILES IDX 83 28 23 29 82 30 24 31 25 32 26 33 76 34 27 35 81 36 75 37
REMARK SMILES IDX 77 38 28 39 80 40 74 41 73 42 29 44 61 45 41 46 60 47 42 48
REMARK SMILES IDX 45 49 59 50 78 51 43 52 44 53 58 55 79 56 46 57 30 58 31 59
REMARK SMILES IDX 39 60 32 61 34 62 40 63 33 64 35 65 36 66 37 67 38 68 62 69
REMARK SMILES IDX 63 70 71 71 64 72 66 73 72 74 65 75 67 76 68 77 69 78 70 79
REMARK SMILES IDX 47 80 48 81 56 82 49 83 51 84 57 85 50 86 52 87 53 88 54 89
REMARK SMILES IDX 55 90
REMARK H PARENT 14 7 3 19 3 20 18 24 77 43 45 54
REMARK Flexibility Score: inf
ROOT
ATOM      1  C   UNL A   1      32.841  29.752  25.716  1.00  0.00     0.118 C 
ENDROOT
BRANCH   1   2
ATOM      2  C   UNL A   1      31.545  29.046  25.333  1.00  0.00     0.042 C 
BRANCH   2   3
ATOM      3  C   UNL A   1      31.233  29.064  23.843  1.00  0.00     0.117 C 
BRANCH   3   4
ATOM      4  N   UNL A   1      32.422  28.987  23.012  1.00  0.00    -0.356 N 
ATOM      5  C   UNL A   1      33.249  27.934  22.707  1.00  0.00     0.226 C 
ATOM      6  O   UNL A   1      34.168  28.187  21.912  1.00  0.00    -0.275 OA
ATOM      7  H   UNL A   1      32.680  29.840  22.594  1.00  0.00     0.163 HD
BRANCH   5   8
ATOM      8  C   UNL A   1      33.070  26.538  23.309  1.00  0.00     0.117 C 
ATOM      9  C   UNL A   1      34.356  23.688  24.335  1.00  0.00     0.231 C 
ATOM     10  O   UNL A   1      33.379  23.249  24.945  1.00  0.00    -0.274 OA
ATOM     11  N   UNL A   1      34.384  24.978  23.837  1.00  0.00    -0.341 N 
ATOM     12  C   UNL A   1      33.790  26.114  24.577  1.00  0.00     0.134 C 
ATOM     13  C   UNL A   1      33.669  25.341  22.599  1.00  0.00     0.134 C 
BRANCH   9  14
ATOM     14  C   UNL A   1      35.623  22.862  24.165  1.00  0.00     0.142 C 
ATOM     15  C   UNL A   1      36.947  23.964  26.133  1.00  0.00     0.076 C 
ATOM     16  C   UNL A   1      36.942  23.396  24.719  1.00  0.00     0.192 C 
ATOM     17  N   UNL A   1      37.816  22.213  24.652  1.00  0.00    -0.343 N 
ATOM     18  C   UNL A   1      36.997  21.015  24.840  1.00  0.00     0.261 C 
ATOM     19  H   UNL A   1      38.522  22.264  25.387  1.00  0.00     0.346 HD
ATOM     20  H   UNL A   1      38.283  22.176  23.746  1.00  0.00     0.346 HD
ATOM     21  C   UNL A   1      35.544  21.450  24.727  1.00  0.00     0.081 C 
ENDBRANCH   9  14
ENDBRANCH   5   8
ENDBRANCH   3   4
ENDBRANCH   2   3
ENDBRANCH   1   2
BRANCH   1  22
ATOM     22  N   UNL A   1      32.626  31.110  26.201  1.00  0.00    -0.352 N 
ATOM     23  C   UNL A   1      33.283  31.818  27.176  1.00  0.00     0.251 C 
ATOM     24  H   UNL A   1      31.892  31.595  25.760  1.00  0.00     0.163 HD
ATOM     25  O   UNL A   1      32.821  32.899  27.547  1.00  0.00    -0.269 OA
BRANCH  23  26
ATOM     26  C   UNL A   1      34.519  31.293  27.793  1.00  0.00     0.039 A 
ATOM     27  C   UNL A   1      35.605  32.155  27.973  1.00  0.00     0.014 A 
ATOM     28  C   UNL A   1      34.624  29.954  28.179  1.00  0.00     0.014 A 
ATOM     29  C   UNL A   1      36.763  31.694  28.603  1.00  0.00     0.010 A 
ATOM     30  C   UNL A   1      35.742  29.520  28.887  1.00  0.00     0.010 A 
ATOM     31  C   UNL A   1      36.827  30.382  29.103  1.00  0.00    -0.014 A 
BRANCH  31  32
ATOM     32  C   UNL A   1      38.006  29.904  29.871  1.00  0.00     0.031 A 
ATOM     33  C   UNL A   1      38.277  30.422  31.258  1.00  0.00     0.074 A 
ATOM     34  C   UNL A   1      38.886  29.067  29.284  1.00  0.00     0.049 A 
ATOM     35  N   UNL A   1      39.283  30.162  32.052  1.00  0.00    -0.248 NA
ATOM     36  C   UNL A   1      37.306  31.378  31.815  1.00  0.00     0.031 C 
ATOM     37  C   UNL A   1      38.780  28.555  27.915  1.00  0.00     0.029 A 
ATOM     38  N   UNL A   1      40.056  28.522  29.752  1.00  0.00    -0.354 N 
ATOM     39  C   UNL A   1      39.090  30.949  33.182  1.00  0.00     0.074 A 
ATOM     40  C   UNL A   1      37.888  31.721  32.956  1.00  0.00     0.031 C 
ATOM     41  C   UNL A   1      39.836  27.768  27.658  1.00  0.00     0.029 A 
ATOM     42  C   UNL A   1      40.713  27.748  28.825  1.00  0.00     0.049 A 
ATOM     43  H   UNL A   1      40.393  28.674  30.664  1.00  0.00     0.167 HD
ATOM     44  C   UNL A   1      39.828  31.004  34.317  1.00  0.00     0.034 A 
ATOM     45  C   UNL A   1      41.895  27.105  28.897  1.00  0.00     0.034 A 
ATOM     46  C   UNL A   1      41.004  30.210  34.552  1.00  0.00     0.049 A 
ATOM     47  C   UNL A   1      42.682  27.158  30.177  1.00  0.00     0.074 A 
ATOM     48  C   UNL A   1      41.769  30.127  35.702  1.00  0.00     0.029 A 
ATOM     49  N   UNL A   1      41.598  29.377  33.616  1.00  0.00    -0.354 N 
ATOM     50  N   UNL A   1      42.397  27.783  31.294  1.00  0.00    -0.248 NA
ATOM     51  C   UNL A   1      43.934  26.390  30.222  1.00  0.00     0.031 C 
ATOM     52  C   UNL A   1      42.847  29.272  35.450  1.00  0.00     0.029 A 
ATOM     53  C   UNL A   1      42.729  28.788  34.157  1.00  0.00     0.049 A 
ATOM     54  H   UNL A   1      41.265  29.226  32.702  1.00  0.00     0.167 HD
ATOM     55  C   UNL A   1      43.412  27.454  32.185  1.00  0.00     0.074 A 
ATOM     56  C   UNL A   1      44.310  26.559  31.482  1.00  0.00     0.031 C 
ATOM     57  C   UNL A   1      43.590  27.863  33.465  1.00  0.00     0.034 A 
BRANCH  44  58
ATOM     58  C   UNL A   1      39.363  31.932  35.411  1.00  0.00     0.023 A 
ATOM     59  C   UNL A   1      38.458  31.466  36.387  1.00  0.00     0.012 A 
ATOM     60  C   UNL A   1      39.859  33.248  35.503  1.00  0.00     0.148 A 
ATOM     61  C   UNL A   1      38.022  32.305  37.412  1.00  0.00     0.002 A 
ATOM     62  C   UNL A   1      39.459  34.062  36.556  1.00  0.00     0.091 A 
ATOM     63  F   UNL A   1      40.703  33.681  34.556  1.00  0.00    -0.205 F 
ATOM     64  C   UNL A   1      38.530  33.598  37.502  1.00  0.00     0.022 A 
BRANCH  62  65
ATOM     65  S   UNL A   1      40.119  35.713  36.809  1.00  0.00     0.127 S 
ATOM     66  O   UNL A   1      39.598  36.420  35.640  1.00  0.00    -0.237 OA
ATOM     67  O   UNL A   1      39.504  36.098  38.079  1.00  0.00    -0.237 OA
ATOM     68  O   UNL A   1      41.567  35.565  36.854  1.00  0.00    -0.744 OA
ENDBRANCH  62  65
ENDBRANCH  44  58
BRANCH  45  69
ATOM     69  C   UNL A   1      42.378  26.308  27.733  1.00  0.00     0.023 A 
ATOM     70  C   UNL A   1      43.310  26.875  26.842  1.00  0.00     0.012 A 
ATOM     71  C   UNL A   1      41.946  24.983  27.527  1.00  0.00     0.148 A 
ATOM     72  C   UNL A   1      43.779  26.147  25.748  1.00  0.00     0.002 A 
ATOM     73  C   UNL A   1      42.462  24.245  26.470  1.00  0.00     0.091 A 
ATOM     74  F   UNL A   1      41.053  24.467  28.382  1.00  0.00    -0.205 F 
ATOM     75  C   UNL A   1      43.365  24.830  25.568  1.00  0.00     0.022 A 
BRANCH  73  76
ATOM     76  S   UNL A   1      42.093  22.502  26.241  1.00  0.00     0.127 S 
ATOM     77  O   UNL A   1      42.784  22.212  24.986  1.00  0.00    -0.237 OA
ATOM     78  O   UNL A   1      42.701  21.908  27.432  1.00  0.00    -0.237 OA
ATOM     79  O   UNL A   1      40.640  22.408  26.198  1.00  0.00    -0.744 OA
ENDBRANCH  73  76
ENDBRANCH  45  69
BRANCH  57  80
ATOM     80  C   UNL A   1      44.775  27.317  34.218  1.00  0.00     0.023 A 
ATOM     81  C   UNL A   1      46.001  28.012  34.209  1.00  0.00     0.012 A 
ATOM     82  C   UNL A   1      44.649  26.149  34.996  1.00  0.00     0.148 A 
ATOM     83  C   UNL A   1      47.092  27.534  34.936  1.00  0.00     0.002 A 
ATOM     84  C   UNL A   1      45.723  25.708  35.760  1.00  0.00     0.091 A 
ATOM     85  F   UNL A   1      43.480  25.491  34.977  1.00  0.00    -0.205 F 
ATOM     86  C   UNL A   1      46.949  26.391  35.720  1.00  0.00     0.022 A 
BRANCH  84  87
ATOM     87  S   UNL A   1      45.602  24.306  36.876  1.00  0.00     0.127 S 
ATOM     88  O   UNL A   1      46.957  24.243  37.422  1.00  0.00    -0.237 OA
ATOM     89  O   UNL A   1      44.581  24.754  37.825  1.00  0.00    -0.237 OA
ATOM     90  O   UNL A   1      45.207  23.170  36.055  1.00  0.00    -0.744 OA
ENDBRANCH  84  87
ENDBRANCH  57  80
ENDBRANCH  31  32
ENDBRANCH  23  26
ENDBRANCH   1  22
TORSDOF 14
ENDMDL
MODEL 2
REMARK VINA RESULT:     -11.6      2.829      3.547
REMARK SMILES C[C@H]1[NH2+]CC[C@H]1C(=O)N1CC(C(=O)NCCCNC(=O)c2ccc(-c3c4nc(c(-c5cccc(S(=O)(=O)[O-])c5F)c5ccc([nH]5)c(-c5cccc(S(=O)(=O)[O-])c5F)c5nc(c(-c6cccc(S(=O)(=O)[O-])c6F)c6ccc3[nH]6)C=C5)C=C4)cc2)C1
REMARK SMILES IDX 17 1 16 2 15 3 14 4 12 5 13 6 11 8 7 9 8 10 9 11 10 12 84 13
REMARK SMILES IDX 6 14 1 15 2 16 3 17 4 18 5 21 18 22 19 23 20 25 21 26 22 27
REMARK SMILES IDX 83 28 23 29 82 30 24 31 25 32 26 33 76 34 27 35 81 36 75 37
REMARK SMILES IDX 77 38 28 39 80 40 74 41 73 42 29 44 61 45 41 46 60 47 42 48
REMARK SMILES IDX 45 49 59 50 78 51 43 52 44 53 58 55 79 56 46 57 30 58 31 59
REMARK SMILES IDX 39 60 32 61 34 62 40 63 33 64 35 65 36 66 37 67 38 68 62 69
REMARK SMILES IDX 63 70 71 71 64 72 66 73 72 74 65 75 67 76 68 77 69 78 70 79
REMARK SMILES IDX 47 80 48 81 56 82 49 83 51 84 57 85 50 86 52 87 53 88 54 89
REMARK SMILES IDX 55 90
REMARK H PARENT 14 7 3 19 3 20 18 24 77 43 45 54
REMARK Flexibility Score: inf
ROOT
ATOM      1  C   UNL A   1      33.776  29.078  26.202  1.00  0.00     0.118 C 
ENDROOT
BRANCH   1   2
ATOM      2  C   UNL A   1      33.001  28.107  27.085  1.00  0.00     0.042 C 
BRANCH   2   3
ATOM      3  C   UNL A   1      31.558  27.877  26.657  1.00  0.00     0.117 C 
BRANCH   3   4
ATOM      4  N   UNL A   1      31.094  26.527  26.927  1.00  0.00    -0.356 N 
ATOM      5  C   UNL A   1      31.447  25.320  26.375  1.00  0.00     0.226 C 
ATOM      6  O   UNL A   1      30.895  24.324  26.869  1.00  0.00    -0.275 OA
ATOM      7  H   UNL A   1      30.406  26.467  27.628  1.00  0.00     0.163 HD
BRANCH   5   8
ATOM      8  C   UNL A   1      32.445  25.196  25.221  1.00  0.00     0.117 C 
ATOM      9  C   UNL A   1      34.768  23.492  23.630  1.00  0.00     0.231 C 
ATOM     10  O   UNL A   1      34.797  24.145  22.586  1.00  0.00    -0.274 OA
ATOM     11  N   UNL A   1      33.806  23.712  24.599  1.00  0.00    -0.341 N 
ATOM     12  C   UNL A   1      32.403  24.031  24.249  1.00  0.00     0.134 C 
ATOM     13  C   UNL A   1      33.891  24.859  25.524  1.00  0.00     0.134 C 
BRANCH   9  14
ATOM     14  C   UNL A   1      35.741  22.349  23.881  1.00  0.00     0.142 C 
ATOM     15  C   UNL A   1      37.356  23.690  25.443  1.00  0.00     0.076 C 
ATOM     16  C   UNL A   1      37.166  22.668  24.329  1.00  0.00     0.192 C 
ATOM     17  N   UNL A   1      37.662  21.353  24.767  1.00  0.00    -0.343 N 
ATOM     18  C   UNL A   1      36.537  20.579  25.292  1.00  0.00     0.261 C 
ATOM     19  H   UNL A   1      38.364  21.476  25.498  1.00  0.00     0.346 HD
ATOM     20  H   UNL A   1      38.086  20.860  23.980  1.00  0.00     0.346 HD
ATOM     21  C   UNL A   1      35.268  21.320  24.899  1.00  0.00     0.081 C 
ENDBRANCH   9  14
ENDBRANCH   5   8
ENDBRANCH   3   4
ENDBRANCH   2   3
ENDBRANCH   1   2
BRANCH   1  22
ATOM     22  N   UNL A   1      33.779  30.441  26.721  1.00  0.00    -0.352 N 
ATOM     23  C   UNL A   1      34.628  31.049  27.612  1.00  0.00     0.251 C 
ATOM     24  H   UNL A   1      33.056  31.015  26.379  1.00  0.00     0.163 HD
ATOM     25  O   UNL A   1      34.341  32.165  28.047  1.00  0.00    -0.269 OA
BRANCH  23  26
ATOM     26  C   UNL A   1      35.862  30.374  28.065  1.00  0.00     0.039 A 
ATOM     27  C   UNL A   1      36.997  30.420  27.249  1.00  0.00     0.014 A 
ATOM     28  C   UNL A   1      35.907  29.683  29.279  1.00  0.00     0.014 A 
ATOM     29  C   UNL A   1      38.190  29.837  27.682  1.00  0.00     0.010 A 
ATOM     30  C   UNL A   1      37.118  29.182  29.749  1.00  0.00     0.010 A 
ATOM     31  C   UNL A   1      38.272  29.247  28.955  1.00  0.00    -0.014 A 
BRANCH  31  32
ATOM     32  C   UNL A   1      39.558  28.717  29.479  1.00  0.00     0.031 A 
ATOM     33  C   UNL A   1      40.279  29.424  30.596  1.00  0.00     0.074 A 
ATOM     34  C   UNL A   1      40.124  27.644  28.889  1.00  0.00     0.049 A 
ATOM     35  N   UNL A   1      41.434  29.140  31.140  1.00  0.00    -0.248 NA
ATOM     36  C   UNL A   1      39.632  30.622  31.155  1.00  0.00     0.031 C 
ATOM     37  C   UNL A   1      39.566  26.917  27.746  1.00  0.00     0.029 A 
ATOM     38  N   UNL A   1      41.306  26.996  29.149  1.00  0.00    -0.354 N 
ATOM     39  C   UNL A   1      41.670  30.141  32.075  1.00  0.00     0.074 A 
ATOM     40  C   UNL A   1      40.555  31.059  31.999  1.00  0.00     0.031 C 
ATOM     41  C   UNL A   1      40.401  25.922  27.409  1.00  0.00     0.029 A 
ATOM     42  C   UNL A   1      41.570  25.961  28.282  1.00  0.00     0.049 A 
ATOM     43  H   UNL A   1      41.909  27.250  29.885  1.00  0.00     0.167 HD
ATOM     44  C   UNL A   1      42.707  30.272  32.938  1.00  0.00     0.034 A 
ATOM     45  C   UNL A   1      42.636  25.143  28.190  1.00  0.00     0.034 A 
ATOM     46  C   UNL A   1      43.798  29.339  33.034  1.00  0.00     0.049 A 
ATOM     47  C   UNL A   1      43.760  25.290  29.177  1.00  0.00     0.074 A 
ATOM     48  C   UNL A   1      44.847  29.334  33.935  1.00  0.00     0.029 A 
ATOM     49  N   UNL A   1      43.991  28.257  32.189  1.00  0.00    -0.354 N 
ATOM     50  N   UNL A   1      43.888  26.149  30.159  1.00  0.00    -0.248 NA
ATOM     51  C   UNL A   1      44.871  24.333  29.068  1.00  0.00     0.031 C 
ATOM     52  C   UNL A   1      45.696  28.270  33.612  1.00  0.00     0.029 A 
ATOM     53  C   UNL A   1      45.152  27.586  32.537  1.00  0.00     0.049 A 
ATOM     54  H   UNL A   1      43.392  28.003  31.450  1.00  0.00     0.167 HD
ATOM     55  C   UNL A   1      45.071  25.814  30.808  1.00  0.00     0.074 A 
ATOM     56  C   UNL A   1      45.613  24.661  30.117  1.00  0.00     0.031 C 
ATOM     57  C   UNL A   1      45.660  26.413  31.872  1.00  0.00     0.034 A 
BRANCH  44  58
ATOM     58  C   UNL A   1      42.693  31.452  33.877  1.00  0.00     0.023 A 
ATOM     59  C   UNL A   1      43.271  32.674  33.475  1.00  0.00     0.012 A 
ATOM     60  C   UNL A   1      42.065  31.368  35.135  1.00  0.00     0.148 A 
ATOM     61  C   UNL A   1      43.261  33.780  34.324  1.00  0.00     0.002 A 
ATOM     62  C   UNL A   1      42.015  32.489  35.956  1.00  0.00     0.091 A 
ATOM     63  F   UNL A   1      41.538  30.194  35.510  1.00  0.00    -0.205 F 
ATOM     64  C   UNL A   1      42.625  33.690  35.559  1.00  0.00     0.022 A 
BRANCH  62  65
ATOM     65  S   UNL A   1      41.147  32.500  37.528  1.00  0.00     0.127 S 
ATOM     66  O   UNL A   1      39.836  31.980  37.144  1.00  0.00    -0.237 OA
ATOM     67  O   UNL A   1      41.955  31.581  38.331  1.00  0.00    -0.237 OA
ATOM     68  O   UNL A   1      41.162  33.881  37.986  1.00  0.00    -0.744 OA
ENDBRANCH  62  65
ENDBRANCH  44  58
BRANCH  45  69
ATOM     69  C   UNL A   1      42.663  24.074  27.151  1.00  0.00     0.023 A 
ATOM     70  C   UNL A   1      43.381  24.283  25.957  1.00  0.00     0.012 A 
ATOM     71  C   UNL A   1      42.012  22.842  27.356  1.00  0.00     0.148 A 
ATOM     72  C   UNL A   1      43.424  23.296  24.973  1.00  0.00     0.002 A 
ATOM     73  C   UNL A   1      42.108  21.842  26.397  1.00  0.00     0.091 A 
ATOM     74  F   UNL A   1      41.329  22.667  28.495  1.00  0.00    -0.205 F 
ATOM     75  C   UNL A   1      42.797  22.073  25.196  1.00  0.00     0.022 A 
BRANCH  73  76
ATOM     76  S   UNL A   1      41.453  20.190  26.658  1.00  0.00     0.127 S 
ATOM     77  O   UNL A   1      40.018  20.449  26.753  1.00  0.00    -0.237 OA
ATOM     78  O   UNL A   1      41.877  19.503  25.438  1.00  0.00    -0.237 OA
ATOM     79  O   UNL A   1      42.089  19.700  27.874  1.00  0.00    -0.744 OA
ENDBRANCH  73  76
ENDBRANCH  45  69
BRANCH  57  80
ATOM     80  C   UNL A   1      46.938  25.813  32.397  1.00  0.00     0.023 A 
ATOM     81  C   UNL A   1      46.911  24.954  33.514  1.00  0.00     0.012 A 
ATOM     82  C   UNL A   1      48.160  26.045  31.734  1.00  0.00     0.148 A 
ATOM     83  C   UNL A   1      48.086  24.362  33.981  1.00  0.00     0.002 A 
ATOM     84  C   UNL A   1      49.316  25.411  32.172  1.00  0.00     0.091 A 
ATOM     85  F   UNL A   1      48.168  26.881  30.684  1.00  0.00    -0.205 F 
ATOM     86  C   UNL A   1      49.283  24.581  33.304  1.00  0.00     0.022 A 
BRANCH  84  87
ATOM     87  S   UNL A   1      50.882  25.552  31.305  1.00  0.00     0.127 S 
ATOM     88  O   UNL A   1      51.264  26.932  31.602  1.00  0.00    -0.237 OA
ATOM     89  O   UNL A   1      51.697  24.536  31.971  1.00  0.00    -0.237 OA
ATOM     90  O   UNL A   1      50.594  25.273  29.904  1.00  0.00    -0.744 OA
ENDBRANCH  84  87
ENDBRANCH  57  80
ENDBRANCH  31  32
ENDBRANCH  23  26
ENDBRANCH   1  22
TORSDOF 14
ENDMDL
MODEL 3
REMARK VINA RESULT:     -11.5      2.518      3.475
REMARK SMILES C[C@H]1[NH2+]CC[C@H]1C(=O)N1CC(C(=O)NCCCNC(=O)c2ccc(-c3c4nc(c(-c5cccc(S(=O)(=O)[O-])c5F)c5ccc([nH]5)c(-c5cccc(S(=O)(=O)[O-])c5F)c5nc(c(-c6cccc(S(=O)(=O)[O-])c6F)c6ccc3[nH]6)C=C5)C=C4)cc2)C1
REMARK SMILES IDX 17 1 16 2 15 3 14 4 12 5 13 6 11 8 7 9 8 10 9 11 10 12 84 13
REMARK SMILES IDX 6 14 1 15 2 16 3 17 4 18 5 21 18 22 19 23 20 25 21 26 22 27
REMARK SMILES IDX 83 28 23 29 82 30 24 31 25 32 26 33 76 34 27 35 81 36 75 37
REMARK SMILES IDX 77 38 28 39 80 40 74 41 73 42 29 44 61 45 41 46 60 47 42 48
REMARK SMILES IDX 45 49 59 50 78 51 43 52 44 53 58 55 79 56 46 57 30 58 31 59
REMARK SMILES IDX 39 60 32 61 34 62 40 63 33 64 35 65 36 66 37 67 38 68 62 69
REMARK SMILES IDX 63 70 71 71 64 72 66 73 72 74 65 75 67 76 68 77 69 78 70 79
REMARK SMILES IDX 47 80 48 81 56 82 49 83 51 84 57 85 50 86 52 87 53 88 54 89
REMARK SMILES IDX 55 90
REMARK H PARENT 14 7 3 19 3 20 18 24 77 43 45 54
REMARK Flexibility Score: inf
ROOT
ATOM      1  C   UNL A   1      34.088  28.491  26.079  1.00  0.00     0.118 C 
ENDROOT
BRANCH   1   2
ATOM      2  C   UNL A   1      33.078  27.525  26.688  1.00  0.00     0.042 C 
BRANCH   2   3
ATOM      3  C   UNL A   1      32.986  26.179  25.984  1.00  0.00     0.117 C 
BRANCH   3   4
ATOM      4  N   UNL A   1      32.016  25.285  26.592  1.00  0.00    -0.356 N 
ATOM      5  C   UNL A   1      32.035  23.925  26.787  1.00  0.00     0.226 C 
ATOM      6  O   UNL A   1      31.058  23.459  27.395  1.00  0.00    -0.275 OA
ATOM      7  H   UNL A   1      31.204  25.732  26.922  1.00  0.00     0.163 HD
BRANCH   5   8
ATOM      8  C   UNL A   1      33.170  23.030  26.285  1.00  0.00     0.117 C 
ATOM      9  C   UNL A   1      34.203  20.176  25.013  1.00  0.00     0.231 C 
ATOM     10  O   UNL A   1      35.344  20.513  24.696  1.00  0.00    -0.274 OA
ATOM     11  N   UNL A   1      33.270  21.094  25.458  1.00  0.00    -0.341 N 
ATOM     12  C   UNL A   1      33.174  22.454  24.880  1.00  0.00     0.134 C 
ATOM     13  C   UNL A   1      33.307  21.625  26.835  1.00  0.00     0.134 C 
BRANCH   9  14
ATOM     14  C   UNL A   1      33.726  18.739  24.857  1.00  0.00     0.142 C 
ATOM     15  C   UNL A   1      32.307  19.144  22.697  1.00  0.00     0.076 C 
ATOM     16  C   UNL A   1      32.462  18.456  24.047  1.00  0.00     0.192 C 
ATOM     17  N   UNL A   1      32.526  16.997  23.862  1.00  0.00    -0.343 N 
ATOM     18  C   UNL A   1      33.931  16.592  23.805  1.00  0.00     0.261 C 
ATOM     19  H   UNL A   1      32.060  16.740  22.991  1.00  0.00     0.346 HD
ATOM     20  H   UNL A   1      32.059  16.526  24.638  1.00  0.00     0.346 HD
ATOM     21  C   UNL A   1      34.754  17.788  24.261  1.00  0.00     0.081 C 
ENDBRANCH   9  14
ENDBRANCH   5   8
ENDBRANCH   3   4
ENDBRANCH   2   3
ENDBRANCH   1   2
BRANCH   1  22
ATOM     22  N   UNL A   1      33.843  29.880  26.452  1.00  0.00    -0.352 N 
ATOM     23  C   UNL A   1      34.498  30.686  27.349  1.00  0.00     0.251 C 
ATOM     24  H   UNL A   1      33.087  30.305  25.987  1.00  0.00     0.163 HD
ATOM     25  O   UNL A   1      34.012  31.781  27.637  1.00  0.00    -0.269 OA
BRANCH  23  26
ATOM     26  C   UNL A   1      35.760  30.249  27.981  1.00  0.00     0.039 A 
ATOM     27  C   UNL A   1      35.716  29.678  29.257  1.00  0.00     0.014 A 
ATOM     28  C   UNL A   1      36.989  30.414  27.336  1.00  0.00     0.014 A 
ATOM     29  C   UNL A   1      36.890  29.208  29.850  1.00  0.00     0.010 A 
ATOM     30  C   UNL A   1      38.143  29.865  27.889  1.00  0.00     0.010 A 
ATOM     31  C   UNL A   1      38.109  29.260  29.153  1.00  0.00    -0.014 A 
BRANCH  31  32
ATOM     32  C   UNL A   1      39.350  28.670  29.721  1.00  0.00     0.031 A 
ATOM     33  C   UNL A   1      39.994  29.272  30.941  1.00  0.00     0.074 A 
ATOM     34  C   UNL A   1      39.948  27.643  29.085  1.00  0.00     0.049 A 
ATOM     35  N   UNL A   1      41.104  28.928  31.541  1.00  0.00    -0.248 NA
ATOM     36  C   UNL A   1      39.318  30.429  31.552  1.00  0.00     0.031 C 
ATOM     37  C   UNL A   1      39.469  27.021  27.848  1.00  0.00     0.029 A 
ATOM     38  N   UNL A   1      41.104  26.960  29.372  1.00  0.00    -0.354 N 
ATOM     39  C   UNL A   1      41.281  29.845  32.570  1.00  0.00     0.074 A 
ATOM     40  C   UNL A   1      40.181  30.781  32.493  1.00  0.00     0.031 C 
ATOM     41  C   UNL A   1      40.318  26.046  27.488  1.00  0.00     0.029 A 
ATOM     42  C   UNL A   1      41.421  25.997  28.443  1.00  0.00     0.049 A 
ATOM     43  H   UNL A   1      41.654  27.143  30.168  1.00  0.00     0.167 HD
ATOM     44  C   UNL A   1      42.253  29.890  33.513  1.00  0.00     0.034 A 
ATOM     45  C   UNL A   1      42.485  25.175  28.358  1.00  0.00     0.034 A 
ATOM     46  C   UNL A   1      43.328  28.937  33.607  1.00  0.00     0.049 A 
ATOM     47  C   UNL A   1      43.537  25.223  29.431  1.00  0.00     0.074 A 
ATOM     48  C   UNL A   1      44.309  28.843  34.577  1.00  0.00     0.029 A 
ATOM     49  N   UNL A   1      43.573  27.926  32.690  1.00  0.00    -0.354 N 
ATOM     50  N   UNL A   1      43.600  25.996  30.488  1.00  0.00    -0.248 NA
ATOM     51  C   UNL A   1      44.645  24.264  29.322  1.00  0.00     0.031 C 
ATOM     52  C   UNL A   1      45.171  27.797  34.227  1.00  0.00     0.029 A 
ATOM     53  C   UNL A   1      44.700  27.213  33.062  1.00  0.00     0.049 A 
ATOM     54  H   UNL A   1      43.027  27.743  31.892  1.00  0.00     0.167 HD
ATOM     55  C   UNL A   1      44.730  25.592  31.189  1.00  0.00     0.074 A 
ATOM     56  C   UNL A   1      45.312  24.494  30.445  1.00  0.00     0.031 C 
ATOM     57  C   UNL A   1      45.246  26.092  32.339  1.00  0.00     0.034 A 
BRANCH  44  58
ATOM     58  C   UNL A   1      42.181  30.987  34.544  1.00  0.00     0.023 A 
ATOM     59  C   UNL A   1      41.504  30.762  35.761  1.00  0.00     0.012 A 
ATOM     60  C   UNL A   1      42.824  32.223  34.332  1.00  0.00     0.148 A 
ATOM     61  C   UNL A   1      41.432  31.760  36.731  1.00  0.00     0.002 A 
ATOM     62  C   UNL A   1      42.791  33.195  35.325  1.00  0.00     0.091 A 
ATOM     63  F   UNL A   1      43.446  32.428  33.163  1.00  0.00    -0.205 F 
ATOM     64  C   UNL A   1      42.084  32.972  36.517  1.00  0.00     0.022 A 
BRANCH  62  65
ATOM     65  S   UNL A   1      43.669  34.756  35.181  1.00  0.00     0.127 S 
ATOM     66  O   UNL A   1      45.047  34.303  35.003  1.00  0.00    -0.237 OA
ATOM     67  O   UNL A   1      43.060  35.340  33.986  1.00  0.00    -0.237 OA
ATOM     68  O   UNL A   1      43.404  35.481  36.415  1.00  0.00    -0.744 OA
ENDBRANCH  62  65
ENDBRANCH  44  58
BRANCH  45  69
ATOM     69  C   UNL A   1      42.579  24.196  27.237  1.00  0.00     0.023 A 
ATOM     70  C   UNL A   1      43.278  24.545  26.066  1.00  0.00     0.012 A 
ATOM     71  C   UNL A   1      42.010  22.911  27.342  1.00  0.00     0.148 A 
ATOM     72  C   UNL A   1      43.382  23.645  25.006  1.00  0.00     0.002 A 
ATOM     73  C   UNL A   1      42.168  21.999  26.307  1.00  0.00     0.091 A 
ATOM     74  F   UNL A   1      41.343  22.603  28.463  1.00  0.00    -0.205 F 
ATOM     75  C   UNL A   1      42.837  22.369  25.130  1.00  0.00     0.022 A 
BRANCH  73  76
ATOM     76  S   UNL A   1      41.623  20.293  26.435  1.00  0.00     0.127 S 
ATOM     77  O   UNL A   1      42.112  19.920  27.760  1.00  0.00    -0.237 OA
ATOM     78  O   UNL A   1      40.170  20.433  26.331  1.00  0.00    -0.237 OA
ATOM     79  O   UNL A   1      42.240  19.595  25.314  1.00  0.00    -0.744 OA
ENDBRANCH  73  76
ENDBRANCH  45  69
BRANCH  57  80
ATOM     80  C   UNL A   1      46.479  25.433  32.901  1.00  0.00     0.023 A 
ATOM     81  C   UNL A   1      47.756  25.940  32.589  1.00  0.00     0.012 A 
ATOM     82  C   UNL A   1      46.364  24.353  33.799  1.00  0.00     0.148 A 
ATOM     83  C   UNL A   1      48.901  25.360  33.137  1.00  0.00     0.002 A 
ATOM     84  C   UNL A   1      47.505  23.815  34.382  1.00  0.00     0.091 A 
ATOM     85  F   UNL A   1      45.141  23.874  34.069  1.00  0.00    -0.205 F 
ATOM     86  C   UNL A   1      48.775  24.308  34.041  1.00  0.00     0.022 A 
BRANCH  84  87
ATOM     87  S   UNL A   1      47.434  22.528  35.632  1.00  0.00     0.127 S 
ATOM     88  O   UNL A   1      46.590  23.148  36.651  1.00  0.00    -0.237 OA
ATOM     89  O   UNL A   1      46.802  21.426  34.904  1.00  0.00    -0.237 OA
ATOM     90  O   UNL A   1      48.812  22.277  36.031  1.00  0.00    -0.744 OA
ENDBRANCH  84  87
ENDBRANCH  57  80
ENDBRANCH  31  32
ENDBRANCH  23  26
ENDBRANCH   1  22
TORSDOF 14
ENDMDL
