MODEL 1
REMARK VINA RESULT:     -10.2      0.000      0.000
REMARK SMILES COc1cc(OC)cc(-c2ccc([C@@H](C)C(=O)NCCCNC(=O)c3ccc(-c4c5nc(c(-c6cccc(S(=O)(=O)[O-])c6F)c6ccc([nH]6)c(-c6cccc(S(=O)(=O)[O-])c6F)c6nc(c(-c7cccc(S(=O)(=O)[O-])c7F)c7ccc4[nH]7)C=C6)C=C5)cc3)cc2F)c1
REMARK SMILES IDX 20 1 19 2 18 3 16 4 17 5 14 7 15 8 13 9 10 10 11 11 89 12
REMARK SMILES IDX 12 13 88 14 90 15 9 16 3 17 4 18 91 19 5 20 8 21 2 22 1 23
REMARK SMILES IDX 6 24 7 25 21 26 22 27 23 28 24 30 25 31 26 32 87 33 27 34
REMARK SMILES IDX 86 35 28 36 29 37 30 38 80 39 31 40 85 41 79 42 81 43 32 44
REMARK SMILES IDX 84 45 78 46 77 47 33 49 65 50 45 51 64 52 46 53 49 54 63 55
REMARK SMILES IDX 82 56 47 57 48 58 62 60 83 61 50 62 34 63 35 64 43 65 36 66
REMARK SMILES IDX 38 67 44 68 37 69 39 70 40 71 41 72 42 73 66 74 67 75 75 76
REMARK SMILES IDX 68 77 70 78 76 79 69 80 71 81 72 82 73 83 74 84 51 85 52 86
REMARK SMILES IDX 60 87 53 88 55 89 61 90 54 91 56 92 57 93 58 94 59 95
REMARK H PARENT 18 6 22 29 81 48 49 59
REMARK Flexibility Score: inf
ROOT
ATOM      1  C   UNL A   1      42.097  20.534  26.824  1.00  0.00     0.042 C 
ENDROOT
BRANCH   1   2
ATOM      2  C   UNL A   1      42.777  21.197  25.629  1.00  0.00     0.117 C 
BRANCH   2   3
ATOM      3  N   UNL A   1      44.188  20.876  25.537  1.00  0.00    -0.356 N 
ATOM      4  C   UNL A   1      45.302  21.655  25.489  1.00  0.00     0.227 C 
ATOM      5  O   UNL A   1      46.382  21.056  25.396  1.00  0.00    -0.274 OA
ATOM      6  H   UNL A   1      44.375  19.911  25.503  1.00  0.00     0.163 HD
BRANCH   4   7
ATOM      7  C   UNL A   1      45.289  23.190  25.555  1.00  0.00     0.105 C 
ATOM      8  C   UNL A   1      46.406  23.868  24.762  1.00  0.00     0.023 C 
BRANCH   7   9
ATOM      9  C   UNL A   1      45.057  23.729  26.955  1.00  0.00    -0.033 A 
ATOM     10  C   UNL A   1      44.583  24.567  29.648  1.00  0.00     0.018 A 
ATOM     11  C   UNL A   1      45.862  24.623  29.069  1.00  0.00     0.012 A 
ATOM     12  C   UNL A   1      43.546  24.097  28.834  1.00  0.00     0.131 A 
ATOM     13  C   UNL A   1      46.084  24.258  27.738  1.00  0.00     0.005 A 
ATOM     14  C   UNL A   1      43.775  23.668  27.523  1.00  0.00     0.044 A 
ATOM     15  F   UNL A   1      42.283  24.061  29.287  1.00  0.00    -0.206 F 
BRANCH  10  16
ATOM     16  C   UNL A   1      44.376  25.036  31.034  1.00  0.00    -0.008 A 
ATOM     17  C   UNL A   1      44.318  24.676  33.446  1.00  0.00     0.123 A 
ATOM     18  C   UNL A   1      43.949  26.007  33.640  1.00  0.00     0.092 A 
ATOM     19  C   UNL A   1      44.528  24.194  32.150  1.00  0.00     0.055 A 
ATOM     20  C   UNL A   1      43.782  26.862  32.554  1.00  0.00     0.123 A 
ATOM     21  C   UNL A   1      43.997  26.374  31.267  1.00  0.00     0.055 A 
BRANCH  17  22
ATOM     22  O   UNL A   1      44.357  23.899  34.573  1.00  0.00    -0.497 OA
ATOM     23  C   UNL A   1      43.088  23.556  35.114  1.00  0.00     0.278 C 
ENDBRANCH  17  22
BRANCH  20  24
ATOM     24  O   UNL A   1      43.362  28.127  32.857  1.00  0.00    -0.497 OA
ATOM     25  C   UNL A   1      43.802  29.178  32.009  1.00  0.00     0.278 C 
ENDBRANCH  20  24
ENDBRANCH  10  16
ENDBRANCH   7   9
ENDBRANCH   4   7
ENDBRANCH   2   3
ENDBRANCH   1   2
BRANCH   1  26
ATOM     26  C   UNL A   1      41.006  21.381  27.468  1.00  0.00     0.118 C 
BRANCH  26  27
ATOM     27  N   UNL A   1      39.827  21.499  26.619  1.00  0.00    -0.352 N 
ATOM     28  C   UNL A   1      39.016  22.576  26.358  1.00  0.00     0.251 C 
ATOM     29  H   UNL A   1      39.569  20.669  26.158  1.00  0.00     0.163 HD
ATOM     30  O   UNL A   1      37.947  22.386  25.783  1.00  0.00    -0.269 OA
BRANCH  28  31
ATOM     31  C   UNL A   1      39.403  23.948  26.761  1.00  0.00     0.039 A 
ATOM     32  C   UNL A   1      39.109  24.377  28.060  1.00  0.00     0.014 A 
ATOM     33  C   UNL A   1      40.004  24.833  25.862  1.00  0.00     0.014 A 
ATOM     34  C   UNL A   1      39.466  25.665  28.469  1.00  0.00     0.010 A 
ATOM     35  C   UNL A   1      40.438  26.084  26.296  1.00  0.00     0.010 A 
ATOM     36  C   UNL A   1      40.165  26.519  27.600  1.00  0.00    -0.014 A 
BRANCH  36  37
ATOM     37  C   UNL A   1      40.622  27.864  28.038  1.00  0.00     0.031 A 
ATOM     38  C   UNL A   1      42.089  28.205  28.052  1.00  0.00     0.074 A 
ATOM     39  C   UNL A   1      39.721  28.751  28.506  1.00  0.00     0.049 A 
ATOM     40  N   UNL A   1      42.677  29.299  28.462  1.00  0.00    -0.248 NA
ATOM     41  C   UNL A   1      43.020  27.172  27.568  1.00  0.00     0.031 C 
ATOM     42  C   UNL A   1      38.280  28.513  28.618  1.00  0.00     0.029 A 
ATOM     43  N   UNL A   1      39.886  30.020  29.003  1.00  0.00    -0.354 N 
ATOM     44  C   UNL A   1      44.042  29.074  28.322  1.00  0.00     0.074 A 
ATOM     45  C   UNL A   1      44.198  27.727  27.820  1.00  0.00     0.031 C 
ATOM     46  C   UNL A   1      37.693  29.601  29.143  1.00  0.00     0.029 A 
ATOM     47  C   UNL A   1      38.716  30.599  29.438  1.00  0.00     0.049 A 
ATOM     48  H   UNL A   1      40.759  30.474  29.043  1.00  0.00     0.167 HD
ATOM     49  C   UNL A   1      45.073  29.920  28.564  1.00  0.00     0.034 A 
ATOM     50  C   UNL A   1      38.492  31.793  30.021  1.00  0.00     0.034 A 
ATOM     51  C   UNL A   1      44.912  31.275  29.021  1.00  0.00     0.049 A 
ATOM     52  C   UNL A   1      39.652  32.724  30.250  1.00  0.00     0.074 A 
ATOM     53  C   UNL A   1      45.886  32.241  29.204  1.00  0.00     0.029 A 
ATOM     54  N   UNL A   1      43.703  31.852  29.375  1.00  0.00    -0.354 N 
ATOM     55  N   UNL A   1      40.918  32.551  29.959  1.00  0.00    -0.248 NA
ATOM     56  C   UNL A   1      39.346  34.029  30.854  1.00  0.00     0.031 C 
ATOM     57  C   UNL A   1      45.268  33.395  29.697  1.00  0.00     0.029 A 
ATOM     58  C   UNL A   1      43.906  33.157  29.791  1.00  0.00     0.049 A 
ATOM     59  H   UNL A   1      42.828  31.401  29.339  1.00  0.00     0.167 HD
ATOM     60  C   UNL A   1      41.554  33.735  30.313  1.00  0.00     0.074 A 
ATOM     61  C   UNL A   1      40.530  34.626  30.816  1.00  0.00     0.031 C 
ATOM     62  C   UNL A   1      42.870  34.052  30.241  1.00  0.00     0.034 A 
BRANCH  49  63
ATOM     63  C   UNL A   1      46.469  29.425  28.289  1.00  0.00     0.023 A 
ATOM     64  C   UNL A   1      47.104  29.768  27.077  1.00  0.00     0.012 A 
ATOM     65  C   UNL A   1      47.178  28.680  29.253  1.00  0.00     0.148 A 
ATOM     66  C   UNL A   1      48.407  29.349  26.813  1.00  0.00     0.002 A 
ATOM     67  C   UNL A   1      48.493  28.305  29.001  1.00  0.00     0.091 A 
ATOM     68  F   UNL A   1      46.553  28.347  30.391  1.00  0.00    -0.205 F 
ATOM     69  C   UNL A   1      49.105  28.628  27.778  1.00  0.00     0.022 A 
BRANCH  67  70
ATOM     70  S   UNL A   1      49.506  27.444  30.210  1.00  0.00     0.127 S 
ATOM     71  O   UNL A   1      48.755  26.203  30.392  1.00  0.00    -0.237 OA
ATOM     72  O   UNL A   1      50.773  27.292  29.495  1.00  0.00    -0.237 OA
ATOM     73  O   UNL A   1      49.566  28.314  31.377  1.00  0.00    -0.744 OA
ENDBRANCH  67  70
ENDBRANCH  49  63
BRANCH  50  74
ATOM     74  C   UNL A   1      37.105  32.199  30.384  1.00  0.00     0.023 A 
ATOM     75  C   UNL A   1      36.635  31.969  31.692  1.00  0.00     0.012 A 
ATOM     76  C   UNL A   1      36.261  32.828  29.451  1.00  0.00     0.148 A 
ATOM     77  C   UNL A   1      35.336  32.325  32.053  1.00  0.00     0.002 A 
ATOM     78  C   UNL A   1      34.989  33.234  29.836  1.00  0.00     0.091 A 
ATOM     79  F   UNL A   1      36.726  33.030  28.210  1.00  0.00    -0.205 F 
ATOM     80  C   UNL A   1      34.515  32.966  31.129  1.00  0.00     0.022 A 
BRANCH  78  81
ATOM     81  S   UNL A   1      33.915  34.193  28.761  1.00  0.00     0.127 S 
ATOM     82  O   UNL A   1      34.800  35.276  28.345  1.00  0.00    -0.237 OA
ATOM     83  O   UNL A   1      33.596  33.216  27.719  1.00  0.00    -0.237 OA
ATOM     84  O   UNL A   1      32.786  34.583  29.596  1.00  0.00    -0.744 OA
ENDBRANCH  78  81
ENDBRANCH  50  74
BRANCH  62  85
ATOM     85  C   UNL A   1      43.282  35.432  30.680  1.00  0.00     0.023 A 
ATOM     86  C   UNL A   1      43.714  35.648  32.004  1.00  0.00     0.012 A 
ATOM     87  C   UNL A   1      43.309  36.499  29.760  1.00  0.00     0.148 A 
ATOM     88  C   UNL A   1      44.134  36.912  32.414  1.00  0.00     0.002 A 
ATOM     89  C   UNL A   1      43.779  37.744  30.162  1.00  0.00     0.091 A 
ATOM     90  F   UNL A   1      42.878  36.277  28.510  1.00  0.00    -0.205 F 
ATOM     91  C   UNL A   1      44.178  37.956  31.492  1.00  0.00     0.022 A 
BRANCH  89  92
ATOM     92  S   UNL A   1      43.963  39.118  29.022  1.00  0.00     0.127 S 
ATOM     93  O   UNL A   1      44.843  38.544  28.003  1.00  0.00    -0.237 OA
ATOM     94  O   UNL A   1      42.586  39.343  28.582  1.00  0.00    -0.237 OA
ATOM     95  O   UNL A   1      44.536  40.211  29.796  1.00  0.00    -0.744 OA
ENDBRANCH  89  92
ENDBRANCH  62  85
ENDBRANCH  36  37
ENDBRANCH  28  31
ENDBRANCH  26  27
ENDBRANCH   1  26
TORSDOF 17
ENDMDL
MODEL 2
REMARK VINA RESULT:     -10.1      5.440     10.574
REMARK SMILES COc1cc(OC)cc(-c2ccc([C@@H](C)C(=O)NCCCNC(=O)c3ccc(-c4c5nc(c(-c6cccc(S(=O)(=O)[O-])c6F)c6ccc([nH]6)c(-c6cccc(S(=O)(=O)[O-])c6F)c6nc(c(-c7cccc(S(=O)(=O)[O-])c7F)c7ccc4[nH]7)C=C6)C=C5)cc3)cc2F)c1
REMARK SMILES IDX 20 1 19 2 18 3 16 4 17 5 14 7 15 8 13 9 10 10 11 11 89 12
REMARK SMILES IDX 12 13 88 14 90 15 9 16 3 17 4 18 91 19 5 20 8 21 2 22 1 23
REMARK SMILES IDX 6 24 7 25 21 26 22 27 23 28 24 30 25 31 26 32 87 33 27 34
REMARK SMILES IDX 86 35 28 36 29 37 30 38 80 39 31 40 85 41 79 42 81 43 32 44
REMARK SMILES IDX 84 45 78 46 77 47 33 49 65 50 45 51 64 52 46 53 49 54 63 55
REMARK SMILES IDX 82 56 47 57 48 58 62 60 83 61 50 62 34 63 35 64 43 65 36 66
REMARK SMILES IDX 38 67 44 68 37 69 39 70 40 71 41 72 42 73 66 74 67 75 75 76
REMARK SMILES IDX 68 77 70 78 76 79 69 80 71 81 72 82 73 83 74 84 51 85 52 86
REMARK SMILES IDX 60 87 53 88 55 89 61 90 54 91 56 92 57 93 58 94 59 95
REMARK H PARENT 18 6 22 29 81 48 49 59
REMARK Flexibility Score: inf
ROOT
ATOM      1  C   UNL A   1      31.076  31.847  25.764  1.00  0.00     0.042 C 
ENDROOT
BRANCH   1   2
ATOM      2  C   UNL A   1      30.876  30.365  25.453  1.00  0.00     0.117 C 
BRANCH   2   3
ATOM      3  N   UNL A   1      31.918  29.825  24.602  1.00  0.00    -0.356 N 
ATOM      4  C   UNL A   1      32.853  28.857  24.802  1.00  0.00     0.227 C 
ATOM      5  O   UNL A   1      33.623  28.639  23.857  1.00  0.00    -0.274 OA
ATOM      6  H   UNL A   1      31.958  30.238  23.710  1.00  0.00     0.163 HD
BRANCH   4   7
ATOM      7  C   UNL A   1      32.988  28.038  26.095  1.00  0.00     0.105 C 
ATOM      8  C   UNL A   1      33.875  28.679  27.161  1.00  0.00     0.023 C 
BRANCH   7   9
ATOM      9  C   UNL A   1      33.222  26.558  25.848  1.00  0.00    -0.033 A 
ATOM     10  C   UNL A   1      33.788  23.773  25.527  1.00  0.00     0.018 A 
ATOM     11  C   UNL A   1      32.544  24.227  25.996  1.00  0.00     0.012 A 
ATOM     12  C   UNL A   1      34.734  24.755  25.207  1.00  0.00     0.131 A 
ATOM     13  C   UNL A   1      32.251  25.590  26.108  1.00  0.00     0.005 A 
ATOM     14  C   UNL A   1      34.469  26.117  25.381  1.00  0.00     0.044 A 
ATOM     15  F   UNL A   1      35.930  24.414  24.701  1.00  0.00    -0.206 F 
BRANCH  10  16
ATOM     16  C   UNL A   1      34.030  22.327  25.349  1.00  0.00    -0.008 A 
ATOM     17  C   UNL A   1      35.508  20.406  25.070  1.00  0.00     0.123 A 
ATOM     18  C   UNL A   1      34.402  19.561  24.998  1.00  0.00     0.092 A 
ATOM     19  C   UNL A   1      35.322  21.782  25.242  1.00  0.00     0.055 A 
ATOM     20  C   UNL A   1      33.110  20.072  25.090  1.00  0.00     0.123 A 
ATOM     21  C   UNL A   1      32.935  21.443  25.266  1.00  0.00     0.055 A 
BRANCH  17  22
ATOM     22  O   UNL A   1      36.725  19.812  24.868  1.00  0.00    -0.497 OA
ATOM     23  C   UNL A   1      37.848  20.673  25.012  1.00  0.00     0.278 C 
ENDBRANCH  17  22
BRANCH  20  24
ATOM     24  O   UNL A   1      32.101  19.161  24.947  1.00  0.00    -0.497 OA
ATOM     25  C   UNL A   1      32.448  17.787  25.050  1.00  0.00     0.278 C 
ENDBRANCH  20  24
ENDBRANCH  10  16
ENDBRANCH   7   9
ENDBRANCH   4   7
ENDBRANCH   2   3
ENDBRANCH   1   2
BRANCH   1  26
ATOM     26  C   UNL A   1      32.071  32.118  26.885  1.00  0.00     0.118 C 
BRANCH  26  27
ATOM     27  N   UNL A   1      32.162  33.535  27.210  1.00  0.00    -0.352 N 
ATOM     28  C   UNL A   1      32.984  34.202  28.086  1.00  0.00     0.251 C 
ATOM     29  H   UNL A   1      31.530  34.110  26.722  1.00  0.00     0.163 HD
ATOM     30  O   UNL A   1      32.731  35.373  28.360  1.00  0.00    -0.269 OA
BRANCH  28  31
ATOM     31  C   UNL A   1      34.153  33.536  28.705  1.00  0.00     0.039 A 
ATOM     32  C   UNL A   1      35.420  34.108  28.541  1.00  0.00     0.014 A 
ATOM     33  C   UNL A   1      34.026  32.330  29.399  1.00  0.00     0.014 A 
ATOM     34  C   UNL A   1      36.540  33.504  29.118  1.00  0.00     0.010 A 
ATOM     35  C   UNL A   1      35.129  31.777  30.046  1.00  0.00     0.010 A 
ATOM     36  C   UNL A   1      36.400  32.350  29.904  1.00  0.00    -0.014 A 
BRANCH  36  37
ATOM     37  C   UNL A   1      37.566  31.733  30.590  1.00  0.00     0.031 A 
ATOM     38  C   UNL A   1      38.389  30.679  29.896  1.00  0.00     0.074 A 
ATOM     39  C   UNL A   1      37.832  32.058  31.870  1.00  0.00     0.049 A 
ATOM     40  N   UNL A   1      39.398  29.985  30.356  1.00  0.00    -0.248 NA
ATOM     41  C   UNL A   1      38.015  30.341  28.512  1.00  0.00     0.031 C 
ATOM     42  C   UNL A   1      37.061  33.005  32.679  1.00  0.00     0.029 A 
ATOM     43  N   UNL A   1      38.805  31.607  32.727  1.00  0.00    -0.354 N 
ATOM     44  C   UNL A   1      39.752  29.106  29.339  1.00  0.00     0.074 A 
ATOM     45  C   UNL A   1      38.831  29.331  28.248  1.00  0.00     0.031 C 
ATOM     46  C   UNL A   1      37.594  33.070  33.910  1.00  0.00     0.029 A 
ATOM     47  C   UNL A   1      38.719  32.145  33.991  1.00  0.00     0.049 A 
ATOM     48  H   UNL A   1      39.499  30.961  32.462  1.00  0.00     0.167 HD
ATOM     49  C   UNL A   1      40.769  28.210  29.306  1.00  0.00     0.034 A 
ATOM     50  C   UNL A   1      39.455  31.909  35.096  1.00  0.00     0.034 A 
ATOM     51  C   UNL A   1      41.711  28.021  30.376  1.00  0.00     0.049 A 
ATOM     52  C   UNL A   1      40.597  30.933  35.020  1.00  0.00     0.074 A 
ATOM     53  C   UNL A   1      42.831  27.208  30.401  1.00  0.00     0.029 A 
ATOM     54  N   UNL A   1      41.639  28.642  31.613  1.00  0.00    -0.354 N 
ATOM     55  N   UNL A   1      41.014  30.230  33.995  1.00  0.00    -0.248 NA
ATOM     56  C   UNL A   1      41.390  30.743  36.243  1.00  0.00     0.031 C 
ATOM     57  C   UNL A   1      43.421  27.318  31.665  1.00  0.00     0.029 A 
ATOM     58  C   UNL A   1      42.686  28.222  32.415  1.00  0.00     0.049 A 
ATOM     59  H   UNL A   1      40.946  29.287  31.882  1.00  0.00     0.167 HD
ATOM     60  C   UNL A   1      42.137  29.541  34.439  1.00  0.00     0.074 A 
ATOM     61  C   UNL A   1      42.349  29.931  35.817  1.00  0.00     0.031 C 
ATOM     62  C   UNL A   1      42.916  28.656  33.769  1.00  0.00     0.034 A 
BRANCH  49  63
ATOM     63  C   UNL A   1      40.951  27.401  28.048  1.00  0.00     0.023 A 
ATOM     64  C   UNL A   1      41.611  27.973  26.940  1.00  0.00     0.012 A 
ATOM     65  C   UNL A   1      40.535  26.056  27.983  1.00  0.00     0.148 A 
ATOM     66  C   UNL A   1      41.820  27.234  25.777  1.00  0.00     0.002 A 
ATOM     67  C   UNL A   1      40.788  25.312  26.836  1.00  0.00     0.091 A 
ATOM     68  F   UNL A   1      39.893  25.534  29.039  1.00  0.00    -0.205 F 
ATOM     69  C   UNL A   1      41.419  25.902  25.729  1.00  0.00     0.022 A 
BRANCH  67  70
ATOM     70  S   UNL A   1      40.384  23.566  26.703  1.00  0.00     0.127 S 
ATOM     71  O   UNL A   1      39.017  23.619  26.187  1.00  0.00    -0.237 OA
ATOM     72  O   UNL A   1      41.382  23.093  25.743  1.00  0.00    -0.237 OA
ATOM     73  O   UNL A   1      40.524  23.017  28.045  1.00  0.00    -0.744 OA
ENDBRANCH  67  70
ENDBRANCH  49  63
BRANCH  50  74
ATOM     74  C   UNL A   1      39.168  32.650  36.356  1.00  0.00     0.023 A 
ATOM     75  C   UNL A   1      39.747  33.918  36.563  1.00  0.00     0.012 A 
ATOM     76  C   UNL A   1      38.312  32.118  37.338  1.00  0.00     0.148 A 
ATOM     77  C   UNL A   1      39.508  34.626  37.740  1.00  0.00     0.002 A 
ATOM     78  C   UNL A   1      38.030  32.855  38.481  1.00  0.00     0.091 A 
ATOM     79  F   UNL A   1      37.779  30.906  37.124  1.00  0.00    -0.205 F 
ATOM     80  C   UNL A   1      38.642  34.100  38.695  1.00  0.00     0.022 A 
BRANCH  78  81
ATOM     81  S   UNL A   1      36.820  32.326  39.698  1.00  0.00     0.127 S 
ATOM     82  O   UNL A   1      37.283  30.977  40.010  1.00  0.00    -0.237 OA
ATOM     83  O   UNL A   1      37.020  33.313  40.759  1.00  0.00    -0.237 OA
ATOM     84  O   UNL A   1      35.532  32.412  39.021  1.00  0.00    -0.744 OA
ENDBRANCH  78  81
ENDBRANCH  50  74
BRANCH  62  85
ATOM     85  C   UNL A   1      44.095  28.071  34.501  1.00  0.00     0.023 A 
ATOM     86  C   UNL A   1      45.315  28.775  34.545  1.00  0.00     0.012 A 
ATOM     87  C   UNL A   1      43.969  26.858  35.207  1.00  0.00     0.148 A 
ATOM     88  C   UNL A   1      46.402  28.263  35.251  1.00  0.00     0.002 A 
ATOM     89  C   UNL A   1      45.041  26.380  35.951  1.00  0.00     0.091 A 
ATOM     90  F   UNL A   1      42.806  26.195  35.138  1.00  0.00    -0.205 F 
ATOM     91  C   UNL A   1      46.262  27.074  35.963  1.00  0.00     0.022 A 
BRANCH  89  92
ATOM     92  S   UNL A   1      44.923  24.911  36.977  1.00  0.00     0.127 S 
ATOM     93  O   UNL A   1      43.717  25.189  37.757  1.00  0.00    -0.237 OA
ATOM     94  O   UNL A   1      44.775  23.849  35.982  1.00  0.00    -0.237 OA
ATOM     95  O   UNL A   1      46.161  24.853  37.743  1.00  0.00    -0.744 OA
ENDBRANCH  89  92
ENDBRANCH  62  85
ENDBRANCH  36  37
ENDBRANCH  28  31
ENDBRANCH  26  27
ENDBRANCH   1  26
TORSDOF 17
ENDMDL
MODEL 3
REMARK VINA RESULT:      -9.9      1.462      2.228
REMARK SMILES COc1cc(OC)cc(-c2ccc([C@@H](C)C(=O)NCCCNC(=O)c3ccc(-c4c5nc(c(-c6cccc(S(=O)(=O)[O-])c6F)c6ccc([nH]6)c(-c6cccc(S(=O)(=O)[O-])c6F)c6nc(c(-c7cccc(S(=O)(=O)[O-])c7F)c7ccc4[nH]7)C=C6)C=C5)cc3)cc2F)c1
REMARK SMILES IDX 20 1 19 2 18 3 16 4 17 5 14 7 15 8 13 9 10 10 11 11 89 12
REMARK SMILES IDX 12 13 88 14 90 15 9 16 3 17 4 18 91 19 5 20 8 21 2 22 1 23
REMARK SMILES IDX 6 24 7 25 21 26 22 27 23 28 24 30 25 31 26 32 87 33 27 34
REMARK SMILES IDX 86 35 28 36 29 37 30 38 80 39 31 40 85 41 79 42 81 43 32 44
REMARK SMILES IDX 84 45 78 46 77 47 33 49 65 50 45 51 64 52 46 53 49 54 63 55
REMARK SMILES IDX 82 56 47 57 48 58 62 60 83 61 50 62 34 63 35 64 43 65 36 66
REMARK SMILES IDX 38 67 44 68 37 69 39 70 40 71 41 72 42 73 66 74 67 75 75 76
REMARK SMILES IDX 68 77 70 78 76 79 69 80 71 81 72 82 73 83 74 84 51 85 52 86
REMARK SMILES IDX 60 87 53 88 55 89 61 90 54 91 56 92 57 93 58 94 59 95
REMARK H PARENT 18 6 22 29 81 48 49 59
REMARK Flexibility Score: inf
ROOT
ATOM      1  C   UNL A   1      42.066  20.196  27.236  1.00  0.00     0.042 C 
ENDROOT
BRANCH   1   2
ATOM      2  C   UNL A   1      42.590  20.239  25.802  1.00  0.00     0.117 C 
BRANCH   2   3
ATOM      3  N   UNL A   1      44.017  20.487  25.734  1.00  0.00    -0.356 N 
ATOM      4  C   UNL A   1      44.751  21.632  25.775  1.00  0.00     0.227 C 
ATOM      5  O   UNL A   1      45.977  21.497  25.675  1.00  0.00    -0.274 OA
ATOM      6  H   UNL A   1      44.558  19.670  25.640  1.00  0.00     0.163 HD
BRANCH   4   7
ATOM      7  C   UNL A   1      44.152  23.037  25.945  1.00  0.00     0.105 C 
ATOM      8  C   UNL A   1      44.555  24.032  24.857  1.00  0.00     0.023 C 
BRANCH   7   9
ATOM      9  C   UNL A   1      44.228  23.554  27.370  1.00  0.00    -0.033 A 
ATOM     10  C   UNL A   1      44.395  24.704  29.983  1.00  0.00     0.018 A 
ATOM     11  C   UNL A   1      43.196  24.169  29.485  1.00  0.00     0.012 A 
ATOM     12  C   UNL A   1      45.513  24.631  29.142  1.00  0.00     0.131 A 
ATOM     13  C   UNL A   1      43.126  23.565  28.226  1.00  0.00     0.005 A 
ATOM     14  C   UNL A   1      45.432  24.087  27.856  1.00  0.00     0.044 A 
ATOM     15  F   UNL A   1      46.712  25.068  29.557  1.00  0.00    -0.206 F 
BRANCH  10  16
ATOM     16  C   UNL A   1      44.446  25.264  31.350  1.00  0.00    -0.008 A 
ATOM     17  C   UNL A   1      44.272  27.114  32.930  1.00  0.00     0.123 A 
ATOM     18  C   UNL A   1      44.576  26.250  33.981  1.00  0.00     0.092 A 
ATOM     19  C   UNL A   1      44.210  26.623  31.621  1.00  0.00     0.055 A 
ATOM     20  C   UNL A   1      44.824  24.901  33.742  1.00  0.00     0.123 A 
ATOM     21  C   UNL A   1      44.756  24.420  32.436  1.00  0.00     0.055 A 
BRANCH  17  22
ATOM     22  O   UNL A   1      44.145  28.436  33.264  1.00  0.00    -0.497 OA
ATOM     23  C   UNL A   1      43.924  29.316  32.170  1.00  0.00     0.278 C 
ENDBRANCH  17  22
BRANCH  20  24
ATOM     24  O   UNL A   1      45.170  24.160  34.837  1.00  0.00    -0.497 OA
ATOM     25  C   UNL A   1      46.552  24.073  35.152  1.00  0.00     0.278 C 
ENDBRANCH  20  24
ENDBRANCH  10  16
ENDBRANCH   7   9
ENDBRANCH   4   7
ENDBRANCH   2   3
ENDBRANCH   1   2
BRANCH   1  26
ATOM     26  C   UNL A   1      41.160  21.365  27.602  1.00  0.00     0.118 C 
BRANCH  26  27
ATOM     27  N   UNL A   1      40.022  21.485  26.700  1.00  0.00    -0.352 N 
ATOM     28  C   UNL A   1      39.230  22.565  26.397  1.00  0.00     0.251 C 
ATOM     29  H   UNL A   1      39.782  20.655  26.230  1.00  0.00     0.163 HD
ATOM     30  O   UNL A   1      38.187  22.377  25.774  1.00  0.00    -0.269 OA
BRANCH  28  31
ATOM     31  C   UNL A   1      39.605  23.937  26.812  1.00  0.00     0.039 A 
ATOM     32  C   UNL A   1      39.305  24.352  28.114  1.00  0.00     0.014 A 
ATOM     33  C   UNL A   1      40.199  24.835  25.921  1.00  0.00     0.014 A 
ATOM     34  C   UNL A   1      39.651  25.639  28.535  1.00  0.00     0.010 A 
ATOM     35  C   UNL A   1      40.621  26.085  26.367  1.00  0.00     0.010 A 
ATOM     36  C   UNL A   1      40.343  26.507  27.674  1.00  0.00    -0.014 A 
BRANCH  36  37
ATOM     37  C   UNL A   1      40.787  27.852  28.124  1.00  0.00     0.031 A 
ATOM     38  C   UNL A   1      42.252  28.204  28.146  1.00  0.00     0.074 A 
ATOM     39  C   UNL A   1      39.878  28.729  28.595  1.00  0.00     0.049 A 
ATOM     40  N   UNL A   1      42.830  29.300  28.566  1.00  0.00    -0.248 NA
ATOM     41  C   UNL A   1      43.193  27.183  27.658  1.00  0.00     0.031 C 
ATOM     42  C   UNL A   1      38.439  28.479  28.700  1.00  0.00     0.029 A 
ATOM     43  N   UNL A   1      40.031  29.995  29.102  1.00  0.00    -0.354 N 
ATOM     44  C   UNL A   1      44.198  29.086  28.430  1.00  0.00     0.074 A 
ATOM     45  C   UNL A   1      44.365  27.745  27.919  1.00  0.00     0.031 C 
ATOM     46  C   UNL A   1      37.841  29.558  29.231  1.00  0.00     0.029 A 
ATOM     47  C   UNL A   1      38.855  30.561  29.537  1.00  0.00     0.049 A 
ATOM     48  H   UNL A   1      40.901  30.455  29.149  1.00  0.00     0.167 HD
ATOM     49  C   UNL A   1      45.221  29.939  28.683  1.00  0.00     0.034 A 
ATOM     50  C   UNL A   1      38.620  31.750  30.129  1.00  0.00     0.034 A 
ATOM     51  C   UNL A   1      45.048  31.288  29.149  1.00  0.00     0.049 A 
ATOM     52  C   UNL A   1      39.771  32.688  30.369  1.00  0.00     0.074 A 
ATOM     53  C   UNL A   1      46.013  32.261  29.344  1.00  0.00     0.029 A 
ATOM     54  N   UNL A   1      43.833  31.854  29.503  1.00  0.00    -0.354 N 
ATOM     55  N   UNL A   1      41.040  32.527  30.082  1.00  0.00    -0.248 NA
ATOM     56  C   UNL A   1      39.453  33.985  30.982  1.00  0.00     0.031 C 
ATOM     57  C   UNL A   1      45.384  33.407  29.843  1.00  0.00     0.029 A 
ATOM     58  C   UNL A   1      44.024  33.157  29.929  1.00  0.00     0.049 A 
ATOM     59  H   UNL A   1      42.962  31.397  29.460  1.00  0.00     0.167 HD
ATOM     60  C   UNL A   1      41.666  33.713  30.447  1.00  0.00     0.074 A 
ATOM     61  C   UNL A   1      40.633  34.592  30.953  1.00  0.00     0.031 C 
ATOM     62  C   UNL A   1      42.980  34.040  30.382  1.00  0.00     0.034 A 
BRANCH  49  63
ATOM     63  C   UNL A   1      46.621  29.456  28.409  1.00  0.00     0.023 A 
ATOM     64  C   UNL A   1      47.217  29.718  27.157  1.00  0.00     0.012 A 
ATOM     65  C   UNL A   1      47.374  28.806  29.408  1.00  0.00     0.148 A 
ATOM     66  C   UNL A   1      48.523  29.311  26.891  1.00  0.00     0.002 A 
ATOM     67  C   UNL A   1      48.691  28.443  29.150  1.00  0.00     0.091 A 
ATOM     68  F   UNL A   1      46.785  28.548  30.585  1.00  0.00    -0.205 F 
ATOM     69  C   UNL A   1      49.263  28.684  27.890  1.00  0.00     0.022 A 
BRANCH  67  70
ATOM     70  S   UNL A   1      49.755  27.703  30.395  1.00  0.00     0.127 S 
ATOM     71  O   UNL A   1      51.032  27.633  29.686  1.00  0.00    -0.237 OA
ATOM     72  O   UNL A   1      49.706  28.695  31.469  1.00  0.00    -0.237 OA
ATOM     73  O   UNL A   1      49.154  26.418  30.725  1.00  0.00    -0.744 OA
ENDBRANCH  67  70
ENDBRANCH  49  63
BRANCH  50  74
ATOM     74  C   UNL A   1      37.229  32.142  30.489  1.00  0.00     0.023 A 
ATOM     75  C   UNL A   1      36.752  31.888  31.790  1.00  0.00     0.012 A 
ATOM     76  C   UNL A   1      36.386  32.781  29.561  1.00  0.00     0.148 A 
ATOM     77  C   UNL A   1      35.448  32.230  32.149  1.00  0.00     0.002 A 
ATOM     78  C   UNL A   1      35.110  33.174  29.944  1.00  0.00     0.091 A 
ATOM     79  F   UNL A   1      36.858  33.005  28.326  1.00  0.00    -0.205 F 
ATOM     80  C   UNL A   1      34.630  32.882  31.231  1.00  0.00     0.022 A 
BRANCH  78  81
ATOM     81  S   UNL A   1      34.037  34.143  28.879  1.00  0.00     0.127 S 
ATOM     82  O   UNL A   1      33.608  33.146  27.903  1.00  0.00    -0.237 OA
ATOM     83  O   UNL A   1      33.003  34.576  29.820  1.00  0.00    -0.237 OA
ATOM     84  O   UNL A   1      34.877  35.215  28.361  1.00  0.00    -0.744 OA
ENDBRANCH  78  81
ENDBRANCH  50  74
BRANCH  62  85
ATOM     85  C   UNL A   1      43.378  35.421  30.834  1.00  0.00     0.023 A 
ATOM     86  C   UNL A   1      43.553  36.447  29.885  1.00  0.00     0.012 A 
ATOM     87  C   UNL A   1      43.507  35.716  32.206  1.00  0.00     0.148 A 
ATOM     88  C   UNL A   1      43.884  37.739  30.293  1.00  0.00     0.002 A 
ATOM     89  C   UNL A   1      43.786  37.017  32.607  1.00  0.00     0.091 A 
ATOM     90  F   UNL A   1      43.353  34.721  33.091  1.00  0.00    -0.205 F 
ATOM     91  C   UNL A   1      43.988  38.026  31.651  1.00  0.00     0.022 A 
BRANCH  89  92
ATOM     92  S   UNL A   1      43.841  37.501  34.335  1.00  0.00     0.127 S 
ATOM     93  O   UNL A   1      44.987  36.733  34.823  1.00  0.00    -0.237 OA
ATOM     94  O   UNL A   1      44.066  38.944  34.246  1.00  0.00    -0.237 OA
ATOM     95  O   UNL A   1      42.552  37.124  34.901  1.00  0.00    -0.744 OA
ENDBRANCH  89  92
ENDBRANCH  62  85
ENDBRANCH  36  37
ENDBRANCH  28  31
ENDBRANCH  26  27
ENDBRANCH   1  26
TORSDOF 17
ENDMDL
