MODEL 1
REMARK VINA RESULT:      -8.7      0.000      0.000
REMARK SMILES O=C(CCc1ccccc1)Nc1ccccc1Oc1ccsc1C(=O)NCCCNC(=O)c1ccc(-c2c3nc(c(-c4cccc(S(=O)(=O)[O-])c4F)c4ccc([nH]4)c(-c4cccc(S(=O)(=O)[O-])c4F)c4nc(c(-c5cccc(S(=O)(=O)[O-])c5F)c5ccc2[nH]5)C=C4)C=C3)cc1
REMARK SMILES IDX 24 1 25 2 26 3 23 5 19 6 20 7 21 8 22 9 18 10 17 11 12 12
REMARK SMILES IDX 13 13 14 14 16 15 15 16 11 17 1 18 2 19 3 21 4 22 5 23 6 24
REMARK SMILES IDX 10 25 7 26 9 27 8 28 27 29 28 30 29 31 30 32 31 33 32 35
REMARK SMILES IDX 33 36 34 37 95 38 35 39 94 40 36 41 37 42 38 43 88 44 39 45
REMARK SMILES IDX 93 46 87 47 89 48 40 49 92 50 86 51 85 52 41 54 73 55 53 56
REMARK SMILES IDX 72 57 54 58 57 59 71 60 90 61 55 62 56 63 70 65 91 66 58 67
REMARK SMILES IDX 42 68 43 69 51 70 44 71 46 72 52 73 45 74 47 75 48 76 49 77
REMARK SMILES IDX 50 78 74 79 75 80 83 81 76 82 78 83 84 84 77 85 79 86 80 87
REMARK SMILES IDX 81 88 82 89 59 90 60 91 68 92 61 93 63 94 69 95 62 96 64 97
REMARK SMILES IDX 65 98 66 99 67 100
REMARK H PARENT 26 4 11 20 30 34 89 53 57 64
REMARK Flexibility Score: inf
ROOT
ATOM      1  C   UNL A   1      37.010  33.893  34.178  1.00  0.00     0.265 C 
ATOM      2  O   UNL A   1      37.618  34.957  34.373  1.00  0.00    -0.268 OA
ATOM      3  N   UNL A   1      35.791  34.073  33.551  1.00  0.00    -0.351 N 
ATOM      4  H   UNL A   1      35.552  35.000  33.322  1.00  0.00     0.163 HD
ENDROOT
BRANCH   1   5
ATOM      5  C   UNL A   1      37.561  32.584  34.591  1.00  0.00     0.135 A 
ATOM      6  C   UNL A   1      37.764  31.885  35.784  1.00  0.00     0.151 A 
ATOM      7  C   UNL A   1      38.322  30.582  35.601  1.00  0.00     0.059 A 
ATOM      8  C   UNL A   1      38.579  30.307  34.281  1.00  0.00     0.069 A 
ATOM      9  S   UNL A   1      38.139  31.598  33.266  1.00  0.00    -0.135 S 
BRANCH   6  10
ATOM     10  O   UNL A   1      37.296  32.278  36.984  1.00  0.00    -0.453 OA
BRANCH  10  11
ATOM     11  C   UNL A   1      38.035  32.711  38.071  1.00  0.00     0.151 A 
ATOM     12  C   UNL A   1      39.346  33.210  38.164  1.00  0.00     0.084 A 
ATOM     13  C   UNL A   1      39.802  33.680  39.414  1.00  0.00     0.030 A 
ATOM     14  C   UNL A   1      38.965  33.738  40.529  1.00  0.00     0.002 A 
ATOM     15  C   UNL A   1      37.218  32.740  39.224  1.00  0.00     0.049 A 
ATOM     16  C   UNL A   1      37.667  33.266  40.434  1.00  0.00     0.004 A 
BRANCH  12  17
ATOM     17  N   UNL A   1      40.327  33.246  37.154  1.00  0.00    -0.323 N 
ATOM     18  O   UNL A   1      40.236  35.407  36.349  1.00  0.00    -0.275 OA
ATOM     19  C   UNL A   1      40.569  34.232  36.224  1.00  0.00     0.224 C 
ATOM     20  H   UNL A   1      40.919  32.462  37.105  1.00  0.00     0.170 HD
BRANCH  19  21
ATOM     21  C   UNL A   1      41.265  33.745  34.953  1.00  0.00     0.105 C 
BRANCH  21  22
ATOM     22  C   UNL A   1      41.848  34.780  33.993  1.00  0.00     0.045 C 
BRANCH  22  23
ATOM     23  C   UNL A   1      41.545  34.581  32.527  1.00  0.00    -0.048 A 
ATOM     24  C   UNL A   1      40.234  34.443  32.039  1.00  0.00     0.004 A 
ATOM     25  C   UNL A   1      42.613  34.445  31.630  1.00  0.00     0.004 A 
ATOM     26  C   UNL A   1      40.012  34.009  30.732  1.00  0.00     0.000 A 
ATOM     27  C   UNL A   1      42.386  34.055  30.312  1.00  0.00     0.000 A 
ATOM     28  C   UNL A   1      41.089  33.800  29.874  1.00  0.00     0.000 A 
ENDBRANCH  22  23
ENDBRANCH  21  22
ENDBRANCH  19  21
ENDBRANCH  12  17
ENDBRANCH  10  11
ENDBRANCH   6  10
ENDBRANCH   1   5
BRANCH   3  29
ATOM     29  C   UNL A   1      34.838  33.068  33.196  1.00  0.00     0.118 C 
BRANCH  29  30
ATOM     30  C   UNL A   1      34.385  32.955  31.760  1.00  0.00     0.042 C 
BRANCH  30  31
ATOM     31  C   UNL A   1      35.404  32.383  30.804  1.00  0.00     0.118 C 
BRANCH  31  32
ATOM     32  N   UNL A   1      34.823  31.612  29.710  1.00  0.00    -0.352 N 
ATOM     33  C   UNL A   1      35.332  30.641  28.880  1.00  0.00     0.251 C 
ATOM     34  H   UNL A   1      33.880  31.831  29.530  1.00  0.00     0.163 HD
ATOM     35  O   UNL A   1      34.632  30.238  27.951  1.00  0.00    -0.269 OA
BRANCH  33  36
ATOM     36  C   UNL A   1      36.702  30.097  29.047  1.00  0.00     0.039 A 
ATOM     37  C   UNL A   1      37.694  30.464  28.127  1.00  0.00     0.014 A 
ATOM     38  C   UNL A   1      37.032  29.214  30.070  1.00  0.00     0.014 A 
ATOM     39  C   UNL A   1      39.009  30.015  28.294  1.00  0.00     0.010 A 
ATOM     40  C   UNL A   1      38.360  28.895  30.324  1.00  0.00     0.010 A 
ATOM     41  C   UNL A   1      39.367  29.266  29.427  1.00  0.00    -0.014 A 
BRANCH  41  42
ATOM     42  C   UNL A   1      40.769  28.840  29.684  1.00  0.00     0.031 A 
ATOM     43  C   UNL A   1      41.359  27.671  28.934  1.00  0.00     0.074 A 
ATOM     44  C   UNL A   1      41.483  29.440  30.658  1.00  0.00     0.049 A 
ATOM     45  N   UNL A   1      42.530  27.105  29.074  1.00  0.00    -0.248 NA
ATOM     46  C   UNL A   1      40.507  27.024  27.918  1.00  0.00     0.031 C 
ATOM     47  C   UNL A   1      40.998  30.519  31.523  1.00  0.00     0.029 A 
ATOM     48  N   UNL A   1      42.761  29.211  31.106  1.00  0.00    -0.354 N 
ATOM     49  C   UNL A   1      42.536  26.016  28.208  1.00  0.00     0.074 A 
ATOM     50  C   UNL A   1      41.235  25.969  27.582  1.00  0.00     0.031 C 
ATOM     51  C   UNL A   1      41.970  30.870  32.379  1.00  0.00     0.029 A 
ATOM     52  C   UNL A   1      43.132  30.017  32.157  1.00  0.00     0.049 A 
ATOM     53  H   UNL A   1      43.355  28.533  30.711  1.00  0.00     0.167 HD
ATOM     54  C   UNL A   1      43.541  25.154  27.928  1.00  0.00     0.034 A 
ATOM     55  C   UNL A   1      44.276  30.060  32.868  1.00  0.00     0.034 A 
ATOM     56  C   UNL A   1      44.853  25.238  28.510  1.00  0.00     0.049 A 
ATOM     57  C   UNL A   1      45.397  29.126  32.501  1.00  0.00     0.074 A 
ATOM     58  C   UNL A   1      45.972  24.480  28.219  1.00  0.00     0.029 A 
ATOM     59  N   UNL A   1      45.219  26.129  29.506  1.00  0.00    -0.354 N 
ATOM     60  N   UNL A   1      45.436  28.211  31.563  1.00  0.00    -0.248 NA
ATOM     61  C   UNL A   1      46.646  29.255  33.265  1.00  0.00     0.031 C 
ATOM     62  C   UNL A   1      47.008  24.892  29.064  1.00  0.00     0.029 A 
ATOM     63  C   UNL A   1      46.544  25.933  29.852  1.00  0.00     0.049 A 
ATOM     64  H   UNL A   1      44.624  26.803  29.907  1.00  0.00     0.167 HD
ATOM     65  C   UNL A   1      46.720  27.680  31.601  1.00  0.00     0.074 A 
ATOM     66  C   UNL A   1      47.436  28.394  32.638  1.00  0.00     0.031 C 
ATOM     67  C   UNL A   1      47.256  26.682  30.855  1.00  0.00     0.034 A 
BRANCH  54  68
ATOM     68  C   UNL A   1      43.279  24.076  26.906  1.00  0.00     0.023 A 
ATOM     69  C   UNL A   1      43.757  24.230  25.588  1.00  0.00     0.012 A 
ATOM     70  C   UNL A   1      42.608  22.890  27.261  1.00  0.00     0.148 A 
ATOM     71  C   UNL A   1      43.535  23.242  24.630  1.00  0.00     0.002 A 
ATOM     72  C   UNL A   1      42.436  21.886  26.315  1.00  0.00     0.091 A 
ATOM     73  F   UNL A   1      42.144  22.767  28.513  1.00  0.00    -0.205 F 
ATOM     74  C   UNL A   1      42.885  22.066  24.996  1.00  0.00     0.022 A 
BRANCH  72  75
ATOM     75  S   UNL A   1      41.688  20.300  26.702  1.00  0.00     0.127 S 
ATOM     76  O   UNL A   1      41.662  19.656  25.391  1.00  0.00    -0.237 OA
ATOM     77  O   UNL A   1      42.649  19.730  27.645  1.00  0.00    -0.237 OA
ATOM     78  O   UNL A   1      40.380  20.602  27.275  1.00  0.00    -0.744 OA
ENDBRANCH  72  75
ENDBRANCH  54  68
BRANCH  55  79
ATOM     79  C   UNL A   1      44.440  31.067  33.956  1.00  0.00     0.023 A 
ATOM     80  C   UNL A   1      44.956  32.341  33.648  1.00  0.00     0.012 A 
ATOM     81  C   UNL A   1      44.068  30.780  35.285  1.00  0.00     0.148 A 
ATOM     82  C   UNL A   1      45.131  33.298  34.649  1.00  0.00     0.002 A 
ATOM     83  C   UNL A   1      44.190  31.759  36.265  1.00  0.00     0.091 A 
ATOM     84  F   UNL A   1      43.587  29.559  35.560  1.00  0.00    -0.205 F 
ATOM     85  C   UNL A   1      44.740  33.011  35.952  1.00  0.00     0.022 A 
BRANCH  83  86
ATOM     86  S   UNL A   1      43.583  31.526  37.938  1.00  0.00     0.127 S 
ATOM     87  O   UNL A   1      44.438  30.443  38.419  1.00  0.00    -0.237 OA
ATOM     88  O   UNL A   1      43.848  32.834  38.541  1.00  0.00    -0.237 OA
ATOM     89  O   UNL A   1      42.169  31.205  37.807  1.00  0.00    -0.744 OA
ENDBRANCH  83  86
ENDBRANCH  55  79
BRANCH  67  90
ATOM     90  C   UNL A   1      48.698  26.324  31.101  1.00  0.00     0.023 A 
ATOM     91  C   UNL A   1      49.025  25.334  32.049  1.00  0.00     0.012 A 
ATOM     92  C   UNL A   1      49.723  26.918  30.340  1.00  0.00     0.148 A 
ATOM     93  C   UNL A   1      50.354  24.969  32.262  1.00  0.00     0.002 A 
ATOM     94  C   UNL A   1      51.039  26.512  30.520  1.00  0.00     0.091 A 
ATOM     95  F   UNL A   1      49.393  27.870  29.455  1.00  0.00    -0.205 F 
ATOM     96  C   UNL A   1      51.358  25.548  31.490  1.00  0.00     0.022 A 
BRANCH  94  97
ATOM     97  S   UNL A   1      52.385  27.128  29.503  1.00  0.00     0.127 S 
ATOM     98  O   UNL A   1      53.502  26.299  29.955  1.00  0.00    -0.237 OA
ATOM     99  O   UNL A   1      51.913  26.831  28.151  1.00  0.00    -0.237 OA
ATOM    100  O   UNL A   1      52.500  28.549  29.805  1.00  0.00    -0.744 OA
ENDBRANCH  94  97
ENDBRANCH  67  90
ENDBRANCH  41  42
ENDBRANCH  33  36
ENDBRANCH  31  32
ENDBRANCH  30  31
ENDBRANCH  29  30
ENDBRANCH   3  29
TORSDOF 19
ENDMDL
MODEL 2
REMARK VINA RESULT:      -8.5      8.882     14.283
REMARK SMILES O=C(CCc1ccccc1)Nc1ccccc1Oc1ccsc1C(=O)NCCCNC(=O)c1ccc(-c2c3nc(c(-c4cccc(S(=O)(=O)[O-])c4F)c4ccc([nH]4)c(-c4cccc(S(=O)(=O)[O-])c4F)c4nc(c(-c5cccc(S(=O)(=O)[O-])c5F)c5ccc2[nH]5)C=C4)C=C3)cc1
REMARK SMILES IDX 24 1 25 2 26 3 23 5 19 6 20 7 21 8 22 9 18 10 17 11 12 12
REMARK SMILES IDX 13 13 14 14 16 15 15 16 11 17 1 18 2 19 3 21 4 22 5 23 6 24
REMARK SMILES IDX 10 25 7 26 9 27 8 28 27 29 28 30 29 31 30 32 31 33 32 35
REMARK SMILES IDX 33 36 34 37 95 38 35 39 94 40 36 41 37 42 38 43 88 44 39 45
REMARK SMILES IDX 93 46 87 47 89 48 40 49 92 50 86 51 85 52 41 54 73 55 53 56
REMARK SMILES IDX 72 57 54 58 57 59 71 60 90 61 55 62 56 63 70 65 91 66 58 67
REMARK SMILES IDX 42 68 43 69 51 70 44 71 46 72 52 73 45 74 47 75 48 76 49 77
REMARK SMILES IDX 50 78 74 79 75 80 83 81 76 82 78 83 84 84 77 85 79 86 80 87
REMARK SMILES IDX 81 88 82 89 59 90 60 91 68 92 61 93 63 94 69 95 62 96 64 97
REMARK SMILES IDX 65 98 66 99 67 100
REMARK H PARENT 26 4 11 20 30 34 89 53 57 64
REMARK Flexibility Score: inf
ROOT
ATOM      1  C   UNL A   1      44.884  41.870  26.652  1.00  0.00     0.265 C 
ATOM      2  O   UNL A   1      45.133  42.820  27.409  1.00  0.00    -0.268 OA
ATOM      3  N   UNL A   1      45.723  40.788  26.846  1.00  0.00    -0.351 N 
ATOM      4  H   UNL A   1      46.400  40.883  27.555  1.00  0.00     0.163 HD
ENDROOT
BRANCH   1   5
ATOM      5  C   UNL A   1      43.795  41.922  25.651  1.00  0.00     0.135 A 
ATOM      6  C   UNL A   1      43.547  42.568  24.437  1.00  0.00     0.151 A 
ATOM      7  C   UNL A   1      42.295  42.218  23.844  1.00  0.00     0.059 A 
ATOM      8  C   UNL A   1      41.578  41.343  24.621  1.00  0.00     0.069 A 
ATOM      9  S   UNL A   1      42.409  40.932  26.046  1.00  0.00    -0.135 S 
BRANCH   6  10
ATOM     10  O   UNL A   1      44.461  43.287  23.758  1.00  0.00    -0.453 OA
BRANCH  10  11
ATOM     11  C   UNL A   1      45.245  42.863  22.700  1.00  0.00     0.151 A 
ATOM     12  C   UNL A   1      45.187  43.156  21.326  1.00  0.00     0.084 A 
ATOM     13  C   UNL A   1      46.203  42.652  20.485  1.00  0.00     0.030 A 
ATOM     14  C   UNL A   1      47.296  41.948  20.992  1.00  0.00     0.002 A 
ATOM     15  C   UNL A   1      46.339  42.112  23.185  1.00  0.00     0.049 A 
ATOM     16  C   UNL A   1      47.365  41.676  22.348  1.00  0.00     0.004 A 
BRANCH  12  17
ATOM     17  N   UNL A   1      44.179  43.858  20.637  1.00  0.00    -0.323 N 
ATOM     18  O   UNL A   1      42.463  42.330  20.428  1.00  0.00    -0.275 OA
ATOM     19  C   UNL A   1      43.015  43.372  20.088  1.00  0.00     0.224 C 
ATOM     20  H   UNL A   1      44.326  44.825  20.534  1.00  0.00     0.170 HD
BRANCH  19  21
ATOM     21  C   UNL A   1      42.450  44.221  18.948  1.00  0.00     0.105 C 
BRANCH  21  22
ATOM     22  C   UNL A   1      43.323  44.478  17.722  1.00  0.00     0.045 C 
BRANCH  22  23
ATOM     23  C   UNL A   1      43.257  45.867  17.130  1.00  0.00    -0.048 A 
ATOM     24  C   UNL A   1      44.360  46.737  17.122  1.00  0.00     0.004 A 
ATOM     25  C   UNL A   1      42.027  46.335  16.647  1.00  0.00     0.004 A 
ATOM     26  C   UNL A   1      44.190  48.086  16.804  1.00  0.00     0.000 A 
ATOM     27  C   UNL A   1      41.871  47.672  16.288  1.00  0.00     0.000 A 
ATOM     28  C   UNL A   1      42.942  48.555  16.402  1.00  0.00     0.000 A 
ENDBRANCH  22  23
ENDBRANCH  21  22
ENDBRANCH  19  21
ENDBRANCH  12  17
ENDBRANCH  10  11
ENDBRANCH   6  10
ENDBRANCH   1   5
BRANCH   3  29
ATOM     29  C   UNL A   1      45.722  39.545  26.138  1.00  0.00     0.118 C 
BRANCH  29  30
ATOM     30  C   UNL A   1      47.022  39.002  25.598  1.00  0.00     0.042 C 
BRANCH  30  31
ATOM     31  C   UNL A   1      47.436  37.656  26.144  1.00  0.00     0.118 C 
BRANCH  31  32
ATOM     32  N   UNL A   1      46.906  36.523  25.393  1.00  0.00    -0.352 N 
ATOM     33  C   UNL A   1      46.045  35.505  25.725  1.00  0.00     0.251 C 
ATOM     34  H   UNL A   1      47.230  36.479  24.464  1.00  0.00     0.163 HD
ATOM     35  O   UNL A   1      45.859  34.603  24.908  1.00  0.00    -0.269 OA
BRANCH  33  36
ATOM     36  C   UNL A   1      45.367  35.441  27.044  1.00  0.00     0.039 A 
ATOM     37  C   UNL A   1      45.819  34.516  27.995  1.00  0.00     0.014 A 
ATOM     38  C   UNL A   1      44.282  36.251  27.362  1.00  0.00     0.014 A 
ATOM     39  C   UNL A   1      45.239  34.475  29.268  1.00  0.00     0.010 A 
ATOM     40  C   UNL A   1      43.811  36.318  28.667  1.00  0.00     0.010 A 
ATOM     41  C   UNL A   1      44.262  35.413  29.635  1.00  0.00    -0.014 A 
BRANCH  41  42
ATOM     42  C   UNL A   1      43.680  35.457  31.003  1.00  0.00     0.031 A 
ATOM     43  C   UNL A   1      42.394  34.727  31.307  1.00  0.00     0.074 A 
ATOM     44  C   UNL A   1      44.252  36.228  31.950  1.00  0.00     0.049 A 
ATOM     45  N   UNL A   1      41.695  34.710  32.413  1.00  0.00    -0.248 NA
ATOM     46  C   UNL A   1      41.789  33.944  30.213  1.00  0.00     0.031 C 
ATOM     47  C   UNL A   1      45.443  37.060  31.760  1.00  0.00     0.029 A 
ATOM     48  N   UNL A   1      43.894  36.462  33.255  1.00  0.00    -0.354 N 
ATOM     49  C   UNL A   1      40.555  33.963  32.134  1.00  0.00     0.074 A 
ATOM     50  C   UNL A   1      40.630  33.584  30.742  1.00  0.00     0.031 C 
ATOM     51  C   UNL A   1      45.728  37.693  32.908  1.00  0.00     0.029 A 
ATOM     52  C   UNL A   1      44.720  37.350  33.904  1.00  0.00     0.049 A 
ATOM     53  H   UNL A   1      43.119  36.033  33.685  1.00  0.00     0.167 HD
ATOM     54  C   UNL A   1      39.553  33.592  32.966  1.00  0.00     0.034 A 
ATOM     55  C   UNL A   1      44.667  37.840  35.159  1.00  0.00     0.034 A 
ATOM     56  C   UNL A   1      39.511  33.921  34.365  1.00  0.00     0.049 A 
ATOM     57  C   UNL A   1      43.575  37.369  36.080  1.00  0.00     0.074 A 
ATOM     58  C   UNL A   1      38.598  33.509  35.317  1.00  0.00     0.029 A 
ATOM     59  N   UNL A   1      40.417  34.748  35.008  1.00  0.00    -0.354 N 
ATOM     60  N   UNL A   1      42.597  36.529  35.839  1.00  0.00    -0.248 NA
ATOM     61  C   UNL A   1      43.598  37.884  37.456  1.00  0.00     0.031 C 
ATOM     62  C   UNL A   1      38.934  34.114  36.533  1.00  0.00     0.029 A 
ATOM     63  C   UNL A   1      40.079  34.871  36.344  1.00  0.00     0.049 A 
ATOM     64  H   UNL A   1      41.189  35.183  34.579  1.00  0.00     0.167 HD
ATOM     65  C   UNL A   1      41.911  36.388  37.040  1.00  0.00     0.074 A 
ATOM     66  C   UNL A   1      42.600  37.211  38.013  1.00  0.00     0.031 C 
ATOM     67  C   UNL A   1      40.802  35.656  37.311  1.00  0.00     0.034 A 
BRANCH  54  68
ATOM     68  C   UNL A   1      38.447  32.738  32.398  1.00  0.00     0.023 A 
ATOM     69  C   UNL A   1      38.612  31.340  32.320  1.00  0.00     0.012 A 
ATOM     70  C   UNL A   1      37.227  33.312  31.991  1.00  0.00     0.148 A 
ATOM     71  C   UNL A   1      37.599  30.531  31.808  1.00  0.00     0.002 A 
ATOM     72  C   UNL A   1      36.202  32.494  31.530  1.00  0.00     0.091 A 
ATOM     73  F   UNL A   1      37.094  34.645  32.054  1.00  0.00    -0.205 F 
ATOM     74  C   UNL A   1      36.390  31.106  31.424  1.00  0.00     0.022 A 
BRANCH  72  75
ATOM     75  S   UNL A   1      34.578  33.123  31.089  1.00  0.00     0.127 S 
ATOM     76  O   UNL A   1      33.793  32.768  32.269  1.00  0.00    -0.237 OA
ATOM     77  O   UNL A   1      34.836  34.554  30.934  1.00  0.00    -0.237 OA
ATOM     78  O   UNL A   1      34.201  32.435  29.859  1.00  0.00    -0.744 OA
ENDBRANCH  72  75
ENDBRANCH  54  68
BRANCH  55  79
ATOM     79  C   UNL A   1      45.721  38.782  35.637  1.00  0.00     0.023 A 
ATOM     80  C   UNL A   1      46.943  38.269  36.116  1.00  0.00     0.012 A 
ATOM     81  C   UNL A   1      45.531  40.177  35.596  1.00  0.00     0.148 A 
ATOM     82  C   UNL A   1      47.941  39.128  36.580  1.00  0.00     0.002 A 
ATOM     83  C   UNL A   1      46.553  41.028  36.004  1.00  0.00     0.091 A 
ATOM     84  F   UNL A   1      44.359  40.646  35.144  1.00  0.00    -0.205 F 
ATOM     85  C   UNL A   1      47.750  40.504  36.515  1.00  0.00     0.022 A 
BRANCH  83  86
ATOM     86  S   UNL A   1      46.450  42.811  35.826  1.00  0.00     0.127 S 
ATOM     87  O   UNL A   1      47.610  43.257  36.594  1.00  0.00    -0.237 OA
ATOM     88  O   UNL A   1      46.570  42.978  34.376  1.00  0.00    -0.237 OA
ATOM     89  O   UNL A   1      45.151  43.190  36.364  1.00  0.00    -0.744 OA
ENDBRANCH  83  86
ENDBRANCH  55  79
BRANCH  67  90
ATOM     90  C   UNL A   1      40.281  35.676  38.724  1.00  0.00     0.023 A 
ATOM     91  C   UNL A   1      39.415  36.706  39.141  1.00  0.00     0.012 A 
ATOM     92  C   UNL A   1      40.593  34.632  39.616  1.00  0.00     0.148 A 
ATOM     93  C   UNL A   1      38.899  36.717  40.437  1.00  0.00     0.002 A 
ATOM     94  C   UNL A   1      40.034  34.621  40.888  1.00  0.00     0.091 A 
ATOM     95  F   UNL A   1      41.432  33.669  39.206  1.00  0.00    -0.205 F 
ATOM     96  C   UNL A   1      39.198  35.669  41.305  1.00  0.00     0.022 A 
BRANCH  94  97
ATOM     97  S   UNL A   1      40.281  33.264  42.037  1.00  0.00     0.127 S 
ATOM     98  O   UNL A   1      39.346  33.606  43.108  1.00  0.00    -0.237 OA
ATOM     99  O   UNL A   1      39.892  32.104  41.236  1.00  0.00    -0.237 OA
ATOM    100  O   UNL A   1      41.690  33.299  42.405  1.00  0.00    -0.744 OA
ENDBRANCH  94  97
ENDBRANCH  67  90
ENDBRANCH  41  42
ENDBRANCH  33  36
ENDBRANCH  31  32
ENDBRANCH  30  31
ENDBRANCH  29  30
ENDBRANCH   3  29
TORSDOF 19
ENDMDL
MODEL 3
REMARK VINA RESULT:      -8.3      3.885      7.897
REMARK SMILES O=C(CCc1ccccc1)Nc1ccccc1Oc1ccsc1C(=O)NCCCNC(=O)c1ccc(-c2c3nc(c(-c4cccc(S(=O)(=O)[O-])c4F)c4ccc([nH]4)c(-c4cccc(S(=O)(=O)[O-])c4F)c4nc(c(-c5cccc(S(=O)(=O)[O-])c5F)c5ccc2[nH]5)C=C4)C=C3)cc1
REMARK SMILES IDX 24 1 25 2 26 3 23 5 19 6 20 7 21 8 22 9 18 10 17 11 12 12
REMARK SMILES IDX 13 13 14 14 16 15 15 16 11 17 1 18 2 19 3 21 4 22 5 23 6 24
REMARK SMILES IDX 10 25 7 26 9 27 8 28 27 29 28 30 29 31 30 32 31 33 32 35
REMARK SMILES IDX 33 36 34 37 95 38 35 39 94 40 36 41 37 42 38 43 88 44 39 45
REMARK SMILES IDX 93 46 87 47 89 48 40 49 92 50 86 51 85 52 41 54 73 55 53 56
REMARK SMILES IDX 72 57 54 58 57 59 71 60 90 61 55 62 56 63 70 65 91 66 58 67
REMARK SMILES IDX 42 68 43 69 51 70 44 71 46 72 52 73 45 74 47 75 48 76 49 77
REMARK SMILES IDX 50 78 74 79 75 80 83 81 76 82 78 83 84 84 77 85 79 86 80 87
REMARK SMILES IDX 81 88 82 89 59 90 60 91 68 92 61 93 63 94 69 95 62 96 64 97
REMARK SMILES IDX 65 98 66 99 67 100
REMARK H PARENT 26 4 11 20 30 34 89 53 57 64
REMARK Flexibility Score: inf
ROOT
ATOM      1  C   UNL A   1      36.537  33.679  29.538  1.00  0.00     0.265 C 
ATOM      2  O   UNL A   1      37.390  34.482  29.132  1.00  0.00    -0.268 OA
ATOM      3  N   UNL A   1      35.892  34.106  30.685  1.00  0.00    -0.351 N 
ATOM      4  H   UNL A   1      36.164  34.984  31.036  1.00  0.00     0.163 HD
ENDROOT
BRANCH   1   5
ATOM      5  C   UNL A   1      36.265  32.400  28.845  1.00  0.00     0.135 A 
ATOM      6  C   UNL A   1      36.966  31.232  28.533  1.00  0.00     0.151 A 
ATOM      7  C   UNL A   1      36.178  30.253  27.853  1.00  0.00     0.059 A 
ATOM      8  C   UNL A   1      34.899  30.688  27.614  1.00  0.00     0.069 A 
ATOM      9  S   UNL A   1      34.640  32.256  28.215  1.00  0.00    -0.135 S 
BRANCH   6  10
ATOM     10  O   UNL A   1      38.195  30.936  28.997  1.00  0.00    -0.453 OA
BRANCH  10  11
ATOM     11  C   UNL A   1      38.580  29.800  29.687  1.00  0.00     0.151 A 
ATOM     12  C   UNL A   1      39.810  29.121  29.743  1.00  0.00     0.084 A 
ATOM     13  C   UNL A   1      39.939  28.031  30.631  1.00  0.00     0.030 A 
ATOM     14  C   UNL A   1      38.913  27.669  31.505  1.00  0.00     0.002 A 
ATOM     15  C   UNL A   1      37.541  29.388  30.551  1.00  0.00     0.049 A 
ATOM     16  C   UNL A   1      37.708  28.350  31.465  1.00  0.00     0.004 A 
BRANCH  12  17
ATOM     17  N   UNL A   1      40.956  29.348  28.956  1.00  0.00    -0.323 N 
ATOM     18  O   UNL A   1      40.239  28.995  26.792  1.00  0.00    -0.275 OA
ATOM     19  C   UNL A   1      41.143  29.097  27.617  1.00  0.00     0.224 C 
ATOM     20  H   UNL A   1      41.727  29.738  29.427  1.00  0.00     0.170 HD
BRANCH  19  21
ATOM     21  C   UNL A   1      42.603  28.899  27.207  1.00  0.00     0.105 C 
BRANCH  21  22
ATOM     22  C   UNL A   1      43.436  27.853  27.943  1.00  0.00     0.045 C 
BRANCH  22  23
ATOM     23  C   UNL A   1      44.288  26.948  27.083  1.00  0.00    -0.048 A 
ATOM     24  C   UNL A   1      44.911  27.393  25.906  1.00  0.00     0.004 A 
ATOM     25  C   UNL A   1      44.390  25.593  27.428  1.00  0.00     0.004 A 
ATOM     26  C   UNL A   1      45.469  26.474  25.015  1.00  0.00     0.000 A 
ATOM     27  C   UNL A   1      44.987  24.685  26.557  1.00  0.00     0.000 A 
ATOM     28  C   UNL A   1      45.492  25.119  25.334  1.00  0.00     0.000 A 
ENDBRANCH  22  23
ENDBRANCH  21  22
ENDBRANCH  19  21
ENDBRANCH  12  17
ENDBRANCH  10  11
ENDBRANCH   6  10
ENDBRANCH   1   5
BRANCH   3  29
ATOM     29  C   UNL A   1      34.874  33.420  31.419  1.00  0.00     0.118 C 
BRANCH  29  30
ATOM     30  C   UNL A   1      35.025  33.255  32.912  1.00  0.00     0.042 C 
BRANCH  30  31
ATOM     31  C   UNL A   1      36.159  34.031  33.536  1.00  0.00     0.118 C 
BRANCH  31  32
ATOM     32  N   UNL A   1      36.453  33.647  34.913  1.00  0.00    -0.352 N 
ATOM     33  C   UNL A   1      37.464  32.909  35.480  1.00  0.00     0.251 C 
ATOM     34  H   UNL A   1      35.797  33.983  35.565  1.00  0.00     0.163 HD
ATOM     35  O   UNL A   1      37.396  32.644  36.680  1.00  0.00    -0.269 OA
BRANCH  33  36
ATOM     36  C   UNL A   1      38.607  32.392  34.686  1.00  0.00     0.039 A 
ATOM     37  C   UNL A   1      39.908  32.768  35.046  1.00  0.00     0.014 A 
ATOM     38  C   UNL A   1      38.431  31.568  33.580  1.00  0.00     0.014 A 
ATOM     39  C   UNL A   1      41.008  32.249  34.354  1.00  0.00     0.010 A 
ATOM     40  C   UNL A   1      39.520  30.933  32.994  1.00  0.00     0.010 A 
ATOM     41  C   UNL A   1      40.826  31.283  33.352  1.00  0.00    -0.014 A 
BRANCH  41  42
ATOM     42  C   UNL A   1      41.972  30.645  32.650  1.00  0.00     0.031 A 
ATOM     43  C   UNL A   1      42.581  31.302  31.434  1.00  0.00     0.074 A 
ATOM     44  C   UNL A   1      42.406  29.430  33.043  1.00  0.00     0.049 A 
ATOM     45  N   UNL A   1      43.529  30.864  30.647  1.00  0.00    -0.248 NA
ATOM     46  C   UNL A   1      42.026  32.605  31.024  1.00  0.00     0.031 C 
ATOM     47  C   UNL A   1      41.841  28.643  34.141  1.00  0.00     0.029 A 
ATOM     48  N   UNL A   1      43.404  28.629  32.545  1.00  0.00    -0.354 N 
ATOM     49  C   UNL A   1      43.648  31.806  29.630  1.00  0.00     0.074 A 
ATOM     50  C   UNL A   1      42.643  32.815  29.871  1.00  0.00     0.031 C 
ATOM     51  C   UNL A   1      42.513  27.486  34.248  1.00  0.00     0.029 A 
ATOM     52  C   UNL A   1      43.527  27.426  33.202  1.00  0.00     0.049 A 
ATOM     53  H   UNL A   1      43.978  28.891  31.790  1.00  0.00     0.167 HD
ATOM     54  C   UNL A   1      44.535  31.852  28.608  1.00  0.00     0.034 A 
ATOM     55  C   UNL A   1      44.357  26.387  32.982  1.00  0.00     0.034 A 
ATOM     56  C   UNL A   1      45.572  30.876  28.404  1.00  0.00     0.049 A 
ATOM     57  C   UNL A   1      45.370  26.487  31.873  1.00  0.00     0.074 A 
ATOM     58  C   UNL A   1      46.585  30.883  27.464  1.00  0.00     0.029 A 
ATOM     59  N   UNL A   1      45.722  29.717  29.148  1.00  0.00    -0.354 N 
ATOM     60  N   UNL A   1      45.572  27.466  31.025  1.00  0.00    -0.248 NA
ATOM     61  C   UNL A   1      46.293  25.355  31.714  1.00  0.00     0.031 C 
ATOM     62  C   UNL A   1      47.330  29.710  27.618  1.00  0.00     0.029 A 
ATOM     63  C   UNL A   1      46.804  28.992  28.680  1.00  0.00     0.049 A 
ATOM     64  H   UNL A   1      45.145  29.449  29.899  1.00  0.00     0.167 HD
ATOM     65  C   UNL A   1      46.665  27.084  30.255  1.00  0.00     0.074 A 
ATOM     66  C   UNL A   1      47.097  25.795  30.756  1.00  0.00     0.031 C 
ATOM     67  C   UNL A   1      47.250  27.734  29.219  1.00  0.00     0.034 A 
BRANCH  54  68
ATOM     68  C   UNL A   1      44.460  33.024  27.663  1.00  0.00     0.023 A 
ATOM     69  C   UNL A   1      43.844  32.869  26.403  1.00  0.00     0.012 A 
ATOM     70  C   UNL A   1      44.950  34.290  28.039  1.00  0.00     0.148 A 
ATOM     71  C   UNL A   1      43.754  33.942  25.518  1.00  0.00     0.002 A 
ATOM     72  C   UNL A   1      44.811  35.367  27.172  1.00  0.00     0.091 A 
ATOM     73  F   UNL A   1      45.550  34.415  29.232  1.00  0.00    -0.205 F 
ATOM     74  C   UNL A   1      44.227  35.193  25.906  1.00  0.00     0.022 A 
BRANCH  72  75
ATOM     75  S   UNL A   1      45.309  37.037  27.607  1.00  0.00     0.127 S 
ATOM     76  O   UNL A   1      46.765  36.917  27.624  1.00  0.00    -0.237 OA
ATOM     77  O   UNL A   1      44.773  37.817  26.493  1.00  0.00    -0.237 OA
ATOM     78  O   UNL A   1      44.691  37.317  28.899  1.00  0.00    -0.744 OA
ENDBRANCH  72  75
ENDBRANCH  54  68
BRANCH  55  79
ATOM     79  C   UNL A   1      44.309  25.192  33.872  1.00  0.00     0.023 A 
ATOM     80  C   UNL A   1      43.490  24.100  33.522  1.00  0.00     0.012 A 
ATOM     81  C   UNL A   1      45.084  25.119  35.047  1.00  0.00     0.148 A 
ATOM     82  C   UNL A   1      43.416  22.974  34.343  1.00  0.00     0.002 A 
ATOM     83  C   UNL A   1      45.051  23.970  35.828  1.00  0.00     0.091 A 
ATOM     84  F   UNL A   1      45.851  26.171  35.367  1.00  0.00    -0.205 F 
ATOM     85  C   UNL A   1      44.202  22.905  35.489  1.00  0.00     0.022 A 
BRANCH  83  86
ATOM     86  S   UNL A   1      46.132  23.736  37.243  1.00  0.00     0.127 S 
ATOM     87  O   UNL A   1      45.645  22.471  37.787  1.00  0.00    -0.237 OA
ATOM     88  O   UNL A   1      47.449  23.667  36.608  1.00  0.00    -0.237 OA
ATOM     89  O   UNL A   1      45.938  24.906  38.088  1.00  0.00    -0.744 OA
ENDBRANCH  83  86
ENDBRANCH  55  79
BRANCH  67  90
ATOM     90  C   UNL A   1      48.448  27.085  28.575  1.00  0.00     0.023 A 
ATOM     91  C   UNL A   1      48.278  26.249  27.454  1.00  0.00     0.012 A 
ATOM     92  C   UNL A   1      49.748  27.363  29.039  1.00  0.00     0.148 A 
ATOM     93  C   UNL A   1      49.382  25.669  26.829  1.00  0.00     0.002 A 
ATOM     94  C   UNL A   1      50.846  26.826  28.379  1.00  0.00     0.091 A 
ATOM     95  F   UNL A   1      49.888  28.149  30.118  1.00  0.00    -0.205 F 
ATOM     96  C   UNL A   1      50.665  25.967  27.283  1.00  0.00     0.022 A 
BRANCH  94  97
ATOM     97  S   UNL A   1      52.535  27.233  28.830  1.00  0.00     0.127 S 
ATOM     98  O   UNL A   1      52.642  26.633  30.159  1.00  0.00    -0.237 OA
ATOM     99  O   UNL A   1      53.306  26.553  27.790  1.00  0.00    -0.237 OA
ATOM    100  O   UNL A   1      52.623  28.688  28.794  1.00  0.00    -0.744 OA
ENDBRANCH  94  97
ENDBRANCH  67  90
ENDBRANCH  41  42
ENDBRANCH  33  36
ENDBRANCH  31  32
ENDBRANCH  30  31
ENDBRANCH  29  30
ENDBRANCH   3  29
TORSDOF 19
ENDMDL
