MODEL 1
REMARK VINA RESULT:     -13.6      0.000      0.000
REMARK SMILES CN1C(=O)/C(=C\c2cccc(Cl)c2)Sc2ccc(C(=O)NCCCNC(=O)c3ccc(-c4c5nc(c(-c6cccc(S(=O)(=O)[O-])c6F)c6ccc([nH]6)c(-c6cccc(S(=O)(=O)[O-])c6F)c6nc(c(-c7cccc(S(=O)(=O)[O-])c7F)c7ccc4[nH]7)C=C6)C=C5)cc3)cc21
REMARK SMILES IDX 24 1 23 2 22 3 21 4 19 5 20 6 18 8 1 9 2 10 3 11 92 12 4 13
REMARK SMILES IDX 5 14 15 15 91 16 6 17 14 18 16 19 17 20 7 21 8 22 13 23 9 24
REMARK SMILES IDX 11 25 10 26 12 27 25 28 26 29 27 31 28 32 29 33 90 34 30 35
REMARK SMILES IDX 89 36 31 37 32 38 33 39 83 40 34 41 88 42 82 43 84 44 35 45
REMARK SMILES IDX 87 46 81 47 80 48 36 50 68 51 48 52 67 53 49 54 52 55 66 56
REMARK SMILES IDX 85 57 50 58 51 59 65 61 86 62 53 63 37 64 38 65 46 66 39 67
REMARK SMILES IDX 41 68 47 69 40 70 42 71 43 72 44 73 45 74 69 75 70 76 78 77
REMARK SMILES IDX 71 78 73 79 79 80 72 81 74 82 75 83 76 84 77 85 54 86 55 87
REMARK SMILES IDX 63 88 56 89 58 90 64 91 57 92 59 93 60 94 61 95 62 96
REMARK H PARENT 21 7 25 30 84 49 52 60
REMARK Flexibility Score: inf
ROOT
ATOM      1  C   UNL A   1      32.129  30.162  26.514  1.00  0.00     0.118 C 
ENDROOT
BRANCH   1   2
ATOM      2  C   UNL A   1      32.091  29.729  25.052  1.00  0.00     0.042 C 
BRANCH   2   3
ATOM      3  C   UNL A   1      30.673  29.581  24.506  1.00  0.00     0.118 C 
BRANCH   3   4
ATOM      4  N   UNL A   1      30.677  28.956  23.197  1.00  0.00    -0.352 N 
ATOM      5  C   UNL A   1      30.755  27.652  22.794  1.00  0.00     0.251 C 
ATOM      6  O   UNL A   1      30.666  27.433  21.583  1.00  0.00    -0.269 OA
ATOM      7  H   UNL A   1      30.611  29.598  22.454  1.00  0.00     0.163 HD
BRANCH   5   8
ATOM      8  C   UNL A   1      30.896  26.494  23.723  1.00  0.00     0.041 A 
ATOM      9  C   UNL A   1      33.725  23.570  22.451  1.00  0.00     0.153 C 
ATOM     10  N   UNL A   1      32.946  23.337  23.660  1.00  0.00    -0.310 N 
ATOM     11  C   UNL A   1      33.303  22.234  24.428  1.00  0.00     0.264 C 
ATOM     12  C   UNL A   1      31.979  24.306  24.079  1.00  0.00     0.058 A 
ATOM     13  O   UNL A   1      34.385  21.661  24.300  1.00  0.00    -0.268 OA
ATOM     14  C   UNL A   1      32.264  21.704  25.365  1.00  0.00     0.078 C 
ATOM     15  C   UNL A   1      31.343  24.212  25.327  1.00  0.00     0.036 A 
ATOM     16  C   UNL A   1      31.715  25.437  23.285  1.00  0.00     0.041 A 
ATOM     17  C   UNL A   1      31.951  20.395  25.402  1.00  0.00     0.029 C 
ATOM     18  S   UNL A   1      31.503  22.823  26.425  1.00  0.00    -0.082 SA
ATOM     19  C   UNL A   1      30.547  25.273  25.781  1.00  0.00     0.018 A 
ATOM     20  C   UNL A   1      30.352  26.415  25.001  1.00  0.00     0.015 A 
BRANCH  17  21
ATOM     21  C   UNL A   1      32.571  19.372  24.553  1.00  0.00    -0.023 A 
ATOM     22  C   UNL A   1      32.159  19.237  23.221  1.00  0.00     0.008 A 
ATOM     23  C   UNL A   1      33.509  18.479  25.081  1.00  0.00     0.028 A 
ATOM     24  C   UNL A   1      32.648  18.196  22.432  1.00  0.00     0.002 A 
ATOM     25  C   UNL A   1      34.004  17.449  24.281  1.00  0.00     0.041 A 
ATOM     26  C   UNL A   1      33.572  17.298  22.963  1.00  0.00     0.020 A 
ATOM     27  Cl  UNL A   1      35.143  16.334  24.933  1.00  0.00    -0.084 Cl
ENDBRANCH  17  21
ENDBRANCH   5   8
ENDBRANCH   3   4
ENDBRANCH   2   3
ENDBRANCH   1   2
BRANCH   1  28
ATOM     28  N   UNL A   1      32.088  31.610  26.661  1.00  0.00    -0.352 N 
ATOM     29  C   UNL A   1      32.935  32.451  27.348  1.00  0.00     0.251 C 
ATOM     30  H   UNL A   1      31.341  32.056  26.201  1.00  0.00     0.163 HD
ATOM     31  O   UNL A   1      32.612  33.617  27.527  1.00  0.00    -0.269 OA
BRANCH  29  32
ATOM     32  C   UNL A   1      34.214  31.932  27.886  1.00  0.00     0.039 A 
ATOM     33  C   UNL A   1      34.356  30.584  28.213  1.00  0.00     0.014 A 
ATOM     34  C   UNL A   1      35.287  32.812  28.065  1.00  0.00     0.014 A 
ATOM     35  C   UNL A   1      35.498  30.149  28.876  1.00  0.00     0.010 A 
ATOM     36  C   UNL A   1      36.469  32.354  28.652  1.00  0.00     0.010 A 
ATOM     37  C   UNL A   1      36.567  31.030  29.110  1.00  0.00    -0.014 A 
BRANCH  37  38
ATOM     38  C   UNL A   1      37.772  30.539  29.826  1.00  0.00     0.031 A 
ATOM     39  C   UNL A   1      38.028  30.917  31.261  1.00  0.00     0.074 A 
ATOM     40  C   UNL A   1      38.623  29.714  29.186  1.00  0.00     0.049 A 
ATOM     41  N   UNL A   1      39.009  30.545  32.041  1.00  0.00    -0.248 NA
ATOM     42  C   UNL A   1      37.068  31.829  31.903  1.00  0.00     0.031 C 
ATOM     43  C   UNL A   1      38.500  29.299  27.787  1.00  0.00     0.029 A 
ATOM     44  N   UNL A   1      39.751  29.068  29.627  1.00  0.00    -0.354 N 
ATOM     45  C   UNL A   1      38.816  31.213  33.244  1.00  0.00     0.074 A 
ATOM     46  C   UNL A   1      37.620  32.013  33.095  1.00  0.00     0.031 C 
ATOM     47  C   UNL A   1      39.485  28.437  27.497  1.00  0.00     0.029 A 
ATOM     48  C   UNL A   1      40.339  28.277  28.669  1.00  0.00     0.049 A 
ATOM     49  H   UNL A   1      40.104  29.161  30.542  1.00  0.00     0.167 HD
ATOM     50  C   UNL A   1      39.555  31.150  34.376  1.00  0.00     0.034 A 
ATOM     51  C   UNL A   1      41.447  27.512  28.719  1.00  0.00     0.034 A 
ATOM     52  C   UNL A   1      40.706  30.306  34.546  1.00  0.00     0.049 A 
ATOM     53  C   UNL A   1      42.230  27.433  29.995  1.00  0.00     0.074 A 
ATOM     54  C   UNL A   1      41.470  30.120  35.685  1.00  0.00     0.029 A 
ATOM     55  N   UNL A   1      41.257  29.507  33.558  1.00  0.00    -0.354 N 
ATOM     56  N   UNL A   1      41.972  27.998  31.149  1.00  0.00    -0.248 NA
ATOM     57  C   UNL A   1      43.445  26.607  29.984  1.00  0.00     0.031 C 
ATOM     58  C   UNL A   1      42.492  29.216  35.382  1.00  0.00     0.029 A 
ATOM     59  C   UNL A   1      42.358  28.833  34.056  1.00  0.00     0.049 A 
ATOM     60  H   UNL A   1      40.917  29.431  32.638  1.00  0.00     0.167 HD
ATOM     61  C   UNL A   1      42.988  27.593  32.005  1.00  0.00     0.074 A 
ATOM     62  C   UNL A   1      43.854  26.716  31.243  1.00  0.00     0.031 C 
ATOM     63  C   UNL A   1      43.190  27.935  33.300  1.00  0.00     0.034 A 
BRANCH  50  64
ATOM     64  C   UNL A   1      39.124  31.985  35.550  1.00  0.00     0.023 A 
ATOM     65  C   UNL A   1      38.271  31.424  36.521  1.00  0.00     0.012 A 
ATOM     66  C   UNL A   1      39.639  33.282  35.741  1.00  0.00     0.148 A 
ATOM     67  C   UNL A   1      37.927  32.147  37.661  1.00  0.00     0.002 A 
ATOM     68  C   UNL A   1      39.314  33.985  36.895  1.00  0.00     0.091 A 
ATOM     69  F   UNL A   1      40.436  33.798  34.796  1.00  0.00    -0.205 F 
ATOM     70  C   UNL A   1      38.456  33.421  37.854  1.00  0.00     0.022 A 
BRANCH  68  71
ATOM     71  S   UNL A   1      39.984  35.610  37.265  1.00  0.00     0.127 S 
ATOM     72  O   UNL A   1      39.279  35.943  38.502  1.00  0.00    -0.237 OA
ATOM     73  O   UNL A   1      41.409  35.324  37.433  1.00  0.00    -0.237 OA
ATOM     74  O   UNL A   1      39.660  36.450  36.120  1.00  0.00    -0.744 OA
ENDBRANCH  68  71
ENDBRANCH  50  64
BRANCH  51  75
ATOM     75  C   UNL A   1      41.831  26.731  27.513  1.00  0.00     0.023 A 
ATOM     76  C   UNL A   1      42.567  27.358  26.492  1.00  0.00     0.012 A 
ATOM     77  C   UNL A   1      41.572  25.348  27.435  1.00  0.00     0.148 A 
ATOM     78  C   UNL A   1      43.046  26.618  25.410  1.00  0.00     0.002 A 
ATOM     79  C   UNL A   1      42.092  24.609  26.380  1.00  0.00     0.091 A 
ATOM     80  F   UNL A   1      40.868  24.781  28.424  1.00  0.00    -0.205 F 
ATOM     81  C   UNL A   1      42.821  25.244  25.362  1.00  0.00     0.022 A 
BRANCH  79  82
ATOM     82  S   UNL A   1      41.963  22.820  26.295  1.00  0.00     0.127 S 
ATOM     83  O   UNL A   1      42.716  22.525  25.079  1.00  0.00    -0.237 OA
ATOM     84  O   UNL A   1      42.621  22.417  27.540  1.00  0.00    -0.237 OA
ATOM     85  O   UNL A   1      40.540  22.524  26.237  1.00  0.00    -0.744 OA
ENDBRANCH  79  82
ENDBRANCH  51  75
BRANCH  63  86
ATOM     86  C   UNL A   1      44.398  27.374  33.997  1.00  0.00     0.023 A 
ATOM     87  C   UNL A   1      45.605  28.097  33.966  1.00  0.00     0.012 A 
ATOM     88  C   UNL A   1      44.300  26.210  34.784  1.00  0.00     0.148 A 
ATOM     89  C   UNL A   1      46.703  27.666  34.707  1.00  0.00     0.002 A 
ATOM     90  C   UNL A   1      45.389  25.806  35.546  1.00  0.00     0.091 A 
ATOM     91  F   UNL A   1      43.140  25.537  34.787  1.00  0.00    -0.205 F 
ATOM     92  C   UNL A   1      46.592  26.530  35.506  1.00  0.00     0.022 A 
BRANCH  90  93
ATOM     93  S   UNL A   1      45.321  24.401  36.664  1.00  0.00     0.127 S 
ATOM     94  O   UNL A   1      44.682  23.387  35.827  1.00  0.00    -0.237 OA
ATOM     95  O   UNL A   1      46.736  24.160  36.944  1.00  0.00    -0.237 OA
ATOM     96  O   UNL A   1      44.539  24.838  37.814  1.00  0.00    -0.744 OA
ENDBRANCH  90  93
ENDBRANCH  63  86
ENDBRANCH  37  38
ENDBRANCH  29  32
ENDBRANCH   1  28
TORSDOF 14
ENDMDL
MODEL 2
REMARK VINA RESULT:     -13.6      5.356     10.558
REMARK SMILES CN1C(=O)/C(=C\c2cccc(Cl)c2)Sc2ccc(C(=O)NCCCNC(=O)c3ccc(-c4c5nc(c(-c6cccc(S(=O)(=O)[O-])c6F)c6ccc([nH]6)c(-c6cccc(S(=O)(=O)[O-])c6F)c6nc(c(-c7cccc(S(=O)(=O)[O-])c7F)c7ccc4[nH]7)C=C6)C=C5)cc3)cc21
REMARK SMILES IDX 24 1 23 2 22 3 21 4 19 5 20 6 18 8 1 9 2 10 3 11 92 12 4 13
REMARK SMILES IDX 5 14 15 15 91 16 6 17 14 18 16 19 17 20 7 21 8 22 13 23 9 24
REMARK SMILES IDX 11 25 10 26 12 27 25 28 26 29 27 31 28 32 29 33 90 34 30 35
REMARK SMILES IDX 89 36 31 37 32 38 33 39 83 40 34 41 88 42 82 43 84 44 35 45
REMARK SMILES IDX 87 46 81 47 80 48 36 50 68 51 48 52 67 53 49 54 52 55 66 56
REMARK SMILES IDX 85 57 50 58 51 59 65 61 86 62 53 63 37 64 38 65 46 66 39 67
REMARK SMILES IDX 41 68 47 69 40 70 42 71 43 72 44 73 45 74 69 75 70 76 78 77
REMARK SMILES IDX 71 78 73 79 79 80 72 81 74 82 75 83 76 84 77 85 54 86 55 87
REMARK SMILES IDX 63 88 56 89 58 90 64 91 57 92 59 93 60 94 61 95 62 96
REMARK H PARENT 21 7 25 30 84 49 52 60
REMARK Flexibility Score: inf
ROOT
ATOM      1  C   UNL A   1      37.245  22.025  25.316  1.00  0.00     0.118 C 
ENDROOT
BRANCH   1   2
ATOM      2  C   UNL A   1      35.853  21.627  25.796  1.00  0.00     0.042 C 
BRANCH   2   3
ATOM      3  C   UNL A   1      35.238  20.491  24.983  1.00  0.00     0.118 C 
BRANCH   3   4
ATOM      4  N   UNL A   1      33.818  20.363  25.249  1.00  0.00    -0.352 N 
ATOM      5  C   UNL A   1      32.743  21.150  24.937  1.00  0.00     0.251 C 
ATOM      6  O   UNL A   1      31.628  20.727  25.253  1.00  0.00    -0.269 OA
ATOM      7  H   UNL A   1      33.582  19.551  25.752  1.00  0.00     0.163 HD
BRANCH   5   8
ATOM      8  C   UNL A   1      32.838  22.448  24.209  1.00  0.00     0.041 A 
ATOM      9  C   UNL A   1      30.633  25.621  26.010  1.00  0.00     0.153 C 
ATOM     10  N   UNL A   1      31.323  25.852  24.747  1.00  0.00    -0.310 N 
ATOM     11  C   UNL A   1      31.358  27.164  24.288  1.00  0.00     0.264 C 
ATOM     12  C   UNL A   1      32.046  24.783  24.127  1.00  0.00     0.058 A 
ATOM     13  O   UNL A   1      31.116  28.127  25.016  1.00  0.00    -0.268 OA
ATOM     14  C   UNL A   1      31.614  27.357  22.827  1.00  0.00     0.078 C 
ATOM     15  C   UNL A   1      32.872  25.008  23.015  1.00  0.00     0.036 A 
ATOM     16  C   UNL A   1      32.022  23.491  24.684  1.00  0.00     0.041 A 
ATOM     17  C   UNL A   1      30.830  28.152  22.074  1.00  0.00     0.029 C 
ATOM     18  S   UNL A   1      32.970  26.554  22.143  1.00  0.00    -0.082 SA
ATOM     19  C   UNL A   1      33.707  23.981  22.553  1.00  0.00     0.018 A 
ATOM     20  C   UNL A   1      33.713  22.724  23.164  1.00  0.00     0.015 A 
BRANCH  17  21
ATOM     21  C   UNL A   1      29.672  28.894  22.583  1.00  0.00    -0.023 A 
ATOM     22  C   UNL A   1      28.482  28.209  22.865  1.00  0.00     0.008 A 
ATOM     23  C   UNL A   1      29.717  30.286  22.713  1.00  0.00     0.028 A 
ATOM     24  C   UNL A   1      27.334  28.910  23.237  1.00  0.00     0.002 A 
ATOM     25  C   UNL A   1      28.568  30.978  23.098  1.00  0.00     0.041 A 
ATOM     26  C   UNL A   1      27.376  30.298  23.352  1.00  0.00     0.020 A 
ATOM     27  Cl  UNL A   1      28.612  32.693  23.240  1.00  0.00    -0.084 Cl
ENDBRANCH  17  21
ENDBRANCH   5   8
ENDBRANCH   3   4
ENDBRANCH   2   3
ENDBRANCH   1   2
BRANCH   1  28
ATOM     28  N   UNL A   1      38.248  21.024  25.648  1.00  0.00    -0.352 N 
ATOM     29  C   UNL A   1      39.507  21.182  26.183  1.00  0.00     0.251 C 
ATOM     30  H   UNL A   1      37.989  20.093  25.460  1.00  0.00     0.163 HD
ATOM     31  O   UNL A   1      40.281  20.235  26.191  1.00  0.00    -0.269 OA
BRANCH  29  32
ATOM     32  C   UNL A   1      39.923  22.499  26.718  1.00  0.00     0.039 A 
ATOM     33  C   UNL A   1      39.409  23.681  26.183  1.00  0.00     0.014 A 
ATOM     34  C   UNL A   1      40.840  22.550  27.772  1.00  0.00     0.014 A 
ATOM     35  C   UNL A   1      39.937  24.905  26.577  1.00  0.00     0.010 A 
ATOM     36  C   UNL A   1      41.306  23.786  28.228  1.00  0.00     0.010 A 
ATOM     37  C   UNL A   1      40.897  24.973  27.600  1.00  0.00    -0.014 A 
BRANCH  37  38
ATOM     38  C   UNL A   1      41.448  26.295  27.995  1.00  0.00     0.031 A 
ATOM     39  C   UNL A   1      42.857  26.685  27.638  1.00  0.00     0.074 A 
ATOM     40  C   UNL A   1      40.655  27.166  28.649  1.00  0.00     0.049 A 
ATOM     41  N   UNL A   1      43.478  27.811  27.874  1.00  0.00    -0.248 NA
ATOM     42  C   UNL A   1      43.678  25.688  26.933  1.00  0.00     0.031 C 
ATOM     43  C   UNL A   1      39.280  26.894  29.076  1.00  0.00     0.029 A 
ATOM     44  N   UNL A   1      40.882  28.456  29.058  1.00  0.00    -0.354 N 
ATOM     45  C   UNL A   1      44.772  27.643  27.395  1.00  0.00     0.074 A 
ATOM     46  C   UNL A   1      44.849  26.306  26.850  1.00  0.00     0.031 C 
ATOM     47  C   UNL A   1      38.773  27.995  29.649  1.00  0.00     0.029 A 
ATOM     48  C   UNL A   1      39.798  29.033  29.676  1.00  0.00     0.049 A 
ATOM     49  H   UNL A   1      41.738  28.923  28.921  1.00  0.00     0.167 HD
ATOM     50  C   UNL A   1      45.795  28.529  27.391  1.00  0.00     0.034 A 
ATOM     51  C   UNL A   1      39.642  30.258  30.215  1.00  0.00     0.034 A 
ATOM     52  C   UNL A   1      45.699  29.879  27.873  1.00  0.00     0.049 A 
ATOM     53  C   UNL A   1      40.781  31.233  30.168  1.00  0.00     0.074 A 
ATOM     54  C   UNL A   1      46.664  30.872  27.837  1.00  0.00     0.029 A 
ATOM     55  N   UNL A   1      44.579  30.430  28.475  1.00  0.00    -0.354 N 
ATOM     56  N   UNL A   1      41.963  31.084  29.622  1.00  0.00    -0.248 NA
ATOM     57  C   UNL A   1      40.565  32.543  30.796  1.00  0.00     0.031 C 
ATOM     58  C   UNL A   1      46.131  32.020  28.428  1.00  0.00     0.029 A 
ATOM     59  C   UNL A   1      44.831  31.745  28.824  1.00  0.00     0.049 A 
ATOM     60  H   UNL A   1      43.732  29.956  28.631  1.00  0.00     0.167 HD
ATOM     61  C   UNL A   1      42.632  32.282  29.835  1.00  0.00     0.074 A 
ATOM     62  C   UNL A   1      41.716  33.155  30.541  1.00  0.00     0.031 C 
ATOM     63  C   UNL A   1      43.899  32.616  29.492  1.00  0.00     0.034 A 
BRANCH  50  64
ATOM     64  C   UNL A   1      47.109  28.090  26.806  1.00  0.00     0.023 A 
ATOM     65  C   UNL A   1      48.142  27.669  27.667  1.00  0.00     0.012 A 
ATOM     66  C   UNL A   1      47.285  28.001  25.412  1.00  0.00     0.148 A 
ATOM     67  C   UNL A   1      49.338  27.176  27.148  1.00  0.00     0.002 A 
ATOM     68  C   UNL A   1      48.469  27.481  24.902  1.00  0.00     0.091 A 
ATOM     69  F   UNL A   1      46.293  28.422  24.615  1.00  0.00    -0.205 F 
ATOM     70  C   UNL A   1      49.497  27.072  25.768  1.00  0.00     0.022 A 
BRANCH  68  71
ATOM     71  S   UNL A   1      48.754  27.255  23.143  1.00  0.00     0.127 S 
ATOM     72  O   UNL A   1      48.031  28.395  22.581  1.00  0.00    -0.237 OA
ATOM     73  O   UNL A   1      50.211  27.353  23.053  1.00  0.00    -0.237 OA
ATOM     74  O   UNL A   1      48.207  25.947  22.810  1.00  0.00    -0.744 OA
ENDBRANCH  68  71
ENDBRANCH  50  64
BRANCH  51  75
ATOM     75  C   UNL A   1      38.324  30.620  30.800  1.00  0.00     0.023 A 
ATOM     76  C   UNL A   1      38.076  30.352  32.158  1.00  0.00     0.012 A 
ATOM     77  C   UNL A   1      37.369  31.330  30.046  1.00  0.00     0.148 A 
ATOM     78  C   UNL A   1      36.897  30.793  32.761  1.00  0.00     0.002 A 
ATOM     79  C   UNL A   1      36.219  31.806  30.663  1.00  0.00     0.091 A 
ATOM     80  F   UNL A   1      37.635  31.569  28.754  1.00  0.00    -0.205 F 
ATOM     81  C   UNL A   1      35.978  31.531  32.019  1.00  0.00     0.022 A 
BRANCH  79  82
ATOM     82  S   UNL A   1      35.040  32.870  29.826  1.00  0.00     0.127 S 
ATOM     83  O   UNL A   1      34.422  31.943  28.881  1.00  0.00    -0.237 OA
ATOM     84  O   UNL A   1      34.179  33.287  30.933  1.00  0.00    -0.237 OA
ATOM     85  O   UNL A   1      35.823  33.941  29.228  1.00  0.00    -0.744 OA
ENDBRANCH  79  82
ENDBRANCH  51  75
BRANCH  63  86
ATOM     86  C   UNL A   1      44.395  33.983  29.871  1.00  0.00     0.023 A 
ATOM     87  C   UNL A   1      45.120  34.142  31.067  1.00  0.00     0.012 A 
ATOM     88  C   UNL A   1      44.259  35.070  28.986  1.00  0.00     0.148 A 
ATOM     89  C   UNL A   1      45.700  35.369  31.381  1.00  0.00     0.002 A 
ATOM     90  C   UNL A   1      44.869  36.281  29.291  1.00  0.00     0.091 A 
ATOM     91  F   UNL A   1      43.557  34.891  27.858  1.00  0.00    -0.205 F 
ATOM     92  C   UNL A   1      45.585  36.433  30.489  1.00  0.00     0.022 A 
BRANCH  90  93
ATOM     93  S   UNL A   1      44.844  37.686  28.172  1.00  0.00     0.127 S 
ATOM     94  O   UNL A   1      45.498  37.133  26.987  1.00  0.00    -0.237 OA
ATOM     95  O   UNL A   1      43.411  37.934  28.019  1.00  0.00    -0.237 OA
ATOM     96  O   UNL A   1      45.577  38.751  28.844  1.00  0.00    -0.744 OA
ENDBRANCH  90  93
ENDBRANCH  63  86
ENDBRANCH  37  38
ENDBRANCH  29  32
ENDBRANCH   1  28
TORSDOF 14
ENDMDL
MODEL 3
REMARK VINA RESULT:     -13.6      5.142     10.575
REMARK SMILES CN1C(=O)/C(=C\c2cccc(Cl)c2)Sc2ccc(C(=O)NCCCNC(=O)c3ccc(-c4c5nc(c(-c6cccc(S(=O)(=O)[O-])c6F)c6ccc([nH]6)c(-c6cccc(S(=O)(=O)[O-])c6F)c6nc(c(-c7cccc(S(=O)(=O)[O-])c7F)c7ccc4[nH]7)C=C6)C=C5)cc3)cc21
REMARK SMILES IDX 24 1 23 2 22 3 21 4 19 5 20 6 18 8 1 9 2 10 3 11 92 12 4 13
REMARK SMILES IDX 5 14 15 15 91 16 6 17 14 18 16 19 17 20 7 21 8 22 13 23 9 24
REMARK SMILES IDX 11 25 10 26 12 27 25 28 26 29 27 31 28 32 29 33 90 34 30 35
REMARK SMILES IDX 89 36 31 37 32 38 33 39 83 40 34 41 88 42 82 43 84 44 35 45
REMARK SMILES IDX 87 46 81 47 80 48 36 50 68 51 48 52 67 53 49 54 52 55 66 56
REMARK SMILES IDX 85 57 50 58 51 59 65 61 86 62 53 63 37 64 38 65 46 66 39 67
REMARK SMILES IDX 41 68 47 69 40 70 42 71 43 72 44 73 45 74 69 75 70 76 78 77
REMARK SMILES IDX 71 78 73 79 79 80 72 81 74 82 75 83 76 84 77 85 54 86 55 87
REMARK SMILES IDX 63 88 56 89 58 90 64 91 57 92 59 93 60 94 61 95 62 96
REMARK H PARENT 21 7 25 30 84 49 52 60
REMARK Flexibility Score: inf
ROOT
ATOM      1  C   UNL A   1      37.131  21.448  24.876  1.00  0.00     0.118 C 
ENDROOT
BRANCH   1   2
ATOM      2  C   UNL A   1      35.730  21.294  25.460  1.00  0.00     0.042 C 
BRANCH   2   3
ATOM      3  C   UNL A   1      34.898  20.227  24.754  1.00  0.00     0.118 C 
BRANCH   3   4
ATOM      4  N   UNL A   1      33.520  20.249  25.209  1.00  0.00    -0.352 N 
ATOM      5  C   UNL A   1      32.501  21.144  25.033  1.00  0.00     0.251 C 
ATOM      6  O   UNL A   1      31.401  20.841  25.502  1.00  0.00    -0.269 OA
ATOM      7  H   UNL A   1      33.271  19.466  25.751  1.00  0.00     0.163 HD
BRANCH   5   8
ATOM      8  C   UNL A   1      32.631  22.426  24.282  1.00  0.00     0.041 A 
ATOM      9  C   UNL A   1      30.555  25.703  26.049  1.00  0.00     0.153 C 
ATOM     10  N   UNL A   1      31.238  25.888  24.775  1.00  0.00    -0.310 N 
ATOM     11  C   UNL A   1      31.313  27.191  24.293  1.00  0.00     0.264 C 
ATOM     12  C   UNL A   1      31.918  24.785  24.167  1.00  0.00     0.058 A 
ATOM     13  O   UNL A   1      31.111  28.173  25.007  1.00  0.00    -0.268 OA
ATOM     14  C   UNL A   1      31.559  27.349  22.826  1.00  0.00     0.078 C 
ATOM     15  C   UNL A   1      32.739  24.962  23.043  1.00  0.00     0.036 A 
ATOM     16  C   UNL A   1      31.857  23.505  24.747  1.00  0.00     0.041 A 
ATOM     17  C   UNL A   1      30.794  28.157  22.067  1.00  0.00     0.029 C 
ATOM     18  S   UNL A   1      32.880  26.488  22.142  1.00  0.00    -0.082 SA
ATOM     19  C   UNL A   1      33.534  23.899  22.590  1.00  0.00     0.018 A 
ATOM     20  C   UNL A   1      33.504  22.654  23.223  1.00  0.00     0.015 A 
BRANCH  17  21
ATOM     21  C   UNL A   1      29.668  28.947  22.576  1.00  0.00    -0.023 A 
ATOM     22  C   UNL A   1      28.453  28.311  22.864  1.00  0.00     0.008 A 
ATOM     23  C   UNL A   1      29.767  30.336  22.699  1.00  0.00     0.028 A 
ATOM     24  C   UNL A   1      27.334  29.058  23.235  1.00  0.00     0.002 A 
ATOM     25  C   UNL A   1      28.648  31.075  23.083  1.00  0.00     0.041 A 
ATOM     26  C   UNL A   1      27.430  30.444  23.343  1.00  0.00     0.020 A 
ATOM     27  Cl  UNL A   1      28.759  32.788  23.215  1.00  0.00    -0.084 Cl
ENDBRANCH  17  21
ENDBRANCH   5   8
ENDBRANCH   3   4
ENDBRANCH   2   3
ENDBRANCH   1   2
BRANCH   1  28
ATOM     28  N   UNL A   1      38.026  20.382  25.305  1.00  0.00    -0.352 N 
ATOM     29  C   UNL A   1      39.257  20.459  25.916  1.00  0.00     0.251 C 
ATOM     30  H   UNL A   1      37.703  19.469  25.130  1.00  0.00     0.163 HD
ATOM     31  O   UNL A   1      39.948  19.453  26.006  1.00  0.00    -0.269 OA
BRANCH  29  32
ATOM     32  C   UNL A   1      39.745  21.757  26.435  1.00  0.00     0.039 A 
ATOM     33  C   UNL A   1      39.182  22.957  25.998  1.00  0.00     0.014 A 
ATOM     34  C   UNL A   1      40.781  21.772  27.374  1.00  0.00     0.014 A 
ATOM     35  C   UNL A   1      39.765  24.166  26.360  1.00  0.00     0.010 A 
ATOM     36  C   UNL A   1      41.309  22.992  27.806  1.00  0.00     0.010 A 
ATOM     37  C   UNL A   1      40.839  24.199  27.264  1.00  0.00    -0.014 A 
BRANCH  37  38
ATOM     38  C   UNL A   1      41.445  25.505  27.627  1.00  0.00     0.031 A 
ATOM     39  C   UNL A   1      42.833  25.869  27.173  1.00  0.00     0.074 A 
ATOM     40  C   UNL A   1      40.720  26.387  28.343  1.00  0.00     0.049 A 
ATOM     41  N   UNL A   1      43.494  26.981  27.372  1.00  0.00    -0.248 NA
ATOM     42  C   UNL A   1      43.580  24.861  26.403  1.00  0.00     0.031 C 
ATOM     43  C   UNL A   1      39.375  26.140  28.867  1.00  0.00     0.029 A 
ATOM     44  N   UNL A   1      41.004  27.668  28.744  1.00  0.00    -0.354 N 
ATOM     45  C   UNL A   1      44.746  26.790  26.799  1.00  0.00     0.074 A 
ATOM     46  C   UNL A   1      44.755  25.456  26.241  1.00  0.00     0.031 C 
ATOM     47  C   UNL A   1      38.933  27.246  29.482  1.00  0.00     0.029 A 
ATOM     48  C   UNL A   1      39.980  28.263  29.442  1.00  0.00     0.049 A 
ATOM     49  H   UNL A   1      41.857  28.119  28.549  1.00  0.00     0.167 HD
ATOM     50  C   UNL A   1      45.785  27.654  26.728  1.00  0.00     0.034 A 
ATOM     51  C   UNL A   1      39.890  29.486  30.000  1.00  0.00     0.034 A 
ATOM     52  C   UNL A   1      45.753  29.002  27.225  1.00  0.00     0.049 A 
ATOM     53  C   UNL A   1      41.042  30.437  29.879  1.00  0.00     0.074 A 
ATOM     54  C   UNL A   1      46.734  29.974  27.127  1.00  0.00     0.029 A 
ATOM     55  N   UNL A   1      44.691  29.570  27.910  1.00  0.00    -0.354 N 
ATOM     56  N   UNL A   1      42.178  30.268  29.248  1.00  0.00    -0.248 NA
ATOM     57  C   UNL A   1      40.900  31.747  30.530  1.00  0.00     0.031 C 
ATOM     58  C   UNL A   1      46.269  31.128  27.763  1.00  0.00     0.029 A 
ATOM     59  C   UNL A   1      44.995  30.876  28.249  1.00  0.00     0.049 A 
ATOM     60  H   UNL A   1      43.847  29.113  28.124  1.00  0.00     0.167 HD
ATOM     61  C   UNL A   1      42.886  31.450  29.420  1.00  0.00     0.074 A 
ATOM     62  C   UNL A   1      42.043  32.336  30.196  1.00  0.00     0.031 C 
ATOM     63  C   UNL A   1      44.133  31.761  28.989  1.00  0.00     0.034 A 
BRANCH  50  64
ATOM     64  C   UNL A   1      47.043  27.192  26.047  1.00  0.00     0.023 A 
ATOM     65  C   UNL A   1      47.237  27.483  24.682  1.00  0.00     0.012 A 
ATOM     66  C   UNL A   1      48.070  26.562  26.777  1.00  0.00     0.148 A 
ATOM     67  C   UNL A   1      48.431  27.142  24.050  1.00  0.00     0.002 A 
ATOM     68  C   UNL A   1      49.269  26.252  26.146  1.00  0.00     0.091 A 
ATOM     69  F   UNL A   1      47.854  26.283  28.070  1.00  0.00    -0.205 F 
ATOM     70  C   UNL A   1      49.449  26.538  24.783  1.00  0.00     0.022 A 
BRANCH  68  71
ATOM     71  S   UNL A   1      50.662  25.521  27.012  1.00  0.00     0.127 S 
ATOM     72  O   UNL A   1      51.585  25.254  25.909  1.00  0.00    -0.237 OA
ATOM     73  O   UNL A   1      51.075  26.606  27.902  1.00  0.00    -0.237 OA
ATOM     74  O   UNL A   1      50.144  24.340  27.688  1.00  0.00    -0.744 OA
ENDBRANCH  68  71
ENDBRANCH  50  64
BRANCH  51  75
ATOM     75  C   UNL A   1      38.624  29.870  30.681  1.00  0.00     0.023 A 
ATOM     76  C   UNL A   1      38.448  29.548  32.039  1.00  0.00     0.012 A 
ATOM     77  C   UNL A   1      37.656  30.652  30.020  1.00  0.00     0.148 A 
ATOM     78  C   UNL A   1      37.326  30.005  32.733  1.00  0.00     0.002 A 
ATOM     79  C   UNL A   1      36.566  31.142  30.729  1.00  0.00     0.091 A 
ATOM     80  F   UNL A   1      37.853  30.941  28.727  1.00  0.00    -0.205 F 
ATOM     81  C   UNL A   1      36.395  30.812  32.083  1.00  0.00     0.022 A 
BRANCH  79  82
ATOM     82  S   UNL A   1      35.384  32.288  30.014  1.00  0.00     0.127 S 
ATOM     83  O   UNL A   1      34.854  31.512  28.896  1.00  0.00    -0.237 OA
ATOM     84  O   UNL A   1      34.451  32.483  31.126  1.00  0.00    -0.237 OA
ATOM     85  O   UNL A   1      36.147  33.472  29.648  1.00  0.00    -0.744 OA
ENDBRANCH  79  82
ENDBRANCH  51  75
BRANCH  63  86
ATOM     86  C   UNL A   1      44.684  33.114  29.341  1.00  0.00     0.023 A 
ATOM     87  C   UNL A   1      45.438  33.262  30.520  1.00  0.00     0.012 A 
ATOM     88  C   UNL A   1      44.567  34.195  28.446  1.00  0.00     0.148 A 
ATOM     89  C   UNL A   1      46.067  34.471  30.807  1.00  0.00     0.002 A 
ATOM     90  C   UNL A   1      45.225  35.388  28.723  1.00  0.00     0.091 A 
ATOM     91  F   UNL A   1      43.836  34.028  27.334  1.00  0.00    -0.205 F 
ATOM     92  C   UNL A   1      45.971  35.528  29.905  1.00  0.00     0.022 A 
BRANCH  90  93
ATOM     93  S   UNL A   1      45.226  36.779  27.588  1.00  0.00     0.127 S 
ATOM     94  O   UNL A   1      45.732  37.855  28.438  1.00  0.00    -0.237 OA
ATOM     95  O   UNL A   1      46.155  36.331  26.551  1.00  0.00    -0.237 OA
ATOM     96  O   UNL A   1      43.848  36.938  27.141  1.00  0.00    -0.744 OA
ENDBRANCH  90  93
ENDBRANCH  63  86
ENDBRANCH  37  38
ENDBRANCH  29  32
ENDBRANCH   1  28
TORSDOF 14
ENDMDL
