MODEL 1
REMARK VINA RESULT:     -11.5      0.000      0.000
REMARK SMILES CCC(CC)([NH2+]Cc1ccc(I)cc1)C(=O)NCCCNC(=O)c1ccc(-c2c3nc(c(-c4cccc(S(=O)(=O)[O-])c4F)c4ccc([nH]4)c(-c4cccc(S(=O)(=O)[O-])c4F)c4nc(c(-c5cccc(S(=O)(=O)[O-])c5F)c5ccc2[nH]5)C=C4)C=C3)cc1
REMARK SMILES IDX 19 1 18 2 17 3 15 4 16 5 3 7 2 8 1 9 4 10 5 11 6 12 7 15
REMARK SMILES IDX 8 16 9 17 14 18 10 19 13 20 11 21 12 22 20 23 21 24 22 25
REMARK SMILES IDX 23 27 24 28 25 29 86 30 26 31 85 32 27 33 28 34 29 35 79 36
REMARK SMILES IDX 30 37 84 38 78 39 80 40 31 41 83 42 77 43 76 44 32 46 64 47
REMARK SMILES IDX 44 48 63 49 45 50 48 51 62 52 81 53 46 54 47 55 61 57 82 58
REMARK SMILES IDX 49 59 33 60 34 61 42 62 35 63 37 64 43 65 36 66 38 67 39 68
REMARK SMILES IDX 40 69 41 70 65 71 66 72 74 73 67 74 69 75 75 76 68 77 70 78
REMARK SMILES IDX 71 79 72 80 73 81 50 82 51 83 59 84 52 85 54 86 60 87 53 88
REMARK SMILES IDX 55 89 56 90 57 91 58 92
REMARK H PARENT 17 6 6 13 6 14 21 26 80 45 48 56
REMARK Flexibility Score: inf
ROOT
ATOM      1  C   UNL A   1      31.803  28.455  27.054  1.00  0.00     0.042 C 
ENDROOT
BRANCH   1   2
ATOM      2  C   UNL A   1      31.032  27.328  26.365  1.00  0.00     0.118 C 
BRANCH   2   3
ATOM      3  N   UNL A   1      31.362  26.060  26.974  1.00  0.00    -0.351 N 
ATOM      4  C   UNL A   1      31.606  24.829  26.451  1.00  0.00     0.281 C 
ATOM      5  O   UNL A   1      31.383  23.912  27.255  1.00  0.00    -0.268 OA
ATOM      6  H   UNL A   1      31.422  26.094  27.956  1.00  0.00     0.163 HD
BRANCH   4   7
ATOM      7  C   UNL A   1      32.218  24.548  25.020  1.00  0.00     0.175 C 
BRANCH   7   8
ATOM      8  C   UNL A   1      32.561  22.996  25.039  1.00  0.00     0.076 C 
ATOM      9  C   UNL A   1      31.816  22.122  24.026  1.00  0.00     0.011 C 
ENDBRANCH   7   8
BRANCH   7  10
ATOM     10  C   UNL A   1      33.530  25.337  24.768  1.00  0.00     0.076 C 
ATOM     11  C   UNL A   1      34.774  24.812  25.496  1.00  0.00     0.011 C 
ENDBRANCH   7  10
BRANCH   7  12
ATOM     12  N   UNL A   1      31.230  24.620  23.904  1.00  0.00    -0.330 N 
ATOM     13  H   UNL A   1      30.328  24.764  24.356  1.00  0.00     0.347 HD
ATOM     14  H   UNL A   1      31.468  23.763  23.407  1.00  0.00     0.347 HD
BRANCH  12  15
ATOM     15  C   UNL A   1      31.256  25.565  22.795  1.00  0.00     0.298 C 
BRANCH  15  16
ATOM     16  C   UNL A   1      30.583  26.915  22.960  1.00  0.00     0.006 A 
ATOM     17  C   UNL A   1      31.276  28.077  22.583  1.00  0.00     0.010 A 
ATOM     18  C   UNL A   1      29.297  27.080  23.480  1.00  0.00     0.010 A 
ATOM     19  C   UNL A   1      30.628  29.315  22.496  1.00  0.00     0.015 A 
ATOM     20  C   UNL A   1      28.631  28.307  23.383  1.00  0.00     0.015 A 
ATOM     21  C   UNL A   1      29.288  29.411  22.849  1.00  0.00     0.013 A 
ATOM     22  I   UNL A   1      28.259  31.192  22.567  1.00  0.00    -0.044 I 
ENDBRANCH  15  16
ENDBRANCH  12  15
ENDBRANCH   7  12
ENDBRANCH   4   7
ENDBRANCH   2   3
ENDBRANCH   1   2
BRANCH   1  23
ATOM     23  C   UNL A   1      32.689  29.268  26.124  1.00  0.00     0.118 C 
BRANCH  23  24
ATOM     24  N   UNL A   1      32.583  30.690  26.409  1.00  0.00    -0.352 N 
ATOM     25  C   UNL A   1      33.316  31.494  27.247  1.00  0.00     0.251 C 
ATOM     26  H   UNL A   1      31.866  31.154  25.919  1.00  0.00     0.163 HD
ATOM     27  O   UNL A   1      32.855  32.596  27.542  1.00  0.00    -0.269 OA
BRANCH  25  28
ATOM     28  C   UNL A   1      34.633  31.077  27.793  1.00  0.00     0.039 A 
ATOM     29  C   UNL A   1      34.806  29.736  28.161  1.00  0.00     0.014 A 
ATOM     30  C   UNL A   1      35.663  31.986  28.041  1.00  0.00     0.014 A 
ATOM     31  C   UNL A   1      35.996  29.321  28.767  1.00  0.00     0.010 A 
ATOM     32  C   UNL A   1      36.889  31.549  28.539  1.00  0.00     0.010 A 
ATOM     33  C   UNL A   1      37.054  30.224  28.959  1.00  0.00    -0.014 A 
BRANCH  33  34
ATOM     34  C   UNL A   1      38.298  29.813  29.663  1.00  0.00     0.031 A 
ATOM     35  C   UNL A   1      38.599  30.345  31.045  1.00  0.00     0.074 A 
ATOM     36  C   UNL A   1      39.178  28.995  29.054  1.00  0.00     0.049 A 
ATOM     37  N   UNL A   1      39.622  30.094  31.822  1.00  0.00    -0.248 NA
ATOM     38  C   UNL A   1      37.644  31.308  31.619  1.00  0.00     0.031 C 
ATOM     39  C   UNL A   1      39.050  28.483  27.687  1.00  0.00     0.029 A 
ATOM     40  N   UNL A   1      40.361  28.460  29.498  1.00  0.00    -0.354 N 
ATOM     41  C   UNL A   1      39.453  30.894  32.947  1.00  0.00     0.074 A 
ATOM     42  C   UNL A   1      38.256  31.675  32.734  1.00  0.00     0.031 C 
ATOM     43  C   UNL A   1      40.101  27.693  27.413  1.00  0.00     0.029 A 
ATOM     44  C   UNL A   1      40.986  27.656  28.574  1.00  0.00     0.049 A 
ATOM     45  H   UNL A   1      40.727  28.635  30.395  1.00  0.00     0.167 HD
ATOM     46  C   UNL A   1      40.201  30.950  34.075  1.00  0.00     0.034 A 
ATOM     47  C   UNL A   1      42.137  26.960  28.657  1.00  0.00     0.034 A 
ATOM     48  C   UNL A   1      41.356  30.127  34.311  1.00  0.00     0.049 A 
ATOM     49  C   UNL A   1      42.902  26.970  29.952  1.00  0.00     0.074 A 
ATOM     50  C   UNL A   1      42.136  30.041  35.451  1.00  0.00     0.029 A 
ATOM     51  N   UNL A   1      41.896  29.244  33.390  1.00  0.00    -0.354 N 
ATOM     52  N   UNL A   1      42.638  27.614  31.064  1.00  0.00    -0.248 NA
ATOM     53  C   UNL A   1      44.097  26.117  30.023  1.00  0.00     0.031 C 
ATOM     54  C   UNL A   1      43.157  29.115  35.213  1.00  0.00     0.029 A 
ATOM     55  C   UNL A   1      42.995  28.605  33.934  1.00  0.00     0.049 A 
ATOM     56  H   UNL A   1      41.549  29.094  32.481  1.00  0.00     0.167 HD
ATOM     57  C   UNL A   1      43.605  27.211  31.977  1.00  0.00     0.074 A 
ATOM     58  C   UNL A   1      44.448  26.251  31.295  1.00  0.00     0.031 C 
ATOM     59  C   UNL A   1      43.787  27.607  33.262  1.00  0.00     0.034 A 
BRANCH  46  60
ATOM     60  C   UNL A   1      39.753  31.889  35.168  1.00  0.00     0.023 A 
ATOM     61  C   UNL A   1      40.129  33.247  35.117  1.00  0.00     0.012 A 
ATOM     62  C   UNL A   1      38.923  31.443  36.216  1.00  0.00     0.148 A 
ATOM     63  C   UNL A   1      39.725  34.137  36.112  1.00  0.00     0.002 A 
ATOM     64  C   UNL A   1      38.484  32.347  37.178  1.00  0.00     0.091 A 
ATOM     65  F   UNL A   1      38.590  30.146  36.262  1.00  0.00    -0.205 F 
ATOM     66  C   UNL A   1      38.896  33.690  37.135  1.00  0.00     0.022 A 
BRANCH  64  67
ATOM     67  S   UNL A   1      37.345  31.891  38.490  1.00  0.00     0.127 S 
ATOM     68  O   UNL A   1      36.252  32.838  38.275  1.00  0.00    -0.237 OA
ATOM     69  O   UNL A   1      37.025  30.503  38.151  1.00  0.00    -0.237 OA
ATOM     70  O   UNL A   1      38.080  32.056  39.736  1.00  0.00    -0.744 OA
ENDBRANCH  64  67
ENDBRANCH  46  60
BRANCH  47  71
ATOM     71  C   UNL A   1      42.580  26.116  27.511  1.00  0.00     0.023 A 
ATOM     72  C   UNL A   1      43.461  26.655  26.553  1.00  0.00     0.012 A 
ATOM     73  C   UNL A   1      42.161  24.778  27.381  1.00  0.00     0.148 A 
ATOM     74  C   UNL A   1      43.885  25.892  25.465  1.00  0.00     0.002 A 
ATOM     75  C   UNL A   1      42.633  24.005  26.326  1.00  0.00     0.091 A 
ATOM     76  F   UNL A   1      41.316  24.285  28.298  1.00  0.00    -0.205 F 
ATOM     77  C   UNL A   1      43.480  24.564  25.357  1.00  0.00     0.022 A 
BRANCH  75  78
ATOM     78  S   UNL A   1      42.269  22.251  26.186  1.00  0.00     0.127 S 
ATOM     79  O   UNL A   1      42.765  21.741  27.465  1.00  0.00    -0.237 OA
ATOM     80  O   UNL A   1      40.810  22.257  26.052  1.00  0.00    -0.237 OA
ATOM     81  O   UNL A   1      42.977  21.795  25.004  1.00  0.00    -0.744 OA
ENDBRANCH  75  78
ENDBRANCH  47  71
BRANCH  59  82
ATOM     82  C   UNL A   1      44.910  26.967  34.035  1.00  0.00     0.023 A 
ATOM     83  C   UNL A   1      46.203  27.523  33.993  1.00  0.00     0.012 A 
ATOM     84  C   UNL A   1      44.667  25.842  34.848  1.00  0.00     0.148 A 
ATOM     85  C   UNL A   1      47.248  26.944  34.714  1.00  0.00     0.002 A 
ATOM     86  C   UNL A   1      45.701  25.301  35.603  1.00  0.00     0.091 A 
ATOM     87  F   UNL A   1      43.435  25.313  34.860  1.00  0.00    -0.205 F 
ATOM     88  C   UNL A   1      46.995  25.841  35.526  1.00  0.00     0.022 A 
BRANCH  86  89
ATOM     89  S   UNL A   1      45.433  23.946  36.751  1.00  0.00     0.127 S 
ATOM     90  O   UNL A   1      44.500  24.541  37.705  1.00  0.00    -0.237 OA
ATOM     91  O   UNL A   1      44.851  22.916  35.890  1.00  0.00    -0.237 OA
ATOM     92  O   UNL A   1      46.749  23.610  37.280  1.00  0.00    -0.744 OA
ENDBRANCH  86  89
ENDBRANCH  59  82
ENDBRANCH  33  34
ENDBRANCH  25  28
ENDBRANCH  23  24
ENDBRANCH   1  23
TORSDOF 18
ENDMDL
MODEL 2
REMARK VINA RESULT:     -11.3      2.117      3.204
REMARK SMILES CCC(CC)([NH2+]Cc1ccc(I)cc1)C(=O)NCCCNC(=O)c1ccc(-c2c3nc(c(-c4cccc(S(=O)(=O)[O-])c4F)c4ccc([nH]4)c(-c4cccc(S(=O)(=O)[O-])c4F)c4nc(c(-c5cccc(S(=O)(=O)[O-])c5F)c5ccc2[nH]5)C=C4)C=C3)cc1
REMARK SMILES IDX 19 1 18 2 17 3 15 4 16 5 3 7 2 8 1 9 4 10 5 11 6 12 7 15
REMARK SMILES IDX 8 16 9 17 14 18 10 19 13 20 11 21 12 22 20 23 21 24 22 25
REMARK SMILES IDX 23 27 24 28 25 29 86 30 26 31 85 32 27 33 28 34 29 35 79 36
REMARK SMILES IDX 30 37 84 38 78 39 80 40 31 41 83 42 77 43 76 44 32 46 64 47
REMARK SMILES IDX 44 48 63 49 45 50 48 51 62 52 81 53 46 54 47 55 61 57 82 58
REMARK SMILES IDX 49 59 33 60 34 61 42 62 35 63 37 64 43 65 36 66 38 67 39 68
REMARK SMILES IDX 40 69 41 70 65 71 66 72 74 73 67 74 69 75 75 76 68 77 70 78
REMARK SMILES IDX 71 79 72 80 73 81 50 82 51 83 59 84 52 85 54 86 60 87 53 88
REMARK SMILES IDX 55 89 56 90 57 91 58 92
REMARK H PARENT 17 6 6 13 6 14 21 26 80 45 48 56
REMARK Flexibility Score: inf
ROOT
ATOM      1  C   UNL A   1      31.966  29.060  27.127  1.00  0.00     0.042 C 
ENDROOT
BRANCH   1   2
ATOM      2  C   UNL A   1      31.587  27.698  26.544  1.00  0.00     0.118 C 
BRANCH   2   3
ATOM      3  N   UNL A   1      32.078  27.587  25.189  1.00  0.00    -0.351 N 
ATOM      4  C   UNL A   1      32.693  26.578  24.518  1.00  0.00     0.281 C 
ATOM      5  O   UNL A   1      33.381  26.981  23.568  1.00  0.00    -0.268 OA
ATOM      6  H   UNL A   1      31.939  28.398  24.648  1.00  0.00     0.163 HD
BRANCH   4   7
ATOM      7  C   UNL A   1      32.495  25.035  24.803  1.00  0.00     0.175 C 
BRANCH   7   8
ATOM      8  C   UNL A   1      30.964  24.769  24.471  1.00  0.00     0.076 C 
ATOM      9  C   UNL A   1      30.665  24.094  23.129  1.00  0.00     0.011 C 
ENDBRANCH   7   8
BRANCH   7  10
ATOM     10  C   UNL A   1      32.746  24.667  26.289  1.00  0.00     0.076 C 
ATOM     11  C   UNL A   1      31.819  23.595  26.876  1.00  0.00     0.011 C 
ENDBRANCH   7  10
BRANCH   7  12
ATOM     12  N   UNL A   1      33.171  24.137  23.822  1.00  0.00    -0.330 N 
ATOM     13  H   UNL A   1      33.451  24.746  23.052  1.00  0.00     0.347 HD
ATOM     14  H   UNL A   1      32.456  23.417  23.724  1.00  0.00     0.347 HD
BRANCH  12  15
ATOM     15  C   UNL A   1      34.333  23.298  24.086  1.00  0.00     0.298 C 
BRANCH  15  16
ATOM     16  C   UNL A   1      34.127  21.821  24.368  1.00  0.00     0.006 A 
ATOM     17  C   UNL A   1      32.902  21.223  24.030  1.00  0.00     0.010 A 
ATOM     18  C   UNL A   1      35.093  21.005  24.961  1.00  0.00     0.010 A 
ATOM     19  C   UNL A   1      32.740  19.833  24.053  1.00  0.00     0.015 A 
ATOM     20  C   UNL A   1      34.952  19.613  24.974  1.00  0.00     0.015 A 
ATOM     21  C   UNL A   1      33.791  19.029  24.478  1.00  0.00     0.013 A 
ATOM     22  I   UNL A   1      33.639  16.962  24.359  1.00  0.00    -0.044 I 
ENDBRANCH  15  16
ENDBRANCH  12  15
ENDBRANCH   7  12
ENDBRANCH   4   7
ENDBRANCH   2   3
ENDBRANCH   1   2
BRANCH   1  23
ATOM     23  C   UNL A   1      33.010  29.819  26.324  1.00  0.00     0.118 C 
BRANCH  23  24
ATOM     24  N   UNL A   1      32.998  31.234  26.654  1.00  0.00    -0.352 N 
ATOM     25  C   UNL A   1      33.783  31.962  27.516  1.00  0.00     0.251 C 
ATOM     26  H   UNL A   1      32.314  31.760  26.181  1.00  0.00     0.163 HD
ATOM     27  O   UNL A   1      33.396  33.081  27.846  1.00  0.00    -0.269 OA
BRANCH  25  28
ATOM     28  C   UNL A   1      35.070  31.440  28.045  1.00  0.00     0.039 A 
ATOM     29  C   UNL A   1      35.095  30.143  28.573  1.00  0.00     0.014 A 
ATOM     30  C   UNL A   1      36.220  32.227  28.125  1.00  0.00     0.014 A 
ATOM     31  C   UNL A   1      36.260  29.648  29.169  1.00  0.00     0.010 A 
ATOM     32  C   UNL A   1      37.411  31.693  28.614  1.00  0.00     0.010 A 
ATOM     33  C   UNL A   1      37.434  30.419  29.191  1.00  0.00    -0.014 A 
BRANCH  33  34
ATOM     34  C   UNL A   1      38.659  29.933  29.881  1.00  0.00     0.031 A 
ATOM     35  C   UNL A   1      39.004  30.438  31.262  1.00  0.00     0.074 A 
ATOM     36  C   UNL A   1      39.485  29.070  29.258  1.00  0.00     0.049 A 
ATOM     37  N   UNL A   1      40.018  30.125  32.027  1.00  0.00    -0.248 NA
ATOM     38  C   UNL A   1      38.110  31.451  31.851  1.00  0.00     0.031 C 
ATOM     39  C   UNL A   1      39.315  28.574  27.890  1.00  0.00     0.029 A 
ATOM     40  N   UNL A   1      40.640  28.466  29.687  1.00  0.00    -0.354 N 
ATOM     41  C   UNL A   1      39.906  30.926  33.159  1.00  0.00     0.074 A 
ATOM     42  C   UNL A   1      38.754  31.775  32.962  1.00  0.00     0.031 C 
ATOM     43  C   UNL A   1      40.316  27.727  27.601  1.00  0.00     0.029 A 
ATOM     44  C   UNL A   1      41.209  27.633  28.752  1.00  0.00     0.049 A 
ATOM     45  H   UNL A   1      41.024  28.614  30.581  1.00  0.00     0.167 HD
ATOM     46  C   UNL A   1      40.667  30.932  34.280  1.00  0.00     0.034 A 
ATOM     47  C   UNL A   1      42.319  26.872  28.819  1.00  0.00     0.034 A 
ATOM     48  C   UNL A   1      41.775  30.043  34.499  1.00  0.00     0.049 A 
ATOM     49  C   UNL A   1      43.096  26.831  30.107  1.00  0.00     0.074 A 
ATOM     50  C   UNL A   1      42.560  29.906  35.631  1.00  0.00     0.029 A 
ATOM     51  N   UNL A   1      42.255  29.137  33.568  1.00  0.00    -0.354 N 
ATOM     52  N   UNL A   1      42.880  27.481  31.225  1.00  0.00    -0.248 NA
ATOM     53  C   UNL A   1      44.241  25.911  30.162  1.00  0.00     0.031 C 
ATOM     54  C   UNL A   1      43.525  28.924  35.377  1.00  0.00     0.029 A 
ATOM     55  C   UNL A   1      43.321  28.432  34.097  1.00  0.00     0.049 A 
ATOM     56  H   UNL A   1      41.891  29.012  32.662  1.00  0.00     0.167 HD
ATOM     57  C   UNL A   1      43.831  27.018  32.126  1.00  0.00     0.074 A 
ATOM     58  C   UNL A   1      44.612  26.016  31.430  1.00  0.00     0.031 C 
ATOM     59  C   UNL A   1      44.048  27.395  33.411  1.00  0.00     0.034 A 
BRANCH  46  60
ATOM     60  C   UNL A   1      40.283  31.888  35.383  1.00  0.00     0.023 A 
ATOM     61  C   UNL A   1      41.004  33.090  35.544  1.00  0.00     0.012 A 
ATOM     62  C   UNL A   1      39.187  31.624  36.226  1.00  0.00     0.148 A 
ATOM     63  C   UNL A   1      40.668  33.993  36.552  1.00  0.00     0.002 A 
ATOM     64  C   UNL A   1      38.827  32.553  37.198  1.00  0.00     0.091 A 
ATOM     65  F   UNL A   1      38.524  30.470  36.073  1.00  0.00    -0.205 F 
ATOM     66  C   UNL A   1      39.575  33.729  37.371  1.00  0.00     0.022 A 
BRANCH  64  67
ATOM     67  S   UNL A   1      37.385  32.347  38.249  1.00  0.00     0.127 S 
ATOM     68  O   UNL A   1      37.826  32.993  39.485  1.00  0.00    -0.237 OA
ATOM     69  O   UNL A   1      36.358  33.083  37.510  1.00  0.00    -0.237 OA
ATOM     70  O   UNL A   1      37.155  30.913  38.340  1.00  0.00    -0.744 OA
ENDBRANCH  64  67
ENDBRANCH  46  60
BRANCH  47  71
ATOM     71  C   UNL A   1      42.702  26.011  27.664  1.00  0.00     0.023 A 
ATOM     72  C   UNL A   1      43.633  26.490  26.722  1.00  0.00     0.012 A 
ATOM     73  C   UNL A   1      42.176  24.714  27.511  1.00  0.00     0.148 A 
ATOM     74  C   UNL A   1      44.004  25.710  25.626  1.00  0.00     0.002 A 
ATOM     75  C   UNL A   1      42.593  23.921  26.447  1.00  0.00     0.091 A 
ATOM     76  F   UNL A   1      41.285  24.279  28.413  1.00  0.00    -0.205 F 
ATOM     77  C   UNL A   1      43.491  24.423  25.494  1.00  0.00     0.022 A 
BRANCH  75  78
ATOM     78  S   UNL A   1      42.087  22.205  26.277  1.00  0.00     0.127 S 
ATOM     79  O   UNL A   1      42.527  21.637  27.553  1.00  0.00    -0.237 OA
ATOM     80  O   UNL A   1      40.635  22.332  26.132  1.00  0.00    -0.237 OA
ATOM     81  O   UNL A   1      42.766  21.709  25.095  1.00  0.00    -0.744 OA
ENDBRANCH  75  78
ENDBRANCH  47  71
BRANCH  59  82
ATOM     82  C   UNL A   1      45.140  26.688  34.169  1.00  0.00     0.023 A 
ATOM     83  C   UNL A   1      46.466  27.160  34.105  1.00  0.00     0.012 A 
ATOM     84  C   UNL A   1      44.839  25.583  34.990  1.00  0.00     0.148 A 
ATOM     85  C   UNL A   1      47.482  26.517  34.812  1.00  0.00     0.002 A 
ATOM     86  C   UNL A   1      45.848  24.979  35.732  1.00  0.00     0.091 A 
ATOM     87  F   UNL A   1      43.577  25.133  35.025  1.00  0.00    -0.205 F 
ATOM     88  C   UNL A   1      47.173  25.435  35.632  1.00  0.00     0.022 A 
BRANCH  86  89
ATOM     89  S   UNL A   1      45.513  23.647  36.889  1.00  0.00     0.127 S 
ATOM     90  O   UNL A   1      44.989  22.608  36.004  1.00  0.00    -0.237 OA
ATOM     91  O   UNL A   1      46.840  23.366  37.438  1.00  0.00    -0.237 OA
ATOM     92  O   UNL A   1      44.567  24.190  37.855  1.00  0.00    -0.744 OA
ENDBRANCH  86  89
ENDBRANCH  59  82
ENDBRANCH  33  34
ENDBRANCH  25  28
ENDBRANCH  23  24
ENDBRANCH   1  23
TORSDOF 18
ENDMDL
MODEL 3
REMARK VINA RESULT:     -11.3      2.381      2.831
REMARK SMILES CCC(CC)([NH2+]Cc1ccc(I)cc1)C(=O)NCCCNC(=O)c1ccc(-c2c3nc(c(-c4cccc(S(=O)(=O)[O-])c4F)c4ccc([nH]4)c(-c4cccc(S(=O)(=O)[O-])c4F)c4nc(c(-c5cccc(S(=O)(=O)[O-])c5F)c5ccc2[nH]5)C=C4)C=C3)cc1
REMARK SMILES IDX 19 1 18 2 17 3 15 4 16 5 3 7 2 8 1 9 4 10 5 11 6 12 7 15
REMARK SMILES IDX 8 16 9 17 14 18 10 19 13 20 11 21 12 22 20 23 21 24 22 25
REMARK SMILES IDX 23 27 24 28 25 29 86 30 26 31 85 32 27 33 28 34 29 35 79 36
REMARK SMILES IDX 30 37 84 38 78 39 80 40 31 41 83 42 77 43 76 44 32 46 64 47
REMARK SMILES IDX 44 48 63 49 45 50 48 51 62 52 81 53 46 54 47 55 61 57 82 58
REMARK SMILES IDX 49 59 33 60 34 61 42 62 35 63 37 64 43 65 36 66 38 67 39 68
REMARK SMILES IDX 40 69 41 70 65 71 66 72 74 73 67 74 69 75 75 76 68 77 70 78
REMARK SMILES IDX 71 79 72 80 73 81 50 82 51 83 59 84 52 85 54 86 60 87 53 88
REMARK SMILES IDX 55 89 56 90 57 91 58 92
REMARK H PARENT 17 6 6 13 6 14 21 26 80 45 48 56
REMARK Flexibility Score: inf
ROOT
ATOM      1  C   UNL A   1      32.683  28.193  27.075  1.00  0.00     0.042 C 
ENDROOT
BRANCH   1   2
ATOM      2  C   UNL A   1      31.552  27.484  26.329  1.00  0.00     0.118 C 
BRANCH   2   3
ATOM      3  N   UNL A   1      31.280  26.205  26.943  1.00  0.00    -0.351 N 
ATOM      4  C   UNL A   1      31.236  24.941  26.445  1.00  0.00     0.281 C 
ATOM      5  O   UNL A   1      30.526  24.181  27.121  1.00  0.00    -0.268 OA
ATOM      6  H   UNL A   1      31.093  26.258  27.908  1.00  0.00     0.163 HD
BRANCH   4   7
ATOM      7  C   UNL A   1      32.071  24.415  25.208  1.00  0.00     0.175 C 
BRANCH   7   8
ATOM      8  C   UNL A   1      31.420  23.006  24.868  1.00  0.00     0.076 C 
ATOM      9  C   UNL A   1      32.217  22.097  23.928  1.00  0.00     0.011 C 
ENDBRANCH   7   8
BRANCH   7  10
ATOM     10  C   UNL A   1      33.568  24.194  25.551  1.00  0.00     0.076 C 
ATOM     11  C   UNL A   1      34.544  25.226  24.972  1.00  0.00     0.011 C 
ENDBRANCH   7  10
BRANCH   7  12
ATOM     12  N   UNL A   1      31.832  25.166  23.942  1.00  0.00    -0.330 N 
ATOM     13  H   UNL A   1      32.381  24.677  23.234  1.00  0.00     0.347 HD
ATOM     14  H   UNL A   1      32.054  26.110  24.257  1.00  0.00     0.347 HD
BRANCH  12  15
ATOM     15  C   UNL A   1      30.538  25.410  23.320  1.00  0.00     0.298 C 
BRANCH  15  16
ATOM     16  C   UNL A   1      30.055  26.839  23.157  1.00  0.00     0.006 A 
ATOM     17  C   UNL A   1      30.939  27.809  22.657  1.00  0.00     0.010 A 
ATOM     18  C   UNL A   1      28.765  27.263  23.488  1.00  0.00     0.010 A 
ATOM     19  C   UNL A   1      30.487  29.077  22.271  1.00  0.00     0.015 A 
ATOM     20  C   UNL A   1      28.295  28.520  23.093  1.00  0.00     0.015 A 
ATOM     21  C   UNL A   1      29.149  29.407  22.445  1.00  0.00     0.013 A 
ATOM     22  I   UNL A   1      28.417  31.212  21.727  1.00  0.00    -0.044 I 
ENDBRANCH  15  16
ENDBRANCH  12  15
ENDBRANCH   7  12
ENDBRANCH   4   7
ENDBRANCH   2   3
ENDBRANCH   1   2
BRANCH   1  23
ATOM     23  C   UNL A   1      33.597  29.022  26.187  1.00  0.00     0.118 C 
BRANCH  23  24
ATOM     24  N   UNL A   1      33.697  30.390  26.670  1.00  0.00    -0.352 N 
ATOM     25  C   UNL A   1      34.550  30.959  27.583  1.00  0.00     0.251 C 
ATOM     26  H   UNL A   1      33.043  31.012  26.276  1.00  0.00     0.163 HD
ATOM     27  O   UNL A   1      34.254  32.060  28.045  1.00  0.00    -0.269 OA
BRANCH  25  28
ATOM     28  C   UNL A   1      35.805  30.292  28.016  1.00  0.00     0.039 A 
ATOM     29  C   UNL A   1      35.807  29.606  29.237  1.00  0.00     0.014 A 
ATOM     30  C   UNL A   1      36.999  30.407  27.302  1.00  0.00     0.014 A 
ATOM     31  C   UNL A   1      36.991  29.047  29.729  1.00  0.00     0.010 A 
ATOM     32  C   UNL A   1      38.151  29.752  27.736  1.00  0.00     0.010 A 
ATOM     33  C   UNL A   1      38.176  29.110  28.979  1.00  0.00    -0.014 A 
BRANCH  33  34
ATOM     34  C   UNL A   1      39.457  28.580  29.518  1.00  0.00     0.031 A 
ATOM     35  C   UNL A   1      40.069  29.188  30.758  1.00  0.00     0.074 A 
ATOM     36  C   UNL A   1      40.094  27.578  28.879  1.00  0.00     0.049 A 
ATOM     37  N   UNL A   1      41.169  28.856  31.385  1.00  0.00    -0.248 NA
ATOM     38  C   UNL A   1      39.373  30.340  31.357  1.00  0.00     0.031 C 
ATOM     39  C   UNL A   1      39.656  26.964  27.623  1.00  0.00     0.029 A 
ATOM     40  N   UNL A   1      41.252  26.911  29.189  1.00  0.00    -0.354 N 
ATOM     41  C   UNL A   1      41.315  29.778  32.417  1.00  0.00     0.074 A 
ATOM     42  C   UNL A   1      40.218  30.712  32.306  1.00  0.00     0.031 C 
ATOM     43  C   UNL A   1      40.523  25.996  27.282  1.00  0.00     0.029 A 
ATOM     44  C   UNL A   1      41.586  25.933  28.280  1.00  0.00     0.049 A 
ATOM     45  H   UNL A   1      41.792  27.112  29.986  1.00  0.00     0.167 HD
ATOM     46  C   UNL A   1      42.251  29.824  33.395  1.00  0.00     0.034 A 
ATOM     47  C   UNL A   1      42.627  25.077  28.260  1.00  0.00     0.034 A 
ATOM     48  C   UNL A   1      43.305  28.857  33.539  1.00  0.00     0.049 A 
ATOM     49  C   UNL A   1      43.604  25.093  29.405  1.00  0.00     0.074 A 
ATOM     50  C   UNL A   1      44.256  28.761  34.541  1.00  0.00     0.029 A 
ATOM     51  N   UNL A   1      43.547  27.816  32.657  1.00  0.00    -0.354 N 
ATOM     52  N   UNL A   1      43.632  25.874  30.458  1.00  0.00    -0.248 NA
ATOM     53  C   UNL A   1      44.663  24.074  29.385  1.00  0.00     0.031 C 
ATOM     54  C   UNL A   1      45.081  27.667  34.255  1.00  0.00     0.029 A 
ATOM     55  C   UNL A   1      44.626  27.068  33.091  1.00  0.00     0.049 A 
ATOM     56  H   UNL A   1      43.026  27.635  31.842  1.00  0.00     0.167 HD
ATOM     57  C   UNL A   1      44.681  25.414  31.245  1.00  0.00     0.074 A 
ATOM     58  C   UNL A   1      45.250  24.273  30.557  1.00  0.00     0.031 C 
ATOM     59  C   UNL A   1      45.141  25.899  32.426  1.00  0.00     0.034 A 
BRANCH  46  60
ATOM     60  C   UNL A   1      42.138  30.922  34.423  1.00  0.00     0.023 A 
ATOM     61  C   UNL A   1      41.404  30.694  35.607  1.00  0.00     0.012 A 
ATOM     62  C   UNL A   1      42.791  32.157  34.245  1.00  0.00     0.148 A 
ATOM     63  C   UNL A   1      41.287  31.691  36.575  1.00  0.00     0.002 A 
ATOM     64  C   UNL A   1      42.710  33.128  35.237  1.00  0.00     0.091 A 
ATOM     65  F   UNL A   1      43.467  32.365  33.107  1.00  0.00    -0.205 F 
ATOM     66  C   UNL A   1      41.947  32.903  36.395  1.00  0.00     0.022 A 
BRANCH  64  67
ATOM     67  S   UNL A   1      43.592  34.691  35.140  1.00  0.00     0.127 S 
ATOM     68  O   UNL A   1      44.940  34.246  34.786  1.00  0.00    -0.237 OA
ATOM     69  O   UNL A   1      42.876  35.382  34.068  1.00  0.00    -0.237 OA
ATOM     70  O   UNL A   1      43.461  35.307  36.453  1.00  0.00    -0.744 OA
ENDBRANCH  64  67
ENDBRANCH  46  60
BRANCH  47  71
ATOM     71  C   UNL A   1      42.739  24.068  27.169  1.00  0.00     0.023 A 
ATOM     72  C   UNL A   1      43.537  24.351  26.043  1.00  0.00     0.012 A 
ATOM     73  C   UNL A   1      42.088  22.822  27.254  1.00  0.00     0.148 A 
ATOM     74  C   UNL A   1      43.653  23.429  25.003  1.00  0.00     0.002 A 
ATOM     75  C   UNL A   1      42.254  21.885  26.239  1.00  0.00     0.091 A 
ATOM     76  F   UNL A   1      41.327  22.575  28.329  1.00  0.00    -0.205 F 
ATOM     77  C   UNL A   1      43.020  22.193  25.105  1.00  0.00     0.022 A 
BRANCH  75  78
ATOM     78  S   UNL A   1      41.587  20.221  26.354  1.00  0.00     0.127 S 
ATOM     79  O   UNL A   1      42.309  19.536  25.281  1.00  0.00    -0.237 OA
ATOM     80  O   UNL A   1      41.986  19.830  27.708  1.00  0.00    -0.237 OA
ATOM     81  O   UNL A   1      40.154  20.358  26.168  1.00  0.00    -0.744 OA
ENDBRANCH  75  78
ENDBRANCH  47  71
BRANCH  59  82
ATOM     82  C   UNL A   1      46.285  25.169  33.080  1.00  0.00     0.023 A 
ATOM     83  C   UNL A   1      47.611  25.582  32.850  1.00  0.00     0.012 A 
ATOM     84  C   UNL A   1      46.037  24.103  33.968  1.00  0.00     0.148 A 
ATOM     85  C   UNL A   1      48.676  24.918  33.458  1.00  0.00     0.002 A 
ATOM     86  C   UNL A   1      47.100  23.480  34.612  1.00  0.00     0.091 A 
ATOM     87  F   UNL A   1      44.770  23.709  34.161  1.00  0.00    -0.205 F 
ATOM     88  C   UNL A   1      48.421  23.876  34.346  1.00  0.00     0.022 A 
BRANCH  86  89
ATOM     89  S   UNL A   1      46.848  22.200  35.845  1.00  0.00     0.127 S 
ATOM     90  O   UNL A   1      46.376  21.085  35.026  1.00  0.00    -0.237 OA
ATOM     91  O   UNL A   1      48.192  22.024  36.396  1.00  0.00    -0.237 OA
ATOM     92  O   UNL A   1      45.881  22.744  36.789  1.00  0.00    -0.744 OA
ENDBRANCH  86  89
ENDBRANCH  59  82
ENDBRANCH  33  34
ENDBRANCH  25  28
ENDBRANCH  23  24
ENDBRANCH   1  23
TORSDOF 18
ENDMDL
