MODEL 1
REMARK VINA RESULT:     -12.4      0.000      0.000
REMARK SMILES O=C(CCc1cccnc1)Nc1ccsc1C(=O)NCCCNC(=O)c1ccc(-c2c3nc(c(-c4cccc(S(=O)(=O)[O-])c4F)c4ccc([nH]4)c(-c4cccc(S(=O)(=O)[O-])c4F)c4nc(c(-c5cccc(S(=O)(=O)[O-])c5F)c5ccc2[nH]5)C=C4)C=C3)cc1
REMARK SMILES IDX 20 1 19 2 17 3 18 4 16 6 12 7 13 8 14 9 15 10 11 11 1 12
REMARK SMILES IDX 2 13 3 15 4 16 5 17 6 18 10 19 7 20 9 21 8 22 21 23 22 24
REMARK SMILES IDX 23 25 24 26 25 28 26 29 27 30 88 31 28 32 87 33 29 34 30 35
REMARK SMILES IDX 31 36 81 37 32 38 86 39 80 40 82 41 33 42 85 43 79 44 78 45
REMARK SMILES IDX 34 47 66 48 46 49 65 50 47 51 50 52 64 53 83 54 48 55 49 56
REMARK SMILES IDX 63 58 84 59 51 60 35 61 36 62 44 63 37 64 39 65 45 66 38 67
REMARK SMILES IDX 40 68 41 69 42 70 43 71 67 72 68 73 76 74 69 75 71 76 77 77
REMARK SMILES IDX 70 78 72 79 73 80 74 81 75 82 52 83 53 84 61 85 54 86 56 87
REMARK SMILES IDX 62 88 55 89 57 90 58 91 59 92 60 93
REMARK H PARENT 19 5 11 14 23 27 82 46 50 57
REMARK Flexibility Score: inf
ROOT
ATOM      1  C   UNL A   1      34.899  24.048  24.494  1.00  0.00     0.118 C 
ENDROOT
BRANCH   1   2
ATOM      2  N   UNL A   1      34.539  24.548  23.188  1.00  0.00    -0.351 N 
ATOM      3  C   UNL A   1      33.512  25.366  22.773  1.00  0.00     0.263 C 
ATOM      4  O   UNL A   1      33.632  25.752  21.602  1.00  0.00    -0.268 OA
ATOM      5  H   UNL A   1      35.136  24.250  22.464  1.00  0.00     0.163 HD
BRANCH   3   6
ATOM      6  C   UNL A   1      32.353  25.713  23.600  1.00  0.00     0.115 A 
ATOM      7  C   UNL A   1      31.315  25.024  24.231  1.00  0.00     0.065 A 
ATOM      8  C   UNL A   1      30.382  25.921  24.851  1.00  0.00     0.038 A 
ATOM      9  C   UNL A   1      30.755  27.238  24.770  1.00  0.00     0.068 A 
ATOM     10  S   UNL A   1      32.199  27.423  23.905  1.00  0.00    -0.137 S 
BRANCH   7  11
ATOM     11  N   UNL A   1      31.220  23.635  24.333  1.00  0.00    -0.325 N 
ATOM     12  O   UNL A   1      32.033  23.348  26.473  1.00  0.00    -0.275 OA
ATOM     13  C   UNL A   1      31.659  22.876  25.400  1.00  0.00     0.224 C 
ATOM     14  H   UNL A   1      30.805  23.155  23.580  1.00  0.00     0.169 HD
BRANCH  13  15
ATOM     15  C   UNL A   1      31.779  21.365  25.181  1.00  0.00     0.105 C 
BRANCH  15  16
ATOM     16  C   UNL A   1      32.369  20.820  23.881  1.00  0.00     0.047 C 
BRANCH  16  17
ATOM     17  C   UNL A   1      32.894  19.405  23.873  1.00  0.00    -0.029 A 
ATOM     18  C   UNL A   1      33.991  18.951  24.608  1.00  0.00     0.007 A 
ATOM     19  C   UNL A   1      32.337  18.504  22.972  1.00  0.00     0.114 A 
ATOM     20  C   UNL A   1      34.588  17.735  24.283  1.00  0.00     0.020 A 
ATOM     21  N   UNL A   1      32.904  17.326  22.627  1.00  0.00    -0.264 NA
ATOM     22  C   UNL A   1      34.030  16.975  23.272  1.00  0.00     0.111 A 
ENDBRANCH  16  17
ENDBRANCH  15  16
ENDBRANCH  13  15
ENDBRANCH   7  11
ENDBRANCH   3   6
ENDBRANCH   1   2
BRANCH   1  23
ATOM     23  C   UNL A   1      35.339  22.593  24.588  1.00  0.00     0.042 C 
BRANCH  23  24
ATOM     24  C   UNL A   1      36.159  22.223  25.821  1.00  0.00     0.118 C 
BRANCH  24  25
ATOM     25  N   UNL A   1      37.215  21.239  25.618  1.00  0.00    -0.352 N 
ATOM     26  C   UNL A   1      38.549  21.205  25.952  1.00  0.00     0.251 C 
ATOM     27  H   UNL A   1      36.911  20.431  25.144  1.00  0.00     0.163 HD
ATOM     28  O   UNL A   1      39.205  20.186  25.739  1.00  0.00    -0.269 OA
BRANCH  26  29
ATOM     29  C   UNL A   1      39.266  22.385  26.469  1.00  0.00     0.039 A 
ATOM     30  C   UNL A   1      38.832  23.659  26.062  1.00  0.00     0.014 A 
ATOM     31  C   UNL A   1      40.384  22.267  27.281  1.00  0.00     0.014 A 
ATOM     32  C   UNL A   1      39.499  24.804  26.501  1.00  0.00     0.010 A 
ATOM     33  C   UNL A   1      40.974  23.404  27.811  1.00  0.00     0.010 A 
ATOM     34  C   UNL A   1      40.568  24.681  27.394  1.00  0.00    -0.014 A 
BRANCH  34  35
ATOM     35  C   UNL A   1      41.381  25.833  27.849  1.00  0.00     0.031 A 
ATOM     36  C   UNL A   1      40.693  26.924  28.630  1.00  0.00     0.074 A 
ATOM     37  C   UNL A   1      42.652  25.973  27.433  1.00  0.00     0.049 A 
ATOM     38  N   UNL A   1      41.092  28.141  28.881  1.00  0.00    -0.248 NA
ATOM     39  C   UNL A   1      39.341  26.620  29.136  1.00  0.00     0.031 C 
ATOM     40  C   UNL A   1      43.397  25.001  26.633  1.00  0.00     0.029 A 
ATOM     41  N   UNL A   1      43.523  27.022  27.582  1.00  0.00    -0.354 N 
ATOM     42  C   UNL A   1      40.014  28.768  29.498  1.00  0.00     0.074 A 
ATOM     43  C   UNL A   1      38.936  27.809  29.551  1.00  0.00     0.031 C 
ATOM     44  C   UNL A   1      44.608  25.506  26.343  1.00  0.00     0.029 A 
ATOM     45  C   UNL A   1      44.704  26.852  26.898  1.00  0.00     0.049 A 
ATOM     46  H   UNL A   1      43.324  27.818  28.125  1.00  0.00     0.167 HD
ATOM     47  C   UNL A   1      39.941  30.023  29.998  1.00  0.00     0.034 A 
ATOM     48  C   UNL A   1      45.733  27.703  26.715  1.00  0.00     0.034 A 
ATOM     49  C   UNL A   1      41.054  30.933  30.004  1.00  0.00     0.049 A 
ATOM     50  C   UNL A   1      45.655  29.069  27.342  1.00  0.00     0.074 A 
ATOM     51  C   UNL A   1      41.137  32.189  30.574  1.00  0.00     0.029 A 
ATOM     52  N   UNL A   1      42.284  30.673  29.417  1.00  0.00    -0.354 N 
ATOM     53  N   UNL A   1      44.674  29.610  28.026  1.00  0.00    -0.248 NA
ATOM     54  C   UNL A   1      46.837  29.931  27.204  1.00  0.00     0.031 C 
ATOM     55  C   UNL A   1      42.413  32.699  30.312  1.00  0.00     0.029 A 
ATOM     56  C   UNL A   1      43.134  31.744  29.611  1.00  0.00     0.049 A 
ATOM     57  H   UNL A   1      42.516  29.848  28.934  1.00  0.00     0.167 HD
ATOM     58  C   UNL A   1      45.136  30.855  28.436  1.00  0.00     0.074 A 
ATOM     59  C   UNL A   1      46.490  30.981  27.937  1.00  0.00     0.031 C 
ATOM     60  C   UNL A   1      44.497  31.815  29.151  1.00  0.00     0.034 A 
BRANCH  47  61
ATOM     61  C   UNL A   1      38.641  30.464  30.620  1.00  0.00     0.023 A 
ATOM     62  C   UNL A   1      38.404  30.232  31.991  1.00  0.00     0.012 A 
ATOM     63  C   UNL A   1      37.668  31.145  29.861  1.00  0.00     0.148 A 
ATOM     64  C   UNL A   1      37.206  30.629  32.585  1.00  0.00     0.002 A 
ATOM     65  C   UNL A   1      36.500  31.586  30.472  1.00  0.00     0.091 A 
ATOM     66  F   UNL A   1      37.899  31.340  28.554  1.00  0.00    -0.205 F 
ATOM     67  C   UNL A   1      36.261  31.315  31.829  1.00  0.00     0.022 A 
BRANCH  65  68
ATOM     68  S   UNL A   1      35.256  32.554  29.611  1.00  0.00     0.127 S 
ATOM     69  O   UNL A   1      36.053  33.663  29.091  1.00  0.00    -0.237 OA
ATOM     70  O   UNL A   1      34.785  31.613  28.595  1.00  0.00    -0.237 OA
ATOM     71  O   UNL A   1      34.263  32.918  30.613  1.00  0.00    -0.744 OA
ENDBRANCH  65  68
ENDBRANCH  47  61
BRANCH  48  72
ATOM     72  C   UNL A   1      46.942  27.266  25.963  1.00  0.00     0.023 A 
ATOM     73  C   UNL A   1      47.882  26.431  26.599  1.00  0.00     0.012 A 
ATOM     74  C   UNL A   1      47.155  27.638  24.622  1.00  0.00     0.148 A 
ATOM     75  C   UNL A   1      49.029  26.004  25.927  1.00  0.00     0.002 A 
ATOM     76  C   UNL A   1      48.271  27.165  23.940  1.00  0.00     0.091 A 
ATOM     77  F   UNL A   1      46.253  28.438  24.034  1.00  0.00    -0.205 F 
ATOM     78  C   UNL A   1      49.218  26.364  24.596  1.00  0.00     0.022 A 
BRANCH  76  79
ATOM     79  S   UNL A   1      48.532  27.463  22.188  1.00  0.00     0.127 S 
ATOM     80  O   UNL A   1      47.332  28.208  21.827  1.00  0.00    -0.237 OA
ATOM     81  O   UNL A   1      49.768  28.244  22.196  1.00  0.00    -0.237 OA
ATOM     82  O   UNL A   1      48.664  26.140  21.583  1.00  0.00    -0.744 OA
ENDBRANCH  76  79
ENDBRANCH  48  72
BRANCH  60  83
ATOM     83  C   UNL A   1      45.272  33.060  29.490  1.00  0.00     0.023 A 
ATOM     84  C   UNL A   1      46.079  33.098  30.643  1.00  0.00     0.012 A 
ATOM     85  C   UNL A   1      45.260  34.161  28.613  1.00  0.00     0.148 A 
ATOM     86  C   UNL A   1      46.837  34.229  30.936  1.00  0.00     0.002 A 
ATOM     87  C   UNL A   1      46.061  35.263  28.883  1.00  0.00     0.091 A 
ATOM     88  F   UNL A   1      44.472  34.109  27.530  1.00  0.00    -0.205 F 
ATOM     89  C   UNL A   1      46.839  35.305  30.051  1.00  0.00     0.022 A 
BRANCH  87  90
ATOM     90  S   UNL A   1      46.207  36.646  27.746  1.00  0.00     0.127 S 
ATOM     91  O   UNL A   1      47.246  37.449  28.389  1.00  0.00    -0.237 OA
ATOM     92  O   UNL A   1      46.623  35.987  26.509  1.00  0.00    -0.237 OA
ATOM     93  O   UNL A   1      44.889  37.262  27.690  1.00  0.00    -0.744 OA
ENDBRANCH  87  90
ENDBRANCH  60  83
ENDBRANCH  34  35
ENDBRANCH  26  29
ENDBRANCH  24  25
ENDBRANCH  23  24
ENDBRANCH   1  23
TORSDOF 17
ENDMDL
MODEL 2
REMARK VINA RESULT:     -12.1      5.513     10.351
REMARK SMILES O=C(CCc1cccnc1)Nc1ccsc1C(=O)NCCCNC(=O)c1ccc(-c2c3nc(c(-c4cccc(S(=O)(=O)[O-])c4F)c4ccc([nH]4)c(-c4cccc(S(=O)(=O)[O-])c4F)c4nc(c(-c5cccc(S(=O)(=O)[O-])c5F)c5ccc2[nH]5)C=C4)C=C3)cc1
REMARK SMILES IDX 20 1 19 2 17 3 18 4 16 6 12 7 13 8 14 9 15 10 11 11 1 12
REMARK SMILES IDX 2 13 3 15 4 16 5 17 6 18 10 19 7 20 9 21 8 22 21 23 22 24
REMARK SMILES IDX 23 25 24 26 25 28 26 29 27 30 88 31 28 32 87 33 29 34 30 35
REMARK SMILES IDX 31 36 81 37 32 38 86 39 80 40 82 41 33 42 85 43 79 44 78 45
REMARK SMILES IDX 34 47 66 48 46 49 65 50 47 51 50 52 64 53 83 54 48 55 49 56
REMARK SMILES IDX 63 58 84 59 51 60 35 61 36 62 44 63 37 64 39 65 45 66 38 67
REMARK SMILES IDX 40 68 41 69 42 70 43 71 67 72 68 73 76 74 69 75 71 76 77 77
REMARK SMILES IDX 70 78 72 79 73 80 74 81 75 82 52 83 53 84 61 85 54 86 56 87
REMARK SMILES IDX 62 88 55 89 57 90 58 91 59 92 60 93
REMARK H PARENT 19 5 11 14 23 27 82 46 50 57
REMARK Flexibility Score: inf
ROOT
ATOM      1  C   UNL A   1      32.968  28.576  22.445  1.00  0.00     0.118 C 
ENDROOT
BRANCH   1   2
ATOM      2  N   UNL A   1      33.259  27.395  21.668  1.00  0.00    -0.351 N 
ATOM      3  C   UNL A   1      33.122  26.054  21.953  1.00  0.00     0.263 C 
ATOM      4  O   UNL A   1      33.282  25.322  20.967  1.00  0.00    -0.268 OA
ATOM      5  H   UNL A   1      33.621  27.582  20.771  1.00  0.00     0.163 HD
BRANCH   3   6
ATOM      6  C   UNL A   1      32.868  25.522  23.295  1.00  0.00     0.115 A 
ATOM      7  C   UNL A   1      32.020  25.828  24.361  1.00  0.00     0.065 A 
ATOM      8  C   UNL A   1      32.278  24.992  25.500  1.00  0.00     0.038 A 
ATOM      9  C   UNL A   1      33.224  24.027  25.266  1.00  0.00     0.068 A 
ATOM     10  S   UNL A   1      33.854  24.142  23.698  1.00  0.00    -0.137 S 
BRANCH   7  11
ATOM     11  N   UNL A   1      30.987  26.766  24.323  1.00  0.00    -0.325 N 
ATOM     12  O   UNL A   1      29.348  25.495  23.313  1.00  0.00    -0.275 OA
ATOM     13  C   UNL A   1      29.754  26.578  23.731  1.00  0.00     0.224 C 
ATOM     14  H   UNL A   1      31.152  27.636  24.754  1.00  0.00     0.169 HD
BRANCH  13  15
ATOM     15  C   UNL A   1      28.895  27.825  23.494  1.00  0.00     0.105 C 
BRANCH  15  16
ATOM     16  C   UNL A   1      29.539  29.211  23.472  1.00  0.00     0.047 C 
BRANCH  16  17
ATOM     17  C   UNL A   1      28.808  30.326  22.765  1.00  0.00    -0.029 A 
ATOM     18  C   UNL A   1      28.378  30.288  21.437  1.00  0.00     0.007 A 
ATOM     19  C   UNL A   1      28.662  31.539  23.428  1.00  0.00     0.114 A 
ATOM     20  C   UNL A   1      28.019  31.469  20.791  1.00  0.00     0.020 A 
ATOM     21  N   UNL A   1      28.331  32.701  22.822  1.00  0.00    -0.264 NA
ATOM     22  C   UNL A   1      28.038  32.648  21.511  1.00  0.00     0.111 A 
ENDBRANCH  16  17
ENDBRANCH  15  16
ENDBRANCH  13  15
ENDBRANCH   7  11
ENDBRANCH   3   6
ENDBRANCH   1   2
BRANCH   1  23
ATOM     23  C   UNL A   1      34.043  29.064  23.406  1.00  0.00     0.042 C 
BRANCH  23  24
ATOM     24  C   UNL A   1      33.776  28.817  24.888  1.00  0.00     0.118 C 
BRANCH  24  25
ATOM     25  N   UNL A   1      32.989  29.834  25.576  1.00  0.00    -0.352 N 
ATOM     26  C   UNL A   1      33.261  30.690  26.618  1.00  0.00     0.251 C 
ATOM     27  H   UNL A   1      32.075  29.926  25.224  1.00  0.00     0.163 HD
ATOM     28  O   UNL A   1      32.426  31.533  26.948  1.00  0.00    -0.269 OA
BRANCH  26  29
ATOM     29  C   UNL A   1      34.482  30.580  27.436  1.00  0.00     0.039 A 
ATOM     30  C   UNL A   1      35.265  31.732  27.622  1.00  0.00     0.014 A 
ATOM     31  C   UNL A   1      34.906  29.368  27.962  1.00  0.00     0.014 A 
ATOM     32  C   UNL A   1      36.447  31.669  28.363  1.00  0.00     0.010 A 
ATOM     33  C   UNL A   1      36.014  29.328  28.794  1.00  0.00     0.010 A 
ATOM     34  C   UNL A   1      36.819  30.464  28.968  1.00  0.00    -0.014 A 
BRANCH  34  35
ATOM     35  C   UNL A   1      38.092  30.286  29.704  1.00  0.00     0.031 A 
ATOM     36  C   UNL A   1      39.118  29.340  29.134  1.00  0.00     0.074 A 
ATOM     37  C   UNL A   1      38.251  30.828  30.925  1.00  0.00     0.049 A 
ATOM     38  N   UNL A   1      40.154  28.794  29.712  1.00  0.00    -0.248 NA
ATOM     39  C   UNL A   1      38.904  28.895  27.744  1.00  0.00     0.031 C 
ATOM     40  C   UNL A   1      37.300  31.718  31.591  1.00  0.00     0.029 A 
ATOM     41  N   UNL A   1      39.252  30.659  31.847  1.00  0.00    -0.354 N 
ATOM     42  C   UNL A   1      40.663  27.887  28.788  1.00  0.00     0.074 A 
ATOM     43  C   UNL A   1      39.802  27.931  27.628  1.00  0.00     0.031 C 
ATOM     44  C   UNL A   1      37.752  32.003  32.824  1.00  0.00     0.029 A 
ATOM     45  C   UNL A   1      38.999  31.279  33.049  1.00  0.00     0.049 A 
ATOM     46  H   UNL A   1      40.072  30.145  31.667  1.00  0.00     0.167 HD
ATOM     47  C   UNL A   1      41.764  27.108  28.888  1.00  0.00     0.034 A 
ATOM     48  C   UNL A   1      39.684  31.240  34.208  1.00  0.00     0.034 A 
ATOM     49  C   UNL A   1      42.649  27.140  30.020  1.00  0.00     0.049 A 
ATOM     50  C   UNL A   1      40.945  30.420  34.271  1.00  0.00     0.074 A 
ATOM     51  C   UNL A   1      43.850  26.478  30.195  1.00  0.00     0.029 A 
ATOM     52  N   UNL A   1      42.428  27.886  31.168  1.00  0.00    -0.354 N 
ATOM     53  N   UNL A   1      41.480  29.656  33.348  1.00  0.00    -0.248 NA
ATOM     54  C   UNL A   1      41.714  30.481  35.520  1.00  0.00     0.031 C 
ATOM     55  C   UNL A   1      44.345  26.809  31.460  1.00  0.00     0.029 A 
ATOM     56  C   UNL A   1      43.471  27.704  32.057  1.00  0.00     0.049 A 
ATOM     57  H   UNL A   1      41.645  28.461  31.327  1.00  0.00     0.167 HD
ATOM     58  C   UNL A   1      42.669  29.181  33.888  1.00  0.00     0.074 A 
ATOM     59  C   UNL A   1      42.783  29.757  35.213  1.00  0.00     0.031 C 
ATOM     60  C   UNL A   1      43.583  28.338  33.345  1.00  0.00     0.034 A 
BRANCH  47  61
ATOM     61  C   UNL A   1      42.097  26.199  27.732  1.00  0.00     0.023 A 
ATOM     62  C   UNL A   1      42.889  26.679  26.668  1.00  0.00     0.012 A 
ATOM     63  C   UNL A   1      41.664  24.858  27.716  1.00  0.00     0.148 A 
ATOM     64  C   UNL A   1      43.207  25.856  25.588  1.00  0.00     0.002 A 
ATOM     65  C   UNL A   1      42.029  24.028  26.662  1.00  0.00     0.091 A 
ATOM     66  F   UNL A   1      40.894  24.423  28.724  1.00  0.00    -0.205 F 
ATOM     67  C   UNL A   1      42.787  24.529  25.591  1.00  0.00     0.022 A 
BRANCH  65  68
ATOM     68  S   UNL A   1      41.615  22.281  26.610  1.00  0.00     0.127 S 
ATOM     69  O   UNL A   1      40.156  22.326  26.537  1.00  0.00    -0.237 OA
ATOM     70  O   UNL A   1      42.274  21.847  25.380  1.00  0.00    -0.237 OA
ATOM     71  O   UNL A   1      42.158  21.701  27.831  1.00  0.00    -0.744 OA
ENDBRANCH  65  68
ENDBRANCH  47  61
BRANCH  48  72
ATOM     72  C   UNL A   1      39.228  32.047  35.375  1.00  0.00     0.023 A 
ATOM     73  C   UNL A   1      38.307  31.485  36.280  1.00  0.00     0.012 A 
ATOM     74  C   UNL A   1      39.719  33.345  35.614  1.00  0.00     0.148 A 
ATOM     75  C   UNL A   1      37.854  32.213  37.382  1.00  0.00     0.002 A 
ATOM     76  C   UNL A   1      39.307  34.043  36.744  1.00  0.00     0.091 A 
ATOM     77  F   UNL A   1      40.591  33.865  34.739  1.00  0.00    -0.205 F 
ATOM     78  C   UNL A   1      38.361  33.487  37.619  1.00  0.00     0.022 A 
BRANCH  76  79
ATOM     79  S   UNL A   1      40.004  35.633  37.206  1.00  0.00     0.127 S 
ATOM     80  O   UNL A   1      39.645  36.462  36.061  1.00  0.00    -0.237 OA
ATOM     81  O   UNL A   1      39.279  35.932  38.441  1.00  0.00    -0.237 OA
ATOM     82  O   UNL A   1      41.432  35.394  37.393  1.00  0.00    -0.744 OA
ENDBRANCH  76  79
ENDBRANCH  48  72
BRANCH  60  83
ATOM     83  C   UNL A   1      44.814  28.033  34.155  1.00  0.00     0.023 A 
ATOM     84  C   UNL A   1      45.940  28.873  34.073  1.00  0.00     0.012 A 
ATOM     85  C   UNL A   1      44.816  26.954  35.060  1.00  0.00     0.148 A 
ATOM     86  C   UNL A   1      47.064  28.624  34.858  1.00  0.00     0.002 A 
ATOM     87  C   UNL A   1      45.917  26.745  35.878  1.00  0.00     0.091 A 
ATOM     88  F   UNL A   1      43.738  26.157  35.109  1.00  0.00    -0.205 F 
ATOM     89  C   UNL A   1      47.048  27.570  35.769  1.00  0.00     0.022 A 
BRANCH  87  90
ATOM     90  S   UNL A   1      45.943  25.479  37.152  1.00  0.00     0.127 S 
ATOM     91  O   UNL A   1      46.036  24.257  36.354  1.00  0.00    -0.237 OA
ATOM     92  O   UNL A   1      47.157  25.815  37.897  1.00  0.00    -0.237 OA
ATOM     93  O   UNL A   1      44.707  25.640  37.905  1.00  0.00    -0.744 OA
ENDBRANCH  87  90
ENDBRANCH  60  83
ENDBRANCH  34  35
ENDBRANCH  26  29
ENDBRANCH  24  25
ENDBRANCH  23  24
ENDBRANCH   1  23
TORSDOF 17
ENDMDL
MODEL 3
REMARK VINA RESULT:     -12.0      6.176     11.364
REMARK SMILES O=C(CCc1cccnc1)Nc1ccsc1C(=O)NCCCNC(=O)c1ccc(-c2c3nc(c(-c4cccc(S(=O)(=O)[O-])c4F)c4ccc([nH]4)c(-c4cccc(S(=O)(=O)[O-])c4F)c4nc(c(-c5cccc(S(=O)(=O)[O-])c5F)c5ccc2[nH]5)C=C4)C=C3)cc1
REMARK SMILES IDX 20 1 19 2 17 3 18 4 16 6 12 7 13 8 14 9 15 10 11 11 1 12
REMARK SMILES IDX 2 13 3 15 4 16 5 17 6 18 10 19 7 20 9 21 8 22 21 23 22 24
REMARK SMILES IDX 23 25 24 26 25 28 26 29 27 30 88 31 28 32 87 33 29 34 30 35
REMARK SMILES IDX 31 36 81 37 32 38 86 39 80 40 82 41 33 42 85 43 79 44 78 45
REMARK SMILES IDX 34 47 66 48 46 49 65 50 47 51 50 52 64 53 83 54 48 55 49 56
REMARK SMILES IDX 63 58 84 59 51 60 35 61 36 62 44 63 37 64 39 65 45 66 38 67
REMARK SMILES IDX 40 68 41 69 42 70 43 71 67 72 68 73 76 74 69 75 71 76 77 77
REMARK SMILES IDX 70 78 72 79 73 80 74 81 75 82 52 83 53 84 61 85 54 86 56 87
REMARK SMILES IDX 62 88 55 89 57 90 58 91 59 92 60 93
REMARK H PARENT 19 5 11 14 23 27 82 46 50 57
REMARK Flexibility Score: inf
ROOT
ATOM      1  C   UNL A   1      31.797  30.076  25.613  1.00  0.00     0.118 C 
ENDROOT
BRANCH   1   2
ATOM      2  N   UNL A   1      32.972  29.675  24.875  1.00  0.00    -0.351 N 
ATOM      3  C   UNL A   1      33.404  28.441  24.441  1.00  0.00     0.263 C 
ATOM      4  O   UNL A   1      34.360  28.502  23.658  1.00  0.00    -0.268 OA
ATOM      5  H   UNL A   1      33.573  30.419  24.639  1.00  0.00     0.163 HD
BRANCH   3   6
ATOM      6  C   UNL A   1      32.837  27.167  24.894  1.00  0.00     0.115 A 
ATOM      7  C   UNL A   1      31.561  26.614  25.017  1.00  0.00     0.065 A 
ATOM      8  C   UNL A   1      31.603  25.313  25.624  1.00  0.00     0.038 A 
ATOM      9  C   UNL A   1      32.877  24.864  25.862  1.00  0.00     0.068 A 
ATOM     10  S   UNL A   1      34.036  26.014  25.413  1.00  0.00    -0.137 S 
BRANCH   7  11
ATOM     11  N   UNL A   1      30.384  27.195  24.542  1.00  0.00    -0.325 N 
ATOM     12  O   UNL A   1      30.813  27.139  22.275  1.00  0.00    -0.275 OA
ATOM     13  C   UNL A   1      30.115  27.500  23.222  1.00  0.00     0.224 C 
ATOM     14  H   UNL A   1      29.686  27.405  25.203  1.00  0.00     0.169 HD
BRANCH  13  15
ATOM     15  C   UNL A   1      28.932  28.434  22.947  1.00  0.00     0.105 C 
BRANCH  15  16
ATOM     16  C   UNL A   1      29.019  29.915  23.316  1.00  0.00     0.047 C 
BRANCH  16  17
ATOM     17  C   UNL A   1      28.395  30.921  22.378  1.00  0.00    -0.029 A 
ATOM     18  C   UNL A   1      28.088  30.685  21.037  1.00  0.00     0.007 A 
ATOM     19  C   UNL A   1      28.232  32.226  22.831  1.00  0.00     0.114 A 
ATOM     20  C   UNL A   1      27.830  31.757  20.186  1.00  0.00     0.020 A 
ATOM     21  N   UNL A   1      27.999  33.285  22.025  1.00  0.00    -0.264 NA
ATOM     22  C   UNL A   1      27.825  33.034  20.715  1.00  0.00     0.111 A 
ENDBRANCH  16  17
ENDBRANCH  15  16
ENDBRANCH  13  15
ENDBRANCH   7  11
ENDBRANCH   3   6
ENDBRANCH   1   2
BRANCH   1  23
ATOM     23  C   UNL A   1      32.015  30.787  26.941  1.00  0.00     0.042 C 
BRANCH  23  24
ATOM     24  C   UNL A   1      33.041  31.916  26.934  1.00  0.00     0.118 C 
BRANCH  24  25
ATOM     25  N   UNL A   1      32.627  33.165  27.562  1.00  0.00    -0.352 N 
ATOM     26  C   UNL A   1      33.218  33.996  28.486  1.00  0.00     0.251 C 
ATOM     27  H   UNL A   1      31.742  33.477  27.266  1.00  0.00     0.163 HD
ATOM     28  O   UNL A   1      32.677  35.062  28.780  1.00  0.00    -0.269 OA
BRANCH  26  29
ATOM     29  C   UNL A   1      34.437  33.620  29.225  1.00  0.00     0.039 A 
ATOM     30  C   UNL A   1      35.643  34.256  28.886  1.00  0.00     0.014 A 
ATOM     31  C   UNL A   1      34.433  32.619  30.185  1.00  0.00     0.014 A 
ATOM     32  C   UNL A   1      36.829  33.910  29.537  1.00  0.00     0.010 A 
ATOM     33  C   UNL A   1      35.584  32.358  30.913  1.00  0.00     0.010 A 
ATOM     34  C   UNL A   1      36.801  32.966  30.569  1.00  0.00    -0.014 A 
BRANCH  34  35
ATOM     35  C   UNL A   1      38.019  32.483  31.259  1.00  0.00     0.031 A 
ATOM     36  C   UNL A   1      38.808  31.372  30.615  1.00  0.00     0.074 A 
ATOM     37  C   UNL A   1      38.312  32.913  32.500  1.00  0.00     0.049 A 
ATOM     38  N   UNL A   1      39.714  30.588  31.136  1.00  0.00    -0.248 NA
ATOM     39  C   UNL A   1      38.479  31.058  29.212  1.00  0.00     0.031 C 
ATOM     40  C   UNL A   1      37.584  33.949  33.234  1.00  0.00     0.029 A 
ATOM     41  N   UNL A   1      39.270  32.487  33.383  1.00  0.00    -0.354 N 
ATOM     42  C   UNL A   1      40.000  29.645  30.155  1.00  0.00     0.074 A 
ATOM     43  C   UNL A   1      39.148  29.931  29.024  1.00  0.00     0.031 C 
ATOM     44  C   UNL A   1      38.109  34.065  34.466  1.00  0.00     0.029 A 
ATOM     45  C   UNL A   1      39.177  33.082  34.620  1.00  0.00     0.049 A 
ATOM     46  H   UNL A   1      39.957  31.821  33.155  1.00  0.00     0.167 HD
ATOM     47  C   UNL A   1      40.910  28.644  30.187  1.00  0.00     0.034 A 
ATOM     48  C   UNL A   1      39.857  32.837  35.756  1.00  0.00     0.034 A 
ATOM     49  C   UNL A   1      41.802  28.427  31.293  1.00  0.00     0.049 A 
ATOM     50  C   UNL A   1      40.915  31.765  35.743  1.00  0.00     0.074 A 
ATOM     51  C   UNL A   1      42.837  27.517  31.401  1.00  0.00     0.029 A 
ATOM     52  N   UNL A   1      41.767  29.142  32.481  1.00  0.00    -0.354 N 
ATOM     53  N   UNL A   1      41.258  30.955  34.769  1.00  0.00    -0.248 NA
ATOM     54  C   UNL A   1      41.702  31.595  36.971  1.00  0.00     0.031 C 
ATOM     55  C   UNL A   1      43.414  27.667  32.666  1.00  0.00     0.029 A 
ATOM     56  C   UNL A   1      42.761  28.695  33.330  1.00  0.00     0.049 A 
ATOM     57  H   UNL A   1      41.127  29.861  32.689  1.00  0.00     0.167 HD
ATOM     58  C   UNL A   1      42.327  30.210  35.252  1.00  0.00     0.074 A 
ATOM     59  C   UNL A   1      42.585  30.678  36.599  1.00  0.00     0.031 C 
ATOM     60  C   UNL A   1      43.029  29.222  34.643  1.00  0.00     0.034 A 
BRANCH  47  61
ATOM     61  C   UNL A   1      41.021  27.749  28.979  1.00  0.00     0.023 A 
ATOM     62  C   UNL A   1      40.134  26.662  28.827  1.00  0.00     0.012 A 
ATOM     63  C   UNL A   1      41.973  28.004  27.972  1.00  0.00     0.148 A 
ATOM     64  C   UNL A   1      40.221  25.820  27.719  1.00  0.00     0.002 A 
ATOM     65  C   UNL A   1      42.019  27.192  26.844  1.00  0.00     0.091 A 
ATOM     66  F   UNL A   1      42.823  29.028  28.141  1.00  0.00    -0.205 F 
ATOM     67  C   UNL A   1      41.154  26.092  26.724  1.00  0.00     0.022 A 
BRANCH  65  68
ATOM     68  S   UNL A   1      43.124  27.505  25.464  1.00  0.00     0.127 S 
ATOM     69  O   UNL A   1      43.446  26.147  25.030  1.00  0.00    -0.237 OA
ATOM     70  O   UNL A   1      42.264  28.251  24.546  1.00  0.00    -0.237 OA
ATOM     71  O   UNL A   1      44.242  28.267  26.006  1.00  0.00    -0.744 OA
ENDBRANCH  65  68
ENDBRANCH  47  61
BRANCH  48  72
ATOM     72  C   UNL A   1      39.606  33.659  36.973  1.00  0.00     0.023 A 
ATOM     73  C   UNL A   1      40.111  34.973  37.029  1.00  0.00     0.012 A 
ATOM     74  C   UNL A   1      38.849  33.169  38.054  1.00  0.00     0.148 A 
ATOM     75  C   UNL A   1      39.898  35.772  38.155  1.00  0.00     0.002 A 
ATOM     76  C   UNL A   1      38.593  33.989  39.148  1.00  0.00     0.091 A 
ATOM     77  F   UNL A   1      38.381  31.915  37.985  1.00  0.00    -0.205 F 
ATOM     78  C   UNL A   1      39.132  35.283  39.209  1.00  0.00     0.022 A 
BRANCH  76  79
ATOM     79  S   UNL A   1      37.507  33.497  40.492  1.00  0.00     0.127 S 
ATOM     80  O   UNL A   1      38.341  32.548  41.220  1.00  0.00    -0.237 OA
ATOM     81  O   UNL A   1      37.277  34.771  41.174  1.00  0.00    -0.237 OA
ATOM     82  O   UNL A   1      36.321  32.938  39.851  1.00  0.00    -0.744 OA
ENDBRANCH  76  79
ENDBRANCH  48  72
BRANCH  60  83
ATOM     83  C   UNL A   1      44.181  28.619  35.402  1.00  0.00     0.023 A 
ATOM     84  C   UNL A   1      45.486  29.111  35.213  1.00  0.00     0.012 A 
ATOM     85  C   UNL A   1      43.947  27.618  36.365  1.00  0.00     0.148 A 
ATOM     86  C   UNL A   1      46.549  28.591  35.949  1.00  0.00     0.002 A 
ATOM     87  C   UNL A   1      45.002  27.144  37.133  1.00  0.00     0.091 A 
ATOM     88  F   UNL A   1      42.699  27.154  36.516  1.00  0.00    -0.205 F 
ATOM     89  C   UNL A   1      46.306  27.619  36.917  1.00  0.00     0.022 A 
BRANCH  87  90
ATOM     90  S   UNL A   1      44.765  25.972  38.473  1.00  0.00     0.127 S 
ATOM     91  O   UNL A   1      43.905  26.729  39.381  1.00  0.00    -0.237 OA
ATOM     92  O   UNL A   1      44.104  24.857  37.794  1.00  0.00    -0.237 OA
ATOM     93  O   UNL A   1      46.095  25.667  38.982  1.00  0.00    -0.744 OA
ENDBRANCH  87  90
ENDBRANCH  60  83
ENDBRANCH  34  35
ENDBRANCH  26  29
ENDBRANCH  24  25
ENDBRANCH  23  24
ENDBRANCH   1  23
TORSDOF 17
ENDMDL
