MODEL 1
REMARK VINA RESULT:     -12.4      0.000      0.000
REMARK SMILES O=Cc1cccc(-c2cc(F)ccc2C(=O)NCCCNC(=O)c2ccc(-c3c4nc(c(-c5cccc(S(=O)(=O)[O-])c5F)c5ccc([nH]5)c(-c5cccc(S(=O)(=O)[O-])c5F)c5nc(c(-c6cccc(S(=O)(=O)[O-])c6F)c6ccc3[nH]6)C=C5)C=C4)cc2)c1
REMARK SMILES IDX 19 1 18 2 17 3 15 4 16 5 14 7 8 8 9 9 10 10 13 11 11 12
REMARK SMILES IDX 12 13 7 14 3 15 4 16 87 17 5 18 6 19 2 20 1 21 20 22 21 23
REMARK SMILES IDX 22 24 23 26 24 27 25 28 86 29 26 30 85 31 27 32 28 33 29 34
REMARK SMILES IDX 79 35 30 36 84 37 78 38 80 39 31 40 83 41 77 42 76 43 32 45
REMARK SMILES IDX 64 46 44 47 63 48 45 49 48 50 62 51 81 52 46 53 47 54 61 56
REMARK SMILES IDX 82 57 49 58 33 59 34 60 42 61 35 62 37 63 43 64 36 65 38 66
REMARK SMILES IDX 39 67 40 68 41 69 65 70 66 71 74 72 67 73 69 74 75 75 68 76
REMARK SMILES IDX 70 77 71 78 72 79 73 80 50 81 51 82 59 83 52 84 54 85 60 86
REMARK SMILES IDX 53 87 55 88 56 89 57 90 58 91
REMARK H PARENT 17 6 21 25 80 44 48 55
REMARK Flexibility Score: inf
ROOT
ATOM      1  C   UNL A   1      31.543  28.859  26.539  1.00  0.00     0.042 C 
ENDROOT
BRANCH   1   2
ATOM      2  C   UNL A   1      31.972  27.415  26.587  1.00  0.00     0.118 C 
BRANCH   2   3
ATOM      3  N   UNL A   1      31.001  26.389  26.815  1.00  0.00    -0.352 N 
ATOM      4  C   UNL A   1      30.858  25.200  26.132  1.00  0.00     0.251 C 
ATOM      5  O   UNL A   1      30.131  24.356  26.667  1.00  0.00    -0.269 OA
ATOM      6  H   UNL A   1      30.361  26.550  27.545  1.00  0.00     0.163 HD
BRANCH   4   7
ATOM      7  C   UNL A   1      31.403  24.887  24.751  1.00  0.00     0.047 A 
ATOM      8  C   UNL A   1      31.407  25.646  23.543  1.00  0.00    -0.003 A 
ATOM      9  C   UNL A   1      32.032  25.077  22.401  1.00  0.00     0.048 A 
ATOM     10  C   UNL A   1      32.633  23.826  22.435  1.00  0.00     0.123 A 
ATOM     11  C   UNL A   1      32.035  23.613  24.737  1.00  0.00     0.017 A 
ATOM     12  F   UNL A   1      33.207  23.336  21.329  1.00  0.00    -0.207 F 
ATOM     13  C   UNL A   1      32.641  23.084  23.597  1.00  0.00     0.040 A 
BRANCH   8  14
ATOM     14  C   UNL A   1      30.786  26.968  23.313  1.00  0.00    -0.017 A 
ATOM     15  C   UNL A   1      28.848  28.414  23.059  1.00  0.00     0.015 A 
ATOM     16  C   UNL A   1      29.634  29.414  22.477  1.00  0.00     0.011 A 
ATOM     17  C   UNL A   1      29.420  27.208  23.506  1.00  0.00     0.020 A 
ATOM     18  C   UNL A   1      31.008  29.224  22.362  1.00  0.00     0.001 A 
ATOM     19  C   UNL A   1      31.577  28.022  22.788  1.00  0.00     0.009 A 
BRANCH  15  20
ATOM     20  C   UNL A   1      27.381  28.582  23.073  1.00  0.00     0.260 C 
ATOM     21  O   UNL A   1      26.861  29.650  23.376  1.00  0.00    -0.298 OA
ENDBRANCH  15  20
ENDBRANCH   8  14
ENDBRANCH   4   7
ENDBRANCH   2   3
ENDBRANCH   1   2
BRANCH   1  22
ATOM     22  C   UNL A   1      32.504  29.823  25.862  1.00  0.00     0.118 C 
BRANCH  22  23
ATOM     23  N   UNL A   1      32.463  31.202  26.354  1.00  0.00    -0.352 N 
ATOM     24  C   UNL A   1      33.268  31.929  27.210  1.00  0.00     0.251 C 
ATOM     25  H   UNL A   1      31.704  31.719  26.001  1.00  0.00     0.163 HD
ATOM     26  O   UNL A   1      32.900  33.044  27.558  1.00  0.00    -0.269 OA
BRANCH  24  27
ATOM     27  C   UNL A   1      34.532  31.376  27.757  1.00  0.00     0.039 A 
ATOM     28  C   UNL A   1      35.618  32.233  27.986  1.00  0.00     0.014 A 
ATOM     29  C   UNL A   1      34.672  30.024  28.041  1.00  0.00     0.014 A 
ATOM     30  C   UNL A   1      36.778  31.747  28.605  1.00  0.00     0.010 A 
ATOM     31  C   UNL A   1      35.745  29.579  28.798  1.00  0.00     0.010 A 
ATOM     32  C   UNL A   1      36.824  30.428  29.075  1.00  0.00    -0.014 A 
BRANCH  32  33
ATOM     33  C   UNL A   1      37.978  29.876  29.835  1.00  0.00     0.031 A 
ATOM     34  C   UNL A   1      38.217  30.329  31.255  1.00  0.00     0.074 A 
ATOM     35  C   UNL A   1      38.883  29.097  29.210  1.00  0.00     0.049 A 
ATOM     36  N   UNL A   1      39.252  30.125  32.026  1.00  0.00    -0.248 NA
ATOM     37  C   UNL A   1      37.177  31.174  31.872  1.00  0.00     0.031 C 
ATOM     38  C   UNL A   1      38.811  28.659  27.813  1.00  0.00     0.029 A 
ATOM     39  N   UNL A   1      40.066  28.562  29.658  1.00  0.00    -0.354 N 
ATOM     40  C   UNL A   1      39.023  30.872  33.176  1.00  0.00     0.074 A 
ATOM     41  C   UNL A   1      37.769  31.565  32.991  1.00  0.00     0.031 C 
ATOM     42  C   UNL A   1      39.890  27.915  27.523  1.00  0.00     0.029 A 
ATOM     43  C   UNL A   1      40.755  27.859  28.696  1.00  0.00     0.049 A 
ATOM     44  H   UNL A   1      40.391  28.672  30.581  1.00  0.00     0.167 HD
ATOM     45  C   UNL A   1      39.773  30.952  34.300  1.00  0.00     0.034 A 
ATOM     46  C   UNL A   1      41.956  27.249  28.748  1.00  0.00     0.034 A 
ATOM     47  C   UNL A   1      40.972  30.190  34.510  1.00  0.00     0.049 A 
ATOM     48  C   UNL A   1      42.730  27.290  30.039  1.00  0.00     0.074 A 
ATOM     49  C   UNL A   1      41.739  30.091  35.657  1.00  0.00     0.029 A 
ATOM     50  N   UNL A   1      41.577  29.396  33.549  1.00  0.00    -0.354 N 
ATOM     51  N   UNL A   1      42.417  27.874  31.172  1.00  0.00    -0.248 NA
ATOM     52  C   UNL A   1      44.007  26.563  30.071  1.00  0.00     0.031 C 
ATOM     53  C   UNL A   1      42.826  29.257  35.379  1.00  0.00     0.029 A 
ATOM     54  C   UNL A   1      42.715  28.811  34.072  1.00  0.00     0.049 A 
ATOM     55  H   UNL A   1      41.246  29.266  32.632  1.00  0.00     0.167 HD
ATOM     56  C   UNL A   1      43.433  27.547  32.061  1.00  0.00     0.074 A 
ATOM     57  C   UNL A   1      44.362  26.699  31.342  1.00  0.00     0.031 C 
ATOM     58  C   UNL A   1      43.593  27.922  33.355  1.00  0.00     0.034 A 
BRANCH  45  59
ATOM     59  C   UNL A   1      39.295  31.853  35.411  1.00  0.00     0.023 A 
ATOM     60  C   UNL A   1      38.407  31.358  36.388  1.00  0.00     0.012 A 
ATOM     61  C   UNL A   1      39.776  33.173  35.522  1.00  0.00     0.148 A 
ATOM     62  C   UNL A   1      37.976  32.172  37.435  1.00  0.00     0.002 A 
ATOM     63  C   UNL A   1      39.382  33.961  36.598  1.00  0.00     0.091 A 
ATOM     64  F   UNL A   1      40.604  33.634  34.573  1.00  0.00    -0.205 F 
ATOM     65  C   UNL A   1      38.472  33.468  37.546  1.00  0.00     0.022 A 
BRANCH  63  66
ATOM     66  S   UNL A   1      40.031  35.612  36.880  1.00  0.00     0.127 S 
ATOM     67  O   UNL A   1      39.407  35.960  38.155  1.00  0.00    -0.237 OA
ATOM     68  O   UNL A   1      41.471  35.365  36.953  1.00  0.00    -0.237 OA
ATOM     69  O   UNL A   1      39.607  36.413  35.741  1.00  0.00    -0.744 OA
ENDBRANCH  63  66
ENDBRANCH  45  59
BRANCH  46  70
ATOM     70  C   UNL A   1      42.470  26.487  27.574  1.00  0.00     0.023 A 
ATOM     71  C   UNL A   1      43.288  27.145  26.633  1.00  0.00     0.012 A 
ATOM     72  C   UNL A   1      42.171  25.124  27.386  1.00  0.00     0.148 A 
ATOM     73  C   UNL A   1      43.763  26.474  25.506  1.00  0.00     0.002 A 
ATOM     74  C   UNL A   1      42.696  24.446  26.291  1.00  0.00     0.091 A 
ATOM     75  F   UNL A   1      41.386  24.515  28.286  1.00  0.00    -0.205 F 
ATOM     76  C   UNL A   1      43.475  25.122  25.339  1.00  0.00     0.022 A 
BRANCH  74  77
ATOM     77  S   UNL A   1      42.489  22.675  26.067  1.00  0.00     0.127 S 
ATOM     78  O   UNL A   1      41.035  22.539  26.074  1.00  0.00    -0.237 OA
ATOM     79  O   UNL A   1      43.124  22.459  24.766  1.00  0.00    -0.237 OA
ATOM     80  O   UNL A   1      43.190  22.055  27.183  1.00  0.00    -0.744 OA
ENDBRANCH  74  77
ENDBRANCH  46  70
BRANCH  58  81
ATOM     81  C   UNL A   1      44.783  27.378  34.097  1.00  0.00     0.023 A 
ATOM     82  C   UNL A   1      46.005  28.075  34.079  1.00  0.00     0.012 A 
ATOM     83  C   UNL A   1      44.659  26.213  34.880  1.00  0.00     0.148 A 
ATOM     84  C   UNL A   1      47.099  27.602  34.802  1.00  0.00     0.002 A 
ATOM     85  C   UNL A   1      45.735  25.779  35.641  1.00  0.00     0.091 A 
ATOM     86  F   UNL A   1      43.490  25.555  34.868  1.00  0.00    -0.205 F 
ATOM     87  C   UNL A   1      46.961  26.463  35.592  1.00  0.00     0.022 A 
BRANCH  85  88
ATOM     88  S   UNL A   1      45.615  24.386  36.768  1.00  0.00     0.127 S 
ATOM     89  O   UNL A   1      45.496  23.262  35.839  1.00  0.00    -0.237 OA
ATOM     90  O   UNL A   1      46.891  24.455  37.482  1.00  0.00    -0.237 OA
ATOM     91  O   UNL A   1      44.444  24.638  37.596  1.00  0.00    -0.744 OA
ENDBRANCH  85  88
ENDBRANCH  58  81
ENDBRANCH  32  33
ENDBRANCH  24  27
ENDBRANCH  22  23
ENDBRANCH   1  22
TORSDOF 15
ENDMDL
MODEL 2
REMARK VINA RESULT:     -12.4      1.501      7.727
REMARK SMILES O=Cc1cccc(-c2cc(F)ccc2C(=O)NCCCNC(=O)c2ccc(-c3c4nc(c(-c5cccc(S(=O)(=O)[O-])c5F)c5ccc([nH]5)c(-c5cccc(S(=O)(=O)[O-])c5F)c5nc(c(-c6cccc(S(=O)(=O)[O-])c6F)c6ccc3[nH]6)C=C5)C=C4)cc2)c1
REMARK SMILES IDX 19 1 18 2 17 3 15 4 16 5 14 7 8 8 9 9 10 10 13 11 11 12
REMARK SMILES IDX 12 13 7 14 3 15 4 16 87 17 5 18 6 19 2 20 1 21 20 22 21 23
REMARK SMILES IDX 22 24 23 26 24 27 25 28 86 29 26 30 85 31 27 32 28 33 29 34
REMARK SMILES IDX 79 35 30 36 84 37 78 38 80 39 31 40 83 41 77 42 76 43 32 45
REMARK SMILES IDX 64 46 44 47 63 48 45 49 48 50 62 51 81 52 46 53 47 54 61 56
REMARK SMILES IDX 82 57 49 58 33 59 34 60 42 61 35 62 37 63 43 64 36 65 38 66
REMARK SMILES IDX 39 67 40 68 41 69 65 70 66 71 74 72 67 73 69 74 75 75 68 76
REMARK SMILES IDX 70 77 71 78 72 79 73 80 50 81 51 82 59 83 52 84 54 85 60 86
REMARK SMILES IDX 53 87 55 88 56 89 57 90 58 91
REMARK H PARENT 17 6 21 25 80 44 48 55
REMARK Flexibility Score: inf
ROOT
ATOM      1  C   UNL A   1      31.771  28.727  27.036  1.00  0.00     0.042 C 
ENDROOT
BRANCH   1   2
ATOM      2  C   UNL A   1      32.051  27.284  26.705  1.00  0.00     0.118 C 
BRANCH   2   3
ATOM      3  N   UNL A   1      31.025  26.301  26.875  1.00  0.00    -0.352 N 
ATOM      4  C   UNL A   1      30.841  25.143  26.149  1.00  0.00     0.251 C 
ATOM      5  O   UNL A   1      30.059  24.320  26.637  1.00  0.00    -0.269 OA
ATOM      6  H   UNL A   1      30.375  26.471  27.594  1.00  0.00     0.163 HD
BRANCH   4   7
ATOM      7  C   UNL A   1      31.405  24.849  24.772  1.00  0.00     0.047 A 
ATOM      8  C   UNL A   1      31.421  25.621  23.573  1.00  0.00    -0.003 A 
ATOM      9  C   UNL A   1      32.064  25.068  22.433  1.00  0.00     0.048 A 
ATOM     10  C   UNL A   1      32.671  23.820  22.460  1.00  0.00     0.123 A 
ATOM     11  C   UNL A   1      32.045  23.578  24.752  1.00  0.00     0.017 A 
ATOM     12  F   UNL A   1      33.262  23.345  21.357  1.00  0.00    -0.207 F 
ATOM     13  C   UNL A   1      32.669  23.066  23.614  1.00  0.00     0.040 A 
BRANCH   8  14
ATOM     14  C   UNL A   1      30.795  26.942  23.348  1.00  0.00    -0.017 A 
ATOM     15  C   UNL A   1      28.853  28.387  23.127  1.00  0.00     0.015 A 
ATOM     16  C   UNL A   1      29.627  29.384  22.524  1.00  0.00     0.011 A 
ATOM     17  C   UNL A   1      29.434  27.183  23.568  1.00  0.00     0.020 A 
ATOM     18  C   UNL A   1      30.998  29.193  22.383  1.00  0.00     0.001 A 
ATOM     19  C   UNL A   1      31.576  27.993  22.804  1.00  0.00     0.009 A 
BRANCH  15  20
ATOM     20  C   UNL A   1      27.387  28.556  23.169  1.00  0.00     0.260 C 
ATOM     21  O   UNL A   1      26.869  29.667  23.170  1.00  0.00    -0.298 OA
ENDBRANCH  15  20
ENDBRANCH   8  14
ENDBRANCH   4   7
ENDBRANCH   2   3
ENDBRANCH   1   2
BRANCH   1  22
ATOM     22  C   UNL A   1      32.264  29.754  26.029  1.00  0.00     0.118 C 
BRANCH  22  23
ATOM     23  N   UNL A   1      32.054  31.155  26.403  1.00  0.00    -0.352 N 
ATOM     24  C   UNL A   1      32.780  32.056  27.156  1.00  0.00     0.251 C 
ATOM     25  H   UNL A   1      31.220  31.533  26.043  1.00  0.00     0.163 HD
ATOM     26  O   UNL A   1      32.277  33.139  27.424  1.00  0.00    -0.269 OA
BRANCH  24  27
ATOM     27  C   UNL A   1      34.126  31.726  27.690  1.00  0.00     0.039 A 
ATOM     28  C   UNL A   1      35.045  32.758  27.928  1.00  0.00     0.014 A 
ATOM     29  C   UNL A   1      34.504  30.416  27.953  1.00  0.00     0.014 A 
ATOM     30  C   UNL A   1      36.277  32.476  28.535  1.00  0.00     0.010 A 
ATOM     31  C   UNL A   1      35.643  30.157  28.699  1.00  0.00     0.010 A 
ATOM     32  C   UNL A   1      36.558  31.178  28.986  1.00  0.00    -0.014 A 
BRANCH  32  33
ATOM     33  C   UNL A   1      37.795  30.828  29.733  1.00  0.00     0.031 A 
ATOM     34  C   UNL A   1      38.799  29.888  29.108  1.00  0.00     0.074 A 
ATOM     35  C   UNL A   1      37.944  31.227  31.012  1.00  0.00     0.049 A 
ATOM     36  N   UNL A   1      39.838  29.309  29.648  1.00  0.00    -0.248 NA
ATOM     37  C   UNL A   1      38.571  29.504  27.702  1.00  0.00     0.031 C 
ATOM     38  C   UNL A   1      37.001  32.066  31.757  1.00  0.00     0.029 A 
ATOM     39  N   UNL A   1      38.928  30.948  31.928  1.00  0.00    -0.354 N 
ATOM     40  C   UNL A   1      40.335  28.442  28.682  1.00  0.00     0.074 A 
ATOM     41  C   UNL A   1      39.465  28.542  27.533  1.00  0.00     0.031 C 
ATOM     42  C   UNL A   1      37.457  32.245  33.007  1.00  0.00     0.029 A 
ATOM     43  C   UNL A   1      38.699  31.498  33.170  1.00  0.00     0.049 A 
ATOM     44  H   UNL A   1      39.723  30.407  31.717  1.00  0.00     0.167 HD
ATOM     45  C   UNL A   1      41.435  27.655  28.732  1.00  0.00     0.034 A 
ATOM     46  C   UNL A   1      39.404  31.398  34.314  1.00  0.00     0.034 A 
ATOM     47  C   UNL A   1      42.343  27.631  29.845  1.00  0.00     0.049 A 
ATOM     48  C   UNL A   1      40.667  30.578  34.316  1.00  0.00     0.074 A 
ATOM     49  C   UNL A   1      43.556  26.975  29.951  1.00  0.00     0.029 A 
ATOM     50  N   UNL A   1      42.136  28.294  31.043  1.00  0.00    -0.354 N 
ATOM     51  N   UNL A   1      41.206  29.891  33.336  1.00  0.00    -0.248 NA
ATOM     52  C   UNL A   1      41.436  30.545  35.568  1.00  0.00     0.031 C 
ATOM     53  C   UNL A   1      44.069  27.219  31.228  1.00  0.00     0.029 A 
ATOM     54  C   UNL A   1      43.193  28.055  31.902  1.00  0.00     0.049 A 
ATOM     55  H   UNL A   1      41.354  28.854  31.252  1.00  0.00     0.167 HD
ATOM     56  C   UNL A   1      42.397  29.383  33.841  1.00  0.00     0.074 A 
ATOM     57  C   UNL A   1      42.509  29.856  35.205  1.00  0.00     0.031 C 
ATOM     58  C   UNL A   1      43.312  28.586  33.235  1.00  0.00     0.034 A 
BRANCH  45  59
ATOM     59  C   UNL A   1      41.751  26.796  27.534  1.00  0.00     0.023 A 
ATOM     60  C   UNL A   1      42.367  27.364  26.400  1.00  0.00     0.012 A 
ATOM     61  C   UNL A   1      41.492  25.411  27.556  1.00  0.00     0.148 A 
ATOM     62  C   UNL A   1      42.686  26.577  25.294  1.00  0.00     0.002 A 
ATOM     63  C   UNL A   1      41.861  24.624  26.471  1.00  0.00     0.091 A 
ATOM     64  F   UNL A   1      40.886  24.890  28.633  1.00  0.00    -0.205 F 
ATOM     65  C   UNL A   1      42.444  25.207  25.335  1.00  0.00     0.022 A 
BRANCH  63  66
ATOM     66  S   UNL A   1      41.673  22.837  26.459  1.00  0.00     0.127 S 
ATOM     67  O   UNL A   1      40.217  22.695  26.425  1.00  0.00    -0.237 OA
ATOM     68  O   UNL A   1      42.350  22.468  25.216  1.00  0.00    -0.237 OA
ATOM     69  O   UNL A   1      42.317  22.355  27.671  1.00  0.00    -0.744 OA
ENDBRANCH  63  66
ENDBRANCH  45  59
BRANCH  46  70
ATOM     70  C   UNL A   1      38.979  32.148  35.532  1.00  0.00     0.023 A 
ATOM     71  C   UNL A   1      39.232  33.532  35.609  1.00  0.00     0.012 A 
ATOM     72  C   UNL A   1      38.320  31.512  36.602  1.00  0.00     0.148 A 
ATOM     73  C   UNL A   1      38.876  34.261  36.744  1.00  0.00     0.002 A 
ATOM     74  C   UNL A   1      37.916  32.255  37.705  1.00  0.00     0.091 A 
ATOM     75  F   UNL A   1      38.093  30.193  36.515  1.00  0.00    -0.205 F 
ATOM     76  C   UNL A   1      38.210  33.625  37.789  1.00  0.00     0.022 A 
BRANCH  74  77
ATOM     77  S   UNL A   1      36.935  31.549  39.035  1.00  0.00     0.127 S 
ATOM     78  O   UNL A   1      35.806  32.473  39.098  1.00  0.00    -0.237 OA
ATOM     79  O   UNL A   1      36.618  30.222  38.505  1.00  0.00    -0.237 OA
ATOM     80  O   UNL A   1      37.809  31.534  40.200  1.00  0.00    -0.744 OA
ENDBRANCH  74  77
ENDBRANCH  46  70
BRANCH  58  81
ATOM     81  C   UNL A   1      44.543  28.218  34.018  1.00  0.00     0.023 A 
ATOM     82  C   UNL A   1      45.667  29.064  34.006  1.00  0.00     0.012 A 
ATOM     83  C   UNL A   1      44.548  27.066  34.831  1.00  0.00     0.148 A 
ATOM     84  C   UNL A   1      46.794  28.752  34.766  1.00  0.00     0.002 A 
ATOM     85  C   UNL A   1      45.653  26.792  35.626  1.00  0.00     0.091 A 
ATOM     86  F   UNL A   1      43.473  26.265  34.812  1.00  0.00    -0.205 F 
ATOM     87  C   UNL A   1      46.782  27.625  35.584  1.00  0.00     0.022 A 
BRANCH  85  88
ATOM     88  S   UNL A   1      45.683  25.423  36.788  1.00  0.00     0.127 S 
ATOM     89  O   UNL A   1      45.641  24.270  35.890  1.00  0.00    -0.237 OA
ATOM     90  O   UNL A   1      46.964  25.622  37.467  1.00  0.00    -0.237 OA
ATOM     91  O   UNL A   1      44.514  25.594  37.640  1.00  0.00    -0.744 OA
ENDBRANCH  85  88
ENDBRANCH  58  81
ENDBRANCH  32  33
ENDBRANCH  24  27
ENDBRANCH  22  23
ENDBRANCH   1  22
TORSDOF 15
ENDMDL
MODEL 3
REMARK VINA RESULT:     -12.1      2.127      7.986
REMARK SMILES O=Cc1cccc(-c2cc(F)ccc2C(=O)NCCCNC(=O)c2ccc(-c3c4nc(c(-c5cccc(S(=O)(=O)[O-])c5F)c5ccc([nH]5)c(-c5cccc(S(=O)(=O)[O-])c5F)c5nc(c(-c6cccc(S(=O)(=O)[O-])c6F)c6ccc3[nH]6)C=C5)C=C4)cc2)c1
REMARK SMILES IDX 19 1 18 2 17 3 15 4 16 5 14 7 8 8 9 9 10 10 13 11 11 12
REMARK SMILES IDX 12 13 7 14 3 15 4 16 87 17 5 18 6 19 2 20 1 21 20 22 21 23
REMARK SMILES IDX 22 24 23 26 24 27 25 28 86 29 26 30 85 31 27 32 28 33 29 34
REMARK SMILES IDX 79 35 30 36 84 37 78 38 80 39 31 40 83 41 77 42 76 43 32 45
REMARK SMILES IDX 64 46 44 47 63 48 45 49 48 50 62 51 81 52 46 53 47 54 61 56
REMARK SMILES IDX 82 57 49 58 33 59 34 60 42 61 35 62 37 63 43 64 36 65 38 66
REMARK SMILES IDX 39 67 40 68 41 69 65 70 66 71 74 72 67 73 69 74 75 75 68 76
REMARK SMILES IDX 70 77 71 78 72 79 73 80 50 81 51 82 59 83 52 84 54 85 60 86
REMARK SMILES IDX 53 87 55 88 56 89 57 90 58 91
REMARK H PARENT 17 6 21 25 80 44 48 55
REMARK Flexibility Score: inf
ROOT
ATOM      1  C   UNL A   1      31.392  28.580  26.408  1.00  0.00     0.042 C 
ENDROOT
BRANCH   1   2
ATOM      2  C   UNL A   1      31.832  27.217  26.876  1.00  0.00     0.118 C 
BRANCH   2   3
ATOM      3  N   UNL A   1      31.000  26.078  26.641  1.00  0.00    -0.352 N 
ATOM      4  C   UNL A   1      31.389  24.759  26.536  1.00  0.00     0.251 C 
ATOM      5  O   UNL A   1      30.481  23.923  26.598  1.00  0.00    -0.269 OA
ATOM      6  H   UNL A   1      30.037  26.256  26.543  1.00  0.00     0.163 HD
BRANCH   4   7
ATOM      7  C   UNL A   1      32.788  24.258  26.232  1.00  0.00     0.047 A 
ATOM      8  C   UNL A   1      33.719  24.616  25.213  1.00  0.00    -0.003 A 
ATOM      9  C   UNL A   1      34.986  23.973  25.211  1.00  0.00     0.048 A 
ATOM     10  C   UNL A   1      35.334  23.026  26.164  1.00  0.00     0.123 A 
ATOM     11  C   UNL A   1      33.193  23.287  27.189  1.00  0.00     0.017 A 
ATOM     12  F   UNL A   1      36.541  22.448  26.116  1.00  0.00    -0.207 F 
ATOM     13  C   UNL A   1      34.446  22.674  27.159  1.00  0.00     0.040 A 
BRANCH   8  14
ATOM     14  C   UNL A   1      33.509  25.567  24.100  1.00  0.00    -0.017 A 
ATOM     15  C   UNL A   1      32.951  26.077  21.789  1.00  0.00     0.015 A 
ATOM     16  C   UNL A   1      33.505  27.356  21.907  1.00  0.00     0.011 A 
ATOM     17  C   UNL A   1      32.921  25.194  22.885  1.00  0.00     0.020 A 
ATOM     18  C   UNL A   1      34.010  27.771  23.135  1.00  0.00     0.001 A 
ATOM     19  C   UNL A   1      33.998  26.892  24.220  1.00  0.00     0.009 A 
BRANCH  15  20
ATOM     20  C   UNL A   1      32.522  25.610  20.456  1.00  0.00     0.260 C 
ATOM     21  O   UNL A   1      33.192  24.813  19.809  1.00  0.00    -0.298 OA
ENDBRANCH  15  20
ENDBRANCH   8  14
ENDBRANCH   4   7
ENDBRANCH   2   3
ENDBRANCH   1   2
BRANCH   1  22
ATOM     22  C   UNL A   1      32.499  29.545  26.015  1.00  0.00     0.118 C 
BRANCH  22  23
ATOM     23  N   UNL A   1      32.280  30.943  26.395  1.00  0.00    -0.352 N 
ATOM     24  C   UNL A   1      32.994  31.841  27.164  1.00  0.00     0.251 C 
ATOM     25  H   UNL A   1      31.451  31.322  26.024  1.00  0.00     0.163 HD
ATOM     26  O   UNL A   1      32.485  32.921  27.431  1.00  0.00    -0.269 OA
BRANCH  24  27
ATOM     27  C   UNL A   1      34.333  31.510  27.715  1.00  0.00     0.039 A 
ATOM     28  C   UNL A   1      35.243  32.542  27.982  1.00  0.00     0.014 A 
ATOM     29  C   UNL A   1      34.711  30.198  27.968  1.00  0.00     0.014 A 
ATOM     30  C   UNL A   1      36.465  32.257  28.606  1.00  0.00     0.010 A 
ATOM     31  C   UNL A   1      35.840  29.934  28.729  1.00  0.00     0.010 A 
ATOM     32  C   UNL A   1      36.745  30.955  29.044  1.00  0.00    -0.014 A 
BRANCH  32  33
ATOM     33  C   UNL A   1      37.971  30.600  29.806  1.00  0.00     0.031 A 
ATOM     34  C   UNL A   1      38.971  29.643  29.202  1.00  0.00     0.074 A 
ATOM     35  C   UNL A   1      38.113  31.013  31.082  1.00  0.00     0.049 A 
ATOM     36  N   UNL A   1      39.998  29.059  29.759  1.00  0.00    -0.248 NA
ATOM     37  C   UNL A   1      38.752  29.244  27.799  1.00  0.00     0.031 C 
ATOM     38  C   UNL A   1      37.172  31.870  31.809  1.00  0.00     0.029 A 
ATOM     39  N   UNL A   1      39.085  30.735  32.011  1.00  0.00    -0.354 N 
ATOM     40  C   UNL A   1      40.495  28.175  28.807  1.00  0.00     0.074 A 
ATOM     41  C   UNL A   1      39.637  28.271  27.649  1.00  0.00     0.031 C 
ATOM     42  C   UNL A   1      37.619  32.059  33.061  1.00  0.00     0.029 A 
ATOM     43  C   UNL A   1      38.851  31.301  33.244  1.00  0.00     0.049 A 
ATOM     44  H   UNL A   1      39.876  30.183  31.813  1.00  0.00     0.167 HD
ATOM     45  C   UNL A   1      41.586  27.377  28.877  1.00  0.00     0.034 A 
ATOM     46  C   UNL A   1      39.544  31.207  34.396  1.00  0.00     0.034 A 
ATOM     47  C   UNL A   1      42.483  27.357  29.998  1.00  0.00     0.049 A 
ATOM     48  C   UNL A   1      40.798  30.374  34.419  1.00  0.00     0.074 A 
ATOM     49  C   UNL A   1      43.688  26.689  30.124  1.00  0.00     0.029 A 
ATOM     50  N   UNL A   1      42.273  28.036  31.187  1.00  0.00    -0.354 N 
ATOM     51  N   UNL A   1      41.339  29.670  33.453  1.00  0.00    -0.248 NA
ATOM     52  C   UNL A   1      41.555  30.348  35.678  1.00  0.00     0.031 C 
ATOM     53  C   UNL A   1      44.192  26.942  31.403  1.00  0.00     0.029 A 
ATOM     54  C   UNL A   1      43.319  27.796  32.058  1.00  0.00     0.049 A 
ATOM     55  H   UNL A   1      41.494  28.606  31.382  1.00  0.00     0.167 HD
ATOM     56  C   UNL A   1      42.519  29.154  33.974  1.00  0.00     0.074 A 
ATOM     57  C   UNL A   1      42.624  29.643  35.334  1.00  0.00     0.031 C 
ATOM     58  C   UNL A   1      43.431  28.341  33.387  1.00  0.00     0.034 A 
BRANCH  45  59
ATOM     59  C   UNL A   1      41.903  26.500  27.692  1.00  0.00     0.023 A 
ATOM     60  C   UNL A   1      42.637  27.020  26.606  1.00  0.00     0.012 A 
ATOM     61  C   UNL A   1      41.527  25.143  27.683  1.00  0.00     0.148 A 
ATOM     62  C   UNL A   1      42.958  26.214  25.514  1.00  0.00     0.002 A 
ATOM     63  C   UNL A   1      41.897  24.333  26.615  1.00  0.00     0.091 A 
ATOM     64  F   UNL A   1      40.812  24.670  28.714  1.00  0.00    -0.205 F 
ATOM     65  C   UNL A   1      42.598  24.870  25.524  1.00  0.00     0.022 A 
BRANCH  63  66
ATOM     66  S   UNL A   1      41.559  22.569  26.572  1.00  0.00     0.127 S 
ATOM     67  O   UNL A   1      42.280  22.160  25.368  1.00  0.00    -0.237 OA
ATOM     68  O   UNL A   1      42.158  22.113  27.826  1.00  0.00    -0.237 OA
ATOM     69  O   UNL A   1      40.111  22.436  26.505  1.00  0.00    -0.744 OA
ENDBRANCH  63  66
ENDBRANCH  45  59
BRANCH  46  70
ATOM     70  C   UNL A   1      39.116  31.976  35.601  1.00  0.00     0.023 A 
ATOM     71  C   UNL A   1      39.457  33.339  35.702  1.00  0.00     0.012 A 
ATOM     72  C   UNL A   1      38.369  31.378  36.634  1.00  0.00     0.148 A 
ATOM     73  C   UNL A   1      39.099  34.083  36.827  1.00  0.00     0.002 A 
ATOM     74  C   UNL A   1      37.966  32.140  37.726  1.00  0.00     0.091 A 
ATOM     75  F   UNL A   1      38.059  30.079  36.526  1.00  0.00    -0.205 F 
ATOM     76  C   UNL A   1      38.346  33.486  37.835  1.00  0.00     0.022 A 
BRANCH  74  77
ATOM     77  S   UNL A   1      36.882  31.493  39.004  1.00  0.00     0.127 S 
ATOM     78  O   UNL A   1      37.723  31.598  40.193  1.00  0.00    -0.237 OA
ATOM     79  O   UNL A   1      35.761  32.432  38.954  1.00  0.00    -0.237 OA
ATOM     80  O   UNL A   1      36.546  30.138  38.583  1.00  0.00    -0.744 OA
ENDBRANCH  74  77
ENDBRANCH  46  70
BRANCH  58  81
ATOM     81  C   UNL A   1      44.651  27.969  34.185  1.00  0.00     0.023 A 
ATOM     82  C   UNL A   1      45.728  28.868  34.291  1.00  0.00     0.012 A 
ATOM     83  C   UNL A   1      44.688  26.753  34.898  1.00  0.00     0.148 A 
ATOM     84  C   UNL A   1      46.842  28.549  35.066  1.00  0.00     0.002 A 
ATOM     85  C   UNL A   1      45.775  26.467  35.712  1.00  0.00     0.091 A 
ATOM     86  F   UNL A   1      43.658  25.904  34.769  1.00  0.00    -0.205 F 
ATOM     87  C   UNL A   1      46.860  27.356  35.785  1.00  0.00     0.022 A 
BRANCH  85  88
ATOM     88  S   UNL A   1      45.836  25.007  36.755  1.00  0.00     0.127 S 
ATOM     89  O   UNL A   1      47.055  25.243  37.527  1.00  0.00    -0.237 OA
ATOM     90  O   UNL A   1      44.595  25.125  37.523  1.00  0.00    -0.237 OA
ATOM     91  O   UNL A   1      45.881  23.867  35.850  1.00  0.00    -0.744 OA
ENDBRANCH  85  88
ENDBRANCH  58  81
ENDBRANCH  32  33
ENDBRANCH  24  27
ENDBRANCH  22  23
ENDBRANCH   1  22
TORSDOF 15
ENDMDL
