MODEL 1
REMARK VINA RESULT:     -10.8      0.000      0.000
REMARK SMILES [NH3+][C@H](C(=O)NCCCNC(=O)c1ccc(-c2c3nc(c(-c4cccc(S(=O)(=O)[O-])c4F)c4ccc([nH]4)c(-c4cccc(S(=O)(=O)[O-])c4F)c4nc(c(-c5cccc(S(=O)(=O)[O-])c5F)c5ccc2[nH]5)C=C4)C=C3)cc1)c1cccc(OCc2ccc(F)cc2)c1
REMARK SMILES IDX 6 1 5 2 3 3 4 4 2 6 1 7 75 11 76 12 89 13 77 14 79 15 78 16
REMARK SMILES IDX 80 17 81 18 82 19 83 20 88 21 84 22 87 23 85 24 86 25 7 26
REMARK SMILES IDX 8 27 9 28 10 29 11 31 12 32 13 33 74 34 14 35 73 36 15 37
REMARK SMILES IDX 16 38 17 39 67 40 18 41 72 42 66 43 68 44 19 45 71 46 65 47
REMARK SMILES IDX 64 48 20 50 52 51 32 52 51 53 33 54 36 55 50 56 69 57 34 58
REMARK SMILES IDX 35 59 49 61 70 62 37 63 21 64 22 65 30 66 23 67 25 68 31 69
REMARK SMILES IDX 24 70 26 71 27 72 28 73 29 74 53 75 54 76 62 77 55 78 57 79
REMARK SMILES IDX 63 80 56 81 58 82 59 83 60 84 61 85 38 86 39 87 47 88 40 89
REMARK SMILES IDX 42 90 48 91 41 92 43 93 44 94 45 95 46 96
REMARK H PARENT 5 5 1 8 1 9 1 10 9 30 68 49 36 60
REMARK Flexibility Score: inf
ROOT
ATOM      1  C   UNL A   1      33.052  35.281  29.713  1.00  0.00     0.118 C 
ENDROOT
BRANCH   1   2
ATOM      2  N   UNL A   1      33.155  36.544  30.434  1.00  0.00    -0.351 N 
ATOM      3  C   UNL A   1      33.180  36.829  31.769  1.00  0.00     0.283 C 
ATOM      4  O   UNL A   1      33.297  38.021  32.085  1.00  0.00    -0.268 OA
ATOM      5  H   UNL A   1      33.218  37.335  29.851  1.00  0.00     0.163 HD
BRANCH   3   6
ATOM      6  C   UNL A   1      33.170  35.716  32.857  1.00  0.00     0.302 C 
BRANCH   6   7
ATOM      7  N   UNL A   1      31.846  35.038  32.792  1.00  0.00    -0.343 N 
ATOM      8  H   UNL A   1      31.238  35.408  33.521  1.00  0.00     0.345 HD
ATOM      9  H   UNL A   1      31.971  34.034  32.931  1.00  0.00     0.345 HD
ATOM     10  H   UNL A   1      31.422  35.203  31.879  1.00  0.00     0.345 HD
ENDBRANCH   6   7
BRANCH   6  11
ATOM     11  C   UNL A   1      34.326  34.740  32.679  1.00  0.00     0.023 A 
ATOM     12  C   UNL A   1      34.138  33.349  32.575  1.00  0.00     0.011 A 
ATOM     13  C   UNL A   1      35.633  35.243  32.543  1.00  0.00     0.057 A 
ATOM     14  C   UNL A   1      35.217  32.486  32.374  1.00  0.00     0.004 A 
ATOM     15  C   UNL A   1      36.698  34.381  32.265  1.00  0.00     0.120 A 
ATOM     16  C   UNL A   1      36.497  33.003  32.229  1.00  0.00     0.046 A 
BRANCH  15  17
ATOM     17  O   UNL A   1      37.953  34.764  31.894  1.00  0.00    -0.489 OA
BRANCH  17  18
ATOM     18  C   UNL A   1      38.538  34.161  30.740  1.00  0.00     0.265 C 
BRANCH  18  19
ATOM     19  C   UNL A   1      39.952  34.572  30.346  1.00  0.00    -0.011 A 
ATOM     20  C   UNL A   1      40.120  35.136  29.075  1.00  0.00     0.010 A 
ATOM     21  C   UNL A   1      41.105  34.355  31.124  1.00  0.00     0.010 A 
ATOM     22  C   UNL A   1      41.391  35.442  28.600  1.00  0.00     0.039 A 
ATOM     23  C   UNL A   1      42.384  34.610  30.622  1.00  0.00     0.039 A 
ATOM     24  C   UNL A   1      42.515  35.147  29.357  1.00  0.00     0.123 A 
ATOM     25  F   UNL A   1      43.738  35.343  28.845  1.00  0.00    -0.207 F 
ENDBRANCH  18  19
ENDBRANCH  17  18
ENDBRANCH  15  17
ENDBRANCH   6  11
ENDBRANCH   3   6
ENDBRANCH   1   2
BRANCH   1  26
ATOM     26  C   UNL A   1      34.238  35.047  28.773  1.00  0.00     0.042 C 
BRANCH  26  27
ATOM     27  C   UNL A   1      34.890  33.661  28.874  1.00  0.00     0.118 C 
BRANCH  27  28
ATOM     28  N   UNL A   1      34.088  32.608  28.269  1.00  0.00    -0.352 N 
ATOM     29  C   UNL A   1      34.366  31.281  28.024  1.00  0.00     0.251 C 
ATOM     30  H   UNL A   1      33.189  32.894  27.985  1.00  0.00     0.163 HD
ATOM     31  O   UNL A   1      33.551  30.626  27.376  1.00  0.00    -0.269 OA
BRANCH  29  32
ATOM     32  C   UNL A   1      35.619  30.621  28.477  1.00  0.00     0.039 A 
ATOM     33  C   UNL A   1      36.744  30.691  27.644  1.00  0.00     0.014 A 
ATOM     34  C   UNL A   1      35.699  29.865  29.646  1.00  0.00     0.014 A 
ATOM     35  C   UNL A   1      37.954  30.079  28.014  1.00  0.00     0.010 A 
ATOM     36  C   UNL A   1      36.927  29.298  30.037  1.00  0.00     0.010 A 
ATOM     37  C   UNL A   1      38.084  29.413  29.243  1.00  0.00    -0.014 A 
BRANCH  37  38
ATOM     38  C   UNL A   1      39.413  28.877  29.707  1.00  0.00     0.031 A 
ATOM     39  C   UNL A   1      40.183  29.554  30.818  1.00  0.00     0.074 A 
ATOM     40  C   UNL A   1      39.991  27.818  29.095  1.00  0.00     0.049 A 
ATOM     41  N   UNL A   1      41.361  29.256  31.312  1.00  0.00    -0.248 NA
ATOM     42  C   UNL A   1      39.564  30.734  31.438  1.00  0.00     0.031 C 
ATOM     43  C   UNL A   1      39.439  27.088  27.952  1.00  0.00     0.029 A 
ATOM     44  N   UNL A   1      41.193  27.181  29.333  1.00  0.00    -0.354 N 
ATOM     45  C   UNL A   1      41.643  30.235  32.258  1.00  0.00     0.074 A 
ATOM     46  C   UNL A   1      40.529  31.160  32.239  1.00  0.00     0.031 C 
ATOM     47  C   UNL A   1      40.288  26.110  27.594  1.00  0.00     0.029 A 
ATOM     48  C   UNL A   1      41.468  26.154  28.454  1.00  0.00     0.049 A 
ATOM     49  H   UNL A   1      41.799  27.437  30.065  1.00  0.00     0.167 HD
ATOM     50  C   UNL A   1      42.703  30.351  33.096  1.00  0.00     0.034 A 
ATOM     51  C   UNL A   1      42.543  25.344  28.332  1.00  0.00     0.034 A 
ATOM     52  C   UNL A   1      43.795  29.419  33.173  1.00  0.00     0.049 A 
ATOM     53  C   UNL A   1      43.697  25.464  29.294  1.00  0.00     0.074 A 
ATOM     54  C   UNL A   1      44.852  29.408  34.069  1.00  0.00     0.029 A 
ATOM     55  N   UNL A   1      43.989  28.347  32.319  1.00  0.00    -0.354 N 
ATOM     56  N   UNL A   1      43.850  26.293  30.297  1.00  0.00    -0.248 NA
ATOM     57  C   UNL A   1      44.811  24.515  29.132  1.00  0.00     0.031 C 
ATOM     58  C   UNL A   1      45.703  28.350  33.734  1.00  0.00     0.029 A 
ATOM     59  C   UNL A   1      45.156  27.678  32.655  1.00  0.00     0.049 A 
ATOM     60  H   UNL A   1      43.387  28.096  31.581  1.00  0.00     0.167 HD
ATOM     61  C   UNL A   1      45.055  25.944  30.902  1.00  0.00     0.074 A 
ATOM     62  C   UNL A   1      45.585  24.818  30.167  1.00  0.00     0.031 C 
ATOM     63  C   UNL A   1      45.664  26.519  31.968  1.00  0.00     0.034 A 
BRANCH  50  64
ATOM     64  C   UNL A   1      42.708  31.521  34.049  1.00  0.00     0.023 A 
ATOM     65  C   UNL A   1      43.305  32.738  33.658  1.00  0.00     0.012 A 
ATOM     66  C   UNL A   1      42.089  31.431  35.312  1.00  0.00     0.148 A 
ATOM     67  C   UNL A   1      43.340  33.825  34.529  1.00  0.00     0.002 A 
ATOM     68  C   UNL A   1      42.082  32.537  36.154  1.00  0.00     0.091 A 
ATOM     69  F   UNL A   1      41.534  30.265  35.673  1.00  0.00    -0.205 F 
ATOM     70  C   UNL A   1      42.722  33.727  35.772  1.00  0.00     0.022 A 
BRANCH  68  71
ATOM     71  S   UNL A   1      41.234  32.541  37.737  1.00  0.00     0.127 S 
ATOM     72  O   UNL A   1      39.911  32.047  37.364  1.00  0.00    -0.237 OA
ATOM     73  O   UNL A   1      42.037  31.604  38.521  1.00  0.00    -0.237 OA
ATOM     74  O   UNL A   1      41.280  33.920  38.211  1.00  0.00    -0.744 OA
ENDBRANCH  68  71
ENDBRANCH  50  64
BRANCH  51  75
ATOM     75  C   UNL A   1      42.569  24.301  27.262  1.00  0.00     0.023 A 
ATOM     76  C   UNL A   1      43.224  24.566  26.042  1.00  0.00     0.012 A 
ATOM     77  C   UNL A   1      41.959  23.047  27.454  1.00  0.00     0.148 A 
ATOM     78  C   UNL A   1      43.244  23.612  25.023  1.00  0.00     0.002 A 
ATOM     79  C   UNL A   1      42.036  22.080  26.459  1.00  0.00     0.091 A 
ATOM     80  F   UNL A   1      41.331  22.820  28.615  1.00  0.00    -0.205 F 
ATOM     81  C   UNL A   1      42.661  22.367  25.234  1.00  0.00     0.022 A 
BRANCH  79  82
ATOM     82  S   UNL A   1      41.439  20.403  26.694  1.00  0.00     0.127 S 
ATOM     83  O   UNL A   1      42.132  20.006  27.916  1.00  0.00    -0.237 OA
ATOM     84  O   UNL A   1      39.998  20.619  26.843  1.00  0.00    -0.237 OA
ATOM     85  O   UNL A   1      41.815  19.677  25.489  1.00  0.00    -0.744 OA
ENDBRANCH  79  82
ENDBRANCH  51  75
BRANCH  63  86
ATOM     86  C   UNL A   1      46.962  25.928  32.461  1.00  0.00     0.023 A 
ATOM     87  C   UNL A   1      48.192  26.446  32.014  1.00  0.00     0.012 A 
ATOM     88  C   UNL A   1      46.957  24.929  33.458  1.00  0.00     0.148 A 
ATOM     89  C   UNL A   1      49.397  25.968  32.535  1.00  0.00     0.002 A 
ATOM     90  C   UNL A   1      48.158  24.493  34.008  1.00  0.00     0.091 A 
ATOM     91  F   UNL A   1      45.777  24.435  33.860  1.00  0.00    -0.205 F 
ATOM     92  C   UNL A   1      49.379  25.005  33.540  1.00  0.00     0.022 A 
BRANCH  90  93
ATOM     93  S   UNL A   1      48.231  23.328  35.374  1.00  0.00     0.127 S 
ATOM     94  O   UNL A   1      47.458  24.025  36.401  1.00  0.00    -0.237 OA
ATOM     95  O   UNL A   1      47.573  22.150  34.811  1.00  0.00    -0.237 OA
ATOM     96  O   UNL A   1      49.643  23.148  35.677  1.00  0.00    -0.744 OA
ENDBRANCH  90  93
ENDBRANCH  63  86
ENDBRANCH  37  38
ENDBRANCH  29  32
ENDBRANCH  27  28
ENDBRANCH  26  27
ENDBRANCH   1  26
TORSDOF 18
ENDMDL
MODEL 2
REMARK VINA RESULT:     -10.7      4.406     12.271
REMARK SMILES [NH3+][C@H](C(=O)NCCCNC(=O)c1ccc(-c2c3nc(c(-c4cccc(S(=O)(=O)[O-])c4F)c4ccc([nH]4)c(-c4cccc(S(=O)(=O)[O-])c4F)c4nc(c(-c5cccc(S(=O)(=O)[O-])c5F)c5ccc2[nH]5)C=C4)C=C3)cc1)c1cccc(OCc2ccc(F)cc2)c1
REMARK SMILES IDX 6 1 5 2 3 3 4 4 2 6 1 7 75 11 76 12 89 13 77 14 79 15 78 16
REMARK SMILES IDX 80 17 81 18 82 19 83 20 88 21 84 22 87 23 85 24 86 25 7 26
REMARK SMILES IDX 8 27 9 28 10 29 11 31 12 32 13 33 74 34 14 35 73 36 15 37
REMARK SMILES IDX 16 38 17 39 67 40 18 41 72 42 66 43 68 44 19 45 71 46 65 47
REMARK SMILES IDX 64 48 20 50 52 51 32 52 51 53 33 54 36 55 50 56 69 57 34 58
REMARK SMILES IDX 35 59 49 61 70 62 37 63 21 64 22 65 30 66 23 67 25 68 31 69
REMARK SMILES IDX 24 70 26 71 27 72 28 73 29 74 53 75 54 76 62 77 55 78 57 79
REMARK SMILES IDX 63 80 56 81 58 82 59 83 60 84 61 85 38 86 39 87 47 88 40 89
REMARK SMILES IDX 42 90 48 91 41 92 43 93 44 94 45 95 46 96
REMARK H PARENT 5 5 1 8 1 9 1 10 9 30 68 49 36 60
REMARK Flexibility Score: inf
ROOT
ATOM      1  C   UNL A   1      42.825  19.166  25.629  1.00  0.00     0.118 C 
ENDROOT
BRANCH   1   2
ATOM      2  N   UNL A   1      44.204  18.720  25.778  1.00  0.00    -0.351 N 
ATOM      3  C   UNL A   1      45.368  19.158  25.213  1.00  0.00     0.283 C 
ATOM      4  O   UNL A   1      46.409  18.581  25.556  1.00  0.00    -0.268 OA
ATOM      5  H   UNL A   1      44.318  17.964  26.400  1.00  0.00     0.163 HD
BRANCH   3   6
ATOM      6  C   UNL A   1      45.417  20.390  24.264  1.00  0.00     0.302 C 
BRANCH   6   7
ATOM      7  N   UNL A   1      44.623  20.053  23.050  1.00  0.00    -0.343 N 
ATOM      8  H   UNL A   1      45.186  19.478  22.424  1.00  0.00     0.345 HD
ATOM      9  H   UNL A   1      44.352  20.913  22.571  1.00  0.00     0.345 HD
ATOM     10  H   UNL A   1      43.785  19.539  23.323  1.00  0.00     0.345 HD
ENDBRANCH   6   7
BRANCH   6  11
ATOM     11  C   UNL A   1      44.913  21.654  24.948  1.00  0.00     0.023 A 
ATOM     12  C   UNL A   1      43.902  22.465  24.399  1.00  0.00     0.011 A 
ATOM     13  C   UNL A   1      45.421  21.997  26.214  1.00  0.00     0.057 A 
ATOM     14  C   UNL A   1      43.436  23.597  25.073  1.00  0.00     0.004 A 
ATOM     15  C   UNL A   1      44.897  23.086  26.917  1.00  0.00     0.120 A 
ATOM     16  C   UNL A   1      43.942  23.910  26.326  1.00  0.00     0.046 A 
BRANCH  15  17
ATOM     17  O   UNL A   1      45.146  23.381  28.225  1.00  0.00    -0.489 OA
BRANCH  17  18
ATOM     18  C   UNL A   1      44.122  23.125  29.188  1.00  0.00     0.265 C 
BRANCH  18  19
ATOM     19  C   UNL A   1      44.197  23.843  30.531  1.00  0.00    -0.011 A 
ATOM     20  C   UNL A   1      44.515  25.207  30.507  1.00  0.00     0.010 A 
ATOM     21  C   UNL A   1      44.054  23.225  31.788  1.00  0.00     0.010 A 
ATOM     22  C   UNL A   1      44.704  25.909  31.692  1.00  0.00     0.039 A 
ATOM     23  C   UNL A   1      44.302  23.919  32.975  1.00  0.00     0.039 A 
ATOM     24  C   UNL A   1      44.632  25.258  32.916  1.00  0.00     0.123 A 
ATOM     25  F   UNL A   1      44.927  25.919  34.043  1.00  0.00    -0.207 F 
ENDBRANCH  18  19
ENDBRANCH  17  18
ENDBRANCH  15  17
ENDBRANCH   6  11
ENDBRANCH   3   6
ENDBRANCH   1   2
BRANCH   1  26
ATOM     26  C   UNL A   1      42.181  19.531  26.970  1.00  0.00     0.042 C 
BRANCH  26  27
ATOM     27  C   UNL A   1      41.722  20.989  27.100  1.00  0.00     0.118 C 
BRANCH  27  28
ATOM     28  N   UNL A   1      40.402  21.225  26.533  1.00  0.00    -0.352 N 
ATOM     29  C   UNL A   1      39.627  22.362  26.476  1.00  0.00     0.251 C 
ATOM     30  H   UNL A   1      39.991  20.431  26.117  1.00  0.00     0.163 HD
ATOM     31  O   UNL A   1      38.478  22.263  26.047  1.00  0.00    -0.269 OA
BRANCH  29  32
ATOM     32  C   UNL A   1      40.106  23.691  26.941  1.00  0.00     0.039 A 
ATOM     33  C   UNL A   1      40.129  24.747  26.021  1.00  0.00     0.014 A 
ATOM     34  C   UNL A   1      40.612  23.909  28.222  1.00  0.00     0.014 A 
ATOM     35  C   UNL A   1      40.579  26.024  26.400  1.00  0.00     0.010 A 
ATOM     36  C   UNL A   1      41.013  25.201  28.612  1.00  0.00     0.010 A 
ATOM     37  C   UNL A   1      40.983  26.289  27.718  1.00  0.00    -0.014 A 
BRANCH  37  38
ATOM     38  C   UNL A   1      41.333  27.684  28.164  1.00  0.00     0.031 A 
ATOM     39  C   UNL A   1      42.767  28.162  28.183  1.00  0.00     0.074 A 
ATOM     40  C   UNL A   1      40.383  28.527  28.632  1.00  0.00     0.049 A 
ATOM     41  N   UNL A   1      43.253  29.313  28.580  1.00  0.00    -0.248 NA
ATOM     42  C   UNL A   1      43.793  27.215  27.720  1.00  0.00     0.031 C 
ATOM     43  C   UNL A   1      38.959  28.214  28.769  1.00  0.00     0.029 A 
ATOM     44  N   UNL A   1      40.475  29.820  29.106  1.00  0.00    -0.354 N 
ATOM     45  C   UNL A   1      44.635  29.211  28.463  1.00  0.00     0.074 A 
ATOM     46  C   UNL A   1      44.912  27.869  27.996  1.00  0.00     0.031 C 
ATOM     47  C   UNL A   1      38.316  29.276  29.283  1.00  0.00     0.029 A 
ATOM     48  C   UNL A   1      39.278  30.343  29.549  1.00  0.00     0.049 A 
ATOM     49  H   UNL A   1      41.321  30.323  29.128  1.00  0.00     0.167 HD
ATOM     50  C   UNL A   1      45.595  30.144  28.683  1.00  0.00     0.034 A 
ATOM     51  C   UNL A   1      38.975  31.531  30.117  1.00  0.00     0.034 A 
ATOM     52  C   UNL A   1      45.345  31.498  29.096  1.00  0.00     0.049 A 
ATOM     53  C   UNL A   1      40.049  32.569  30.323  1.00  0.00     0.074 A 
ATOM     54  C   UNL A   1      46.254  32.534  29.237  1.00  0.00     0.029 A 
ATOM     55  N   UNL A   1      44.107  32.007  29.452  1.00  0.00    -0.354 N 
ATOM     56  N   UNL A   1      41.324  32.503  30.034  1.00  0.00    -0.248 NA
ATOM     57  C   UNL A   1      39.637  33.859  30.902  1.00  0.00     0.031 C 
ATOM     58  C   UNL A   1      45.572  33.658  29.712  1.00  0.00     0.029 A 
ATOM     59  C   UNL A   1      44.231  33.335  29.828  1.00  0.00     0.049 A 
ATOM     60  H   UNL A   1      43.263  31.500  29.439  1.00  0.00     0.167 HD
ATOM     61  C   UNL A   1      41.857  33.747  30.361  1.00  0.00     0.074 A 
ATOM     62  C   UNL A   1      40.765  34.556  30.855  1.00  0.00     0.031 C 
ATOM     63  C   UNL A   1      43.142  34.169  30.266  1.00  0.00     0.034 A 
BRANCH  50  64
ATOM     64  C   UNL A   1      47.026  29.737  28.431  1.00  0.00     0.023 A 
ATOM     65  C   UNL A   1      47.608  29.977  27.169  1.00  0.00     0.012 A 
ATOM     66  C   UNL A   1      47.805  29.155  29.451  1.00  0.00     0.148 A 
ATOM     67  C   UNL A   1      48.921  29.591  26.907  1.00  0.00     0.002 A 
ATOM     68  C   UNL A   1      49.130  28.821  29.197  1.00  0.00     0.091 A 
ATOM     69  F   UNL A   1      47.234  28.925  30.643  1.00  0.00    -0.205 F 
ATOM     70  C   UNL A   1      49.684  29.021  27.923  1.00  0.00     0.022 A 
BRANCH  68  71
ATOM     71  S   UNL A   1      50.222  28.168  30.464  1.00  0.00     0.127 S 
ATOM     72  O   UNL A   1      49.665  26.833  30.674  1.00  0.00    -0.237 OA
ATOM     73  O   UNL A   1      51.522  28.188  29.794  1.00  0.00    -0.237 OA
ATOM     74  O   UNL A   1      50.112  29.080  31.597  1.00  0.00    -0.744 OA
ENDBRANCH  68  71
ENDBRANCH  50  64
BRANCH  51  75
ATOM     75  C   UNL A   1      37.564  31.829  30.508  1.00  0.00     0.023 A 
ATOM     76  C   UNL A   1      37.093  31.443  31.779  1.00  0.00     0.012 A 
ATOM     77  C   UNL A   1      36.694  32.504  29.630  1.00  0.00     0.148 A 
ATOM     78  C   UNL A   1      35.773  31.696  32.156  1.00  0.00     0.002 A 
ATOM     79  C   UNL A   1      35.400  32.808  30.036  1.00  0.00     0.091 A 
ATOM     80  F   UNL A   1      37.158  32.852  28.423  1.00  0.00    -0.205 F 
ATOM     81  C   UNL A   1      34.930  32.387  31.290  1.00  0.00     0.022 A 
BRANCH  79  82
ATOM     82  S   UNL A   1      34.290  33.816  29.048  1.00  0.00     0.127 S 
ATOM     83  O   UNL A   1      33.333  34.279  30.050  1.00  0.00    -0.237 OA
ATOM     84  O   UNL A   1      35.198  34.845  28.539  1.00  0.00    -0.237 OA
ATOM     85  O   UNL A   1      33.755  32.928  28.026  1.00  0.00    -0.744 OA
ENDBRANCH  79  82
ENDBRANCH  51  75
BRANCH  63  86
ATOM     86  C   UNL A   1      43.464  35.592  30.655  1.00  0.00     0.023 A 
ATOM     87  C   UNL A   1      43.965  35.879  31.939  1.00  0.00     0.012 A 
ATOM     88  C   UNL A   1      43.372  36.629  29.703  1.00  0.00     0.148 A 
ATOM     89  C   UNL A   1      44.353  37.178  32.275  1.00  0.00     0.002 A 
ATOM     90  C   UNL A   1      43.806  37.909  30.029  1.00  0.00     0.091 A 
ATOM     91  F   UNL A   1      42.876  36.341  28.491  1.00  0.00    -0.205 F 
ATOM     92  C   UNL A   1      44.287  38.188  31.318  1.00  0.00     0.022 A 
BRANCH  90  93
ATOM     93  S   UNL A   1      43.852  39.250  28.834  1.00  0.00     0.127 S 
ATOM     94  O   UNL A   1      44.694  38.683  27.782  1.00  0.00    -0.237 OA
ATOM     95  O   UNL A   1      42.442  39.393  28.474  1.00  0.00    -0.237 OA
ATOM     96  O   UNL A   1      44.419  40.396  29.532  1.00  0.00    -0.744 OA
ENDBRANCH  90  93
ENDBRANCH  63  86
ENDBRANCH  37  38
ENDBRANCH  29  32
ENDBRANCH  27  28
ENDBRANCH  26  27
ENDBRANCH   1  26
TORSDOF 18
ENDMDL
MODEL 3
REMARK VINA RESULT:     -10.6      1.755      2.203
REMARK SMILES [NH3+][C@H](C(=O)NCCCNC(=O)c1ccc(-c2c3nc(c(-c4cccc(S(=O)(=O)[O-])c4F)c4ccc([nH]4)c(-c4cccc(S(=O)(=O)[O-])c4F)c4nc(c(-c5cccc(S(=O)(=O)[O-])c5F)c5ccc2[nH]5)C=C4)C=C3)cc1)c1cccc(OCc2ccc(F)cc2)c1
REMARK SMILES IDX 6 1 5 2 3 3 4 4 2 6 1 7 75 11 76 12 89 13 77 14 79 15 78 16
REMARK SMILES IDX 80 17 81 18 82 19 83 20 88 21 84 22 87 23 85 24 86 25 7 26
REMARK SMILES IDX 8 27 9 28 10 29 11 31 12 32 13 33 74 34 14 35 73 36 15 37
REMARK SMILES IDX 16 38 17 39 67 40 18 41 72 42 66 43 68 44 19 45 71 46 65 47
REMARK SMILES IDX 64 48 20 50 52 51 32 52 51 53 33 54 36 55 50 56 69 57 34 58
REMARK SMILES IDX 35 59 49 61 70 62 37 63 21 64 22 65 30 66 23 67 25 68 31 69
REMARK SMILES IDX 24 70 26 71 27 72 28 73 29 74 53 75 54 76 62 77 55 78 57 79
REMARK SMILES IDX 63 80 56 81 58 82 59 83 60 84 61 85 38 86 39 87 47 88 40 89
REMARK SMILES IDX 42 90 48 91 41 92 43 93 44 94 45 95 46 96
REMARK H PARENT 5 5 1 8 1 9 1 10 9 30 68 49 36 60
REMARK Flexibility Score: inf
ROOT
ATOM      1  C   UNL A   1      32.915  36.111  29.671  1.00  0.00     0.118 C 
ENDROOT
BRANCH   1   2
ATOM      2  N   UNL A   1      33.211  37.189  30.606  1.00  0.00    -0.351 N 
ATOM      3  C   UNL A   1      33.279  37.217  31.970  1.00  0.00     0.283 C 
ATOM      4  O   UNL A   1      33.578  38.299  32.494  1.00  0.00    -0.268 OA
ATOM      5  H   UNL A   1      33.396  38.056  30.176  1.00  0.00     0.163 HD
BRANCH   3   6
ATOM      6  C   UNL A   1      33.097  35.937  32.836  1.00  0.00     0.302 C 
BRANCH   6   7
ATOM      7  N   UNL A   1      31.749  35.381  32.536  1.00  0.00    -0.343 N 
ATOM      8  H   UNL A   1      31.736  35.013  31.586  1.00  0.00     0.345 HD
ATOM      9  H   UNL A   1      31.049  36.119  32.624  1.00  0.00     0.345 HD
ATOM     10  H   UNL A   1      31.535  34.631  33.195  1.00  0.00     0.345 HD
ENDBRANCH   6   7
BRANCH   6  11
ATOM     11  C   UNL A   1      34.206  34.923  32.589  1.00  0.00     0.023 A 
ATOM     12  C   UNL A   1      33.962  33.645  32.052  1.00  0.00     0.011 A 
ATOM     13  C   UNL A   1      35.541  35.292  32.838  1.00  0.00     0.057 A 
ATOM     14  C   UNL A   1      35.008  32.753  31.802  1.00  0.00     0.004 A 
ATOM     15  C   UNL A   1      36.588  34.425  32.514  1.00  0.00     0.120 A 
ATOM     16  C   UNL A   1      36.318  33.142  32.043  1.00  0.00     0.046 A 
BRANCH  15  17
ATOM     17  O   UNL A   1      37.913  34.750  32.500  1.00  0.00    -0.489 OA
BRANCH  17  18
ATOM     18  C   UNL A   1      38.629  34.637  31.269  1.00  0.00     0.265 C 
BRANCH  18  19
ATOM     19  C   UNL A   1      40.060  34.115  31.312  1.00  0.00    -0.011 A 
ATOM     20  C   UNL A   1      40.472  33.298  30.251  1.00  0.00     0.010 A 
ATOM     21  C   UNL A   1      40.967  34.322  32.369  1.00  0.00     0.010 A 
ATOM     22  C   UNL A   1      41.726  32.698  30.266  1.00  0.00     0.039 A 
ATOM     23  C   UNL A   1      42.203  33.672  32.409  1.00  0.00     0.039 A 
ATOM     24  C   UNL A   1      42.570  32.858  31.356  1.00  0.00     0.123 A 
ATOM     25  F   UNL A   1      43.728  32.186  31.410  1.00  0.00    -0.207 F 
ENDBRANCH  18  19
ENDBRANCH  17  18
ENDBRANCH  15  17
ENDBRANCH   6  11
ENDBRANCH   3   6
ENDBRANCH   1   2
BRANCH   1  26
ATOM     26  C   UNL A   1      34.018  35.927  28.624  1.00  0.00     0.042 C 
BRANCH  26  27
ATOM     27  C   UNL A   1      34.683  34.544  28.612  1.00  0.00     0.118 C 
BRANCH  27  28
ATOM     28  N   UNL A   1      33.853  33.517  27.998  1.00  0.00    -0.352 N 
ATOM     29  C   UNL A   1      34.064  32.168  27.815  1.00  0.00     0.251 C 
ATOM     30  H   UNL A   1      32.990  33.844  27.654  1.00  0.00     0.163 HD
ATOM     31  O   UNL A   1      33.246  31.538  27.144  1.00  0.00    -0.269 OA
BRANCH  29  32
ATOM     32  C   UNL A   1      35.248  31.453  28.360  1.00  0.00     0.039 A 
ATOM     33  C   UNL A   1      36.501  32.069  28.254  1.00  0.00     0.014 A 
ATOM     34  C   UNL A   1      35.178  30.166  28.892  1.00  0.00     0.014 A 
ATOM     35  C   UNL A   1      37.658  31.438  28.744  1.00  0.00     0.010 A 
ATOM     36  C   UNL A   1      36.330  29.560  29.427  1.00  0.00     0.010 A 
ATOM     37  C   UNL A   1      37.588  30.192  29.386  1.00  0.00    -0.014 A 
BRANCH  37  38
ATOM     38  C   UNL A   1      38.799  29.576  30.035  1.00  0.00     0.031 A 
ATOM     39  C   UNL A   1      39.260  30.017  31.407  1.00  0.00     0.074 A 
ATOM     40  C   UNL A   1      39.554  28.663  29.381  1.00  0.00     0.049 A 
ATOM     41  N   UNL A   1      40.306  29.628  32.095  1.00  0.00    -0.248 NA
ATOM     42  C   UNL A   1      38.458  31.047  32.081  1.00  0.00     0.031 C 
ATOM     43  C   UNL A   1      39.316  28.177  28.021  1.00  0.00     0.029 A 
ATOM     44  N   UNL A   1      40.698  27.993  29.766  1.00  0.00    -0.354 N 
ATOM     45  C   UNL A   1      40.315  30.397  33.253  1.00  0.00     0.074 A 
ATOM     46  C   UNL A   1      39.191  31.305  33.154  1.00  0.00     0.031 C 
ATOM     47  C   UNL A   1      40.271  27.293  27.689  1.00  0.00     0.029 A 
ATOM     48  C   UNL A   1      41.219  27.165  28.793  1.00  0.00     0.049 A 
ATOM     49  H   UNL A   1      41.107  28.098  30.655  1.00  0.00     0.167 HD
ATOM     50  C   UNL A   1      41.147  30.344  34.323  1.00  0.00     0.034 A 
ATOM     51  C   UNL A   1      42.331  26.397  28.771  1.00  0.00     0.034 A 
ATOM     52  C   UNL A   1      42.237  29.417  34.471  1.00  0.00     0.049 A 
ATOM     53  C   UNL A   1      43.226  26.323  29.982  1.00  0.00     0.074 A 
ATOM     54  C   UNL A   1      43.059  29.228  35.570  1.00  0.00     0.029 A 
ATOM     55  N   UNL A   1      42.674  28.539  33.494  1.00  0.00    -0.354 N 
ATOM     56  N   UNL A   1      43.104  26.934  31.134  1.00  0.00    -0.248 NA
ATOM     57  C   UNL A   1      44.393  25.429  29.904  1.00  0.00     0.031 C 
ATOM     58  C   UNL A   1      44.014  28.260  35.244  1.00  0.00     0.029 A 
ATOM     59  C   UNL A   1      43.763  27.818  33.957  1.00  0.00     0.049 A 
ATOM     60  H   UNL A   1      42.270  28.440  32.601  1.00  0.00     0.167 HD
ATOM     61  C   UNL A   1      44.153  26.472  31.925  1.00  0.00     0.074 A 
ATOM     62  C   UNL A   1      44.892  25.518  31.130  1.00  0.00     0.031 C 
ATOM     63  C   UNL A   1      44.473  26.823  33.196  1.00  0.00     0.034 A 
BRANCH  50  64
ATOM     64  C   UNL A   1      40.876  31.298  35.460  1.00  0.00     0.023 A 
ATOM     65  C   UNL A   1      41.853  32.247  35.824  1.00  0.00     0.012 A 
ATOM     66  C   UNL A   1      39.642  31.283  36.141  1.00  0.00     0.148 A 
ATOM     67  C   UNL A   1      41.634  33.124  36.884  1.00  0.00     0.002 A 
ATOM     68  C   UNL A   1      39.410  32.197  37.162  1.00  0.00     0.091 A 
ATOM     69  F   UNL A   1      38.726  30.368  35.790  1.00  0.00    -0.205 F 
ATOM     70  C   UNL A   1      40.410  33.104  37.547  1.00  0.00     0.022 A 
BRANCH  68  71
ATOM     71  S   UNL A   1      37.834  32.313  38.016  1.00  0.00     0.127 S 
ATOM     72  O   UNL A   1      38.202  33.066  39.212  1.00  0.00    -0.237 OA
ATOM     73  O   UNL A   1      37.016  33.053  37.056  1.00  0.00    -0.237 OA
ATOM     74  O   UNL A   1      37.402  30.939  38.246  1.00  0.00    -0.744 OA
ENDBRANCH  68  71
ENDBRANCH  50  64
BRANCH  51  75
ATOM     75  C   UNL A   1      42.653  25.592  27.554  1.00  0.00     0.023 A 
ATOM     76  C   UNL A   1      43.439  26.155  26.530  1.00  0.00     0.012 A 
ATOM     77  C   UNL A   1      42.194  24.268  27.417  1.00  0.00     0.148 A 
ATOM     78  C   UNL A   1      43.736  25.426  25.377  1.00  0.00     0.002 A 
ATOM     79  C   UNL A   1      42.545  23.526  26.296  1.00  0.00     0.091 A 
ATOM     80  F   UNL A   1      41.438  23.755  28.397  1.00  0.00    -0.205 F 
ATOM     81  C   UNL A   1      43.299  24.109  25.264  1.00  0.00     0.022 A 
BRANCH  79  82
ATOM     82  S   UNL A   1      42.149  21.783  26.127  1.00  0.00     0.127 S 
ATOM     83  O   UNL A   1      40.735  21.830  25.767  1.00  0.00    -0.237 OA
ATOM     84  O   UNL A   1      43.048  21.377  25.046  1.00  0.00    -0.237 OA
ATOM     85  O   UNL A   1      42.453  21.183  27.418  1.00  0.00    -0.744 OA
ENDBRANCH  79  82
ENDBRANCH  51  75
BRANCH  63  86
ATOM     86  C   UNL A   1      45.649  26.146  33.855  1.00  0.00     0.023 A 
ATOM     87  C   UNL A   1      45.446  25.047  34.712  1.00  0.00     0.012 A 
ATOM     88  C   UNL A   1      46.967  26.535  33.534  1.00  0.00     0.148 A 
ATOM     89  C   UNL A   1      46.534  24.358  35.252  1.00  0.00     0.002 A 
ATOM     90  C   UNL A   1      48.044  25.813  34.036  1.00  0.00     0.091 A 
ATOM     91  F   UNL A   1      47.142  27.594  32.730  1.00  0.00    -0.205 F 
ATOM     92  C   UNL A   1      47.830  24.730  34.903  1.00  0.00     0.022 A 
BRANCH  90  93
ATOM     93  S   UNL A   1      49.744  26.156  33.564  1.00  0.00     0.127 S 
ATOM     94  O   UNL A   1      50.471  25.121  34.298  1.00  0.00    -0.237 OA
ATOM     95  O   UNL A   1      49.708  25.964  32.115  1.00  0.00    -0.237 OA
ATOM     96  O   UNL A   1      50.014  27.523  33.989  1.00  0.00    -0.744 OA
ENDBRANCH  90  93
ENDBRANCH  63  86
ENDBRANCH  37  38
ENDBRANCH  29  32
ENDBRANCH  27  28
ENDBRANCH  26  27
ENDBRANCH   1  26
TORSDOF 18
ENDMDL
