MODEL 1
REMARK VINA RESULT:     -12.2      0.000      0.000
REMARK SMILES O=C(NCCCNC(=O)c1cc(Br)ccc1OCc1ccccc1F)c1ccc(-c2c3nc(c(-c4cccc(S(=O)(=O)[O-])c4F)c4ccc([nH]4)c(-c4cccc(S(=O)(=O)[O-])c4F)c4nc(c(-c5cccc(S(=O)(=O)[O-])c5F)c5ccc2[nH]5)C=C4)C=C3)cc1
REMARK SMILES IDX 5 1 4 2 3 3 1 4 2 5 26 7 27 8 88 9 28 10 87 11 29 12 30 13
REMARK SMILES IDX 31 14 81 15 32 16 86 17 80 18 82 19 33 20 85 21 79 22 78 23
REMARK SMILES IDX 34 25 66 26 46 27 65 28 47 29 50 30 64 31 83 32 48 33 49 34
REMARK SMILES IDX 63 36 84 37 51 38 35 39 36 40 44 41 37 42 39 43 45 44 38 45
REMARK SMILES IDX 40 46 41 47 42 48 43 49 67 50 68 51 76 52 69 53 71 54 77 55
REMARK SMILES IDX 70 56 72 57 73 58 74 59 75 60 52 61 53 62 61 63 54 64 56 65
REMARK SMILES IDX 62 66 55 67 57 68 58 69 59 70 60 71 6 72 7 73 8 74 9 76
REMARK SMILES IDX 10 77 11 78 16 79 12 80 15 81 13 82 14 83 17 84 18 85 19 86
REMARK SMILES IDX 20 87 24 88 21 89 23 90 25 91 22 92
REMARK H PARENT 3 6 82 24 50 35 7 75
REMARK Flexibility Score: inf
ROOT
ATOM      1  C   UNL A   1      31.730  31.467  26.578  1.00  0.00     0.042 C 
ENDROOT
BRANCH   1   2
ATOM      2  C   UNL A   1      32.936  32.130  27.224  1.00  0.00     0.118 C 
BRANCH   2   3
ATOM      3  N   UNL A   1      32.689  33.513  27.604  1.00  0.00    -0.352 N 
ATOM      4  O   UNL A   1      32.773  35.365  28.875  1.00  0.00    -0.269 OA
ATOM      5  C   UNL A   1      33.260  34.274  28.595  1.00  0.00     0.251 C 
ATOM      6  H   UNL A   1      32.005  33.976  27.066  1.00  0.00     0.163 HD
BRANCH   5   7
ATOM      7  C   UNL A   1      34.434  33.765  29.331  1.00  0.00     0.039 A 
ATOM      8  C   UNL A   1      34.284  32.786  30.316  1.00  0.00     0.014 A 
ATOM      9  C   UNL A   1      35.705  34.256  29.016  1.00  0.00     0.014 A 
ATOM     10  C   UNL A   1      35.373  32.411  31.089  1.00  0.00     0.010 A 
ATOM     11  C   UNL A   1      36.819  33.798  29.725  1.00  0.00     0.010 A 
ATOM     12  C   UNL A   1      36.657  32.888  30.779  1.00  0.00    -0.014 A 
BRANCH  12  13
ATOM     13  C   UNL A   1      37.826  32.305  31.479  1.00  0.00     0.031 A 
ATOM     14  C   UNL A   1      38.253  32.784  32.834  1.00  0.00     0.074 A 
ATOM     15  C   UNL A   1      38.494  31.314  30.860  1.00  0.00     0.049 A 
ATOM     16  N   UNL A   1      39.237  32.352  33.579  1.00  0.00    -0.248 NA
ATOM     17  C   UNL A   1      37.487  33.889  33.431  1.00  0.00     0.031 C 
ATOM     18  C   UNL A   1      38.172  30.797  29.526  1.00  0.00     0.029 A 
ATOM     19  N   UNL A   1      39.560  30.553  31.261  1.00  0.00    -0.354 N 
ATOM     20  C   UNL A   1      39.231  33.145  34.718  1.00  0.00     0.074 A 
ATOM     21  C   UNL A   1      38.149  34.094  34.563  1.00  0.00     0.031 C 
ATOM     22  C   UNL A   1      38.987  29.774  29.242  1.00  0.00     0.029 A 
ATOM     23  C   UNL A   1      39.930  29.603  30.339  1.00  0.00     0.049 A 
ATOM     24  H   UNL A   1      40.017  30.676  32.125  1.00  0.00     0.167 HD
ATOM     25  C   UNL A   1      40.047  33.074  35.797  1.00  0.00     0.034 A 
ATOM     26  C   UNL A   1      40.924  28.696  30.367  1.00  0.00     0.034 A 
ATOM     27  C   UNL A   1      41.109  32.111  35.941  1.00  0.00     0.049 A 
ATOM     28  C   UNL A   1      41.803  28.630  31.577  1.00  0.00     0.074 A 
ATOM     29  C   UNL A   1      41.984  31.948  37.000  1.00  0.00     0.029 A 
ATOM     30  N   UNL A   1      41.441  31.148  34.997  1.00  0.00    -0.354 N 
ATOM     31  N   UNL A   1      41.737  29.342  32.677  1.00  0.00    -0.248 NA
ATOM     32  C   UNL A   1      42.876  27.628  31.567  1.00  0.00     0.031 C 
ATOM     33  C   UNL A   1      42.852  30.893  36.693  1.00  0.00     0.029 A 
ATOM     34  C   UNL A   1      42.505  30.386  35.450  1.00  0.00     0.049 A 
ATOM     35  H   UNL A   1      40.988  31.026  34.133  1.00  0.00     0.167 HD
ATOM     36  C   UNL A   1      42.746  28.863  33.502  1.00  0.00     0.074 A 
ATOM     37  C   UNL A   1      43.394  27.784  32.780  1.00  0.00     0.031 C 
ATOM     38  C   UNL A   1      43.110  29.288  34.735  1.00  0.00     0.034 A 
BRANCH  25  39
ATOM     39  C   UNL A   1      39.798  34.036  36.931  1.00  0.00     0.023 A 
ATOM     40  C   UNL A   1      40.095  35.403  36.756  1.00  0.00     0.012 A 
ATOM     41  C   UNL A   1      39.209  33.608  38.138  1.00  0.00     0.148 A 
ATOM     42  C   UNL A   1      39.834  36.324  37.770  1.00  0.00     0.002 A 
ATOM     43  C   UNL A   1      38.915  34.539  39.130  1.00  0.00     0.091 A 
ATOM     44  F   UNL A   1      38.956  32.302  38.301  1.00  0.00    -0.205 F 
ATOM     45  C   UNL A   1      39.234  35.895  38.951  1.00  0.00     0.022 A 
BRANCH  43  46
ATOM     46  S   UNL A   1      38.072  34.086  40.651  1.00  0.00     0.127 S 
ATOM     47  O   UNL A   1      39.129  33.387  41.378  1.00  0.00    -0.237 OA
ATOM     48  O   UNL A   1      37.711  35.391  41.209  1.00  0.00    -0.237 OA
ATOM     49  O   UNL A   1      36.936  33.271  40.245  1.00  0.00    -0.744 OA
ENDBRANCH  43  46
ENDBRANCH  25  39
BRANCH  26  50
ATOM     50  C   UNL A   1      41.053  27.741  29.232  1.00  0.00     0.023 A 
ATOM     51  C   UNL A   1      40.194  26.628  29.172  1.00  0.00     0.012 A 
ATOM     52  C   UNL A   1      41.915  28.008  28.148  1.00  0.00     0.148 A 
ATOM     53  C   UNL A   1      40.186  25.799  28.049  1.00  0.00     0.002 A 
ATOM     54  C   UNL A   1      41.856  27.215  27.008  1.00  0.00     0.091 A 
ATOM     55  F   UNL A   1      42.727  29.071  28.232  1.00  0.00    -0.205 F 
ATOM     56  C   UNL A   1      41.001  26.103  26.962  1.00  0.00     0.022 A 
BRANCH  54  57
ATOM     57  S   UNL A   1      42.741  27.626  25.499  1.00  0.00     0.127 S 
ATOM     58  O   UNL A   1      44.107  27.788  25.990  1.00  0.00    -0.237 OA
ATOM     59  O   UNL A   1      42.514  26.431  24.686  1.00  0.00    -0.237 OA
ATOM     60  O   UNL A   1      42.110  28.834  24.986  1.00  0.00    -0.744 OA
ENDBRANCH  54  57
ENDBRANCH  26  50
BRANCH  38  61
ATOM     61  C   UNL A   1      44.255  28.577  35.403  1.00  0.00     0.023 A 
ATOM     62  C   UNL A   1      45.577  28.977  35.128  1.00  0.00     0.012 A 
ATOM     63  C   UNL A   1      44.018  27.575  36.364  1.00  0.00     0.148 A 
ATOM     64  C   UNL A   1      46.650  28.373  35.785  1.00  0.00     0.002 A 
ATOM     65  C   UNL A   1      45.088  27.010  37.046  1.00  0.00     0.091 A 
ATOM     66  F   UNL A   1      42.753  27.193  36.592  1.00  0.00    -0.205 F 
ATOM     67  C   UNL A   1      46.405  27.401  36.752  1.00  0.00     0.022 A 
BRANCH  65  68
ATOM     68  S   UNL A   1      44.854  25.820  38.372  1.00  0.00     0.127 S 
ATOM     69  O   UNL A   1      44.014  26.571  39.302  1.00  0.00    -0.237 OA
ATOM     70  O   UNL A   1      44.175  24.718  37.688  1.00  0.00    -0.237 OA
ATOM     71  O   UNL A   1      46.191  25.495  38.853  1.00  0.00    -0.744 OA
ENDBRANCH  65  68
ENDBRANCH  38  61
ENDBRANCH  12  13
ENDBRANCH   5   7
ENDBRANCH   2   3
ENDBRANCH   1   2
BRANCH   1  72
ATOM     72  C   UNL A   1      31.987  30.057  26.079  1.00  0.00     0.118 C 
BRANCH  72  73
ATOM     73  N   UNL A   1      32.963  30.005  25.005  1.00  0.00    -0.352 N 
ATOM     74  C   UNL A   1      33.135  29.051  24.042  1.00  0.00     0.255 C 
ATOM     75  H   UNL A   1      33.589  30.764  24.964  1.00  0.00     0.163 HD
ATOM     76  O   UNL A   1      33.828  29.309  23.061  1.00  0.00    -0.269 OA
BRANCH  74  77
ATOM     77  C   UNL A   1      32.386  27.791  24.134  1.00  0.00     0.082 A 
ATOM     78  C   UNL A   1      33.054  26.793  24.871  1.00  0.00     0.033 A 
ATOM     79  C   UNL A   1      31.156  27.519  23.522  1.00  0.00     0.132 A 
ATOM     80  C   UNL A   1      32.544  25.503  24.927  1.00  0.00     0.019 A 
ATOM     81  C   UNL A   1      30.673  26.200  23.588  1.00  0.00     0.048 A 
ATOM     82  Br  UNL A   1      33.488  24.161  25.864  1.00  0.00    -0.051 Br
ATOM     83  C   UNL A   1      31.359  25.194  24.274  1.00  0.00     0.019 A 
BRANCH  79  84
ATOM     84  O   UNL A   1      30.288  28.319  22.840  1.00  0.00    -0.488 OA
BRANCH  84  85
ATOM     85  C   UNL A   1      29.289  29.117  23.471  1.00  0.00     0.268 C 
BRANCH  85  86
ATOM     86  C   UNL A   1      28.784  30.339  22.744  1.00  0.00     0.025 A 
ATOM     87  C   UNL A   1      28.248  30.168  21.453  1.00  0.00     0.010 A 
ATOM     88  C   UNL A   1      28.872  31.638  23.249  1.00  0.00     0.129 A 
ATOM     89  C   UNL A   1      27.921  31.270  20.661  1.00  0.00     0.001 A 
ATOM     90  C   UNL A   1      28.552  32.742  22.459  1.00  0.00     0.039 A 
ATOM     91  F   UNL A   1      29.292  31.864  24.501  1.00  0.00    -0.207 F 
ATOM     92  C   UNL A   1      28.096  32.561  21.155  1.00  0.00     0.003 A 
ENDBRANCH  85  86
ENDBRANCH  84  85
ENDBRANCH  79  84
ENDBRANCH  74  77
ENDBRANCH  72  73
ENDBRANCH   1  72
TORSDOF 16
ENDMDL
MODEL 2
REMARK VINA RESULT:     -12.2      1.803      2.190
REMARK SMILES O=C(NCCCNC(=O)c1cc(Br)ccc1OCc1ccccc1F)c1ccc(-c2c3nc(c(-c4cccc(S(=O)(=O)[O-])c4F)c4ccc([nH]4)c(-c4cccc(S(=O)(=O)[O-])c4F)c4nc(c(-c5cccc(S(=O)(=O)[O-])c5F)c5ccc2[nH]5)C=C4)C=C3)cc1
REMARK SMILES IDX 5 1 4 2 3 3 1 4 2 5 26 7 27 8 88 9 28 10 87 11 29 12 30 13
REMARK SMILES IDX 31 14 81 15 32 16 86 17 80 18 82 19 33 20 85 21 79 22 78 23
REMARK SMILES IDX 34 25 66 26 46 27 65 28 47 29 50 30 64 31 83 32 48 33 49 34
REMARK SMILES IDX 63 36 84 37 51 38 35 39 36 40 44 41 37 42 39 43 45 44 38 45
REMARK SMILES IDX 40 46 41 47 42 48 43 49 67 50 68 51 76 52 69 53 71 54 77 55
REMARK SMILES IDX 70 56 72 57 73 58 74 59 75 60 52 61 53 62 61 63 54 64 56 65
REMARK SMILES IDX 62 66 55 67 57 68 58 69 59 70 60 71 6 72 7 73 8 74 9 76
REMARK SMILES IDX 10 77 11 78 16 79 12 80 15 81 13 82 14 83 17 84 18 85 19 86
REMARK SMILES IDX 20 87 24 88 21 89 23 90 25 91 22 92
REMARK H PARENT 3 6 82 24 50 35 7 75
REMARK Flexibility Score: inf
ROOT
ATOM      1  C   UNL A   1      31.453  30.878  26.030  1.00  0.00     0.042 C 
ENDROOT
BRANCH   1   2
ATOM      2  C   UNL A   1      32.585  31.372  26.917  1.00  0.00     0.118 C 
BRANCH   2   3
ATOM      3  N   UNL A   1      32.528  32.805  27.165  1.00  0.00    -0.352 N 
ATOM      4  O   UNL A   1      32.952  34.751  28.206  1.00  0.00    -0.269 OA
ATOM      5  C   UNL A   1      33.288  33.590  28.000  1.00  0.00     0.251 C 
ATOM      6  H   UNL A   1      31.838  33.288  26.655  1.00  0.00     0.163 HD
BRANCH   5   7
ATOM      7  C   UNL A   1      34.481  33.024  28.659  1.00  0.00     0.039 A 
ATOM      8  C   UNL A   1      34.353  32.233  29.803  1.00  0.00     0.014 A 
ATOM      9  C   UNL A   1      35.745  33.268  28.112  1.00  0.00     0.014 A 
ATOM     10  C   UNL A   1      35.485  31.817  30.486  1.00  0.00     0.010 A 
ATOM     11  C   UNL A   1      36.882  32.757  28.744  1.00  0.00     0.010 A 
ATOM     12  C   UNL A   1      36.761  32.045  29.945  1.00  0.00    -0.014 A 
BRANCH  12  13
ATOM     13  C   UNL A   1      37.935  31.404  30.582  1.00  0.00     0.031 A 
ATOM     14  C   UNL A   1      38.337  31.717  31.992  1.00  0.00     0.074 A 
ATOM     15  C   UNL A   1      38.631  30.511  29.852  1.00  0.00     0.049 A 
ATOM     16  N   UNL A   1      39.322  31.215  32.689  1.00  0.00    -0.248 NA
ATOM     17  C   UNL A   1      37.541  32.722  32.713  1.00  0.00     0.031 C 
ATOM     18  C   UNL A   1      38.335  30.160  28.460  1.00  0.00     0.029 A 
ATOM     19  N   UNL A   1      39.709  29.728  30.169  1.00  0.00    -0.354 N 
ATOM     20  C   UNL A   1      39.288  31.858  33.919  1.00  0.00     0.074 A 
ATOM     21  C   UNL A   1      38.186  32.797  33.870  1.00  0.00     0.031 C 
ATOM     22  C   UNL A   1      39.174  29.198  28.060  1.00  0.00     0.029 A 
ATOM     23  C   UNL A   1      40.109  28.910  29.140  1.00  0.00     0.049 A 
ATOM     24  H   UNL A   1      40.154  29.751  31.047  1.00  0.00     0.167 HD
ATOM     25  C   UNL A   1      40.094  31.669  34.991  1.00  0.00     0.034 A 
ATOM     26  C   UNL A   1      41.123  28.027  29.066  1.00  0.00     0.034 A 
ATOM     27  C   UNL A   1      41.175  30.718  35.027  1.00  0.00     0.049 A 
ATOM     28  C   UNL A   1      41.991  27.828  30.270  1.00  0.00     0.074 A 
ATOM     29  C   UNL A   1      42.042  30.440  36.069  1.00  0.00     0.029 A 
ATOM     30  N   UNL A   1      41.538  29.888  33.974  1.00  0.00    -0.354 N 
ATOM     31  N   UNL A   1      41.898  28.394  31.450  1.00  0.00    -0.248 NA
ATOM     32  C   UNL A   1      43.085  26.858  30.149  1.00  0.00     0.031 C 
ATOM     33  C   UNL A   1      42.936  29.451  35.643  1.00  0.00     0.029 A 
ATOM     34  C   UNL A   1      42.614  29.097  34.342  1.00  0.00     0.049 A 
ATOM     35  H   UNL A   1      41.096  29.866  33.095  1.00  0.00     0.167 HD
ATOM     36  C   UNL A   1      42.908  27.836  32.221  1.00  0.00     0.074 A 
ATOM     37  C   UNL A   1      43.588  26.870  31.378  1.00  0.00     0.031 C 
ATOM     38  C   UNL A   1      43.250  28.110  33.503  1.00  0.00     0.034 A 
BRANCH  25  39
ATOM     39  C   UNL A   1      39.812  32.475  36.234  1.00  0.00     0.023 A 
ATOM     40  C   UNL A   1      40.520  33.674  36.455  1.00  0.00     0.012 A 
ATOM     41  C   UNL A   1      38.804  32.092  37.141  1.00  0.00     0.148 A 
ATOM     42  C   UNL A   1      40.250  34.464  37.572  1.00  0.00     0.002 A 
ATOM     43  C   UNL A   1      38.513  32.906  38.233  1.00  0.00     0.091 A 
ATOM     44  F   UNL A   1      38.156  30.937  36.933  1.00  0.00    -0.205 F 
ATOM     45  C   UNL A   1      39.240  34.088  38.453  1.00  0.00     0.022 A 
BRANCH  43  46
ATOM     46  S   UNL A   1      37.176  32.538  39.375  1.00  0.00     0.127 S 
ATOM     47  O   UNL A   1      37.354  33.580  40.385  1.00  0.00    -0.237 OA
ATOM     48  O   UNL A   1      35.990  32.704  38.533  1.00  0.00    -0.237 OA
ATOM     49  O   UNL A   1      37.407  31.173  39.826  1.00  0.00    -0.744 OA
ENDBRANCH  43  46
ENDBRANCH  25  39
BRANCH  26  50
ATOM     50  C   UNL A   1      41.285  27.225  27.822  1.00  0.00     0.023 A 
ATOM     51  C   UNL A   1      41.940  27.801  26.717  1.00  0.00     0.012 A 
ATOM     52  C   UNL A   1      40.929  25.862  27.781  1.00  0.00     0.148 A 
ATOM     53  C   UNL A   1      42.242  27.031  25.594  1.00  0.00     0.002 A 
ATOM     54  C   UNL A   1      41.290  25.088  26.685  1.00  0.00     0.091 A 
ATOM     55  F   UNL A   1      40.303  25.339  28.845  1.00  0.00    -0.205 F 
ATOM     56  C   UNL A   1      41.935  25.673  25.585  1.00  0.00     0.022 A 
BRANCH  54  57
ATOM     57  S   UNL A   1      41.089  23.302  26.657  1.00  0.00     0.127 S 
ATOM     58  O   UNL A   1      41.915  22.927  25.512  1.00  0.00    -0.237 OA
ATOM     59  O   UNL A   1      41.631  22.920  27.961  1.00  0.00    -0.237 OA
ATOM     60  O   UNL A   1      39.660  23.066  26.504  1.00  0.00    -0.744 OA
ENDBRANCH  54  57
ENDBRANCH  26  50
BRANCH  38  61
ATOM     61  C   UNL A   1      44.404  27.344  34.091  1.00  0.00     0.023 A 
ATOM     62  C   UNL A   1      45.717  27.817  33.908  1.00  0.00     0.012 A 
ATOM     63  C   UNL A   1      44.179  26.210  34.894  1.00  0.00     0.148 A 
ATOM     64  C   UNL A   1      46.795  27.157  34.499  1.00  0.00     0.002 A 
ATOM     65  C   UNL A   1      45.253  25.584  35.516  1.00  0.00     0.091 A 
ATOM     66  F   UNL A   1      42.922  25.762  35.034  1.00  0.00    -0.205 F 
ATOM     67  C   UNL A   1      46.562  26.051  35.313  1.00  0.00     0.022 A 
BRANCH  65  68
ATOM     68  S   UNL A   1      45.030  24.211  36.653  1.00  0.00     0.127 S 
ATOM     69  O   UNL A   1      44.438  23.197  35.783  1.00  0.00    -0.237 OA
ATOM     70  O   UNL A   1      46.402  23.927  37.075  1.00  0.00    -0.237 OA
ATOM     71  O   UNL A   1      44.166  24.712  37.714  1.00  0.00    -0.744 OA
ENDBRANCH  65  68
ENDBRANCH  38  61
ENDBRANCH  12  13
ENDBRANCH   5   7
ENDBRANCH   2   3
ENDBRANCH   1   2
BRANCH   1  72
ATOM     72  C   UNL A   1      31.751  29.577  25.307  1.00  0.00     0.118 C 
BRANCH  72  73
ATOM     73  N   UNL A   1      32.839  29.696  24.353  1.00  0.00    -0.352 N 
ATOM     74  C   UNL A   1      33.298  28.778  23.451  1.00  0.00     0.255 C 
ATOM     75  H   UNL A   1      33.313  30.559  24.355  1.00  0.00     0.163 HD
ATOM     76  O   UNL A   1      34.042  29.148  22.545  1.00  0.00    -0.269 OA
BRANCH  74  77
ATOM     77  C   UNL A   1      32.792  27.401  23.504  1.00  0.00     0.082 A 
ATOM     78  C   UNL A   1      33.627  26.522  24.223  1.00  0.00     0.033 A 
ATOM     79  C   UNL A   1      31.637  26.924  22.872  1.00  0.00     0.132 A 
ATOM     80  C   UNL A   1      33.362  25.159  24.242  1.00  0.00     0.019 A 
ATOM     81  C   UNL A   1      31.403  25.537  22.900  1.00  0.00     0.048 A 
ATOM     82  Br  UNL A   1      34.530  23.989  25.155  1.00  0.00    -0.051 Br
ATOM     83  C   UNL A   1      32.258  24.657  23.569  1.00  0.00     0.019 A 
BRANCH  79  84
ATOM     84  O   UNL A   1      30.641  27.569  22.201  1.00  0.00    -0.488 OA
BRANCH  84  85
ATOM     85  C   UNL A   1      29.346  27.807  22.749  1.00  0.00     0.268 C 
BRANCH  85  86
ATOM     86  C   UNL A   1      28.829  29.225  22.774  1.00  0.00     0.025 A 
ATOM     87  C   UNL A   1      29.649  30.239  22.241  1.00  0.00     0.010 A 
ATOM     88  C   UNL A   1      27.614  29.602  23.349  1.00  0.00     0.129 A 
ATOM     89  C   UNL A   1      29.309  31.585  22.385  1.00  0.00     0.001 A 
ATOM     90  C   UNL A   1      27.273  30.945  23.499  1.00  0.00     0.039 A 
ATOM     91  F   UNL A   1      26.749  28.682  23.797  1.00  0.00    -0.207 F 
ATOM     92  C   UNL A   1      28.131  31.941  23.037  1.00  0.00     0.003 A 
ENDBRANCH  85  86
ENDBRANCH  84  85
ENDBRANCH  79  84
ENDBRANCH  74  77
ENDBRANCH  72  73
ENDBRANCH   1  72
TORSDOF 16
ENDMDL
MODEL 3
REMARK VINA RESULT:     -12.2      2.393      3.204
REMARK SMILES O=C(NCCCNC(=O)c1cc(Br)ccc1OCc1ccccc1F)c1ccc(-c2c3nc(c(-c4cccc(S(=O)(=O)[O-])c4F)c4ccc([nH]4)c(-c4cccc(S(=O)(=O)[O-])c4F)c4nc(c(-c5cccc(S(=O)(=O)[O-])c5F)c5ccc2[nH]5)C=C4)C=C3)cc1
REMARK SMILES IDX 5 1 4 2 3 3 1 4 2 5 26 7 27 8 88 9 28 10 87 11 29 12 30 13
REMARK SMILES IDX 31 14 81 15 32 16 86 17 80 18 82 19 33 20 85 21 79 22 78 23
REMARK SMILES IDX 34 25 66 26 46 27 65 28 47 29 50 30 64 31 83 32 48 33 49 34
REMARK SMILES IDX 63 36 84 37 51 38 35 39 36 40 44 41 37 42 39 43 45 44 38 45
REMARK SMILES IDX 40 46 41 47 42 48 43 49 67 50 68 51 76 52 69 53 71 54 77 55
REMARK SMILES IDX 70 56 72 57 73 58 74 59 75 60 52 61 53 62 61 63 54 64 56 65
REMARK SMILES IDX 62 66 55 67 57 68 58 69 59 70 60 71 6 72 7 73 8 74 9 76
REMARK SMILES IDX 10 77 11 78 16 79 12 80 15 81 13 82 14 83 17 84 18 85 19 86
REMARK SMILES IDX 20 87 24 88 21 89 23 90 25 91 22 92
REMARK H PARENT 3 6 82 24 50 35 7 75
REMARK Flexibility Score: inf
ROOT
ATOM      1  C   UNL A   1      32.124  29.095  26.909  1.00  0.00     0.042 C 
ENDROOT
BRANCH   1   2
ATOM      2  C   UNL A   1      33.238  29.972  26.357  1.00  0.00     0.118 C 
BRANCH   2   3
ATOM      3  N   UNL A   1      33.088  31.374  26.718  1.00  0.00    -0.352 N 
ATOM      4  O   UNL A   1      33.401  33.260  27.900  1.00  0.00    -0.269 OA
ATOM      5  C   UNL A   1      33.810  32.144  27.598  1.00  0.00     0.251 C 
ATOM      6  H   UNL A   1      32.355  31.845  26.258  1.00  0.00     0.163 HD
BRANCH   5   7
ATOM      7  C   UNL A   1      35.054  31.614  28.190  1.00  0.00     0.039 A 
ATOM      8  C   UNL A   1      36.210  32.397  28.233  1.00  0.00     0.014 A 
ATOM      9  C   UNL A   1      35.060  30.324  28.731  1.00  0.00     0.014 A 
ATOM     10  C   UNL A   1      37.404  31.845  28.672  1.00  0.00     0.010 A 
ATOM     11  C   UNL A   1      36.240  29.805  29.271  1.00  0.00     0.010 A 
ATOM     12  C   UNL A   1      37.424  30.555  29.227  1.00  0.00    -0.014 A 
BRANCH  12  13
ATOM     13  C   UNL A   1      38.663  30.076  29.882  1.00  0.00     0.031 A 
ATOM     14  C   UNL A   1      39.061  30.538  31.252  1.00  0.00     0.074 A 
ATOM     15  C   UNL A   1      39.425  29.195  29.207  1.00  0.00     0.049 A 
ATOM     16  N   UNL A   1      40.101  30.186  31.961  1.00  0.00    -0.248 NA
ATOM     17  C   UNL A   1      38.189  31.522  31.912  1.00  0.00     0.031 C 
ATOM     18  C   UNL A   1      39.138  28.707  27.855  1.00  0.00     0.029 A 
ATOM     19  N   UNL A   1      40.578  28.542  29.557  1.00  0.00    -0.354 N 
ATOM     20  C   UNL A   1      40.030  30.921  33.137  1.00  0.00     0.074 A 
ATOM     21  C   UNL A   1      38.845  31.749  33.042  1.00  0.00     0.031 C 
ATOM     22  C   UNL A   1      40.055  27.796  27.511  1.00  0.00     0.029 A 
ATOM     23  C   UNL A   1      41.033  27.683  28.585  1.00  0.00     0.049 A 
ATOM     24  H   UNL A   1      41.035  28.676  30.419  1.00  0.00     0.167 HD
ATOM     25  C   UNL A   1      40.870  30.893  34.199  1.00  0.00     0.034 A 
ATOM     26  C   UNL A   1      42.123  26.892  28.555  1.00  0.00     0.034 A 
ATOM     27  C   UNL A   1      42.035  30.050  34.282  1.00  0.00     0.049 A 
ATOM     28  C   UNL A   1      43.027  26.871  29.749  1.00  0.00     0.074 A 
ATOM     29  C   UNL A   1      42.943  29.938  35.319  1.00  0.00     0.029 A 
ATOM     30  N   UNL A   1      42.454  29.175  33.289  1.00  0.00    -0.354 N 
ATOM     31  N   UNL A   1      42.904  27.520  30.882  1.00  0.00    -0.248 NA
ATOM     32  C   UNL A   1      44.204  25.998  29.676  1.00  0.00     0.031 C 
ATOM     33  C   UNL A   1      43.917  29.003  34.950  1.00  0.00     0.029 A 
ATOM     34  C   UNL A   1      43.605  28.517  33.690  1.00  0.00     0.049 A 
ATOM     35  H   UNL A   1      42.000  29.042  32.426  1.00  0.00     0.167 HD
ATOM     36  C   UNL A   1      43.976  27.120  31.668  1.00  0.00     0.074 A 
ATOM     37  C   UNL A   1      44.726  26.155  30.887  1.00  0.00     0.031 C 
ATOM     38  C   UNL A   1      44.314  27.527  32.915  1.00  0.00     0.034 A 
BRANCH  25  39
ATOM     39  C   UNL A   1      40.537  31.768  35.381  1.00  0.00     0.023 A 
ATOM     40  C   UNL A   1      41.334  32.900  35.649  1.00  0.00     0.012 A 
ATOM     41  C   UNL A   1      39.404  31.519  36.180  1.00  0.00     0.148 A 
ATOM     42  C   UNL A   1      41.025  33.754  36.708  1.00  0.00     0.002 A 
ATOM     43  C   UNL A   1      39.079  32.397  37.211  1.00  0.00     0.091 A 
ATOM     44  F   UNL A   1      38.670  30.425  35.930  1.00  0.00    -0.205 F 
ATOM     45  C   UNL A   1      39.893  33.509  37.480  1.00  0.00     0.022 A 
BRANCH  43  46
ATOM     46  S   UNL A   1      37.596  32.202  38.206  1.00  0.00     0.127 S 
ATOM     47  O   UNL A   1      38.031  32.741  39.493  1.00  0.00    -0.237 OA
ATOM     48  O   UNL A   1      36.628  33.038  37.493  1.00  0.00    -0.237 OA
ATOM     49  O   UNL A   1      37.291  30.779  38.186  1.00  0.00    -0.744 OA
ENDBRANCH  43  46
ENDBRANCH  25  39
BRANCH  26  50
ATOM     50  C   UNL A   1      42.336  26.010  27.375  1.00  0.00     0.023 A 
ATOM     51  C   UNL A   1      43.124  26.475  26.306  1.00  0.00     0.012 A 
ATOM     52  C   UNL A   1      41.887  24.674  27.372  1.00  0.00     0.148 A 
ATOM     53  C   UNL A   1      43.468  25.623  25.256  1.00  0.00     0.002 A 
ATOM     54  C   UNL A   1      42.286  23.815  26.355  1.00  0.00     0.091 A 
ATOM     55  F   UNL A   1      41.134  24.257  28.399  1.00  0.00    -0.205 F 
ATOM     56  C   UNL A   1      43.066  24.291  25.291  1.00  0.00     0.022 A 
BRANCH  54  57
ATOM     57  S   UNL A   1      41.960  22.048  26.401  1.00  0.00     0.127 S 
ATOM     58  O   UNL A   1      42.779  21.565  25.293  1.00  0.00    -0.237 OA
ATOM     59  O   UNL A   1      42.448  21.689  27.733  1.00  0.00    -0.237 OA
ATOM     60  O   UNL A   1      40.522  21.905  26.227  1.00  0.00    -0.744 OA
ENDBRANCH  54  57
ENDBRANCH  26  50
BRANCH  38  61
ATOM     61  C   UNL A   1      45.545  26.920  33.532  1.00  0.00     0.023 A 
ATOM     62  C   UNL A   1      46.791  27.554  33.365  1.00  0.00     0.012 A 
ATOM     63  C   UNL A   1      45.451  25.774  34.345  1.00  0.00     0.148 A 
ATOM     64  C   UNL A   1      47.933  27.041  33.982  1.00  0.00     0.002 A 
ATOM     65  C   UNL A   1      46.584  25.296  34.992  1.00  0.00     0.091 A 
ATOM     66  F   UNL A   1      44.258  25.173  34.470  1.00  0.00    -0.205 F 
ATOM     67  C   UNL A   1      47.826  25.923  34.805  1.00  0.00     0.022 A 
BRANCH  65  68
ATOM     68  S   UNL A   1      46.515  23.917  36.143  1.00  0.00     0.127 S 
ATOM     69  O   UNL A   1      47.904  23.833  36.589  1.00  0.00    -0.237 OA
ATOM     70  O   UNL A   1      45.576  24.401  37.156  1.00  0.00    -0.237 OA
ATOM     71  O   UNL A   1      46.033  22.780  35.370  1.00  0.00    -0.744 OA
ENDBRANCH  65  68
ENDBRANCH  38  61
ENDBRANCH  12  13
ENDBRANCH   5   7
ENDBRANCH   2   3
ENDBRANCH   1   2
BRANCH   1  72
ATOM     72  C   UNL A   1      32.265  27.623  26.570  1.00  0.00     0.118 C 
BRANCH  72  73
ATOM     73  N   UNL A   1      31.043  26.870  26.795  1.00  0.00    -0.352 N 
ATOM     74  C   UNL A   1      30.408  25.991  25.964  1.00  0.00     0.255 C 
ATOM     75  H   UNL A   1      30.612  27.013  27.668  1.00  0.00     0.163 HD
ATOM     76  O   UNL A   1      29.544  25.249  26.426  1.00  0.00    -0.269 OA
BRANCH  74  77
ATOM     77  C   UNL A   1      30.859  25.860  24.573  1.00  0.00     0.082 A 
ATOM     78  C   UNL A   1      31.734  24.775  24.366  1.00  0.00     0.033 A 
ATOM     79  C   UNL A   1      30.543  26.729  23.521  1.00  0.00     0.132 A 
ATOM     80  C   UNL A   1      32.362  24.604  23.139  1.00  0.00     0.019 A 
ATOM     81  C   UNL A   1      31.204  26.535  22.294  1.00  0.00     0.048 A 
ATOM     82  Br  UNL A   1      33.583  23.183  22.900  1.00  0.00    -0.051 Br
ATOM     83  C   UNL A   1      32.112  25.491  22.101  1.00  0.00     0.019 A 
BRANCH  79  84
ATOM     84  O   UNL A   1      29.677  27.779  23.443  1.00  0.00    -0.488 OA
BRANCH  84  85
ATOM     85  C   UNL A   1      30.030  29.119  23.777  1.00  0.00     0.268 C 
BRANCH  85  86
ATOM     86  C   UNL A   1      29.284  30.245  23.103  1.00  0.00     0.025 A 
ATOM     87  C   UNL A   1      28.653  29.978  21.872  1.00  0.00     0.010 A 
ATOM     88  C   UNL A   1      29.232  31.551  23.595  1.00  0.00     0.129 A 
ATOM     89  C   UNL A   1      28.092  31.009  21.115  1.00  0.00     0.001 A 
ATOM     90  C   UNL A   1      28.678  32.585  22.840  1.00  0.00     0.039 A 
ATOM     91  F   UNL A   1      29.736  31.855  24.798  1.00  0.00    -0.207 F 
ATOM     92  C   UNL A   1      28.127  32.319  21.589  1.00  0.00     0.003 A 
ENDBRANCH  85  86
ENDBRANCH  84  85
ENDBRANCH  79  84
ENDBRANCH  74  77
ENDBRANCH  72  73
ENDBRANCH   1  72
TORSDOF 16
ENDMDL
