MODEL 1
REMARK VINA RESULT:     -12.8      0.000      0.000
REMARK SMILES CS(=O)(=O)c1ccc(/C=C(/C(=O)NCCCNC(=O)c2ccc(-c3c4nc(c(-c5cccc(S(=O)(=O)[O-])c5F)c5ccc([nH]5)c(-c5cccc(S(=O)(=O)[O-])c5F)c5nc(c(-c6cccc(S(=O)(=O)[O-])c6F)c6ccc3[nH]6)C=C5)C=C4)cc2)c2ccc(-c3ccc(S(C)(=O)=O)cc3)cc2)cc1
REMARK SMILES IDX 15 1 14 2 13 3 11 4 12 5 10 7 9 8 8 9 5 10 6 11 100 12 7 13
REMARK SMILES IDX 99 14 2 15 1 16 3 17 4 18 83 19 84 20 98 21 85 22 97 23
REMARK SMILES IDX 86 24 87 25 88 26 96 27 89 28 95 29 90 30 91 31 92 32 93 33
REMARK SMILES IDX 94 34 16 35 17 36 18 37 19 39 20 40 21 41 82 42 22 43 81 44
REMARK SMILES IDX 23 45 24 46 25 47 75 48 26 49 80 50 74 51 76 52 27 53 79 54
REMARK SMILES IDX 73 55 72 56 28 58 60 59 40 60 59 61 41 62 44 63 58 64 77 65
REMARK SMILES IDX 42 66 43 67 57 69 78 70 45 71 29 72 30 73 38 74 31 75 33 76
REMARK SMILES IDX 39 77 32 78 34 79 35 80 36 81 37 82 61 83 62 84 70 85 63 86
REMARK SMILES IDX 65 87 71 88 64 89 66 90 67 91 68 92 69 93 46 94 47 95 55 96
REMARK SMILES IDX 48 97 50 98 56 99 49 100 51 101 52 102 53 103 54 104
REMARK H PARENT 13 6 17 38 76 57 44 68
REMARK Flexibility Score: inf
ROOT
ATOM      1  C   UNL A   1      36.210  23.069  24.324  1.00  0.00     0.042 C 
ENDROOT
BRANCH   1   2
ATOM      2  C   UNL A   1      34.833  23.692  24.089  1.00  0.00     0.118 C 
BRANCH   2   3
ATOM      3  N   UNL A   1      33.860  23.175  25.033  1.00  0.00    -0.352 N 
ATOM      4  C   UNL A   1      32.706  23.658  25.559  1.00  0.00     0.251 C 
ATOM      5  O   UNL A   1      32.124  22.913  26.353  1.00  0.00    -0.269 OA
ATOM      6  H   UNL A   1      34.087  22.276  25.363  1.00  0.00     0.163 HD
BRANCH   4   7
ATOM      7  C   UNL A   1      32.087  24.977  25.153  1.00  0.00     0.047 C 
ATOM      8  C   UNL A   1      31.276  25.086  24.076  1.00  0.00     0.022 C 
BRANCH   8   9
ATOM      9  C   UNL A   1      30.522  26.258  23.578  1.00  0.00    -0.025 A 
ATOM     10  C   UNL A   1      28.981  28.480  22.797  1.00  0.00     0.067 A 
ATOM     11  C   UNL A   1      30.318  28.390  22.408  1.00  0.00     0.021 A 
ATOM     12  C   UNL A   1      28.393  27.450  23.534  1.00  0.00     0.021 A 
ATOM     13  C   UNL A   1      31.074  27.271  22.782  1.00  0.00     0.009 A 
ATOM     14  C   UNL A   1      29.161  26.346  23.916  1.00  0.00     0.009 A 
BRANCH  10  15
ATOM     15  S   UNL A   1      28.000  29.908  22.402  1.00  0.00     0.175 S 
ATOM     16  C   UNL A   1      28.889  31.310  23.019  1.00  0.00     0.163 C 
ATOM     17  O   UNL A   1      26.783  29.817  23.189  1.00  0.00    -0.224 OA
ATOM     18  O   UNL A   1      27.956  30.007  20.957  1.00  0.00    -0.224 OA
ENDBRANCH  10  15
ENDBRANCH   8   9
BRANCH   7  19
ATOM     19  C   UNL A   1      32.568  26.186  25.866  1.00  0.00    -0.013 A 
ATOM     20  C   UNL A   1      33.807  26.726  25.493  1.00  0.00     0.009 A 
ATOM     21  C   UNL A   1      31.804  26.859  26.825  1.00  0.00     0.009 A 
ATOM     22  C   UNL A   1      34.252  27.932  26.031  1.00  0.00     0.009 A 
ATOM     23  C   UNL A   1      32.246  28.084  27.346  1.00  0.00     0.009 A 
ATOM     24  C   UNL A   1      33.467  28.656  26.940  1.00  0.00    -0.018 A 
BRANCH  24  25
ATOM     25  C   UNL A   1      33.913  29.980  27.416  1.00  0.00    -0.018 A 
ATOM     26  C   UNL A   1      33.038  31.085  27.371  1.00  0.00     0.010 A 
ATOM     27  C   UNL A   1      35.208  30.189  27.918  1.00  0.00     0.010 A 
ATOM     28  C   UNL A   1      33.446  32.355  27.783  1.00  0.00     0.021 A 
ATOM     29  C   UNL A   1      35.627  31.456  28.334  1.00  0.00     0.021 A 
ATOM     30  C   UNL A   1      34.747  32.535  28.247  1.00  0.00     0.067 A 
BRANCH  30  31
ATOM     31  S   UNL A   1      35.268  34.162  28.728  1.00  0.00     0.175 S 
ATOM     32  C   UNL A   1      34.529  34.375  30.328  1.00  0.00     0.163 C 
ATOM     33  O   UNL A   1      36.705  34.124  28.888  1.00  0.00    -0.224 OA
ATOM     34  O   UNL A   1      34.642  35.114  27.825  1.00  0.00    -0.224 OA
ENDBRANCH  30  31
ENDBRANCH  24  25
ENDBRANCH   7  19
ENDBRANCH   4   7
ENDBRANCH   2   3
ENDBRANCH   1   2
BRANCH   1  35
ATOM     35  C   UNL A   1      36.623  23.023  25.797  1.00  0.00     0.118 C 
BRANCH  35  36
ATOM     36  N   UNL A   1      37.528  21.917  26.079  1.00  0.00    -0.352 N 
ATOM     37  C   UNL A   1      38.872  21.930  26.361  1.00  0.00     0.251 C 
ATOM     38  H   UNL A   1      37.114  21.025  26.067  1.00  0.00     0.163 HD
ATOM     39  O   UNL A   1      39.497  20.873  26.351  1.00  0.00    -0.269 OA
BRANCH  37  40
ATOM     40  C   UNL A   1      39.569  23.198  26.671  1.00  0.00     0.039 A 
ATOM     41  C   UNL A   1      40.469  23.227  27.741  1.00  0.00     0.014 A 
ATOM     42  C   UNL A   1      39.303  24.365  25.949  1.00  0.00     0.014 A 
ATOM     43  C   UNL A   1      41.136  24.414  28.056  1.00  0.00     0.010 A 
ATOM     44  C   UNL A   1      40.018  25.529  26.223  1.00  0.00     0.010 A 
ATOM     45  C   UNL A   1      40.934  25.570  27.285  1.00  0.00    -0.014 A 
BRANCH  45  46
ATOM     46  C   UNL A   1      41.679  26.824  27.563  1.00  0.00     0.031 A 
ATOM     47  C   UNL A   1      43.103  26.983  27.106  1.00  0.00     0.074 A 
ATOM     48  C   UNL A   1      41.108  27.776  28.326  1.00  0.00     0.049 A 
ATOM     49  N   UNL A   1      43.930  27.975  27.315  1.00  0.00    -0.248 NA
ATOM     50  C   UNL A   1      43.686  25.868  26.344  1.00  0.00     0.031 C 
ATOM     51  C   UNL A   1      39.771  27.695  28.915  1.00  0.00     0.029 A 
ATOM     52  N   UNL A   1      41.597  28.980  28.769  1.00  0.00    -0.354 N 
ATOM     53  C   UNL A   1      45.140  27.587  26.753  1.00  0.00     0.074 A 
ATOM     54  C   UNL A   1      44.947  26.257  26.218  1.00  0.00     0.031 C 
ATOM     55  C   UNL A   1      39.551  28.792  29.655  1.00  0.00     0.029 A 
ATOM     56  C   UNL A   1      40.735  29.644  29.610  1.00  0.00     0.049 A 
ATOM     57  H   UNL A   1      42.478  29.334  28.510  1.00  0.00     0.167 HD
ATOM     58  C   UNL A   1      46.298  28.284  26.666  1.00  0.00     0.034 A 
ATOM     59  C   UNL A   1      40.884  30.804  30.281  1.00  0.00     0.034 A 
ATOM     60  C   UNL A   1      46.468  29.627  27.150  1.00  0.00     0.049 A 
ATOM     61  C   UNL A   1      42.146  31.599  30.101  1.00  0.00     0.074 A 
ATOM     62  C   UNL A   1      47.558  30.467  26.996  1.00  0.00     0.029 A 
ATOM     63  N   UNL A   1      45.529  30.324  27.895  1.00  0.00    -0.354 N 
ATOM     64  N   UNL A   1      43.213  31.301  29.399  1.00  0.00    -0.248 NA
ATOM     65  C   UNL A   1      42.211  32.907  30.768  1.00  0.00     0.031 C 
ATOM     66  C   UNL A   1      47.282  31.666  27.665  1.00  0.00     0.029 A 
ATOM     67  C   UNL A   1      46.016  31.580  28.220  1.00  0.00     0.049 A 
ATOM     68  H   UNL A   1      44.645  29.978  28.155  1.00  0.00     0.167 HD
ATOM     69  C   UNL A   1      44.066  32.392  29.518  1.00  0.00     0.074 A 
ATOM     70  C   UNL A   1      43.381  33.368  30.341  1.00  0.00     0.031 C 
ATOM     71  C   UNL A   1      45.309  32.561  29.004  1.00  0.00     0.034 A 
BRANCH  58  72
ATOM     72  C   UNL A   1      47.458  27.619  25.968  1.00  0.00     0.023 A 
ATOM     73  C   UNL A   1      47.561  27.698  24.563  1.00  0.00     0.012 A 
ATOM     74  C   UNL A   1      48.457  26.946  26.696  1.00  0.00     0.148 A 
ATOM     75  C   UNL A   1      48.614  27.078  23.891  1.00  0.00     0.002 A 
ATOM     76  C   UNL A   1      49.528  26.368  26.021  1.00  0.00     0.091 A 
ATOM     77  F   UNL A   1      48.334  26.858  28.028  1.00  0.00    -0.205 F 
ATOM     78  C   UNL A   1      49.601  26.421  24.620  1.00  0.00     0.022 A 
BRANCH  76  79
ATOM     79  S   UNL A   1      50.885  25.569  26.887  1.00  0.00     0.127 S 
ATOM     80  O   UNL A   1      51.860  25.393  25.812  1.00  0.00    -0.237 OA
ATOM     81  O   UNL A   1      51.255  26.573  27.886  1.00  0.00    -0.237 OA
ATOM     82  O   UNL A   1      50.328  24.344  27.445  1.00  0.00    -0.744 OA
ENDBRANCH  76  79
ENDBRANCH  58  72
BRANCH  59  83
ATOM     83  C   UNL A   1      39.764  31.301  31.126  1.00  0.00     0.023 A 
ATOM     84  C   UNL A   1      38.588  31.771  30.511  1.00  0.00     0.012 A 
ATOM     85  C   UNL A   1      39.824  31.224  32.532  1.00  0.00     0.148 A 
ATOM     86  C   UNL A   1      37.496  32.173  31.281  1.00  0.00     0.002 A 
ATOM     87  C   UNL A   1      38.713  31.573  33.291  1.00  0.00     0.091 A 
ATOM     88  F   UNL A   1      40.955  30.778  33.094  1.00  0.00    -0.205 F 
ATOM     89  C   UNL A   1      37.553  32.061  32.668  1.00  0.00     0.022 A 
BRANCH  87  90
ATOM     90  S   UNL A   1      38.642  31.325  35.068  1.00  0.00     0.127 S 
ATOM     91  O   UNL A   1      38.809  29.878  35.176  1.00  0.00    -0.237 OA
ATOM     92  O   UNL A   1      39.787  32.114  35.526  1.00  0.00    -0.237 OA
ATOM     93  O   UNL A   1      37.349  31.845  35.489  1.00  0.00    -0.744 OA
ENDBRANCH  87  90
ENDBRANCH  59  83
BRANCH  71  94
ATOM     94  C   UNL A   1      46.018  33.857  29.303  1.00  0.00     0.023 A 
ATOM     95  C   UNL A   1      46.850  33.949  30.436  1.00  0.00     0.012 A 
ATOM     96  C   UNL A   1      45.926  34.951  28.421  1.00  0.00     0.148 A 
ATOM     97  C   UNL A   1      47.558  35.122  30.702  1.00  0.00     0.002 A 
ATOM     98  C   UNL A   1      46.669  36.100  28.667  1.00  0.00     0.091 A 
ATOM     99  F   UNL A   1      45.112  34.851  27.360  1.00  0.00    -0.205 F 
ATOM    100  C   UNL A   1      47.478  36.190  29.812  1.00  0.00     0.022 A 
BRANCH  98 101
ATOM    101  S   UNL A   1      46.697  37.487  27.527  1.00  0.00     0.127 S 
ATOM    102  O   UNL A   1      47.680  38.369  28.155  1.00  0.00    -0.237 OA
ATOM    103  O   UNL A   1      47.147  36.862  26.283  1.00  0.00    -0.237 OA
ATOM    104  O   UNL A   1      45.333  37.996  27.485  1.00  0.00    -0.744 OA
ENDBRANCH  98 101
ENDBRANCH  71  94
ENDBRANCH  45  46
ENDBRANCH  37  40
ENDBRANCH  35  36
ENDBRANCH   1  35
TORSDOF 18
ENDMDL
MODEL 2
REMARK VINA RESULT:     -11.7      5.460     14.303
REMARK SMILES CS(=O)(=O)c1ccc(/C=C(/C(=O)NCCCNC(=O)c2ccc(-c3c4nc(c(-c5cccc(S(=O)(=O)[O-])c5F)c5ccc([nH]5)c(-c5cccc(S(=O)(=O)[O-])c5F)c5nc(c(-c6cccc(S(=O)(=O)[O-])c6F)c6ccc3[nH]6)C=C5)C=C4)cc2)c2ccc(-c3ccc(S(C)(=O)=O)cc3)cc2)cc1
REMARK SMILES IDX 15 1 14 2 13 3 11 4 12 5 10 7 9 8 8 9 5 10 6 11 100 12 7 13
REMARK SMILES IDX 99 14 2 15 1 16 3 17 4 18 83 19 84 20 98 21 85 22 97 23
REMARK SMILES IDX 86 24 87 25 88 26 96 27 89 28 95 29 90 30 91 31 92 32 93 33
REMARK SMILES IDX 94 34 16 35 17 36 18 37 19 39 20 40 21 41 82 42 22 43 81 44
REMARK SMILES IDX 23 45 24 46 25 47 75 48 26 49 80 50 74 51 76 52 27 53 79 54
REMARK SMILES IDX 73 55 72 56 28 58 60 59 40 60 59 61 41 62 44 63 58 64 77 65
REMARK SMILES IDX 42 66 43 67 57 69 78 70 45 71 29 72 30 73 38 74 31 75 33 76
REMARK SMILES IDX 39 77 32 78 34 79 35 80 36 81 37 82 61 83 62 84 70 85 63 86
REMARK SMILES IDX 65 87 71 88 64 89 66 90 67 91 68 92 69 93 46 94 47 95 55 96
REMARK SMILES IDX 48 97 50 98 56 99 49 100 51 101 52 102 53 103 54 104
REMARK H PARENT 13 6 17 38 76 57 44 68
REMARK Flexibility Score: inf
ROOT
ATOM      1  C   UNL A   1      44.024  41.314  31.377  1.00  0.00     0.042 C 
ENDROOT
BRANCH   1   2
ATOM      2  C   UNL A   1      43.323  42.250  30.391  1.00  0.00     0.118 C 
BRANCH   2   3
ATOM      3  N   UNL A   1      41.918  41.911  30.262  1.00  0.00    -0.352 N 
ATOM      4  C   UNL A   1      41.226  41.031  29.495  1.00  0.00     0.251 C 
ATOM      5  O   UNL A   1      40.003  41.015  29.666  1.00  0.00    -0.269 OA
ATOM      6  H   UNL A   1      41.340  42.434  30.864  1.00  0.00     0.163 HD
BRANCH   4   7
ATOM      7  C   UNL A   1      41.879  40.046  28.551  1.00  0.00     0.047 C 
ATOM      8  C   UNL A   1      42.328  38.841  28.971  1.00  0.00     0.022 C 
BRANCH   8   9
ATOM      9  C   UNL A   1      42.911  37.727  28.190  1.00  0.00    -0.025 A 
ATOM     10  C   UNL A   1      43.853  35.606  26.599  1.00  0.00     0.067 A 
ATOM     11  C   UNL A   1      44.750  36.548  27.103  1.00  0.00     0.021 A 
ATOM     12  C   UNL A   1      42.497  35.687  26.919  1.00  0.00     0.021 A 
ATOM     13  C   UNL A   1      44.278  37.590  27.912  1.00  0.00     0.009 A 
ATOM     14  C   UNL A   1      42.034  36.740  27.713  1.00  0.00     0.009 A 
BRANCH  10  15
ATOM     15  S   UNL A   1      44.395  34.304  25.518  1.00  0.00     0.175 S 
ATOM     16  C   UNL A   1      44.528  32.848  26.518  1.00  0.00     0.163 C 
ATOM     17  O   UNL A   1      45.745  34.636  25.097  1.00  0.00    -0.224 OA
ATOM     18  O   UNL A   1      43.338  34.086  24.551  1.00  0.00    -0.224 OA
ENDBRANCH  10  15
ENDBRANCH   8   9
BRANCH   7  19
ATOM     19  C   UNL A   1      42.192  40.538  27.187  1.00  0.00    -0.013 A 
ATOM     20  C   UNL A   1      41.162  40.554  26.236  1.00  0.00     0.009 A 
ATOM     21  C   UNL A   1      43.438  41.066  26.835  1.00  0.00     0.009 A 
ATOM     22  C   UNL A   1      41.357  41.125  24.980  1.00  0.00     0.009 A 
ATOM     23  C   UNL A   1      43.622  41.661  25.578  1.00  0.00     0.009 A 
ATOM     24  C   UNL A   1      42.578  41.723  24.636  1.00  0.00    -0.018 A 
BRANCH  24  25
ATOM     25  C   UNL A   1      42.727  42.413  23.339  1.00  0.00    -0.018 A 
ATOM     26  C   UNL A   1      41.734  42.288  22.347  1.00  0.00     0.010 A 
ATOM     27  C   UNL A   1      43.852  43.203  23.047  1.00  0.00     0.010 A 
ATOM     28  C   UNL A   1      41.867  42.903  21.100  1.00  0.00     0.021 A 
ATOM     29  C   UNL A   1      43.995  43.824  21.802  1.00  0.00     0.021 A 
ATOM     30  C   UNL A   1      43.009  43.654  20.830  1.00  0.00     0.067 A 
BRANCH  30  31
ATOM     31  S   UNL A   1      43.188  44.395  19.228  1.00  0.00     0.175 S 
ATOM     32  C   UNL A   1      44.491  45.578  19.464  1.00  0.00     0.163 C 
ATOM     33  O   UNL A   1      43.661  43.366  18.327  1.00  0.00    -0.224 OA
ATOM     34  O   UNL A   1      41.970  45.136  18.942  1.00  0.00    -0.224 OA
ENDBRANCH  30  31
ENDBRANCH  24  25
ENDBRANCH   7  19
ENDBRANCH   4   7
ENDBRANCH   2   3
ENDBRANCH   1   2
BRANCH   1  35
ATOM     35  C   UNL A   1      43.121  40.821  32.509  1.00  0.00     0.118 C 
BRANCH  35  36
ATOM     36  N   UNL A   1      43.873  40.513  33.718  1.00  0.00    -0.352 N 
ATOM     37  C   UNL A   1      44.185  39.297  34.274  1.00  0.00     0.251 C 
ATOM     38  H   UNL A   1      44.208  41.295  34.212  1.00  0.00     0.163 HD
ATOM     39  O   UNL A   1      44.638  39.258  35.416  1.00  0.00    -0.269 OA
BRANCH  37  40
ATOM     40  C   UNL A   1      43.981  38.042  33.517  1.00  0.00     0.039 A 
ATOM     41  C   UNL A   1      44.371  37.994  32.175  1.00  0.00     0.014 A 
ATOM     42  C   UNL A   1      43.363  36.935  34.106  1.00  0.00     0.014 A 
ATOM     43  C   UNL A   1      44.184  36.821  31.439  1.00  0.00     0.010 A 
ATOM     44  C   UNL A   1      43.238  35.747  33.390  1.00  0.00     0.010 A 
ATOM     45  C   UNL A   1      43.637  35.679  32.047  1.00  0.00    -0.014 A 
BRANCH  45  46
ATOM     46  C   UNL A   1      43.488  34.404  31.300  1.00  0.00     0.031 A 
ATOM     47  C   UNL A   1      42.137  33.762  31.147  1.00  0.00     0.074 A 
ATOM     48  C   UNL A   1      44.588  33.768  30.853  1.00  0.00     0.049 A 
ATOM     49  N   UNL A   1      41.825  32.621  30.588  1.00  0.00    -0.248 NA
ATOM     50  C   UNL A   1      40.991  34.478  31.729  1.00  0.00     0.031 C 
ATOM     51  C   UNL A   1      45.963  34.238  31.029  1.00  0.00     0.029 A 
ATOM     52  N   UNL A   1      44.725  32.570  30.197  1.00  0.00    -0.354 N 
ATOM     53  C   UNL A   1      40.460  32.459  30.790  1.00  0.00     0.074 A 
ATOM     54  C   UNL A   1      40.008  33.606  31.547  1.00  0.00     0.031 C 
ATOM     55  C   UNL A   1      46.805  33.332  30.509  1.00  0.00     0.029 A 
ATOM     56  C   UNL A   1      46.035  32.210  29.982  1.00  0.00     0.049 A 
ATOM     57  H   UNL A   1      43.960  32.022  29.908  1.00  0.00     0.167 HD
ATOM     58  C   UNL A   1      39.650  31.461  30.361  1.00  0.00     0.034 A 
ATOM     59  C   UNL A   1      46.559  31.096  29.432  1.00  0.00     0.034 A 
ATOM     60  C   UNL A   1      40.094  30.351  29.562  1.00  0.00     0.049 A 
ATOM     61  C   UNL A   1      45.637  30.042  28.889  1.00  0.00     0.074 A 
ATOM     62  C   UNL A   1      39.334  29.359  28.969  1.00  0.00     0.029 A 
ATOM     63  N   UNL A   1      41.418  30.078  29.254  1.00  0.00    -0.354 N 
ATOM     64  N   UNL A   1      44.327  30.002  28.915  1.00  0.00    -0.248 NA
ATOM     65  C   UNL A   1      46.260  28.901  28.203  1.00  0.00     0.031 C 
ATOM     66  C   UNL A   1      40.202  28.475  28.317  1.00  0.00     0.029 A 
ATOM     67  C   UNL A   1      41.501  28.926  28.489  1.00  0.00     0.049 A 
ATOM     68  H   UNL A   1      42.187  30.623  29.537  1.00  0.00     0.167 HD
ATOM     69  C   UNL A   1      43.966  28.848  28.231  1.00  0.00     0.074 A 
ATOM     70  C   UNL A   1      45.196  28.229  27.780  1.00  0.00     0.031 C 
ATOM     71  C   UNL A   1      42.728  28.341  28.010  1.00  0.00     0.034 A 
BRANCH  58  72
ATOM     72  C   UNL A   1      38.185  31.559  30.704  1.00  0.00     0.023 A 
ATOM     73  C   UNL A   1      37.701  30.929  31.870  1.00  0.00     0.012 A 
ATOM     74  C   UNL A   1      37.295  32.293  29.897  1.00  0.00     0.148 A 
ATOM     75  C   UNL A   1      36.348  30.991  32.202  1.00  0.00     0.002 A 
ATOM     76  C   UNL A   1      35.955  32.386  30.259  1.00  0.00     0.091 A 
ATOM     77  F   UNL A   1      37.764  32.866  28.779  1.00  0.00    -0.205 F 
ATOM     78  C   UNL A   1      35.478  31.725  31.402  1.00  0.00     0.022 A 
BRANCH  76  79
ATOM     79  S   UNL A   1      34.779  33.376  29.328  1.00  0.00     0.127 S 
ATOM     80  O   UNL A   1      34.286  32.408  28.349  1.00  0.00    -0.237 OA
ATOM     81  O   UNL A   1      33.806  33.755  30.353  1.00  0.00    -0.237 OA
ATOM     82  O   UNL A   1      35.546  34.490  28.787  1.00  0.00    -0.744 OA
ENDBRANCH  76  79
ENDBRANCH  58  72
BRANCH  59  83
ATOM     83  C   UNL A   1      48.039  30.975  29.314  1.00  0.00     0.023 A 
ATOM     84  C   UNL A   1      48.760  30.301  30.318  1.00  0.00     0.012 A 
ATOM     85  C   UNL A   1      48.717  31.444  28.172  1.00  0.00     0.148 A 
ATOM     86  C   UNL A   1      50.137  30.110  30.194  1.00  0.00     0.002 A 
ATOM     87  C   UNL A   1      50.078  31.201  28.029  1.00  0.00     0.091 A 
ATOM     88  F   UNL A   1      48.009  32.087  27.233  1.00  0.00    -0.205 F 
ATOM     89  C   UNL A   1      50.792  30.547  29.046  1.00  0.00     0.022 A 
BRANCH  87  90
ATOM     90  S   UNL A   1      50.976  31.597  26.525  1.00  0.00     0.127 S 
ATOM     91  O   UNL A   1      52.288  31.969  27.048  1.00  0.00    -0.237 OA
ATOM     92  O   UNL A   1      50.937  30.320  25.809  1.00  0.00    -0.237 OA
ATOM     93  O   UNL A   1      50.224  32.666  25.885  1.00  0.00    -0.744 OA
ENDBRANCH  87  90
ENDBRANCH  59  83
BRANCH  71  94
ATOM     94  C   UNL A   1      42.629  27.053  27.234  1.00  0.00     0.023 A 
ATOM     95  C   UNL A   1      42.481  27.094  25.833  1.00  0.00     0.012 A 
ATOM     96  C   UNL A   1      42.763  25.808  27.878  1.00  0.00     0.148 A 
ATOM     97  C   UNL A   1      42.442  25.915  25.089  1.00  0.00     0.002 A 
ATOM     98  C   UNL A   1      42.769  24.639  27.126  1.00  0.00     0.091 A 
ATOM     99  F   UNL A   1      42.882  25.788  29.214  1.00  0.00    -0.205 F 
ATOM    100  C   UNL A   1      42.599  24.690  25.733  1.00  0.00     0.022 A 
BRANCH  98 101
ATOM    101  S   UNL A   1      43.058  23.026  27.862  1.00  0.00     0.127 S 
ATOM    102  O   UNL A   1      41.814  22.807  28.598  1.00  0.00    -0.237 OA
ATOM    103  O   UNL A   1      43.229  22.171  26.687  1.00  0.00    -0.237 OA
ATOM    104  O   UNL A   1      44.255  23.170  28.680  1.00  0.00    -0.744 OA
ENDBRANCH  98 101
ENDBRANCH  71  94
ENDBRANCH  45  46
ENDBRANCH  37  40
ENDBRANCH  35  36
ENDBRANCH   1  35
TORSDOF 18
ENDMDL
MODEL 3
REMARK VINA RESULT:     -11.4      5.155     11.601
REMARK SMILES CS(=O)(=O)c1ccc(/C=C(/C(=O)NCCCNC(=O)c2ccc(-c3c4nc(c(-c5cccc(S(=O)(=O)[O-])c5F)c5ccc([nH]5)c(-c5cccc(S(=O)(=O)[O-])c5F)c5nc(c(-c6cccc(S(=O)(=O)[O-])c6F)c6ccc3[nH]6)C=C5)C=C4)cc2)c2ccc(-c3ccc(S(C)(=O)=O)cc3)cc2)cc1
REMARK SMILES IDX 15 1 14 2 13 3 11 4 12 5 10 7 9 8 8 9 5 10 6 11 100 12 7 13
REMARK SMILES IDX 99 14 2 15 1 16 3 17 4 18 83 19 84 20 98 21 85 22 97 23
REMARK SMILES IDX 86 24 87 25 88 26 96 27 89 28 95 29 90 30 91 31 92 32 93 33
REMARK SMILES IDX 94 34 16 35 17 36 18 37 19 39 20 40 21 41 82 42 22 43 81 44
REMARK SMILES IDX 23 45 24 46 25 47 75 48 26 49 80 50 74 51 76 52 27 53 79 54
REMARK SMILES IDX 73 55 72 56 28 58 60 59 40 60 59 61 41 62 44 63 58 64 77 65
REMARK SMILES IDX 42 66 43 67 57 69 78 70 45 71 29 72 30 73 38 74 31 75 33 76
REMARK SMILES IDX 39 77 32 78 34 79 35 80 36 81 37 82 61 83 62 84 70 85 63 86
REMARK SMILES IDX 65 87 71 88 64 89 66 90 67 91 68 92 69 93 46 94 47 95 55 96
REMARK SMILES IDX 48 97 50 98 56 99 49 100 51 101 52 102 53 103 54 104
REMARK H PARENT 13 6 17 38 76 57 44 68
REMARK Flexibility Score: inf
ROOT
ATOM      1  C   UNL A   1      35.192  32.335  30.876  1.00  0.00     0.042 C 
ENDROOT
BRANCH   1   2
ATOM      2  C   UNL A   1      35.476  33.678  31.551  1.00  0.00     0.118 C 
BRANCH   2   3
ATOM      3  N   UNL A   1      36.783  34.184  31.172  1.00  0.00    -0.352 N 
ATOM      4  C   UNL A   1      37.973  34.298  31.813  1.00  0.00     0.251 C 
ATOM      5  O   UNL A   1      38.895  34.788  31.152  1.00  0.00    -0.269 OA
ATOM      6  H   UNL A   1      36.811  34.518  30.246  1.00  0.00     0.163 HD
BRANCH   4   7
ATOM      7  C   UNL A   1      38.226  33.781  33.212  1.00  0.00     0.047 C 
ATOM      8  C   UNL A   1      37.922  34.510  34.310  1.00  0.00     0.022 C 
BRANCH   8   9
ATOM      9  C   UNL A   1      38.019  34.145  35.741  1.00  0.00    -0.025 A 
ATOM     10  C   UNL A   1      38.282  33.629  38.495  1.00  0.00     0.067 A 
ATOM     11  C   UNL A   1      37.217  33.078  37.784  1.00  0.00     0.021 A 
ATOM     12  C   UNL A   1      39.243  34.398  37.836  1.00  0.00     0.021 A 
ATOM     13  C   UNL A   1      37.102  33.321  36.408  1.00  0.00     0.009 A 
ATOM     14  C   UNL A   1      39.111  34.648  36.466  1.00  0.00     0.009 A 
BRANCH  10  15
ATOM     15  S   UNL A   1      38.435  33.402  40.251  1.00  0.00     0.175 S 
ATOM     16  C   UNL A   1      36.890  32.734  40.803  1.00  0.00     0.163 C 
ATOM     17  O   UNL A   1      38.543  34.724  40.842  1.00  0.00    -0.224 OA
ATOM     18  O   UNL A   1      39.457  32.398  40.463  1.00  0.00    -0.224 OA
ENDBRANCH  10  15
ENDBRANCH   8   9
BRANCH   7  19
ATOM     19  C   UNL A   1      39.009  32.526  33.328  1.00  0.00    -0.013 A 
ATOM     20  C   UNL A   1      40.335  32.612  33.771  1.00  0.00     0.009 A 
ATOM     21  C   UNL A   1      38.457  31.261  33.100  1.00  0.00     0.009 A 
ATOM     22  C   UNL A   1      41.079  31.461  34.026  1.00  0.00     0.009 A 
ATOM     23  C   UNL A   1      39.202  30.106  33.380  1.00  0.00     0.009 A 
ATOM     24  C   UNL A   1      40.519  30.185  33.872  1.00  0.00    -0.018 A 
BRANCH  24  25
ATOM     25  C   UNL A   1      41.292  28.984  34.247  1.00  0.00    -0.018 A 
ATOM     26  C   UNL A   1      42.026  28.276  33.274  1.00  0.00     0.010 A 
ATOM     27  C   UNL A   1      41.319  28.504  35.567  1.00  0.00     0.010 A 
ATOM     28  C   UNL A   1      42.738  27.119  33.596  1.00  0.00     0.021 A 
ATOM     29  C   UNL A   1      42.029  27.346  35.901  1.00  0.00     0.021 A 
ATOM     30  C   UNL A   1      42.719  26.652  34.908  1.00  0.00     0.067 A 
BRANCH  30  31
ATOM     31  S   UNL A   1      43.592  25.156  35.298  1.00  0.00     0.175 S 
ATOM     32  C   UNL A   1      44.389  25.533  36.839  1.00  0.00     0.163 C 
ATOM     33  O   UNL A   1      42.602  24.128  35.533  1.00  0.00    -0.224 OA
ATOM     34  O   UNL A   1      44.633  24.976  34.299  1.00  0.00    -0.224 OA
ENDBRANCH  30  31
ENDBRANCH  24  25
ENDBRANCH   7  19
ENDBRANCH   4   7
ENDBRANCH   2   3
ENDBRANCH   1   2
BRANCH   1  35
ATOM     35  C   UNL A   1      35.226  32.393  29.348  1.00  0.00     0.118 C 
BRANCH  35  36
ATOM     36  N   UNL A   1      34.571  31.243  28.739  1.00  0.00    -0.352 N 
ATOM     37  C   UNL A   1      35.114  30.102  28.203  1.00  0.00     0.251 C 
ATOM     38  H   UNL A   1      33.588  31.291  28.708  1.00  0.00     0.163 HD
ATOM     39  O   UNL A   1      34.402  29.352  27.540  1.00  0.00    -0.269 OA
BRANCH  37  40
ATOM     40  C   UNL A   1      36.541  29.771  28.414  1.00  0.00     0.039 A 
ATOM     41  C   UNL A   1      36.937  29.249  29.649  1.00  0.00     0.014 A 
ATOM     42  C   UNL A   1      37.495  30.018  27.422  1.00  0.00     0.014 A 
ATOM     43  C   UNL A   1      38.279  28.933  29.873  1.00  0.00     0.010 A 
ATOM     44  C   UNL A   1      38.820  29.641  27.623  1.00  0.00     0.010 A 
ATOM     45  C   UNL A   1      39.229  29.105  28.853  1.00  0.00    -0.014 A 
BRANCH  45  46
ATOM     46  C   UNL A   1      40.650  28.716  29.049  1.00  0.00     0.031 A 
ATOM     47  C   UNL A   1      41.591  29.616  29.800  1.00  0.00     0.074 A 
ATOM     48  C   UNL A   1      41.118  27.602  28.453  1.00  0.00     0.049 A 
ATOM     49  N   UNL A   1      42.875  29.474  30.012  1.00  0.00    -0.248 NA
ATOM     50  C   UNL A   1      41.025  30.854  30.358  1.00  0.00     0.031 C 
ATOM     51  C   UNL A   1      40.328  26.701  27.612  1.00  0.00     0.029 A 
ATOM     52  N   UNL A   1      42.379  27.063  28.429  1.00  0.00    -0.354 N 
ATOM     53  C   UNL A   1      43.278  30.621  30.684  1.00  0.00     0.074 A 
ATOM     54  C   UNL A   1      42.109  31.461  30.821  1.00  0.00     0.031 C 
ATOM     55  C   UNL A   1      41.125  25.730  27.142  1.00  0.00     0.029 A 
ATOM     56  C   UNL A   1      42.484  25.949  27.629  1.00  0.00     0.049 A 
ATOM     57  H   UNL A   1      43.136  27.436  28.935  1.00  0.00     0.167 HD
ATOM     58  C   UNL A   1      44.504  30.935  31.168  1.00  0.00     0.034 A 
ATOM     59  C   UNL A   1      43.555  25.194  27.312  1.00  0.00     0.034 A 
ATOM     60  C   UNL A   1      45.651  30.071  31.078  1.00  0.00     0.049 A 
ATOM     61  C   UNL A   1      44.887  25.514  27.929  1.00  0.00     0.074 A 
ATOM     62  C   UNL A   1      46.901  30.238  31.647  1.00  0.00     0.029 A 
ATOM     63  N   UNL A   1      45.692  28.885  30.363  1.00  0.00    -0.354 N 
ATOM     64  N   UNL A   1      45.207  26.502  28.729  1.00  0.00    -0.248 NA
ATOM     65  C   UNL A   1      45.995  24.594  27.637  1.00  0.00     0.031 C 
ATOM     66  C   UNL A   1      47.704  29.159  31.260  1.00  0.00     0.029 A 
ATOM     67  C   UNL A   1      46.949  28.311  30.465  1.00  0.00     0.049 A 
ATOM     68  H   UNL A   1      44.938  28.504  29.857  1.00  0.00     0.167 HD
ATOM     69  C   UNL A   1      46.544  26.312  29.055  1.00  0.00     0.074 A 
ATOM     70  C   UNL A   1      46.968  25.099  28.385  1.00  0.00     0.031 C 
ATOM     71  C   UNL A   1      47.350  27.082  29.828  1.00  0.00     0.034 A 
BRANCH  58  72
ATOM     72  C   UNL A   1      44.650  32.250  31.890  1.00  0.00     0.023 A 
ATOM     73  C   UNL A   1      44.838  33.435  31.147  1.00  0.00     0.012 A 
ATOM     74  C   UNL A   1      44.572  32.323  33.295  1.00  0.00     0.148 A 
ATOM     75  C   UNL A   1      44.992  34.662  31.791  1.00  0.00     0.002 A 
ATOM     76  C   UNL A   1      44.683  33.558  33.927  1.00  0.00     0.091 A 
ATOM     77  F   UNL A   1      44.418  31.187  33.990  1.00  0.00    -0.205 F 
ATOM     78  C   UNL A   1      44.906  34.724  33.178  1.00  0.00     0.022 A 
BRANCH  76  79
ATOM     79  S   UNL A   1      44.507  33.741  35.706  1.00  0.00     0.127 S 
ATOM     80  O   UNL A   1      44.743  35.173  35.881  1.00  0.00    -0.237 OA
ATOM     81  O   UNL A   1      43.123  33.319  35.929  1.00  0.00    -0.237 OA
ATOM     82  O   UNL A   1      45.506  32.857  36.292  1.00  0.00    -0.744 OA
ENDBRANCH  76  79
ENDBRANCH  58  72
BRANCH  59  83
ATOM     83  C   UNL A   1      43.372  24.019  26.416  1.00  0.00     0.023 A 
ATOM     84  C   UNL A   1      44.015  23.997  25.164  1.00  0.00     0.012 A 
ATOM     85  C   UNL A   1      42.641  22.890  26.837  1.00  0.00     0.148 A 
ATOM     86  C   UNL A   1      43.920  22.877  24.337  1.00  0.00     0.002 A 
ATOM     87  C   UNL A   1      42.597  21.757  26.033  1.00  0.00     0.091 A 
ATOM     88  F   UNL A   1      42.034  22.937  28.030  1.00  0.00    -0.205 F 
ATOM     89  C   UNL A   1      43.224  21.754  24.777  1.00  0.00     0.022 A 
BRANCH  87  90
ATOM     90  S   UNL A   1      41.849  20.217  26.577  1.00  0.00     0.127 S 
ATOM     91  O   UNL A   1      42.643  19.901  27.761  1.00  0.00    -0.237 OA
ATOM     92  O   UNL A   1      40.473  20.633  26.850  1.00  0.00    -0.237 OA
ATOM     93  O   UNL A   1      41.987  19.294  25.459  1.00  0.00    -0.744 OA
ENDBRANCH  87  90
ENDBRANCH  59  83
BRANCH  71  94
ATOM     94  C   UNL A   1      48.778  26.637  30.008  1.00  0.00     0.023 A 
ATOM     95  C   UNL A   1      49.772  27.116  29.132  1.00  0.00     0.012 A 
ATOM     96  C   UNL A   1      49.147  25.813  31.089  1.00  0.00     0.148 A 
ATOM     97  C   UNL A   1      51.108  26.759  29.313  1.00  0.00     0.002 A 
ATOM     98  C   UNL A   1      50.487  25.498  31.290  1.00  0.00     0.091 A 
ATOM     99  F   UNL A   1      48.185  25.349  31.899  1.00  0.00    -0.205 F 
ATOM    100  C   UNL A   1      51.467  25.963  30.397  1.00  0.00     0.022 A 
BRANCH  98 101
ATOM    101  S   UNL A   1      51.049  24.556  32.712  1.00  0.00     0.127 S 
ATOM    102  O   UNL A   1      52.501  24.652  32.579  1.00  0.00    -0.237 OA
ATOM    103  O   UNL A   1      50.488  25.313  33.832  1.00  0.00    -0.237 OA
ATOM    104  O   UNL A   1      50.490  23.220  32.550  1.00  0.00    -0.744 OA
ENDBRANCH  98 101
ENDBRANCH  71  94
ENDBRANCH  45  46
ENDBRANCH  37  40
ENDBRANCH  35  36
ENDBRANCH   1  35
TORSDOF 18
ENDMDL
