MODEL 1
REMARK VINA RESULT:     -12.9      0.000      0.000
REMARK SMILES Cc1ccc(/C=C2/SC(=O)N(CC(=O)NCCCNC(=O)c3ccc(-c4c5nc(c(-c6cccc(S(=O)(=O)[O-])c6F)c6ccc([nH]6)c(-c6cccc(S(=O)(=O)[O-])c6F)c6nc(c(-c7cccc(S(=O)(=O)[O-])c7F)c7ccc4[nH]7)C=C6)C=C5)cc3)C2=O)cc1
REMARK SMILES IDX 17 1 16 2 15 3 13 4 14 5 12 7 11 8 6 9 7 10 8 11 85 12 9 13
REMARK SMILES IDX 86 14 10 15 5 16 1 17 2 18 3 19 88 20 4 21 87 22 18 23 19 24
REMARK SMILES IDX 20 25 21 27 22 28 23 29 84 30 24 31 83 32 25 33 26 34 27 35
REMARK SMILES IDX 77 36 28 37 82 38 76 39 78 40 29 41 81 42 75 43 74 44 30 46
REMARK SMILES IDX 62 47 42 48 61 49 43 50 46 51 60 52 79 53 44 54 45 55 59 57
REMARK SMILES IDX 80 58 47 59 31 60 32 61 40 62 33 63 35 64 41 65 34 66 36 67
REMARK SMILES IDX 37 68 38 69 39 70 63 71 64 72 72 73 65 74 67 75 73 76 66 77
REMARK SMILES IDX 68 78 69 79 70 80 71 81 48 82 49 83 57 84 50 85 52 86 58 87
REMARK SMILES IDX 51 88 53 89 54 90 55 91 56 92
REMARK H PARENT 15 6 19 26 78 45 46 56
REMARK Flexibility Score: inf
ROOT
ATOM      1  C   UNL A   1      37.898  20.689  25.171  1.00  0.00     0.042 C 
ENDROOT
BRANCH   1   2
ATOM      2  C   UNL A   1      36.385  20.648  25.055  1.00  0.00     0.117 C 
BRANCH   2   3
ATOM      3  N   UNL A   1      35.733  21.216  26.218  1.00  0.00    -0.354 N 
ATOM      4  C   UNL A   1      34.979  22.351  26.317  1.00  0.00     0.240 C 
ATOM      5  O   UNL A   1      34.323  22.518  27.345  1.00  0.00    -0.273 OA
ATOM      6  H   UNL A   1      35.850  20.713  27.056  1.00  0.00     0.163 HD
BRANCH   4   7
ATOM      7  C   UNL A   1      34.875  23.332  25.144  1.00  0.00     0.229 C 
BRANCH   7   8
ATOM      8  N   UNL A   1      33.500  23.654  24.811  1.00  0.00    -0.259 N 
ATOM      9  C   UNL A   1      30.769  26.056  24.776  1.00  0.00     0.029 C 
ATOM     10  C   UNL A   1      31.553  24.970  24.721  1.00  0.00     0.083 C 
ATOM     11  S   UNL A   1      31.075  23.489  23.974  1.00  0.00    -0.022 SA
ATOM     12  C   UNL A   1      32.941  24.829  25.254  1.00  0.00     0.268 C 
ATOM     13  C   UNL A   1      32.657  22.758  24.214  1.00  0.00     0.294 C 
ATOM     14  O   UNL A   1      33.489  25.608  26.018  1.00  0.00    -0.268 OA
ATOM     15  O   UNL A   1      32.908  21.616  23.889  1.00  0.00    -0.261 OA
BRANCH   9  16
ATOM     16  C   UNL A   1      31.186  27.313  25.399  1.00  0.00    -0.024 A 
ATOM     17  C   UNL A   1      32.942  30.745  27.311  1.00  0.00     0.044 C 
ATOM     18  C   UNL A   1      32.278  29.581  26.638  1.00  0.00    -0.051 A 
ATOM     19  C   UNL A   1      31.680  28.574  27.405  1.00  0.00     0.004 A 
ATOM     20  C   UNL A   1      32.272  29.473  25.244  1.00  0.00     0.004 A 
ATOM     21  C   UNL A   1      31.136  27.445  26.789  1.00  0.00     0.008 A 
ATOM     22  C   UNL A   1      31.721  28.349  24.626  1.00  0.00     0.008 A 
ENDBRANCH   9  16
ENDBRANCH   7   8
ENDBRANCH   4   7
ENDBRANCH   2   3
ENDBRANCH   1   2
BRANCH   1  23
ATOM     23  C   UNL A   1      38.446  22.073  25.455  1.00  0.00     0.118 C 
BRANCH  23  24
ATOM     24  N   UNL A   1      39.534  22.062  26.421  1.00  0.00    -0.352 N 
ATOM     25  C   UNL A   1      40.274  23.104  26.956  1.00  0.00     0.251 C 
ATOM     26  H   UNL A   1      39.784  21.169  26.749  1.00  0.00     0.163 HD
ATOM     27  O   UNL A   1      41.288  22.832  27.591  1.00  0.00    -0.269 OA
BRANCH  25  28
ATOM     28  C   UNL A   1      39.733  24.492  26.934  1.00  0.00     0.039 A 
ATOM     29  C   UNL A   1      40.517  25.416  26.232  1.00  0.00     0.014 A 
ATOM     30  C   UNL A   1      38.917  24.922  27.966  1.00  0.00     0.014 A 
ATOM     31  C   UNL A   1      40.790  26.643  26.815  1.00  0.00     0.010 A 
ATOM     32  C   UNL A   1      39.317  26.041  28.644  1.00  0.00     0.010 A 
ATOM     33  C   UNL A   1      40.306  26.863  28.091  1.00  0.00    -0.014 A 
BRANCH  33  34
ATOM     34  C   UNL A   1      40.608  28.006  28.916  1.00  0.00     0.031 A 
ATOM     35  C   UNL A   1      39.687  29.147  28.787  1.00  0.00     0.074 A 
ATOM     36  C   UNL A   1      41.452  27.829  29.955  1.00  0.00     0.049 A 
ATOM     37  N   UNL A   1      39.794  30.242  29.439  1.00  0.00    -0.248 NA
ATOM     38  C   UNL A   1      38.541  29.129  27.877  1.00  0.00     0.031 C 
ATOM     39  C   UNL A   1      41.475  28.544  31.223  1.00  0.00     0.029 A 
ATOM     40  N   UNL A   1      42.574  27.022  30.025  1.00  0.00    -0.354 N 
ATOM     41  C   UNL A   1      38.616  30.942  29.270  1.00  0.00     0.074 A 
ATOM     42  C   UNL A   1      37.910  30.250  28.227  1.00  0.00     0.031 C 
ATOM     43  C   UNL A   1      42.655  28.326  31.833  1.00  0.00     0.029 A 
ATOM     44  C   UNL A   1      43.501  27.619  30.885  1.00  0.00     0.049 A 
ATOM     45  H   UNL A   1      42.700  26.169  29.549  1.00  0.00     0.167 HD
ATOM     46  C   UNL A   1      38.349  31.938  30.157  1.00  0.00     0.034 A 
ATOM     47  C   UNL A   1      44.668  28.134  30.380  1.00  0.00     0.034 A 
ATOM     48  C   UNL A   1      39.535  32.169  30.998  1.00  0.00     0.049 A 
ATOM     49  C   UNL A   1      44.725  29.652  30.455  1.00  0.00     0.074 A 
ATOM     50  C   UNL A   1      39.899  31.708  32.252  1.00  0.00     0.029 A 
ATOM     51  N   UNL A   1      40.695  32.653  30.400  1.00  0.00    -0.354 N 
ATOM     52  N   UNL A   1      43.681  30.418  30.635  1.00  0.00    -0.248 NA
ATOM     53  C   UNL A   1      45.964  30.424  30.397  1.00  0.00     0.031 C 
ATOM     54  C   UNL A   1      41.315  31.819  32.356  1.00  0.00     0.029 A 
ATOM     55  C   UNL A   1      41.802  32.382  31.188  1.00  0.00     0.049 A 
ATOM     56  H   UNL A   1      40.725  33.123  29.536  1.00  0.00     0.167 HD
ATOM     57  C   UNL A   1      44.054  31.735  30.658  1.00  0.00     0.074 A 
ATOM     58  C   UNL A   1      45.503  31.679  30.549  1.00  0.00     0.031 C 
ATOM     59  C   UNL A   1      43.143  32.757  30.743  1.00  0.00     0.034 A 
BRANCH  46  60
ATOM     60  C   UNL A   1      36.988  32.537  30.473  1.00  0.00     0.023 A 
ATOM     61  C   UNL A   1      36.423  32.170  31.718  1.00  0.00     0.012 A 
ATOM     62  C   UNL A   1      36.175  33.354  29.649  1.00  0.00     0.148 A 
ATOM     63  C   UNL A   1      35.127  32.529  32.101  1.00  0.00     0.002 A 
ATOM     64  C   UNL A   1      34.874  33.710  30.027  1.00  0.00     0.091 A 
ATOM     65  F   UNL A   1      36.643  33.821  28.493  1.00  0.00    -0.205 F 
ATOM     66  C   UNL A   1      34.345  33.290  31.249  1.00  0.00     0.022 A 
BRANCH  64  67
ATOM     67  S   UNL A   1      33.779  34.694  28.982  1.00  0.00     0.127 S 
ATOM     68  O   UNL A   1      33.495  33.769  27.883  1.00  0.00    -0.237 OA
ATOM     69  O   UNL A   1      32.645  34.948  29.868  1.00  0.00    -0.237 OA
ATOM     70  O   UNL A   1      34.532  35.880  28.590  1.00  0.00    -0.744 OA
ENDBRANCH  64  67
ENDBRANCH  46  60
BRANCH  47  71
ATOM     71  C   UNL A   1      45.233  27.266  29.296  1.00  0.00     0.023 A 
ATOM     72  C   UNL A   1      45.529  25.931  29.675  1.00  0.00     0.012 A 
ATOM     73  C   UNL A   1      45.027  27.552  27.933  1.00  0.00     0.148 A 
ATOM     74  C   UNL A   1      45.402  24.883  28.763  1.00  0.00     0.002 A 
ATOM     75  C   UNL A   1      44.933  26.499  27.020  1.00  0.00     0.091 A 
ATOM     76  F   UNL A   1      44.859  28.827  27.563  1.00  0.00    -0.205 F 
ATOM     77  C   UNL A   1      45.056  25.165  27.447  1.00  0.00     0.022 A 
BRANCH  75  78
ATOM     78  S   UNL A   1      44.554  26.766  25.282  1.00  0.00     0.127 S 
ATOM     79  O   UNL A   1      43.858  25.529  24.940  1.00  0.00    -0.237 OA
ATOM     80  O   UNL A   1      43.698  27.952  25.323  1.00  0.00    -0.237 OA
ATOM     81  O   UNL A   1      45.839  26.977  24.633  1.00  0.00    -0.744 OA
ENDBRANCH  75  78
ENDBRANCH  47  71
BRANCH  59  82
ATOM     82  C   UNL A   1      43.439  34.217  30.439  1.00  0.00     0.023 A 
ATOM     83  C   UNL A   1      43.887  35.113  31.429  1.00  0.00     0.012 A 
ATOM     84  C   UNL A   1      43.433  34.709  29.105  1.00  0.00     0.148 A 
ATOM     85  C   UNL A   1      44.225  36.439  31.137  1.00  0.00     0.002 A 
ATOM     86  C   UNL A   1      43.901  35.985  28.803  1.00  0.00     0.091 A 
ATOM     87  F   UNL A   1      42.951  33.952  28.109  1.00  0.00    -0.205 F 
ATOM     88  C   UNL A   1      44.257  36.869  29.821  1.00  0.00     0.022 A 
BRANCH  86  89
ATOM     89  S   UNL A   1      44.231  36.481  27.105  1.00  0.00     0.127 S 
ATOM     90  O   UNL A   1      44.835  37.798  27.286  1.00  0.00    -0.237 OA
ATOM     91  O   UNL A   1      45.157  35.441  26.653  1.00  0.00    -0.237 OA
ATOM     92  O   UNL A   1      42.934  36.452  26.441  1.00  0.00    -0.744 OA
ENDBRANCH  86  89
ENDBRANCH  59  82
ENDBRANCH  33  34
ENDBRANCH  25  28
ENDBRANCH  23  24
ENDBRANCH   1  23
TORSDOF 15
ENDMDL
MODEL 2
REMARK VINA RESULT:     -12.9      3.758      9.475
REMARK SMILES Cc1ccc(/C=C2/SC(=O)N(CC(=O)NCCCNC(=O)c3ccc(-c4c5nc(c(-c6cccc(S(=O)(=O)[O-])c6F)c6ccc([nH]6)c(-c6cccc(S(=O)(=O)[O-])c6F)c6nc(c(-c7cccc(S(=O)(=O)[O-])c7F)c7ccc4[nH]7)C=C6)C=C5)cc3)C2=O)cc1
REMARK SMILES IDX 17 1 16 2 15 3 13 4 14 5 12 7 11 8 6 9 7 10 8 11 85 12 9 13
REMARK SMILES IDX 86 14 10 15 5 16 1 17 2 18 3 19 88 20 4 21 87 22 18 23 19 24
REMARK SMILES IDX 20 25 21 27 22 28 23 29 84 30 24 31 83 32 25 33 26 34 27 35
REMARK SMILES IDX 77 36 28 37 82 38 76 39 78 40 29 41 81 42 75 43 74 44 30 46
REMARK SMILES IDX 62 47 42 48 61 49 43 50 46 51 60 52 79 53 44 54 45 55 59 57
REMARK SMILES IDX 80 58 47 59 31 60 32 61 40 62 33 63 35 64 41 65 34 66 36 67
REMARK SMILES IDX 37 68 38 69 39 70 63 71 64 72 72 73 65 74 67 75 73 76 66 77
REMARK SMILES IDX 68 78 69 79 70 80 71 81 48 82 49 83 57 84 50 85 52 86 58 87
REMARK SMILES IDX 51 88 53 89 54 90 55 91 56 92
REMARK H PARENT 15 6 19 26 78 45 46 56
REMARK Flexibility Score: inf
ROOT
ATOM      1  C   UNL A   1      32.298  31.261  26.842  1.00  0.00     0.042 C 
ENDROOT
BRANCH   1   2
ATOM      2  C   UNL A   1      31.805  30.319  25.760  1.00  0.00     0.117 C 
BRANCH   2   3
ATOM      3  N   UNL A   1      32.880  29.867  24.899  1.00  0.00    -0.354 N 
ATOM      4  C   UNL A   1      33.366  28.603  24.715  1.00  0.00     0.240 C 
ATOM      5  O   UNL A   1      34.120  28.409  23.761  1.00  0.00    -0.273 OA
ATOM      6  H   UNL A   1      33.324  30.570  24.372  1.00  0.00     0.163 HD
BRANCH   4   7
ATOM      7  C   UNL A   1      32.907  27.445  25.608  1.00  0.00     0.229 C 
BRANCH   7   8
ATOM      8  N   UNL A   1      32.476  26.291  24.841  1.00  0.00    -0.259 N 
ATOM      9  C   UNL A   1      33.129  22.932  23.607  1.00  0.00     0.029 C 
ATOM     10  C   UNL A   1      32.660  24.163  23.856  1.00  0.00     0.083 C 
ATOM     11  S   UNL A   1      31.097  24.703  23.363  1.00  0.00    -0.022 SA
ATOM     12  C   UNL A   1      33.354  25.264  24.590  1.00  0.00     0.268 C 
ATOM     13  C   UNL A   1      31.272  26.243  24.194  1.00  0.00     0.294 C 
ATOM     14  O   UNL A   1      34.540  25.284  24.880  1.00  0.00    -0.268 OA
ATOM     15  O   UNL A   1      30.424  27.110  24.156  1.00  0.00    -0.261 OA
BRANCH   9  16
ATOM     16  C   UNL A   1      34.451  22.476  24.040  1.00  0.00    -0.024 A 
ATOM     17  C   UNL A   1      38.396  21.677  25.561  1.00  0.00     0.044 C 
ATOM     18  C   UNL A   1      37.020  21.899  25.009  1.00  0.00    -0.051 A 
ATOM     19  C   UNL A   1      36.854  22.509  23.759  1.00  0.00     0.004 A 
ATOM     20  C   UNL A   1      35.889  21.527  25.743  1.00  0.00     0.004 A 
ATOM     21  C   UNL A   1      35.576  22.796  23.276  1.00  0.00     0.008 A 
ATOM     22  C   UNL A   1      34.610  21.807  25.258  1.00  0.00     0.008 A 
ENDBRANCH   9  16
ENDBRANCH   7   8
ENDBRANCH   4   7
ENDBRANCH   2   3
ENDBRANCH   1   2
BRANCH   1  23
ATOM     23  C   UNL A   1      33.452  30.704  27.652  1.00  0.00     0.118 C 
BRANCH  23  24
ATOM     24  N   UNL A   1      34.556  31.643  27.781  1.00  0.00    -0.352 N 
ATOM     25  C   UNL A   1      35.838  31.463  28.273  1.00  0.00     0.251 C 
ATOM     26  H   UNL A   1      34.359  32.555  27.468  1.00  0.00     0.163 HD
ATOM     27  O   UNL A   1      36.525  32.458  28.485  1.00  0.00    -0.269 OA
BRANCH  25  28
ATOM     28  C   UNL A   1      36.428  30.097  28.338  1.00  0.00     0.039 A 
ATOM     29  C   UNL A   1      36.615  29.601  29.634  1.00  0.00     0.014 A 
ATOM     30  C   UNL A   1      37.234  29.652  27.305  1.00  0.00     0.014 A 
ATOM     31  C   UNL A   1      37.826  29.009  29.957  1.00  0.00     0.010 A 
ATOM     32  C   UNL A   1      38.497  29.245  27.639  1.00  0.00     0.010 A 
ATOM     33  C   UNL A   1      38.804  28.990  28.981  1.00  0.00    -0.014 A 
BRANCH  33  34
ATOM     34  C   UNL A   1      40.167  28.559  29.168  1.00  0.00     0.031 A 
ATOM     35  C   UNL A   1      40.413  27.120  28.974  1.00  0.00     0.074 A 
ATOM     36  C   UNL A   1      41.135  29.499  29.156  1.00  0.00     0.049 A 
ATOM     37  N   UNL A   1      41.556  26.558  29.095  1.00  0.00    -0.248 NA
ATOM     38  C   UNL A   1      39.346  26.184  28.618  1.00  0.00     0.031 C 
ATOM     39  C   UNL A   1      42.521  29.356  28.732  1.00  0.00     0.029 A 
ATOM     40  N   UNL A   1      41.088  30.789  29.656  1.00  0.00    -0.354 N 
ATOM     41  C   UNL A   1      41.450  25.286  28.568  1.00  0.00     0.074 A 
ATOM     42  C   UNL A   1      40.042  25.075  28.366  1.00  0.00     0.031 C 
ATOM     43  C   UNL A   1      43.235  30.399  29.192  1.00  0.00     0.029 A 
ATOM     44  C   UNL A   1      42.369  31.147  30.089  1.00  0.00     0.049 A 
ATOM     45  H   UNL A   1      40.287  31.361  29.700  1.00  0.00     0.167 HD
ATOM     46  C   UNL A   1      42.605  24.646  28.243  1.00  0.00     0.034 A 
ATOM     47  C   UNL A   1      42.617  31.301  31.429  1.00  0.00     0.034 A 
ATOM     48  C   UNL A   1      43.748  25.425  28.746  1.00  0.00     0.049 A 
ATOM     49  C   UNL A   1      43.529  30.220  31.990  1.00  0.00     0.074 A 
ATOM     50  C   UNL A   1      44.579  26.360  28.152  1.00  0.00     0.029 A 
ATOM     51  N   UNL A   1      43.905  25.571  30.121  1.00  0.00    -0.354 N 
ATOM     52  N   UNL A   1      43.771  29.083  31.393  1.00  0.00    -0.248 NA
ATOM     53  C   UNL A   1      44.289  30.359  33.230  1.00  0.00     0.031 C 
ATOM     54  C   UNL A   1      45.155  27.146  29.190  1.00  0.00     0.029 A 
ATOM     55  C   UNL A   1      44.707  26.664  30.410  1.00  0.00     0.049 A 
ATOM     56  H   UNL A   1      43.503  24.980  30.796  1.00  0.00     0.167 HD
ATOM     57  C   UNL A   1      44.629  28.324  32.143  1.00  0.00     0.074 A 
ATOM     58  C   UNL A   1      44.957  29.191  33.264  1.00  0.00     0.031 C 
ATOM     59  C   UNL A   1      44.979  27.045  31.794  1.00  0.00     0.034 A 
BRANCH  46  60
ATOM     60  C   UNL A   1      42.763  23.486  27.274  1.00  0.00     0.023 A 
ATOM     61  C   UNL A   1      41.842  22.423  27.425  1.00  0.00     0.012 A 
ATOM     62  C   UNL A   1      43.762  23.295  26.287  1.00  0.00     0.148 A 
ATOM     63  C   UNL A   1      41.932  21.229  26.703  1.00  0.00     0.002 A 
ATOM     64  C   UNL A   1      43.859  22.098  25.566  1.00  0.00     0.091 A 
ATOM     65  F   UNL A   1      44.628  24.268  26.010  1.00  0.00    -0.205 F 
ATOM     66  C   UNL A   1      42.951  21.060  25.779  1.00  0.00     0.022 A 
BRANCH  64  67
ATOM     67  S   UNL A   1      45.154  21.785  24.348  1.00  0.00     0.127 S 
ATOM     68  O   UNL A   1      44.692  20.543  23.724  1.00  0.00    -0.237 OA
ATOM     69  O   UNL A   1      45.066  22.964  23.488  1.00  0.00    -0.237 OA
ATOM     70  O   UNL A   1      46.403  21.656  25.090  1.00  0.00    -0.744 OA
ENDBRANCH  64  67
ENDBRANCH  46  60
BRANCH  47  71
ATOM     71  C   UNL A   1      41.471  31.963  32.134  1.00  0.00     0.023 A 
ATOM     72  C   UNL A   1      41.106  33.241  31.636  1.00  0.00     0.012 A 
ATOM     73  C   UNL A   1      40.519  31.223  32.860  1.00  0.00     0.148 A 
ATOM     74  C   UNL A   1      39.778  33.668  31.668  1.00  0.00     0.002 A 
ATOM     75  C   UNL A   1      39.198  31.674  32.913  1.00  0.00     0.091 A 
ATOM     76  F   UNL A   1      40.897  30.069  33.423  1.00  0.00    -0.205 F 
ATOM     77  C   UNL A   1      38.817  32.860  32.263  1.00  0.00     0.022 A 
BRANCH  75  78
ATOM     78  S   UNL A   1      37.894  30.731  33.717  1.00  0.00     0.127 S 
ATOM     79  O   UNL A   1      37.971  31.233  35.086  1.00  0.00    -0.237 OA
ATOM     80  O   UNL A   1      36.700  31.150  32.983  1.00  0.00    -0.237 OA
ATOM     81  O   UNL A   1      38.254  29.334  33.527  1.00  0.00    -0.744 OA
ENDBRANCH  75  78
ENDBRANCH  47  71
BRANCH  59  82
ATOM     82  C   UNL A   1      45.638  26.036  32.722  1.00  0.00     0.023 A 
ATOM     83  C   UNL A   1      47.036  25.951  32.864  1.00  0.00     0.012 A 
ATOM     84  C   UNL A   1      44.867  25.239  33.611  1.00  0.00     0.148 A 
ATOM     85  C   UNL A   1      47.642  25.070  33.767  1.00  0.00     0.002 A 
ATOM     86  C   UNL A   1      45.473  24.469  34.601  1.00  0.00     0.091 A 
ATOM     87  F   UNL A   1      43.532  25.199  33.497  1.00  0.00    -0.205 F 
ATOM     88  C   UNL A   1      46.860  24.347  34.654  1.00  0.00     0.022 A 
BRANCH  86  89
ATOM     89  S   UNL A   1      44.513  23.749  35.942  1.00  0.00     0.127 S 
ATOM     90  O   UNL A   1      43.504  22.983  35.214  1.00  0.00    -0.237 OA
ATOM     91  O   UNL A   1      45.512  22.935  36.637  1.00  0.00    -0.237 OA
ATOM     92  O   UNL A   1      44.027  24.884  36.715  1.00  0.00    -0.744 OA
ENDBRANCH  86  89
ENDBRANCH  59  82
ENDBRANCH  33  34
ENDBRANCH  25  28
ENDBRANCH  23  24
ENDBRANCH   1  23
TORSDOF 15
ENDMDL
MODEL 3
REMARK VINA RESULT:     -12.0      4.188      9.750
REMARK SMILES Cc1ccc(/C=C2/SC(=O)N(CC(=O)NCCCNC(=O)c3ccc(-c4c5nc(c(-c6cccc(S(=O)(=O)[O-])c6F)c6ccc([nH]6)c(-c6cccc(S(=O)(=O)[O-])c6F)c6nc(c(-c7cccc(S(=O)(=O)[O-])c7F)c7ccc4[nH]7)C=C6)C=C5)cc3)C2=O)cc1
REMARK SMILES IDX 17 1 16 2 15 3 13 4 14 5 12 7 11 8 6 9 7 10 8 11 85 12 9 13
REMARK SMILES IDX 86 14 10 15 5 16 1 17 2 18 3 19 88 20 4 21 87 22 18 23 19 24
REMARK SMILES IDX 20 25 21 27 22 28 23 29 84 30 24 31 83 32 25 33 26 34 27 35
REMARK SMILES IDX 77 36 28 37 82 38 76 39 78 40 29 41 81 42 75 43 74 44 30 46
REMARK SMILES IDX 62 47 42 48 61 49 43 50 46 51 60 52 79 53 44 54 45 55 59 57
REMARK SMILES IDX 80 58 47 59 31 60 32 61 40 62 33 63 35 64 41 65 34 66 36 67
REMARK SMILES IDX 37 68 38 69 39 70 63 71 64 72 72 73 65 74 67 75 73 76 66 77
REMARK SMILES IDX 68 78 69 79 70 80 71 81 48 82 49 83 57 84 50 85 52 86 58 87
REMARK SMILES IDX 51 88 53 89 54 90 55 91 56 92
REMARK H PARENT 15 6 19 26 78 45 46 56
REMARK Flexibility Score: inf
ROOT
ATOM      1  C   UNL A   1      35.101  30.344  27.656  1.00  0.00     0.042 C 
ENDROOT
BRANCH   1   2
ATOM      2  C   UNL A   1      33.704  30.701  27.184  1.00  0.00     0.117 C 
BRANCH   2   3
ATOM      3  N   UNL A   1      32.714  29.740  27.632  1.00  0.00    -0.354 N 
ATOM      4  C   UNL A   1      32.356  28.546  27.074  1.00  0.00     0.240 C 
ATOM      5  O   UNL A   1      31.666  27.780  27.747  1.00  0.00    -0.273 OA
ATOM      6  H   UNL A   1      32.231  29.984  28.455  1.00  0.00     0.163 HD
BRANCH   4   7
ATOM      7  C   UNL A   1      32.879  28.133  25.694  1.00  0.00     0.229 C 
BRANCH   7   8
ATOM      8  N   UNL A   1      31.849  27.532  24.867  1.00  0.00    -0.259 N 
ATOM      9  C   UNL A   1      30.338  24.558  23.416  1.00  0.00     0.029 C 
ATOM     10  C   UNL A   1      30.715  25.801  23.750  1.00  0.00     0.083 C 
ATOM     11  S   UNL A   1      29.818  27.213  23.324  1.00  0.00    -0.022 SA
ATOM     12  C   UNL A   1      31.921  26.200  24.536  1.00  0.00     0.268 C 
ATOM     13  C   UNL A   1      30.881  28.270  24.244  1.00  0.00     0.294 C 
ATOM     14  O   UNL A   1      32.866  25.474  24.801  1.00  0.00    -0.268 OA
ATOM     15  O   UNL A   1      30.739  29.475  24.278  1.00  0.00    -0.261 OA
BRANCH   9  16
ATOM     16  C   UNL A   1      31.096  23.364  23.793  1.00  0.00    -0.024 A 
ATOM     17  C   UNL A   1      33.759  20.232  25.065  1.00  0.00     0.044 C 
ATOM     18  C   UNL A   1      32.790  21.281  24.607  1.00  0.00    -0.051 A 
ATOM     19  C   UNL A   1      32.869  21.790  23.305  1.00  0.00     0.004 A 
ATOM     20  C   UNL A   1      31.818  21.782  25.479  1.00  0.00     0.004 A 
ATOM     21  C   UNL A   1      32.026  22.826  22.899  1.00  0.00     0.008 A 
ATOM     22  C   UNL A   1      30.969  22.813  25.072  1.00  0.00     0.008 A 
ENDBRANCH   9  16
ENDBRANCH   7   8
ENDBRANCH   4   7
ENDBRANCH   2   3
ENDBRANCH   1   2
BRANCH   1  23
ATOM     23  C   UNL A   1      35.886  31.532  28.176  1.00  0.00     0.118 C 
BRANCH  23  24
ATOM     24  N   UNL A   1      35.079  32.737  28.291  1.00  0.00    -0.352 N 
ATOM     25  C   UNL A   1      35.105  33.752  29.234  1.00  0.00     0.251 C 
ATOM     26  H   UNL A   1      34.405  32.850  27.583  1.00  0.00     0.163 HD
ATOM     27  O   UNL A   1      34.180  34.558  29.247  1.00  0.00    -0.269 OA
BRANCH  25  28
ATOM     28  C   UNL A   1      36.325  33.972  30.059  1.00  0.00     0.039 A 
ATOM     29  C   UNL A   1      37.484  34.257  29.328  1.00  0.00     0.014 A 
ATOM     30  C   UNL A   1      36.423  33.375  31.305  1.00  0.00     0.014 A 
ATOM     31  C   UNL A   1      38.657  33.588  29.643  1.00  0.00     0.010 A 
ATOM     32  C   UNL A   1      37.507  32.569  31.519  1.00  0.00     0.010 A 
ATOM     33  C   UNL A   1      38.596  32.634  30.641  1.00  0.00    -0.014 A 
BRANCH  33  34
ATOM     34  C   UNL A   1      39.662  31.735  31.007  1.00  0.00     0.031 A 
ATOM     35  C   UNL A   1      39.674  30.440  30.306  1.00  0.00     0.074 A 
ATOM     36  C   UNL A   1      40.724  32.249  31.663  1.00  0.00     0.049 A 
ATOM     37  N   UNL A   1      40.542  29.520  30.498  1.00  0.00    -0.248 NA
ATOM     38  C   UNL A   1      38.667  30.082  29.306  1.00  0.00     0.031 C 
ATOM     39  C   UNL A   1      42.106  31.793  31.628  1.00  0.00     0.029 A 
ATOM     40  N   UNL A   1      40.742  33.247  32.622  1.00  0.00    -0.354 N 
ATOM     41  C   UNL A   1      40.399  28.597  29.481  1.00  0.00     0.074 A 
ATOM     42  C   UNL A   1      39.171  28.947  28.821  1.00  0.00     0.031 C 
ATOM     43  C   UNL A   1      42.776  32.332  32.664  1.00  0.00     0.029 A 
ATOM     44  C   UNL A   1      41.796  32.997  33.507  1.00  0.00     0.049 A 
ATOM     45  H   UNL A   1      40.119  34.008  32.673  1.00  0.00     0.167 HD
ATOM     46  C   UNL A   1      41.438  27.748  29.258  1.00  0.00     0.034 A 
ATOM     47  C   UNL A   1      41.527  32.622  34.798  1.00  0.00     0.034 A 
ATOM     48  C   UNL A   1      42.424  27.895  30.342  1.00  0.00     0.049 A 
ATOM     49  C   UNL A   1      41.913  31.179  35.087  1.00  0.00     0.074 A 
ATOM     50  C   UNL A   1      43.589  28.635  30.454  1.00  0.00     0.029 A 
ATOM     51  N   UNL A   1      42.057  27.531  31.634  1.00  0.00    -0.354 N 
ATOM     52  N   UNL A   1      42.138  30.281  34.164  1.00  0.00    -0.248 NA
ATOM     53  C   UNL A   1      42.139  30.650  36.430  1.00  0.00     0.031 C 
ATOM     54  C   UNL A   1      43.857  28.807  31.842  1.00  0.00     0.029 A 
ATOM     55  C   UNL A   1      42.883  28.139  32.567  1.00  0.00     0.049 A 
ATOM     56  H   UNL A   1      41.314  26.926  31.856  1.00  0.00     0.167 HD
ATOM     57  C   UNL A   1      42.465  29.081  34.736  1.00  0.00     0.074 A 
ATOM     58  C   UNL A   1      42.495  29.381  36.160  1.00  0.00     0.031 C 
ATOM     59  C   UNL A   1      42.662  27.942  33.998  1.00  0.00     0.034 A 
BRANCH  46  60
ATOM     60  C   UNL A   1      41.728  26.978  27.981  1.00  0.00     0.023 A 
ATOM     61  C   UNL A   1      41.705  27.732  26.784  1.00  0.00     0.012 A 
ATOM     62  C   UNL A   1      41.943  25.586  27.824  1.00  0.00     0.148 A 
ATOM     63  C   UNL A   1      41.822  27.152  25.517  1.00  0.00     0.002 A 
ATOM     64  C   UNL A   1      42.055  25.001  26.556  1.00  0.00     0.091 A 
ATOM     65  F   UNL A   1      42.063  24.799  28.891  1.00  0.00    -0.205 F 
ATOM     66  C   UNL A   1      41.985  25.782  25.401  1.00  0.00     0.022 A 
BRANCH  64  67
ATOM     67  S   UNL A   1      42.264  23.225  26.306  1.00  0.00     0.127 S 
ATOM     68  O   UNL A   1      40.883  22.743  26.378  1.00  0.00    -0.237 OA
ATOM     69  O   UNL A   1      42.857  23.165  24.971  1.00  0.00    -0.237 OA
ATOM     70  O   UNL A   1      43.123  22.751  27.384  1.00  0.00    -0.744 OA
ENDBRANCH  64  67
ENDBRANCH  46  60
BRANCH  47  71
ATOM     71  C   UNL A   1      40.353  33.366  35.360  1.00  0.00     0.023 A 
ATOM     72  C   UNL A   1      39.107  32.691  35.278  1.00  0.00     0.012 A 
ATOM     73  C   UNL A   1      40.510  34.383  36.321  1.00  0.00     0.148 A 
ATOM     74  C   UNL A   1      38.132  32.867  36.261  1.00  0.00     0.002 A 
ATOM     75  C   UNL A   1      39.514  34.574  37.283  1.00  0.00     0.091 A 
ATOM     76  F   UNL A   1      41.644  35.094  36.324  1.00  0.00    -0.205 F 
ATOM     77  C   UNL A   1      38.360  33.773  37.290  1.00  0.00     0.022 A 
BRANCH  75  78
ATOM     78  S   UNL A   1      39.686  35.768  38.617  1.00  0.00     0.127 S 
ATOM     79  O   UNL A   1      41.032  35.476  39.101  1.00  0.00    -0.237 OA
ATOM     80  O   UNL A   1      39.557  37.047  37.917  1.00  0.00    -0.237 OA
ATOM     81  O   UNL A   1      38.598  35.478  39.539  1.00  0.00    -0.744 OA
ENDBRANCH  75  78
ENDBRANCH  47  71
BRANCH  59  82
ATOM     82  C   UNL A   1      42.692  26.530  34.563  1.00  0.00     0.023 A 
ATOM     83  C   UNL A   1      41.598  25.979  35.259  1.00  0.00     0.012 A 
ATOM     84  C   UNL A   1      43.764  25.643  34.276  1.00  0.00     0.148 A 
ATOM     85  C   UNL A   1      41.597  24.658  35.720  1.00  0.00     0.002 A 
ATOM     86  C   UNL A   1      43.697  24.294  34.617  1.00  0.00     0.091 A 
ATOM     87  F   UNL A   1      44.878  26.099  33.685  1.00  0.00    -0.205 F 
ATOM     88  C   UNL A   1      42.636  23.807  35.377  1.00  0.00     0.022 A 
BRANCH  86  89
ATOM     89  S   UNL A   1      44.871  23.104  33.951  1.00  0.00     0.127 S 
ATOM     90  O   UNL A   1      44.359  21.844  34.484  1.00  0.00    -0.237 OA
ATOM     91  O   UNL A   1      44.695  23.271  32.507  1.00  0.00    -0.237 OA
ATOM     92  O   UNL A   1      46.172  23.533  34.445  1.00  0.00    -0.744 OA
ENDBRANCH  86  89
ENDBRANCH  59  82
ENDBRANCH  33  34
ENDBRANCH  25  28
ENDBRANCH  23  24
ENDBRANCH   1  23
TORSDOF 15
ENDMDL
