MODEL 1
REMARK VINA RESULT:     -12.5      0.000      0.000
REMARK SMILES CC(C)=CCc1cccc2c(C(=O)NCCCNC(=O)c3ccc(-c4c5nc(c(-c6cccc(S(=O)(=O)[O-])c6F)c6ccc([nH]6)c(-c6cccc(S(=O)(=O)[O-])c6F)c6nc(c(-c7cccc(S(=O)(=O)[O-])c7F)c7ccc4[nH]7)C=C6)C=C5)cc3)c[nH]c12
REMARK SMILES IDX 16 1 15 2 14 3 12 4 13 5 11 7 6 8 7 9 86 10 8 11 10 12 85 13
REMARK SMILES IDX 9 14 84 15 5 17 4 18 1 19 2 20 3 21 17 22 18 23 19 24 20 26
REMARK SMILES IDX 21 27 22 28 83 29 23 30 82 31 24 32 25 33 26 34 76 35 27 36
REMARK SMILES IDX 81 37 75 38 77 39 28 40 80 41 74 42 73 43 29 45 61 46 41 47
REMARK SMILES IDX 60 48 42 49 45 50 59 51 78 52 43 53 44 54 58 56 79 57 46 58
REMARK SMILES IDX 30 59 31 60 39 61 32 62 34 63 40 64 33 65 35 66 36 67 37 68
REMARK SMILES IDX 38 69 62 70 63 71 71 72 64 73 66 74 72 75 65 76 67 77 68 78
REMARK SMILES IDX 69 79 70 80 47 81 48 82 56 83 49 84 51 85 57 86 50 87 52 88
REMARK SMILES IDX 53 89 54 90 55 91
REMARK H PARENT 14 6 85 16 18 25 77 44 45 55
REMARK Flexibility Score: inf
ROOT
ATOM      1  C   UNL A   1      35.006  21.838  26.146  1.00  0.00     0.042 C 
ENDROOT
BRANCH   1   2
ATOM      2  C   UNL A   1      33.749  22.564  25.719  1.00  0.00     0.118 C 
BRANCH   2   3
ATOM      3  N   UNL A   1      32.661  22.573  26.667  1.00  0.00    -0.352 N 
ATOM      4  C   UNL A   1      31.518  23.339  26.681  1.00  0.00     0.253 C 
ATOM      5  O   UNL A   1      30.721  23.123  27.598  1.00  0.00    -0.269 OA
ATOM      6  H   UNL A   1      32.749  21.938  27.414  1.00  0.00     0.163 HD
BRANCH   4   7
ATOM      7  C   UNL A   1      31.288  24.427  25.722  1.00  0.00     0.065 A 
ATOM      8  C   UNL A   1      30.829  27.777  24.331  1.00  0.00    -0.020 A 
ATOM      9  C   UNL A   1      31.305  28.635  25.338  1.00  0.00     0.006 A 
ATOM     10  C   UNL A   1      30.923  26.393  24.587  1.00  0.00     0.050 A 
ATOM     11  C   UNL A   1      31.982  28.143  26.443  1.00  0.00     0.001 A 
ATOM     12  C   UNL A   1      31.525  25.855  25.733  1.00  0.00     0.012 A 
ATOM     13  N   UNL A   1      30.495  25.330  23.828  1.00  0.00    -0.360 N 
ATOM     14  C   UNL A   1      32.162  26.769  26.603  1.00  0.00     0.011 A 
ATOM     15  C   UNL A   1      30.709  24.159  24.489  1.00  0.00     0.097 A 
ATOM     16  H   UNL A   1      30.093  25.406  22.932  1.00  0.00     0.166 HD
BRANCH   8  17
ATOM     17  C   UNL A   1      30.257  28.364  23.063  1.00  0.00     0.065 C 
BRANCH  17  18
ATOM     18  C   UNL A   1      29.599  29.698  23.260  1.00  0.00    -0.024 C 
ATOM     19  C   UNL A   1      27.235  28.901  22.988  1.00  0.00     0.039 C 
ATOM     20  C   UNL A   1      28.276  29.952  23.257  1.00  0.00    -0.080 C 
ATOM     21  C   UNL A   1      27.784  31.351  23.506  1.00  0.00     0.039 C 
ENDBRANCH  17  18
ENDBRANCH   8  17
ENDBRANCH   4   7
ENDBRANCH   2   3
ENDBRANCH   1   2
BRANCH   1  22
ATOM     22  C   UNL A   1      36.227  22.087  25.283  1.00  0.00     0.118 C 
BRANCH  22  23
ATOM     23  N   UNL A   1      37.281  21.088  25.436  1.00  0.00    -0.352 N 
ATOM     24  C   UNL A   1      38.583  21.194  25.870  1.00  0.00     0.251 C 
ATOM     25  H   UNL A   1      37.012  20.175  25.183  1.00  0.00     0.163 HD
ATOM     26  O   UNL A   1      39.318  20.210  25.800  1.00  0.00    -0.269 OA
BRANCH  24  27
ATOM     27  C   UNL A   1      39.120  22.476  26.382  1.00  0.00     0.039 A 
ATOM     28  C   UNL A   1      40.212  22.461  27.258  1.00  0.00     0.014 A 
ATOM     29  C   UNL A   1      38.562  23.696  26.008  1.00  0.00     0.014 A 
ATOM     30  C   UNL A   1      40.791  23.666  27.671  1.00  0.00     0.010 A 
ATOM     31  C   UNL A   1      39.223  24.882  26.300  1.00  0.00     0.010 A 
ATOM     32  C   UNL A   1      40.335  24.888  27.152  1.00  0.00    -0.014 A 
BRANCH  32  33
ATOM     33  C   UNL A   1      40.981  26.183  27.492  1.00  0.00     0.031 A 
ATOM     34  C   UNL A   1      42.409  26.445  27.084  1.00  0.00     0.074 A 
ATOM     35  C   UNL A   1      40.324  27.080  28.257  1.00  0.00     0.049 A 
ATOM     36  N   UNL A   1      43.173  27.470  27.363  1.00  0.00    -0.248 NA
ATOM     37  C   UNL A   1      43.084  25.400  26.293  1.00  0.00     0.031 C 
ATOM     38  C   UNL A   1      38.975  26.908  28.799  1.00  0.00     0.029 A 
ATOM     39  N   UNL A   1      40.717  28.307  28.736  1.00  0.00    -0.354 N 
ATOM     40  C   UNL A   1      44.421  27.171  26.828  1.00  0.00     0.074 A 
ATOM     41  C   UNL A   1      44.328  25.850  26.250  1.00  0.00     0.031 C 
ATOM     42  C   UNL A   1      38.647  27.990  29.522  1.00  0.00     0.029 A 
ATOM     43  C   UNL A   1      39.773  28.918  29.529  1.00  0.00     0.049 A 
ATOM     44  H   UNL A   1      41.591  28.710  28.532  1.00  0.00     0.167 HD
ATOM     45  C   UNL A   1      45.535  27.939  26.787  1.00  0.00     0.034 A 
ATOM     46  C   UNL A   1      39.811  30.090  30.193  1.00  0.00     0.034 A 
ATOM     47  C   UNL A   1      45.607  29.275  27.310  1.00  0.00     0.049 A 
ATOM     48  C   UNL A   1      41.040  30.950  30.081  1.00  0.00     0.074 A 
ATOM     49  C   UNL A   1      46.653  30.176  27.227  1.00  0.00     0.029 A 
ATOM     50  N   UNL A   1      44.593  29.901  28.019  1.00  0.00    -0.354 N 
ATOM     51  N   UNL A   1      42.154  30.719  29.429  1.00  0.00    -0.248 NA
ATOM     52  C   UNL A   1      41.005  32.252  30.765  1.00  0.00     0.031 C 
ATOM     53  C   UNL A   1      46.282  31.338  27.912  1.00  0.00     0.029 A 
ATOM     54  C   UNL A   1      44.992  31.173  28.390  1.00  0.00     0.049 A 
ATOM     55  H   UNL A   1      43.719  29.500  28.228  1.00  0.00     0.167 HD
ATOM     56  C   UNL A   1      42.936  31.857  29.592  1.00  0.00     0.074 A 
ATOM     57  C   UNL A   1      42.159  32.786  30.386  1.00  0.00     0.031 C 
ATOM     58  C   UNL A   1      44.187  32.105  29.136  1.00  0.00     0.034 A 
BRANCH  45  59
ATOM     59  C   UNL A   1      46.755  27.371  26.106  1.00  0.00     0.023 A 
ATOM     60  C   UNL A   1      46.920  27.536  24.714  1.00  0.00     0.012 A 
ATOM     61  C   UNL A   1      47.761  26.722  26.847  1.00  0.00     0.148 A 
ATOM     62  C   UNL A   1      48.045  27.031  24.066  1.00  0.00     0.002 A 
ATOM     63  C   UNL A   1      48.905  26.266  26.202  1.00  0.00     0.091 A 
ATOM     64  F   UNL A   1      47.580  26.556  28.164  1.00  0.00    -0.205 F 
ATOM     65  C   UNL A   1      49.041  26.406  24.810  1.00  0.00     0.022 A 
BRANCH  63  66
ATOM     66  S   UNL A   1      50.285  25.524  27.079  1.00  0.00     0.127 S 
ATOM     67  O   UNL A   1      49.677  24.305  27.610  1.00  0.00    -0.237 OA
ATOM     68  O   UNL A   1      51.251  25.304  26.003  1.00  0.00    -0.237 OA
ATOM     69  O   UNL A   1      50.698  26.501  28.078  1.00  0.00    -0.744 OA
ENDBRANCH  63  66
ENDBRANCH  45  59
BRANCH  46  70
ATOM     70  C   UNL A   1      38.622  30.548  30.968  1.00  0.00     0.023 A 
ATOM     71  C   UNL A   1      38.565  30.311  32.355  1.00  0.00     0.012 A 
ATOM     72  C   UNL A   1      37.563  31.238  30.346  1.00  0.00     0.148 A 
ATOM     73  C   UNL A   1      37.460  30.720  33.103  1.00  0.00     0.002 A 
ATOM     74  C   UNL A   1      36.492  31.693  31.106  1.00  0.00     0.091 A 
ATOM     75  F   UNL A   1      37.632  31.446  29.023  1.00  0.00    -0.205 F 
ATOM     76  C   UNL A   1      36.429  31.419  32.482  1.00  0.00     0.022 A 
BRANCH  74  77
ATOM     77  S   UNL A   1      35.185  32.714  30.418  1.00  0.00     0.127 S 
ATOM     78  O   UNL A   1      34.683  31.869  29.338  1.00  0.00    -0.237 OA
ATOM     79  O   UNL A   1      34.282  32.858  31.560  1.00  0.00    -0.237 OA
ATOM     80  O   UNL A   1      35.830  33.953  30.003  1.00  0.00    -0.744 OA
ENDBRANCH  74  77
ENDBRANCH  46  70
BRANCH  58  81
ATOM     81  C   UNL A   1      44.790  33.451  29.444  1.00  0.00     0.023 A 
ATOM     82  C   UNL A   1      45.529  33.638  30.629  1.00  0.00     0.012 A 
ATOM     83  C   UNL A   1      44.685  34.509  28.519  1.00  0.00     0.148 A 
ATOM     84  C   UNL A   1      46.123  34.869  30.906  1.00  0.00     0.002 A 
ATOM     85  C   UNL A   1      45.324  35.714  28.776  1.00  0.00     0.091 A 
ATOM     86  F   UNL A   1      43.963  34.315  27.406  1.00  0.00    -0.205 F 
ATOM     87  C   UNL A   1      46.033  35.901  29.975  1.00  0.00     0.022 A 
BRANCH  85  88
ATOM     88  S   UNL A   1      45.346  37.064  27.590  1.00  0.00     0.127 S 
ATOM     89  O   UNL A   1      43.924  37.387  27.481  1.00  0.00    -0.237 OA
ATOM     90  O   UNL A   1      46.149  38.072  28.284  1.00  0.00    -0.237 OA
ATOM     91  O   UNL A   1      45.961  36.528  26.383  1.00  0.00    -0.744 OA
ENDBRANCH  85  88
ENDBRANCH  58  81
ENDBRANCH  32  33
ENDBRANCH  24  27
ENDBRANCH  22  23
ENDBRANCH   1  22
TORSDOF 15
ENDMDL
MODEL 2
REMARK VINA RESULT:     -12.4      1.729      2.368
REMARK SMILES CC(C)=CCc1cccc2c(C(=O)NCCCNC(=O)c3ccc(-c4c5nc(c(-c6cccc(S(=O)(=O)[O-])c6F)c6ccc([nH]6)c(-c6cccc(S(=O)(=O)[O-])c6F)c6nc(c(-c7cccc(S(=O)(=O)[O-])c7F)c7ccc4[nH]7)C=C6)C=C5)cc3)c[nH]c12
REMARK SMILES IDX 16 1 15 2 14 3 12 4 13 5 11 7 6 8 7 9 86 10 8 11 10 12 85 13
REMARK SMILES IDX 9 14 84 15 5 17 4 18 1 19 2 20 3 21 17 22 18 23 19 24 20 26
REMARK SMILES IDX 21 27 22 28 83 29 23 30 82 31 24 32 25 33 26 34 76 35 27 36
REMARK SMILES IDX 81 37 75 38 77 39 28 40 80 41 74 42 73 43 29 45 61 46 41 47
REMARK SMILES IDX 60 48 42 49 45 50 59 51 78 52 43 53 44 54 58 56 79 57 46 58
REMARK SMILES IDX 30 59 31 60 39 61 32 62 34 63 40 64 33 65 35 66 36 67 37 68
REMARK SMILES IDX 38 69 62 70 63 71 71 72 64 73 66 74 72 75 65 76 67 77 68 78
REMARK SMILES IDX 69 79 70 80 47 81 48 82 56 83 49 84 51 85 57 86 50 87 52 88
REMARK SMILES IDX 53 89 54 90 55 91
REMARK H PARENT 14 6 85 16 18 25 77 44 45 55
REMARK Flexibility Score: inf
ROOT
ATOM      1  C   UNL A   1      35.977  21.557  24.627  1.00  0.00     0.042 C 
ENDROOT
BRANCH   1   2
ATOM      2  C   UNL A   1      35.003  21.424  25.778  1.00  0.00     0.118 C 
BRANCH   2   3
ATOM      3  N   UNL A   1      34.060  20.335  25.696  1.00  0.00    -0.352 N 
ATOM      4  C   UNL A   1      32.747  20.343  25.285  1.00  0.00     0.253 C 
ATOM      5  O   UNL A   1      32.165  19.254  25.277  1.00  0.00    -0.269 OA
ATOM      6  H   UNL A   1      34.406  19.457  25.975  1.00  0.00     0.163 HD
BRANCH   4   7
ATOM      7  C   UNL A   1      32.030  21.583  24.962  1.00  0.00     0.065 A 
ATOM      8  C   UNL A   1      31.241  24.855  23.534  1.00  0.00    -0.020 A 
ATOM      9  C   UNL A   1      32.174  25.009  22.493  1.00  0.00     0.006 A 
ATOM     10  C   UNL A   1      31.290  23.639  24.248  1.00  0.00     0.050 A 
ATOM     11  C   UNL A   1      32.980  23.957  22.086  1.00  0.00     0.001 A 
ATOM     12  C   UNL A   1      32.149  22.582  23.921  1.00  0.00     0.012 A 
ATOM     13  N   UNL A   1      30.555  23.232  25.335  1.00  0.00    -0.360 N 
ATOM     14  C   UNL A   1      32.914  22.727  22.741  1.00  0.00     0.011 A 
ATOM     15  C   UNL A   1      30.983  22.013  25.766  1.00  0.00     0.097 A 
ATOM     16  H   UNL A   1      29.823  23.748  25.743  1.00  0.00     0.166 HD
BRANCH   8  17
ATOM     17  C   UNL A   1      30.263  25.968  23.827  1.00  0.00     0.065 C 
BRANCH  17  18
ATOM     18  C   UNL A   1      30.907  27.316  23.963  1.00  0.00    -0.024 C 
ATOM     19  C   UNL A   1      31.299  27.205  26.439  1.00  0.00     0.039 C 
ATOM     20  C   UNL A   1      31.392  27.868  25.093  1.00  0.00    -0.080 C 
ATOM     21  C   UNL A   1      32.041  29.223  25.043  1.00  0.00     0.039 C 
ENDBRANCH  17  18
ENDBRANCH   8  17
ENDBRANCH   4   7
ENDBRANCH   2   3
ENDBRANCH   1   2
BRANCH   1  22
ATOM     22  C   UNL A   1      37.324  22.156  24.980  1.00  0.00     0.118 C 
BRANCH  22  23
ATOM     23  N   UNL A   1      38.288  21.194  25.505  1.00  0.00    -0.352 N 
ATOM     24  C   UNL A   1      39.435  21.362  26.246  1.00  0.00     0.251 C 
ATOM     25  H   UNL A   1      38.079  20.255  25.290  1.00  0.00     0.163 HD
ATOM     26  O   UNL A   1      40.148  20.386  26.474  1.00  0.00    -0.269 OA
BRANCH  24  27
ATOM     27  C   UNL A   1      39.841  22.699  26.739  1.00  0.00     0.039 A 
ATOM     28  C   UNL A   1      40.832  22.795  27.723  1.00  0.00     0.014 A 
ATOM     29  C   UNL A   1      39.259  23.862  26.242  1.00  0.00     0.014 A 
ATOM     30  C   UNL A   1      41.295  24.052  28.127  1.00  0.00     0.010 A 
ATOM     31  C   UNL A   1      39.817  25.100  26.534  1.00  0.00     0.010 A 
ATOM     32  C   UNL A   1      40.829  25.216  27.496  1.00  0.00    -0.014 A 
BRANCH  32  33
ATOM     33  C   UNL A   1      41.361  26.564  27.829  1.00  0.00     0.031 A 
ATOM     34  C   UNL A   1      42.796  26.909  27.515  1.00  0.00     0.074 A 
ATOM     35  C   UNL A   1      40.591  27.442  28.506  1.00  0.00     0.049 A 
ATOM     36  N   UNL A   1      43.467  27.993  27.807  1.00  0.00    -0.248 NA
ATOM     37  C   UNL A   1      43.595  25.885  26.819  1.00  0.00     0.031 C 
ATOM     38  C   UNL A   1      39.219  27.196  28.955  1.00  0.00     0.029 A 
ATOM     39  N   UNL A   1      40.865  28.708  28.962  1.00  0.00    -0.354 N 
ATOM     40  C   UNL A   1      44.769  27.762  27.377  1.00  0.00     0.074 A 
ATOM     41  C   UNL A   1      44.807  26.417  26.848  1.00  0.00     0.031 C 
ATOM     42  C   UNL A   1      38.767  28.279  29.607  1.00  0.00     0.029 A 
ATOM     43  C   UNL A   1      39.825  29.281  29.658  1.00  0.00     0.049 A 
ATOM     44  H   UNL A   1      41.724  29.163  28.805  1.00  0.00     0.167 HD
ATOM     45  C   UNL A   1      45.830  28.602  27.385  1.00  0.00     0.034 A 
ATOM     46  C   UNL A   1      39.736  30.476  30.275  1.00  0.00     0.034 A 
ATOM     47  C   UNL A   1      45.774  29.957  27.857  1.00  0.00     0.049 A 
ATOM     48  C   UNL A   1      40.911  31.415  30.217  1.00  0.00     0.074 A 
ATOM     49  C   UNL A   1      46.762  30.925  27.813  1.00  0.00     0.029 A 
ATOM     50  N   UNL A   1      44.671  30.537  28.463  1.00  0.00    -0.354 N 
ATOM     51  N   UNL A   1      42.084  31.236  29.657  1.00  0.00    -0.248 NA
ATOM     52  C   UNL A   1      40.739  32.734  30.843  1.00  0.00     0.031 C 
ATOM     53  C   UNL A   1      46.265  32.083  28.421  1.00  0.00     0.029 A 
ATOM     54  C   UNL A   1      44.956  31.847  28.810  1.00  0.00     0.049 A 
ATOM     55  H   UNL A   1      43.812  30.085  28.624  1.00  0.00     0.167 HD
ATOM     56  C   UNL A   1      42.775  32.431  29.830  1.00  0.00     0.074 A 
ATOM     57  C   UNL A   1      41.881  33.333  30.527  1.00  0.00     0.031 C 
ATOM     58  C   UNL A   1      44.038  32.748  29.457  1.00  0.00     0.034 A 
BRANCH  45  59
ATOM     59  C   UNL A   1      47.133  28.095  26.819  1.00  0.00     0.023 A 
ATOM     60  C   UNL A   1      48.164  27.687  27.691  1.00  0.00     0.012 A 
ATOM     61  C   UNL A   1      47.317  27.972  25.428  1.00  0.00     0.148 A 
ATOM     62  C   UNL A   1      49.371  27.203  27.190  1.00  0.00     0.002 A 
ATOM     63  C   UNL A   1      48.503  27.440  24.936  1.00  0.00     0.091 A 
ATOM     64  F   UNL A   1      46.336  28.382  24.613  1.00  0.00    -0.205 F 
ATOM     65  C   UNL A   1      49.536  27.070  25.814  1.00  0.00     0.022 A 
BRANCH  63  66
ATOM     66  S   UNL A   1      48.784  27.146  23.187  1.00  0.00     0.127 S 
ATOM     67  O   UNL A   1      48.119  25.859  22.993  1.00  0.00    -0.237 OA
ATOM     68  O   UNL A   1      48.101  28.284  22.571  1.00  0.00    -0.237 OA
ATOM     69  O   UNL A   1      50.229  27.135  23.008  1.00  0.00    -0.744 OA
ENDBRANCH  63  66
ENDBRANCH  45  59
BRANCH  46  70
ATOM     70  C   UNL A   1      38.465  30.880  30.941  1.00  0.00     0.023 A 
ATOM     71  C   UNL A   1      38.298  30.639  32.319  1.00  0.00     0.012 A 
ATOM     72  C   UNL A   1      37.434  31.522  30.227  1.00  0.00     0.148 A 
ATOM     73  C   UNL A   1      37.114  30.997  32.967  1.00  0.00     0.002 A 
ATOM     74  C   UNL A   1      36.282  31.927  30.890  1.00  0.00     0.091 A 
ATOM     75  F   UNL A   1      37.609  31.734  28.915  1.00  0.00    -0.205 F 
ATOM     76  C   UNL A   1      36.111  31.649  32.256  1.00  0.00     0.022 A 
BRANCH  74  77
ATOM     77  S   UNL A   1      34.995  32.889  30.087  1.00  0.00     0.127 S 
ATOM     78  O   UNL A   1      34.100  33.182  31.203  1.00  0.00    -0.237 OA
ATOM     79  O   UNL A   1      35.748  34.038  29.582  1.00  0.00    -0.237 OA
ATOM     80  O   UNL A   1      34.449  32.027  29.047  1.00  0.00    -0.744 OA
ENDBRANCH  74  77
ENDBRANCH  46  70
BRANCH  58  81
ATOM     81  C   UNL A   1      44.526  34.142  29.752  1.00  0.00     0.023 A 
ATOM     82  C   UNL A   1      45.130  34.429  30.992  1.00  0.00     0.012 A 
ATOM     83  C   UNL A   1      44.452  35.148  28.769  1.00  0.00     0.148 A 
ATOM     84  C   UNL A   1      45.620  35.707  31.262  1.00  0.00     0.002 A 
ATOM     85  C   UNL A   1      44.989  36.403  29.024  1.00  0.00     0.091 A 
ATOM     86  F   UNL A   1      43.857  34.858  27.602  1.00  0.00    -0.205 F 
ATOM     87  C   UNL A   1      45.562  36.689  30.275  1.00  0.00     0.022 A 
BRANCH  85  88
ATOM     88  S   UNL A   1      45.049  37.696  27.779  1.00  0.00     0.127 S 
ATOM     89  O   UNL A   1      43.636  37.842  27.433  1.00  0.00    -0.237 OA
ATOM     90  O   UNL A   1      45.614  38.820  28.527  1.00  0.00    -0.237 OA
ATOM     91  O   UNL A   1      45.905  37.188  26.714  1.00  0.00    -0.744 OA
ENDBRANCH  85  88
ENDBRANCH  58  81
ENDBRANCH  32  33
ENDBRANCH  24  27
ENDBRANCH  22  23
ENDBRANCH   1  22
TORSDOF 15
ENDMDL
MODEL 3
REMARK VINA RESULT:     -12.4      5.316     10.473
REMARK SMILES CC(C)=CCc1cccc2c(C(=O)NCCCNC(=O)c3ccc(-c4c5nc(c(-c6cccc(S(=O)(=O)[O-])c6F)c6ccc([nH]6)c(-c6cccc(S(=O)(=O)[O-])c6F)c6nc(c(-c7cccc(S(=O)(=O)[O-])c7F)c7ccc4[nH]7)C=C6)C=C5)cc3)c[nH]c12
REMARK SMILES IDX 16 1 15 2 14 3 12 4 13 5 11 7 6 8 7 9 86 10 8 11 10 12 85 13
REMARK SMILES IDX 9 14 84 15 5 17 4 18 1 19 2 20 3 21 17 22 18 23 19 24 20 26
REMARK SMILES IDX 21 27 22 28 83 29 23 30 82 31 24 32 25 33 26 34 76 35 27 36
REMARK SMILES IDX 81 37 75 38 77 39 28 40 80 41 74 42 73 43 29 45 61 46 41 47
REMARK SMILES IDX 60 48 42 49 45 50 59 51 78 52 43 53 44 54 58 56 79 57 46 58
REMARK SMILES IDX 30 59 31 60 39 61 32 62 34 63 40 64 33 65 35 66 36 67 37 68
REMARK SMILES IDX 38 69 62 70 63 71 71 72 64 73 66 74 72 75 65 76 67 77 68 78
REMARK SMILES IDX 69 79 70 80 47 81 48 82 56 83 49 84 51 85 57 86 50 87 52 88
REMARK SMILES IDX 53 89 54 90 55 91
REMARK H PARENT 14 6 85 16 18 25 77 44 45 55
REMARK Flexibility Score: inf
ROOT
ATOM      1  C   UNL A   1      31.756  28.710  25.021  1.00  0.00     0.042 C 
ENDROOT
BRANCH   1   2
ATOM      2  C   UNL A   1      32.129  27.290  24.654  1.00  0.00     0.118 C 
BRANCH   2   3
ATOM      3  N   UNL A   1      32.768  27.106  23.373  1.00  0.00    -0.352 N 
ATOM      4  C   UNL A   1      33.151  25.944  22.744  1.00  0.00     0.253 C 
ATOM      5  O   UNL A   1      33.652  26.063  21.623  1.00  0.00    -0.269 OA
ATOM      6  H   UNL A   1      32.958  27.934  22.875  1.00  0.00     0.163 HD
BRANCH   4   7
ATOM      7  C   UNL A   1      33.066  24.631  23.397  1.00  0.00     0.065 A 
ATOM      8  C   UNL A   1      34.026  21.544  25.105  1.00  0.00    -0.020 A 
ATOM      9  C   UNL A   1      35.322  21.806  25.583  1.00  0.00     0.006 A 
ATOM     10  C   UNL A   1      33.382  22.599  24.424  1.00  0.00     0.050 A 
ATOM     11  C   UNL A   1      35.864  23.081  25.535  1.00  0.00     0.001 A 
ATOM     12  C   UNL A   1      33.931  23.880  24.280  1.00  0.00     0.012 A 
ATOM     13  N   UNL A   1      32.155  22.621  23.805  1.00  0.00    -0.360 N 
ATOM     14  C   UNL A   1      35.145  24.129  24.961  1.00  0.00     0.011 A 
ATOM     15  C   UNL A   1      31.955  23.822  23.195  1.00  0.00     0.097 A 
ATOM     16  H   UNL A   1      31.513  21.876  23.805  1.00  0.00     0.166 HD
BRANCH   8  17
ATOM     17  C   UNL A   1      33.409  20.186  25.336  1.00  0.00     0.065 C 
BRANCH  17  18
ATOM     18  C   UNL A   1      33.872  19.139  24.365  1.00  0.00    -0.024 C 
ATOM     19  C   UNL A   1      32.541  17.241  25.325  1.00  0.00     0.039 C 
ATOM     20  C   UNL A   1      33.485  17.849  24.326  1.00  0.00    -0.080 C 
ATOM     21  C   UNL A   1      34.027  16.940  23.257  1.00  0.00     0.039 C 
ENDBRANCH  17  18
ENDBRANCH   8  17
ENDBRANCH   4   7
ENDBRANCH   2   3
ENDBRANCH   1   2
BRANCH   1  22
ATOM     22  C   UNL A   1      32.921  29.638  25.300  1.00  0.00     0.118 C 
BRANCH  22  23
ATOM     23  N   UNL A   1      32.554  30.865  26.002  1.00  0.00    -0.352 N 
ATOM     24  C   UNL A   1      33.134  31.517  27.066  1.00  0.00     0.251 C 
ATOM     25  H   UNL A   1      31.745  31.304  25.650  1.00  0.00     0.163 HD
ATOM     26  O   UNL A   1      32.562  32.489  27.555  1.00  0.00    -0.269 OA
BRANCH  24  27
ATOM     27  C   UNL A   1      34.412  31.046  27.650  1.00  0.00     0.039 A 
ATOM     28  C   UNL A   1      35.433  31.969  27.900  1.00  0.00     0.014 A 
ATOM     29  C   UNL A   1      34.616  29.703  27.959  1.00  0.00     0.014 A 
ATOM     30  C   UNL A   1      36.606  31.556  28.542  1.00  0.00     0.010 A 
ATOM     31  C   UNL A   1      35.712  29.323  28.722  1.00  0.00     0.010 A 
ATOM     32  C   UNL A   1      36.733  30.238  29.008  1.00  0.00    -0.014 A 
BRANCH  32  33
ATOM     33  C   UNL A   1      37.922  29.781  29.775  1.00  0.00     0.031 A 
ATOM     34  C   UNL A   1      38.172  30.310  31.166  1.00  0.00     0.074 A 
ATOM     35  C   UNL A   1      38.831  28.976  29.188  1.00  0.00     0.049 A 
ATOM     36  N   UNL A   1      39.193  30.102  31.957  1.00  0.00    -0.248 NA
ATOM     37  C   UNL A   1      37.163  31.226  31.728  1.00  0.00     0.031 C 
ATOM     38  C   UNL A   1      38.758  28.472  27.815  1.00  0.00     0.029 A 
ATOM     39  N   UNL A   1      40.014  28.463  29.664  1.00  0.00    -0.354 N 
ATOM     40  C   UNL A   1      38.973  30.894  33.078  1.00  0.00     0.074 A 
ATOM     41  C   UNL A   1      37.747  31.623  32.847  1.00  0.00     0.031 C 
ATOM     42  C   UNL A   1      39.837  27.713  27.565  1.00  0.00     0.029 A 
ATOM     43  C   UNL A   1      40.698  27.706  28.742  1.00  0.00     0.049 A 
ATOM     44  H   UNL A   1      40.341  28.623  30.579  1.00  0.00     0.167 HD
ATOM     45  C   UNL A   1      39.703  30.982  34.215  1.00  0.00     0.034 A 
ATOM     46  C   UNL A   1      41.889  27.081  28.830  1.00  0.00     0.034 A 
ATOM     47  C   UNL A   1      40.888  30.211  34.467  1.00  0.00     0.049 A 
ATOM     48  C   UNL A   1      42.651  27.146  30.126  1.00  0.00     0.074 A 
ATOM     49  C   UNL A   1      41.643  30.146  35.624  1.00  0.00     0.029 A 
ATOM     50  N   UNL A   1      41.496  29.374  33.544  1.00  0.00    -0.354 N 
ATOM     51  N   UNL A   1      42.340  27.771  31.236  1.00  0.00    -0.248 NA
ATOM     52  C   UNL A   1      43.909  26.389  30.196  1.00  0.00     0.031 C 
ATOM     53  C   UNL A   1      42.725  29.292  35.392  1.00  0.00     0.029 A 
ATOM     54  C   UNL A   1      42.624  28.797  34.101  1.00  0.00     0.049 A 
ATOM     55  H   UNL A   1      41.175  29.215  32.628  1.00  0.00     0.167 HD
ATOM     56  C   UNL A   1      43.342  27.454  32.147  1.00  0.00     0.074 A 
ATOM     57  C   UNL A   1      44.258  26.563  31.464  1.00  0.00     0.031 C 
ATOM     58  C   UNL A   1      43.497  27.872  33.426  1.00  0.00     0.034 A 
BRANCH  45  59
ATOM     59  C   UNL A   1      39.209  31.908  35.298  1.00  0.00     0.023 A 
ATOM     60  C   UNL A   1      39.392  33.301  35.165  1.00  0.00     0.012 A 
ATOM     61  C   UNL A   1      38.517  31.408  36.418  1.00  0.00     0.148 A 
ATOM     62  C   UNL A   1      38.932  34.176  36.147  1.00  0.00     0.002 A 
ATOM     63  C   UNL A   1      38.016  32.290  37.368  1.00  0.00     0.091 A 
ATOM     64  F   UNL A   1      38.369  30.081  36.539  1.00  0.00    -0.205 F 
ATOM     65  C   UNL A   1      38.235  33.673  37.242  1.00  0.00     0.022 A 
BRANCH  63  66
ATOM     66  S   UNL A   1      37.031  31.752  38.769  1.00  0.00     0.127 S 
ATOM     67  O   UNL A   1      37.961  31.955  39.879  1.00  0.00    -0.237 OA
ATOM     68  O   UNL A   1      35.909  32.691  38.735  1.00  0.00    -0.237 OA
ATOM     69  O   UNL A   1      36.673  30.366  38.502  1.00  0.00    -0.744 OA
ENDBRANCH  63  66
ENDBRANCH  45  59
BRANCH  46  70
ATOM     70  C   UNL A   1      42.402  26.284  27.679  1.00  0.00     0.023 A 
ATOM     71  C   UNL A   1      43.302  26.876  26.772  1.00  0.00     0.012 A 
ATOM     72  C   UNL A   1      42.024  24.940  27.492  1.00  0.00     0.148 A 
ATOM     73  C   UNL A   1      43.790  26.156  25.680  1.00  0.00     0.002 A 
ATOM     74  C   UNL A   1      42.558  24.211  26.435  1.00  0.00     0.091 A 
ATOM     75  F   UNL A   1      41.159  24.397  28.361  1.00  0.00    -0.205 F 
ATOM     76  C   UNL A   1      43.426  24.823  25.517  1.00  0.00     0.022 A 
BRANCH  74  77
ATOM     77  S   UNL A   1      42.251  22.455  26.222  1.00  0.00     0.127 S 
ATOM     78  O   UNL A   1      43.002  22.166  25.003  1.00  0.00    -0.237 OA
ATOM     79  O   UNL A   1      42.825  21.898  27.447  1.00  0.00    -0.237 OA
ATOM     80  O   UNL A   1      40.804  22.317  26.120  1.00  0.00    -0.744 OA
ENDBRANCH  74  77
ENDBRANCH  46  70
BRANCH  58  81
ATOM     81  C   UNL A   1      44.677  27.341  34.198  1.00  0.00     0.023 A 
ATOM     82  C   UNL A   1      45.894  28.051  34.200  1.00  0.00     0.012 A 
ATOM     83  C   UNL A   1      44.553  26.177  34.982  1.00  0.00     0.148 A 
ATOM     84  C   UNL A   1      46.981  27.589  34.942  1.00  0.00     0.002 A 
ATOM     85  C   UNL A   1      45.622  25.753  35.759  1.00  0.00     0.091 A 
ATOM     86  F   UNL A   1      43.391  25.507  34.952  1.00  0.00    -0.205 F 
ATOM     87  C   UNL A   1      46.842  26.450  35.730  1.00  0.00     0.022 A 
BRANCH  85  88
ATOM     88  S   UNL A   1      45.501  24.356  36.882  1.00  0.00     0.127 S 
ATOM     89  O   UNL A   1      46.861  24.281  37.412  1.00  0.00    -0.237 OA
ATOM     90  O   UNL A   1      44.496  24.816  37.842  1.00  0.00    -0.237 OA
ATOM     91  O   UNL A   1      45.084  23.222  36.068  1.00  0.00    -0.744 OA
ENDBRANCH  85  88
ENDBRANCH  58  81
ENDBRANCH  32  33
ENDBRANCH  24  27
ENDBRANCH  22  23
ENDBRANCH   1  22
TORSDOF 15
ENDMDL
