MODEL 1
REMARK VINA RESULT:     -11.0      0.000      0.000
REMARK SMILES C/C=C/C=C/C(=O)N[C@@H](C)CC(=O)NCCCNC(=O)c1ccc(-c2c3nc(c(-c4cccc(S(=O)(=O)[O-])c4F)c4ccc([nH]4)c(-c4cccc(S(=O)(=O)[O-])c4F)c4nc(c(-c5cccc(S(=O)(=O)[O-])c5F)c5ccc2[nH]5)C=C4)C=C3)cc1
REMARK SMILES IDX 15 1 14 2 12 3 13 4 11 6 9 7 10 8 8 9 6 10 7 11 5 13 4 14
REMARK SMILES IDX 3 15 1 16 2 17 16 18 17 19 18 20 19 21 20 23 21 24 22 25
REMARK SMILES IDX 83 26 23 27 82 28 24 29 25 30 26 31 76 32 27 33 81 34 75 35
REMARK SMILES IDX 77 36 28 37 80 38 74 39 73 40 29 42 61 43 41 44 60 45 42 46
REMARK SMILES IDX 45 47 59 48 78 49 43 50 44 51 58 53 79 54 46 55 30 56 31 57
REMARK SMILES IDX 39 58 32 59 34 60 40 61 33 62 35 63 36 64 37 65 38 66 62 67
REMARK SMILES IDX 63 68 71 69 64 70 66 71 72 72 65 73 67 74 68 75 69 76 70 77
REMARK SMILES IDX 47 78 48 79 56 80 49 81 51 82 57 83 50 84 52 85 53 86 54 87
REMARK SMILES IDX 55 88
REMARK H PARENT 14 5 8 12 18 22 77 41 45 52
REMARK Flexibility Score: inf
ROOT
ATOM      1  C   UNL A   1      32.315  27.128  26.649  1.00  0.00     0.117 C 
ENDROOT
BRANCH   1   2
ATOM      2  N   UNL A   1      31.390  26.014  26.525  1.00  0.00    -0.356 N 
ATOM      3  C   UNL A   1      31.585  24.790  25.960  1.00  0.00     0.222 C 
ATOM      4  O   UNL A   1      30.621  24.029  25.852  1.00  0.00    -0.275 OA
ATOM      5  H   UNL A   1      30.494  26.165  26.902  1.00  0.00     0.163 HD
BRANCH   3   6
ATOM      6  C   UNL A   1      32.966  24.360  25.516  1.00  0.00     0.124 C 
BRANCH   6   7
ATOM      7  C   UNL A   1      32.968  23.781  24.098  1.00  0.00     0.088 C 
ATOM      8  C   UNL A   1      33.838  22.524  24.055  1.00  0.00     0.031 C 
BRANCH   7   9
ATOM      9  N   UNL A   1      33.506  24.710  23.104  1.00  0.00    -0.350 N 
ATOM     10  C   UNL A   1      32.931  25.673  22.334  1.00  0.00     0.244 C 
ATOM     11  O   UNL A   1      33.653  26.318  21.577  1.00  0.00    -0.270 OA
ATOM     12  H   UNL A   1      34.477  24.620  22.964  1.00  0.00     0.164 HD
BRANCH  10  13
ATOM     13  C   UNL A   1      31.521  26.082  22.513  1.00  0.00     0.071 C 
ATOM     14  C   UNL A   1      31.113  27.318  22.822  1.00  0.00     0.005 C 
BRANCH  14  15
ATOM     15  C   UNL A   1      29.722  27.686  22.950  1.00  0.00    -0.004 C 
ATOM     16  C   UNL A   1      27.902  29.411  22.933  1.00  0.00     0.035 C 
ATOM     17  C   UNL A   1      29.317  28.957  22.804  1.00  0.00    -0.030 C 
ENDBRANCH  14  15
ENDBRANCH  10  13
ENDBRANCH   7   9
ENDBRANCH   6   7
ENDBRANCH   3   6
ENDBRANCH   1   2
BRANCH   1  18
ATOM     18  C   UNL A   1      31.634  28.450  26.331  1.00  0.00     0.042 C 
BRANCH  18  19
ATOM     19  C   UNL A   1      32.516  29.454  25.610  1.00  0.00     0.118 C 
BRANCH  19  20
ATOM     20  N   UNL A   1      32.196  30.827  25.964  1.00  0.00    -0.352 N 
ATOM     21  C   UNL A   1      32.747  31.652  26.915  1.00  0.00     0.251 C 
ATOM     22  H   UNL A   1      31.468  31.230  25.438  1.00  0.00     0.163 HD
ATOM     23  O   UNL A   1      32.172  32.705  27.186  1.00  0.00    -0.269 OA
BRANCH  21  24
ATOM     24  C   UNL A   1      34.003  31.294  27.619  1.00  0.00     0.039 A 
ATOM     25  C   UNL A   1      34.871  32.322  28.001  1.00  0.00     0.014 A 
ATOM     26  C   UNL A   1      34.363  29.966  27.859  1.00  0.00     0.014 A 
ATOM     27  C   UNL A   1      36.065  32.020  28.666  1.00  0.00     0.010 A 
ATOM     28  C   UNL A   1      35.504  29.672  28.604  1.00  0.00     0.010 A 
ATOM     29  C   UNL A   1      36.378  30.694  29.002  1.00  0.00    -0.014 A 
BRANCH  29  30
ATOM     30  C   UNL A   1      37.615  30.355  29.757  1.00  0.00     0.031 A 
ATOM     31  C   UNL A   1      38.635  29.415  29.167  1.00  0.00     0.074 A 
ATOM     32  C   UNL A   1      37.785  30.831  31.007  1.00  0.00     0.049 A 
ATOM     33  N   UNL A   1      39.740  28.957  29.699  1.00  0.00    -0.248 NA
ATOM     34  C   UNL A   1      38.368  28.901  27.813  1.00  0.00     0.031 C 
ATOM     35  C   UNL A   1      36.839  31.688  31.722  1.00  0.00     0.029 A 
ATOM     36  N   UNL A   1      38.802  30.636  31.909  1.00  0.00    -0.354 N 
ATOM     37  C   UNL A   1      40.275  28.075  28.767  1.00  0.00     0.074 A 
ATOM     38  C   UNL A   1      39.359  28.037  27.649  1.00  0.00     0.031 C 
ATOM     39  C   UNL A   1      37.320  31.950  32.948  1.00  0.00     0.029 A 
ATOM     40  C   UNL A   1      38.590  31.253  33.121  1.00  0.00     0.049 A 
ATOM     41  H   UNL A   1      39.608  30.106  31.708  1.00  0.00     0.167 HD
ATOM     42  C   UNL A   1      41.437  27.381  28.822  1.00  0.00     0.034 A 
ATOM     43  C   UNL A   1      39.326  31.247  34.250  1.00  0.00     0.034 A 
ATOM     44  C   UNL A   1      42.370  27.456  29.914  1.00  0.00     0.049 A 
ATOM     45  C   UNL A   1      40.629  30.493  34.272  1.00  0.00     0.074 A 
ATOM     46  C   UNL A   1      43.617  26.865  30.020  1.00  0.00     0.029 A 
ATOM     47  N   UNL A   1      42.157  28.156  31.091  1.00  0.00    -0.354 N 
ATOM     48  N   UNL A   1      41.195  29.794  33.318  1.00  0.00    -0.248 NA
ATOM     49  C   UNL A   1      41.412  30.553  35.515  1.00  0.00     0.031 C 
ATOM     50  C   UNL A   1      44.146  27.185  31.275  1.00  0.00     0.029 A 
ATOM     51  C   UNL A   1      43.242  27.999  31.937  1.00  0.00     0.049 A 
ATOM     52  H   UNL A   1      41.352  28.685  31.296  1.00  0.00     0.167 HD
ATOM     53  C   UNL A   1      42.412  29.361  33.832  1.00  0.00     0.074 A 
ATOM     54  C   UNL A   1      42.512  29.895  35.176  1.00  0.00     0.031 C 
ATOM     55  C   UNL A   1      43.355  28.580  33.251  1.00  0.00     0.034 A 
BRANCH  42  56
ATOM     56  C   UNL A   1      41.796  26.514  27.641  1.00  0.00     0.023 A 
ATOM     57  C   UNL A   1      42.470  27.081  26.540  1.00  0.00     0.012 A 
ATOM     58  C   UNL A   1      41.524  25.132  27.647  1.00  0.00     0.148 A 
ATOM     59  C   UNL A   1      42.836  26.295  25.448  1.00  0.00     0.002 A 
ATOM     60  C   UNL A   1      41.933  24.346  26.575  1.00  0.00     0.091 A 
ATOM     61  F   UNL A   1      40.866  24.613  28.693  1.00  0.00    -0.205 F 
ATOM     62  C   UNL A   1      42.578  24.928  25.471  1.00  0.00     0.022 A 
BRANCH  60  63
ATOM     63  S   UNL A   1      41.721  22.562  26.543  1.00  0.00     0.127 S 
ATOM     64  O   UNL A   1      42.342  22.215  25.264  1.00  0.00    -0.237 OA
ATOM     65  O   UNL A   1      42.477  22.141  27.721  1.00  0.00    -0.237 OA
ATOM     66  O   UNL A   1      40.287  22.326  26.624  1.00  0.00    -0.744 OA
ENDBRANCH  60  63
ENDBRANCH  42  56
BRANCH  43  67
ATOM     67  C   UNL A   1      38.877  32.030  35.437  1.00  0.00     0.023 A 
ATOM     68  C   UNL A   1      39.068  33.425  35.456  1.00  0.00     0.012 A 
ATOM     69  C   UNL A   1      38.245  31.408  36.531  1.00  0.00     0.148 A 
ATOM     70  C   UNL A   1      38.667  34.184  36.557  1.00  0.00     0.002 A 
ATOM     71  C   UNL A   1      37.799  32.175  37.601  1.00  0.00     0.091 A 
ATOM     72  F   UNL A   1      38.083  30.078  36.498  1.00  0.00    -0.205 F 
ATOM     73  C   UNL A   1      38.025  33.560  37.624  1.00  0.00     0.022 A 
BRANCH  71  74
ATOM     74  S   UNL A   1      36.858  31.482  38.965  1.00  0.00     0.127 S 
ATOM     75  O   UNL A   1      35.661  32.317  38.956  1.00  0.00    -0.237 OA
ATOM     76  O   UNL A   1      36.651  30.104  38.519  1.00  0.00    -0.237 OA
ATOM     77  O   UNL A   1      37.710  31.614  40.139  1.00  0.00    -0.744 OA
ENDBRANCH  71  74
ENDBRANCH  43  67
BRANCH  55  78
ATOM     78  C   UNL A   1      44.601  28.275  34.041  1.00  0.00     0.023 A 
ATOM     79  C   UNL A   1      45.695  29.162  33.996  1.00  0.00     0.012 A 
ATOM     80  C   UNL A   1      44.654  27.155  34.895  1.00  0.00     0.148 A 
ATOM     81  C   UNL A   1      46.834  28.922  34.764  1.00  0.00     0.002 A 
ATOM     82  C   UNL A   1      45.771  26.950  35.694  1.00  0.00     0.091 A 
ATOM     83  F   UNL A   1      43.609  26.315  34.911  1.00  0.00    -0.205 F 
ATOM     84  C   UNL A   1      46.867  27.825  35.622  1.00  0.00     0.022 A 
BRANCH  82  85
ATOM     85  S   UNL A   1      45.864  25.622  36.901  1.00  0.00     0.127 S 
ATOM     86  O   UNL A   1      44.687  25.888  37.727  1.00  0.00    -0.237 OA
ATOM     87  O   UNL A   1      45.761  24.430  36.059  1.00  0.00    -0.237 OA
ATOM     88  O   UNL A   1      47.146  25.778  37.575  1.00  0.00    -0.744 OA
ENDBRANCH  82  85
ENDBRANCH  55  78
ENDBRANCH  29  30
ENDBRANCH  21  24
ENDBRANCH  19  20
ENDBRANCH  18  19
ENDBRANCH   1  18
TORSDOF 17
ENDMDL
MODEL 2
REMARK VINA RESULT:     -11.0      1.679      2.494
REMARK SMILES C/C=C/C=C/C(=O)N[C@@H](C)CC(=O)NCCCNC(=O)c1ccc(-c2c3nc(c(-c4cccc(S(=O)(=O)[O-])c4F)c4ccc([nH]4)c(-c4cccc(S(=O)(=O)[O-])c4F)c4nc(c(-c5cccc(S(=O)(=O)[O-])c5F)c5ccc2[nH]5)C=C4)C=C3)cc1
REMARK SMILES IDX 15 1 14 2 12 3 13 4 11 6 9 7 10 8 8 9 6 10 7 11 5 13 4 14
REMARK SMILES IDX 3 15 1 16 2 17 16 18 17 19 18 20 19 21 20 23 21 24 22 25
REMARK SMILES IDX 83 26 23 27 82 28 24 29 25 30 26 31 76 32 27 33 81 34 75 35
REMARK SMILES IDX 77 36 28 37 80 38 74 39 73 40 29 42 61 43 41 44 60 45 42 46
REMARK SMILES IDX 45 47 59 48 78 49 43 50 44 51 58 53 79 54 46 55 30 56 31 57
REMARK SMILES IDX 39 58 32 59 34 60 40 61 33 62 35 63 36 64 37 65 38 66 62 67
REMARK SMILES IDX 63 68 71 69 64 70 66 71 72 72 65 73 67 74 68 75 69 76 70 77
REMARK SMILES IDX 47 78 48 79 56 80 49 81 51 82 57 83 50 84 52 85 53 86 54 87
REMARK SMILES IDX 55 88
REMARK H PARENT 14 5 8 12 18 22 77 41 45 52
REMARK Flexibility Score: inf
ROOT
ATOM      1  C   UNL A   1      31.076  30.256  25.279  1.00  0.00     0.117 C 
ENDROOT
BRANCH   1   2
ATOM      2  N   UNL A   1      30.672  30.258  23.882  1.00  0.00    -0.356 N 
ATOM      3  C   UNL A   1      30.276  29.218  23.097  1.00  0.00     0.222 C 
ATOM      4  O   UNL A   1      30.093  29.422  21.896  1.00  0.00    -0.275 OA
ATOM      5  H   UNL A   1      30.688  31.138  23.440  1.00  0.00     0.163 HD
BRANCH   3   6
ATOM      6  C   UNL A   1      30.026  27.853  23.699  1.00  0.00     0.124 C 
BRANCH   6   7
ATOM      7  C   UNL A   1      30.491  26.718  22.782  1.00  0.00     0.088 C 
ATOM      8  C   UNL A   1      30.761  25.462  23.613  1.00  0.00     0.031 C 
BRANCH   7   9
ATOM      9  N   UNL A   1      31.727  27.033  22.067  1.00  0.00    -0.350 N 
ATOM     10  C   UNL A   1      32.977  27.369  22.488  1.00  0.00     0.244 C 
ATOM     11  O   UNL A   1      33.840  27.574  21.636  1.00  0.00    -0.270 OA
ATOM     12  H   UNL A   1      31.638  26.994  21.087  1.00  0.00     0.164 HD
BRANCH  10  13
ATOM     13  C   UNL A   1      33.365  27.318  23.914  1.00  0.00     0.071 C 
ATOM     14  C   UNL A   1      33.985  28.300  24.578  1.00  0.00     0.005 C 
BRANCH  14  15
ATOM     15  C   UNL A   1      34.313  28.226  25.982  1.00  0.00    -0.004 C 
ATOM     16  C   UNL A   1      34.877  29.329  28.162  1.00  0.00     0.035 C 
ATOM     17  C   UNL A   1      34.525  29.331  26.712  1.00  0.00    -0.030 C 
ENDBRANCH  14  15
ENDBRANCH  10  13
ENDBRANCH   7   9
ENDBRANCH   6   7
ENDBRANCH   3   6
ENDBRANCH   1   2
BRANCH   1  18
ATOM     18  C   UNL A   1      30.998  31.651  25.880  1.00  0.00     0.042 C 
BRANCH  18  19
ATOM     19  C   UNL A   1      32.106  31.972  26.868  1.00  0.00     0.118 C 
BRANCH  19  20
ATOM     20  N   UNL A   1      32.208  33.396  27.141  1.00  0.00    -0.352 N 
ATOM     21  C   UNL A   1      33.035  34.080  27.998  1.00  0.00     0.251 C 
ATOM     22  H   UNL A   1      31.585  33.960  26.629  1.00  0.00     0.163 HD
ATOM     23  O   UNL A   1      32.798  35.265  28.225  1.00  0.00    -0.269 OA
BRANCH  21  24
ATOM     24  C   UNL A   1      34.190  33.419  28.655  1.00  0.00     0.039 A 
ATOM     25  C   UNL A   1      35.476  33.690  28.177  1.00  0.00     0.014 A 
ATOM     26  C   UNL A   1      34.023  32.500  29.694  1.00  0.00     0.014 A 
ATOM     27  C   UNL A   1      36.588  33.084  28.773  1.00  0.00     0.010 A 
ATOM     28  C   UNL A   1      35.134  31.970  30.347  1.00  0.00     0.010 A 
ATOM     29  C   UNL A   1      36.430  32.241  29.884  1.00  0.00    -0.014 A 
BRANCH  29  30
ATOM     30  C   UNL A   1      37.602  31.629  30.568  1.00  0.00     0.031 A 
ATOM     31  C   UNL A   1      38.413  30.561  29.881  1.00  0.00     0.074 A 
ATOM     32  C   UNL A   1      37.890  31.976  31.839  1.00  0.00     0.049 A 
ATOM     33  N   UNL A   1      39.426  29.872  30.338  1.00  0.00    -0.248 NA
ATOM     34  C   UNL A   1      38.019  30.201  28.507  1.00  0.00     0.031 C 
ATOM     35  C   UNL A   1      37.138  32.940  32.643  1.00  0.00     0.029 A 
ATOM     36  N   UNL A   1      38.876  31.535  32.687  1.00  0.00    -0.354 N 
ATOM     37  C   UNL A   1      39.764  28.974  29.332  1.00  0.00     0.074 A 
ATOM     38  C   UNL A   1      38.828  29.183  28.250  1.00  0.00     0.031 C 
ATOM     39  C   UNL A   1      37.692  33.023  33.864  1.00  0.00     0.029 A 
ATOM     40  C   UNL A   1      38.814  32.094  33.943  1.00  0.00     0.049 A 
ATOM     41  H   UNL A   1      39.563  30.882  32.421  1.00  0.00     0.167 HD
ATOM     42  C   UNL A   1      40.778  28.076  29.298  1.00  0.00     0.034 A 
ATOM     43  C   UNL A   1      39.565  31.874  35.040  1.00  0.00     0.034 A 
ATOM     44  C   UNL A   1      41.736  27.902  30.355  1.00  0.00     0.049 A 
ATOM     45  C   UNL A   1      40.705  30.893  34.963  1.00  0.00     0.074 A 
ATOM     46  C   UNL A   1      42.854  27.085  30.375  1.00  0.00     0.029 A 
ATOM     47  N   UNL A   1      41.688  28.544  31.582  1.00  0.00    -0.354 N 
ATOM     48  N   UNL A   1      41.106  30.171  33.945  1.00  0.00    -0.248 NA
ATOM     49  C   UNL A   1      41.518  30.722  36.176  1.00  0.00     0.031 C 
ATOM     50  C   UNL A   1      43.465  27.213  31.627  1.00  0.00     0.029 A 
ATOM     51  C   UNL A   1      42.747  28.132  32.374  1.00  0.00     0.049 A 
ATOM     52  H   UNL A   1      41.002  29.197  31.851  1.00  0.00     0.167 HD
ATOM     53  C   UNL A   1      42.234  29.486  34.383  1.00  0.00     0.074 A 
ATOM     54  C   UNL A   1      42.467  29.898  35.753  1.00  0.00     0.031 C 
ATOM     55  C   UNL A   1      43.000  28.588  33.717  1.00  0.00     0.034 A 
BRANCH  42  56
ATOM     56  C   UNL A   1      40.937  27.243  28.050  1.00  0.00     0.023 A 
ATOM     57  C   UNL A   1      41.579  27.794  26.922  1.00  0.00     0.012 A 
ATOM     58  C   UNL A   1      40.513  25.900  28.016  1.00  0.00     0.148 A 
ATOM     59  C   UNL A   1      41.762  27.035  25.767  1.00  0.00     0.002 A 
ATOM     60  C   UNL A   1      40.741  25.136  26.876  1.00  0.00     0.091 A 
ATOM     61  F   UNL A   1      39.889  25.397  29.091  1.00  0.00    -0.205 F 
ATOM     62  C   UNL A   1      41.354  25.705  25.749  1.00  0.00     0.022 A 
BRANCH  60  63
ATOM     63  S   UNL A   1      40.327  23.390  26.780  1.00  0.00     0.127 S 
ATOM     64  O   UNL A   1      41.245  22.927  25.739  1.00  0.00    -0.237 OA
ATOM     65  O   UNL A   1      40.648  22.923  28.128  1.00  0.00    -0.237 OA
ATOM     66  O   UNL A   1      38.913  23.330  26.437  1.00  0.00    -0.744 OA
ENDBRANCH  60  63
ENDBRANCH  42  56
BRANCH  43  67
ATOM     67  C   UNL A   1      39.301  32.641  36.291  1.00  0.00     0.023 A 
ATOM     68  C   UNL A   1      39.902  33.902  36.467  1.00  0.00     0.012 A 
ATOM     69  C   UNL A   1      38.445  32.141  37.291  1.00  0.00     0.148 A 
ATOM     70  C   UNL A   1      39.681  34.640  37.631  1.00  0.00     0.002 A 
ATOM     71  C   UNL A   1      38.187  32.904  38.425  1.00  0.00     0.091 A 
ATOM     72  F   UNL A   1      37.892  30.934  37.110  1.00  0.00    -0.205 F 
ATOM     73  C   UNL A   1      38.817  34.145  38.605  1.00  0.00     0.022 A 
BRANCH  71  74
ATOM     74  S   UNL A   1      36.999  32.406  39.677  1.00  0.00     0.127 S 
ATOM     75  O   UNL A   1      37.141  33.474  40.664  1.00  0.00    -0.237 OA
ATOM     76  O   UNL A   1      35.744  32.425  38.926  1.00  0.00    -0.237 OA
ATOM     77  O   UNL A   1      37.420  31.082  40.116  1.00  0.00    -0.744 OA
ENDBRANCH  71  74
ENDBRANCH  43  67
BRANCH  55  78
ATOM     78  C   UNL A   1      44.188  28.005  34.437  1.00  0.00     0.023 A 
ATOM     79  C   UNL A   1      45.433  28.662  34.383  1.00  0.00     0.012 A 
ATOM     80  C   UNL A   1      44.048  26.853  35.237  1.00  0.00     0.148 A 
ATOM     81  C   UNL A   1      46.528  28.164  35.089  1.00  0.00     0.002 A 
ATOM     82  C   UNL A   1      45.130  26.392  35.977  1.00  0.00     0.091 A 
ATOM     83  F   UNL A   1      42.859  26.234  35.262  1.00  0.00    -0.205 F 
ATOM     84  C   UNL A   1      46.373  27.039  35.895  1.00  0.00     0.022 A 
BRANCH  82  85
ATOM     85  S   UNL A   1      45.000  25.010  37.118  1.00  0.00     0.127 S 
ATOM     86  O   UNL A   1      43.968  25.483  38.040  1.00  0.00    -0.237 OA
ATOM     87  O   UNL A   1      44.578  23.920  36.238  1.00  0.00    -0.237 OA
ATOM     88  O   UNL A   1      46.324  24.842  37.700  1.00  0.00    -0.744 OA
ENDBRANCH  82  85
ENDBRANCH  55  78
ENDBRANCH  29  30
ENDBRANCH  21  24
ENDBRANCH  19  20
ENDBRANCH  18  19
ENDBRANCH   1  18
TORSDOF 17
ENDMDL
MODEL 3
REMARK VINA RESULT:     -10.9      5.509      8.287
REMARK SMILES C/C=C/C=C/C(=O)N[C@@H](C)CC(=O)NCCCNC(=O)c1ccc(-c2c3nc(c(-c4cccc(S(=O)(=O)[O-])c4F)c4ccc([nH]4)c(-c4cccc(S(=O)(=O)[O-])c4F)c4nc(c(-c5cccc(S(=O)(=O)[O-])c5F)c5ccc2[nH]5)C=C4)C=C3)cc1
REMARK SMILES IDX 15 1 14 2 12 3 13 4 11 6 9 7 10 8 8 9 6 10 7 11 5 13 4 14
REMARK SMILES IDX 3 15 1 16 2 17 16 18 17 19 18 20 19 21 20 23 21 24 22 25
REMARK SMILES IDX 83 26 23 27 82 28 24 29 25 30 26 31 76 32 27 33 81 34 75 35
REMARK SMILES IDX 77 36 28 37 80 38 74 39 73 40 29 42 61 43 41 44 60 45 42 46
REMARK SMILES IDX 45 47 59 48 78 49 43 50 44 51 58 53 79 54 46 55 30 56 31 57
REMARK SMILES IDX 39 58 32 59 34 60 40 61 33 62 35 63 36 64 37 65 38 66 62 67
REMARK SMILES IDX 63 68 71 69 64 70 66 71 72 72 65 73 67 74 68 75 69 76 70 77
REMARK SMILES IDX 47 78 48 79 56 80 49 81 51 82 57 83 50 84 52 85 53 86 54 87
REMARK SMILES IDX 55 88
REMARK H PARENT 14 5 8 12 18 22 77 41 45 52
REMARK Flexibility Score: inf
ROOT
ATOM      1  C   UNL A   1      34.561  24.841  24.996  1.00  0.00     0.117 C 
ENDROOT
BRANCH   1   2
ATOM      2  N   UNL A   1      34.553  24.464  23.592  1.00  0.00    -0.356 N 
ATOM      3  C   UNL A   1      33.666  23.685  22.913  1.00  0.00     0.222 C 
ATOM      4  O   UNL A   1      33.915  23.390  21.743  1.00  0.00    -0.275 OA
ATOM      5  H   UNL A   1      35.296  24.823  23.055  1.00  0.00     0.163 HD
BRANCH   3   6
ATOM      6  C   UNL A   1      32.382  23.230  23.571  1.00  0.00     0.124 C 
BRANCH   6   7
ATOM      7  C   UNL A   1      32.513  21.844  24.208  1.00  0.00     0.088 C 
ATOM      8  C   UNL A   1      31.732  21.805  25.522  1.00  0.00     0.031 C 
BRANCH   7   9
ATOM      9  N   UNL A   1      33.897  21.489  24.521  1.00  0.00    -0.350 N 
ATOM     10  C   UNL A   1      34.514  20.299  24.754  1.00  0.00     0.244 C 
ATOM     11  O   UNL A   1      35.721  20.308  24.989  1.00  0.00    -0.270 OA
ATOM     12  H   UNL A   1      34.502  22.265  24.575  1.00  0.00     0.164 HD
BRANCH  10  13
ATOM     13  C   UNL A   1      33.825  19.006  24.556  1.00  0.00     0.071 C 
ATOM     14  C   UNL A   1      33.152  18.340  25.502  1.00  0.00     0.005 C 
BRANCH  14  15
ATOM     15  C   UNL A   1      32.459  17.097  25.258  1.00  0.00    -0.004 C 
ATOM     16  C   UNL A   1      32.271  14.609  25.503  1.00  0.00     0.035 C 
ATOM     17  C   UNL A   1      32.928  15.930  25.725  1.00  0.00    -0.030 C 
ENDBRANCH  14  15
ENDBRANCH  10  13
ENDBRANCH   7   9
ENDBRANCH   6   7
ENDBRANCH   3   6
ENDBRANCH   1   2
BRANCH   1  18
ATOM     18  C   UNL A   1      35.699  24.167  25.744  1.00  0.00     0.042 C 
BRANCH  18  19
ATOM     19  C   UNL A   1      36.852  23.718  24.863  1.00  0.00     0.118 C 
BRANCH  19  20
ATOM     20  N   UNL A   1      37.657  22.682  25.489  1.00  0.00    -0.352 N 
ATOM     21  C   UNL A   1      38.802  22.779  26.242  1.00  0.00     0.251 C 
ATOM     22  H   UNL A   1      37.328  21.765  25.352  1.00  0.00     0.163 HD
ATOM     23  O   UNL A   1      39.434  21.753  26.489  1.00  0.00    -0.269 OA
BRANCH  21  24
ATOM     24  C   UNL A   1      39.289  24.086  26.748  1.00  0.00     0.039 A 
ATOM     25  C   UNL A   1      40.024  24.905  25.885  1.00  0.00     0.014 A 
ATOM     26  C   UNL A   1      39.081  24.491  28.069  1.00  0.00     0.014 A 
ATOM     27  C   UNL A   1      40.500  26.144  26.330  1.00  0.00     0.010 A 
ATOM     28  C   UNL A   1      39.473  25.764  28.482  1.00  0.00     0.010 A 
ATOM     29  C   UNL A   1      40.202  26.599  27.624  1.00  0.00    -0.014 A 
BRANCH  29  30
ATOM     30  C   UNL A   1      40.651  27.936  28.100  1.00  0.00     0.031 A 
ATOM     31  C   UNL A   1      42.117  28.278  28.142  1.00  0.00     0.074 A 
ATOM     32  C   UNL A   1      39.743  28.817  28.569  1.00  0.00     0.049 A 
ATOM     33  N   UNL A   1      42.700  29.365  28.580  1.00  0.00    -0.248 NA
ATOM     34  C   UNL A   1      43.058  27.255  27.652  1.00  0.00     0.031 C 
ATOM     35  C   UNL A   1      38.301  28.581  28.653  1.00  0.00     0.029 A 
ATOM     36  N   UNL A   1      39.904  30.077  29.090  1.00  0.00    -0.354 N 
ATOM     37  C   UNL A   1      44.067  29.142  28.458  1.00  0.00     0.074 A 
ATOM     38  C   UNL A   1      44.230  27.805  27.933  1.00  0.00     0.031 C 
ATOM     39  C   UNL A   1      37.708  29.662  29.188  1.00  0.00     0.029 A 
ATOM     40  C   UNL A   1      38.728  30.652  29.517  1.00  0.00     0.049 A 
ATOM     41  H   UNL A   1      40.777  30.528  29.151  1.00  0.00     0.167 HD
ATOM     42  C   UNL A   1      45.093  29.983  28.729  1.00  0.00     0.034 A 
ATOM     43  C   UNL A   1      38.497  31.834  30.120  1.00  0.00     0.034 A 
ATOM     44  C   UNL A   1      44.928  31.329  29.206  1.00  0.00     0.049 A 
ATOM     45  C   UNL A   1      39.654  32.763  30.381  1.00  0.00     0.074 A 
ATOM     46  C   UNL A   1      45.901  32.290  29.422  1.00  0.00     0.029 A 
ATOM     47  N   UNL A   1      43.715  31.904  29.552  1.00  0.00    -0.354 N 
ATOM     48  N   UNL A   1      40.925  32.595  30.108  1.00  0.00    -0.248 NA
ATOM     49  C   UNL A   1      39.341  34.058  31.003  1.00  0.00     0.031 C 
ATOM     50  C   UNL A   1      45.278  33.437  29.925  1.00  0.00     0.029 A 
ATOM     51  C   UNL A   1      43.915  33.201  29.994  1.00  0.00     0.049 A 
ATOM     52  H   UNL A   1      42.840  31.456  29.493  1.00  0.00     0.167 HD
ATOM     53  C   UNL A   1      41.557  33.772  30.492  1.00  0.00     0.074 A 
ATOM     54  C   UNL A   1      40.524  34.655  30.998  1.00  0.00     0.031 C 
ATOM     55  C   UNL A   1      42.874  34.090  30.445  1.00  0.00     0.034 A 
BRANCH  42  56
ATOM     56  C   UNL A   1      46.495  29.490  28.467  1.00  0.00     0.023 A 
ATOM     57  C   UNL A   1      47.101  29.745  27.219  1.00  0.00     0.012 A 
ATOM     58  C   UNL A   1      47.233  28.835  29.472  1.00  0.00     0.148 A 
ATOM     59  C   UNL A   1      48.404  29.323  26.963  1.00  0.00     0.002 A 
ATOM     60  C   UNL A   1      48.549  28.458  29.224  1.00  0.00     0.091 A 
ATOM     61  F   UNL A   1      46.635  28.585  30.646  1.00  0.00    -0.205 F 
ATOM     62  C   UNL A   1      49.130  28.691  27.967  1.00  0.00     0.022 A 
BRANCH  60  63
ATOM     63  S   UNL A   1      49.596  27.711  30.477  1.00  0.00     0.127 S 
ATOM     64  O   UNL A   1      49.528  28.704  31.548  1.00  0.00    -0.237 OA
ATOM     65  O   UNL A   1      48.893  26.460  30.760  1.00  0.00    -0.237 OA
ATOM     66  O   UNL A   1      50.906  27.546  29.861  1.00  0.00    -0.744 OA
ENDBRANCH  60  63
ENDBRANCH  42  56
BRANCH  43  67
ATOM     67  C   UNL A   1      37.104  32.236  30.466  1.00  0.00     0.023 A 
ATOM     68  C   UNL A   1      36.620  31.999  31.767  1.00  0.00     0.012 A 
ATOM     69  C   UNL A   1      36.267  32.870  29.527  1.00  0.00     0.148 A 
ATOM     70  C   UNL A   1      35.317  32.354  32.119  1.00  0.00     0.002 A 
ATOM     71  C   UNL A   1      34.989  33.270  29.898  1.00  0.00     0.091 A 
ATOM     72  F   UNL A   1      36.742  33.077  28.291  1.00  0.00    -0.205 F 
ATOM     73  C   UNL A   1      34.506  32.998  31.187  1.00  0.00     0.022 A 
BRANCH  71  74
ATOM     74  S   UNL A   1      33.913  34.210  28.808  1.00  0.00     0.127 S 
ATOM     75  O   UNL A   1      33.504  33.193  27.844  1.00  0.00    -0.237 OA
ATOM     76  O   UNL A   1      32.861  34.646  29.727  1.00  0.00    -0.237 OA
ATOM     77  O   UNL A   1      34.736  35.288  28.277  1.00  0.00    -0.744 OA
ENDBRANCH  71  74
ENDBRANCH  43  67
BRANCH  55  78
ATOM     78  C   UNL A   1      43.285  35.460  30.918  1.00  0.00     0.023 A 
ATOM     79  C   UNL A   1      43.634  35.660  32.268  1.00  0.00     0.012 A 
ATOM     80  C   UNL A   1      43.407  36.527  30.006  1.00  0.00     0.148 A 
ATOM     81  C   UNL A   1      44.069  36.910  32.709  1.00  0.00     0.002 A 
ATOM     82  C   UNL A   1      43.888  37.755  30.442  1.00  0.00     0.091 A 
ATOM     83  F   UNL A   1      43.053  36.320  28.729  1.00  0.00    -0.205 F 
ATOM     84  C   UNL A   1      44.208  37.952  31.795  1.00  0.00     0.022 A 
BRANCH  82  85
ATOM     85  S   UNL A   1      44.194  39.126  29.322  1.00  0.00     0.127 S 
ATOM     86  O   UNL A   1      42.834  39.514  28.949  1.00  0.00    -0.237 OA
ATOM     87  O   UNL A   1      44.887  40.083  30.185  1.00  0.00    -0.237 OA
ATOM     88  O   UNL A   1      45.007  38.588  28.239  1.00  0.00    -0.744 OA
ENDBRANCH  82  85
ENDBRANCH  55  78
ENDBRANCH  29  30
ENDBRANCH  21  24
ENDBRANCH  19  20
ENDBRANCH  18  19
ENDBRANCH   1  18
TORSDOF 17
ENDMDL
