MODEL 1
REMARK VINA RESULT:     -11.8      0.000      0.000
REMARK SMILES COCCC(=O)N1[C@@H](C(=O)NCCCNC(=O)c2ccc(-c3c4nc(c(-c5cccc(S(=O)(=O)[O-])c5F)c5ccc([nH]5)c(-c5cccc(S(=O)(=O)[O-])c5F)c5nc(c(-c6cccc(S(=O)(=O)[O-])c6F)c6ccc3[nH]6)C=C5)C=C4)cc2)CC[C@H]2CCCC[C@@H]21
REMARK SMILES IDX 12 1 11 2 9 3 10 4 8 6 7 7 88 8 81 9 83 10 87 11 82 12 84 13
REMARK SMILES IDX 86 14 85 15 5 16 6 17 4 18 3 19 2 20 1 21 13 22 14 23 15 24
REMARK SMILES IDX 16 25 17 27 18 28 19 29 80 30 20 31 79 32 21 33 22 34 23 35
REMARK SMILES IDX 73 36 24 37 78 38 72 39 74 40 25 41 77 42 71 43 70 44 26 46
REMARK SMILES IDX 58 47 38 48 57 49 39 50 42 51 56 52 75 53 40 54 41 55 55 57
REMARK SMILES IDX 76 58 43 59 27 60 28 61 36 62 29 63 31 64 37 65 30 66 32 67
REMARK SMILES IDX 33 68 34 69 35 70 59 71 60 72 68 73 61 74 63 75 69 76 62 77
REMARK SMILES IDX 64 78 65 79 66 80 67 81 44 82 45 83 53 84 46 85 48 86 54 87
REMARK SMILES IDX 47 88 49 89 50 90 51 91 52 92
REMARK H PARENT 11 5 15 26 74 45 42 56
REMARK Flexibility Score: inf
ROOT
ATOM      1  C   UNL A   1      32.175  27.100  26.606  1.00  0.00     0.117 C 
ENDROOT
BRANCH   1   2
ATOM      2  N   UNL A   1      31.201  26.047  26.555  1.00  0.00    -0.354 N 
ATOM      3  C   UNL A   1      31.479  24.704  26.596  1.00  0.00     0.242 C 
ATOM      4  O   UNL A   1      30.510  23.942  26.718  1.00  0.00    -0.273 OA
ATOM      5  H   UNL A   1      30.255  26.311  26.485  1.00  0.00     0.163 HD
BRANCH   3   6
ATOM      6  C   UNL A   1      32.878  24.131  26.178  1.00  0.00     0.174 C 
ATOM      7  N   UNL A   1      33.116  23.550  24.829  1.00  0.00    -0.327 N 
ATOM      8  C   UNL A   1      34.380  22.813  24.625  1.00  0.00     0.089 C 
ATOM      9  C   UNL A   1      33.138  23.071  27.296  1.00  0.00     0.036 C 
ATOM     10  C   UNL A   1      35.135  22.506  25.937  1.00  0.00     0.012 C 
ATOM     11  C   UNL A   1      35.398  23.537  23.715  1.00  0.00     0.025 C 
ATOM     12  C   UNL A   1      34.166  21.992  26.978  1.00  0.00     0.008 C 
ATOM     13  C   UNL A   1      36.285  21.529  25.668  1.00  0.00     0.006 C 
ATOM     14  C   UNL A   1      36.597  22.638  23.407  1.00  0.00     0.002 C 
ATOM     15  C   UNL A   1      37.279  22.126  24.671  1.00  0.00     0.000 C 
BRANCH   7  16
ATOM     16  C   UNL A   1      32.565  24.177  23.702  1.00  0.00     0.225 C 
ATOM     17  O   UNL A   1      31.878  23.571  22.884  1.00  0.00    -0.275 OA
BRANCH  16  18
ATOM     18  C   UNL A   1      33.082  25.598  23.433  1.00  0.00     0.128 C 
BRANCH  18  19
ATOM     19  C   UNL A   1      32.636  26.323  22.182  1.00  0.00     0.169 C 
BRANCH  19  20
ATOM     20  O   UNL A   1      33.390  25.919  21.031  1.00  0.00    -0.384 OA
ATOM     21  C   UNL A   1      32.603  25.468  19.937  1.00  0.00     0.194 C 
ENDBRANCH  19  20
ENDBRANCH  18  19
ENDBRANCH  16  18
ENDBRANCH   7  16
ENDBRANCH   3   6
ENDBRANCH   1   2
BRANCH   1  22
ATOM     22  C   UNL A   1      31.676  28.523  26.688  1.00  0.00     0.042 C 
BRANCH  22  23
ATOM     23  C   UNL A   1      32.555  29.537  25.971  1.00  0.00     0.118 C 
BRANCH  23  24
ATOM     24  N   UNL A   1      32.436  30.913  26.455  1.00  0.00    -0.352 N 
ATOM     25  C   UNL A   1      33.257  31.711  27.226  1.00  0.00     0.251 C 
ATOM     26  H   UNL A   1      31.602  31.357  26.177  1.00  0.00     0.163 HD
ATOM     27  O   UNL A   1      32.877  32.835  27.527  1.00  0.00    -0.269 OA
BRANCH  25  28
ATOM     28  C   UNL A   1      34.565  31.222  27.730  1.00  0.00     0.039 A 
ATOM     29  C   UNL A   1      35.593  32.142  27.967  1.00  0.00     0.014 A 
ATOM     30  C   UNL A   1      34.795  29.874  27.978  1.00  0.00     0.014 A 
ATOM     31  C   UNL A   1      36.791  31.717  28.556  1.00  0.00     0.010 A 
ATOM     32  C   UNL A   1      35.911  29.481  28.706  1.00  0.00     0.010 A 
ATOM     33  C   UNL A   1      36.935  30.392  28.996  1.00  0.00    -0.014 A 
BRANCH  33  34
ATOM     34  C   UNL A   1      38.130  29.923  29.752  1.00  0.00     0.031 A 
ATOM     35  C   UNL A   1      38.366  30.391  31.170  1.00  0.00     0.074 A 
ATOM     36  C   UNL A   1      39.071  29.183  29.129  1.00  0.00     0.049 A 
ATOM     37  N   UNL A   1      39.406  30.199  31.940  1.00  0.00    -0.248 NA
ATOM     38  C   UNL A   1      37.320  31.228  31.785  1.00  0.00     0.031 C 
ATOM     39  C   UNL A   1      39.027  28.754  27.729  1.00  0.00     0.029 A 
ATOM     40  N   UNL A   1      40.267  28.684  29.586  1.00  0.00    -0.354 N 
ATOM     41  C   UNL A   1      39.168  30.942  33.092  1.00  0.00     0.074 A 
ATOM     42  C   UNL A   1      37.908  31.624  32.903  1.00  0.00     0.031 C 
ATOM     43  C   UNL A   1      40.132  28.044  27.447  1.00  0.00     0.029 A 
ATOM     44  C   UNL A   1      40.980  27.994  28.631  1.00  0.00     0.049 A 
ATOM     45  H   UNL A   1      40.584  28.808  30.509  1.00  0.00     0.167 HD
ATOM     46  C   UNL A   1      39.904  31.018  34.226  1.00  0.00     0.034 A 
ATOM     47  C   UNL A   1      42.183  27.390  28.701  1.00  0.00     0.034 A 
ATOM     48  C   UNL A   1      41.107  30.264  34.452  1.00  0.00     0.049 A 
ATOM     49  C   UNL A   1      42.930  27.399  30.006  1.00  0.00     0.074 A 
ATOM     50  C   UNL A   1      41.860  30.170  35.608  1.00  0.00     0.029 A 
ATOM     51  N   UNL A   1      41.727  29.466  33.504  1.00  0.00    -0.354 N 
ATOM     52  N   UNL A   1      42.601  27.968  31.141  1.00  0.00    -0.248 NA
ATOM     53  C   UNL A   1      44.194  26.649  30.056  1.00  0.00     0.031 C 
ATOM     54  C   UNL A   1      42.944  29.323  35.355  1.00  0.00     0.029 A 
ATOM     55  C   UNL A   1      42.854  28.874  34.048  1.00  0.00     0.049 A 
ATOM     56  H   UNL A   1      41.413  29.337  32.580  1.00  0.00     0.167 HD
ATOM     57  C   UNL A   1      43.596  27.617  32.046  1.00  0.00     0.074 A 
ATOM     58  C   UNL A   1      44.526  26.766  31.334  1.00  0.00     0.031 C 
ATOM     59  C   UNL A   1      43.738  27.982  33.344  1.00  0.00     0.034 A 
BRANCH  46  60
ATOM     60  C   UNL A   1      39.390  31.890  35.343  1.00  0.00     0.023 A 
ATOM     61  C   UNL A   1      38.476  31.358  36.276  1.00  0.00     0.012 A 
ATOM     62  C   UNL A   1      39.848  33.213  35.504  1.00  0.00     0.148 A 
ATOM     63  C   UNL A   1      37.992  32.139  37.325  1.00  0.00     0.002 A 
ATOM     64  C   UNL A   1      39.399  33.970  36.582  1.00  0.00     0.091 A 
ATOM     65  F   UNL A   1      40.701  33.710  34.598  1.00  0.00    -0.205 F 
ATOM     66  C   UNL A   1      38.463  33.439  37.484  1.00  0.00     0.022 A 
BRANCH  64  67
ATOM     67  S   UNL A   1      40.007  35.625  36.924  1.00  0.00     0.127 S 
ATOM     68  O   UNL A   1      39.327  35.934  38.182  1.00  0.00    -0.237 OA
ATOM     69  O   UNL A   1      41.448  35.404  37.048  1.00  0.00    -0.237 OA
ATOM     70  O   UNL A   1      39.613  36.441  35.784  1.00  0.00    -0.744 OA
ENDBRANCH  64  67
ENDBRANCH  46  60
BRANCH  47  71
ATOM     71  C   UNL A   1      42.715  26.650  27.520  1.00  0.00     0.023 A 
ATOM     72  C   UNL A   1      43.566  27.316  26.617  1.00  0.00     0.012 A 
ATOM     73  C   UNL A   1      42.412  25.292  27.302  1.00  0.00     0.148 A 
ATOM     74  C   UNL A   1      44.077  26.655  25.499  1.00  0.00     0.002 A 
ATOM     75  C   UNL A   1      42.970  24.624  26.217  1.00  0.00     0.091 A 
ATOM     76  F   UNL A   1      41.592  24.676  28.166  1.00  0.00    -0.205 F 
ATOM     77  C   UNL A   1      43.787  25.308  25.304  1.00  0.00     0.022 A 
BRANCH  75  78
ATOM     78  S   UNL A   1      42.759  22.857  25.964  1.00  0.00     0.127 S 
ATOM     79  O   UNL A   1      43.626  22.300  26.999  1.00  0.00    -0.237 OA
ATOM     80  O   UNL A   1      41.326  22.684  26.200  1.00  0.00    -0.237 OA
ATOM     81  O   UNL A   1      43.173  22.608  24.589  1.00  0.00    -0.744 OA
ENDBRANCH  75  78
ENDBRANCH  47  71
BRANCH  59  82
ATOM     82  C   UNL A   1      44.921  27.438  34.098  1.00  0.00     0.023 A 
ATOM     83  C   UNL A   1      46.133  28.156  34.112  1.00  0.00     0.012 A 
ATOM     84  C   UNL A   1      44.810  26.253  34.851  1.00  0.00     0.148 A 
ATOM     85  C   UNL A   1      47.226  27.687  34.839  1.00  0.00     0.002 A 
ATOM     86  C   UNL A   1      45.887  25.816  35.612  1.00  0.00     0.091 A 
ATOM     87  F   UNL A   1      43.655  25.572  34.808  1.00  0.00    -0.205 F 
ATOM     88  C   UNL A   1      47.100  26.525  35.597  1.00  0.00     0.022 A 
BRANCH  86  89
ATOM     89  S   UNL A   1      45.781  24.386  36.693  1.00  0.00     0.127 S 
ATOM     90  O   UNL A   1      47.153  24.281  37.185  1.00  0.00    -0.237 OA
ATOM     91  O   UNL A   1      44.805  24.822  37.693  1.00  0.00    -0.237 OA
ATOM     92  O   UNL A   1      45.328  23.284  35.853  1.00  0.00    -0.744 OA
ENDBRANCH  86  89
ENDBRANCH  59  82
ENDBRANCH  33  34
ENDBRANCH  25  28
ENDBRANCH  23  24
ENDBRANCH  22  23
ENDBRANCH   1  22
TORSDOF 17
ENDMDL
MODEL 2
REMARK VINA RESULT:     -11.1      5.047      7.695
REMARK SMILES COCCC(=O)N1[C@@H](C(=O)NCCCNC(=O)c2ccc(-c3c4nc(c(-c5cccc(S(=O)(=O)[O-])c5F)c5ccc([nH]5)c(-c5cccc(S(=O)(=O)[O-])c5F)c5nc(c(-c6cccc(S(=O)(=O)[O-])c6F)c6ccc3[nH]6)C=C5)C=C4)cc2)CC[C@H]2CCCC[C@@H]21
REMARK SMILES IDX 12 1 11 2 9 3 10 4 8 6 7 7 88 8 81 9 83 10 87 11 82 12 84 13
REMARK SMILES IDX 86 14 85 15 5 16 6 17 4 18 3 19 2 20 1 21 13 22 14 23 15 24
REMARK SMILES IDX 16 25 17 27 18 28 19 29 80 30 20 31 79 32 21 33 22 34 23 35
REMARK SMILES IDX 73 36 24 37 78 38 72 39 74 40 25 41 77 42 71 43 70 44 26 46
REMARK SMILES IDX 58 47 38 48 57 49 39 50 42 51 56 52 75 53 40 54 41 55 55 57
REMARK SMILES IDX 76 58 43 59 27 60 28 61 36 62 29 63 31 64 37 65 30 66 32 67
REMARK SMILES IDX 33 68 34 69 35 70 59 71 60 72 68 73 61 74 63 75 69 76 62 77
REMARK SMILES IDX 64 78 65 79 66 80 67 81 44 82 45 83 53 84 46 85 48 86 54 87
REMARK SMILES IDX 47 88 49 89 50 90 51 91 52 92
REMARK H PARENT 11 5 15 26 74 45 42 56
REMARK Flexibility Score: inf
ROOT
ATOM      1  C   UNL A   1      35.680  23.325  23.728  1.00  0.00     0.117 C 
ENDROOT
BRANCH   1   2
ATOM      2  N   UNL A   1      34.462  23.215  22.977  1.00  0.00    -0.354 N 
ATOM      3  C   UNL A   1      33.633  24.258  22.650  1.00  0.00     0.242 C 
ATOM      4  O   UNL A   1      32.719  24.010  21.851  1.00  0.00    -0.273 OA
ATOM      5  H   UNL A   1      34.200  22.317  22.670  1.00  0.00     0.163 HD
BRANCH   3   6
ATOM      6  C   UNL A   1      33.610  25.593  23.475  1.00  0.00     0.174 C 
ATOM      7  N   UNL A   1      32.749  25.757  24.677  1.00  0.00    -0.327 N 
ATOM      8  C   UNL A   1      32.609  27.122  25.226  1.00  0.00     0.089 C 
ATOM      9  C   UNL A   1      33.242  26.642  22.377  1.00  0.00     0.036 C 
ATOM     10  C   UNL A   1      33.148  28.224  24.287  1.00  0.00     0.012 C 
ATOM     11  C   UNL A   1      33.322  27.339  26.580  1.00  0.00     0.025 C 
ATOM     12  C   UNL A   1      32.677  27.968  22.873  1.00  0.00     0.008 C 
ATOM     13  C   UNL A   1      32.737  29.606  24.805  1.00  0.00     0.006 C 
ATOM     14  C   UNL A   1      32.983  28.710  27.166  1.00  0.00     0.002 C 
ATOM     15  C   UNL A   1      33.303  29.850  26.203  1.00  0.00     0.000 C 
BRANCH   7  16
ATOM     16  C   UNL A   1      32.630  24.698  25.588  1.00  0.00     0.225 C 
ATOM     17  O   UNL A   1      33.605  24.180  26.126  1.00  0.00    -0.275 OA
BRANCH  16  18
ATOM     18  C   UNL A   1      31.230  24.072  25.674  1.00  0.00     0.128 C 
BRANCH  18  19
ATOM     19  C   UNL A   1      31.066  22.588  25.422  1.00  0.00     0.169 C 
BRANCH  19  20
ATOM     20  O   UNL A   1      29.992  22.030  26.191  1.00  0.00    -0.384 OA
ATOM     21  C   UNL A   1      29.564  22.835  27.280  1.00  0.00     0.194 C 
ENDBRANCH  19  20
ENDBRANCH  18  19
ENDBRANCH  16  18
ENDBRANCH   7  16
ENDBRANCH   3   6
ENDBRANCH   1   2
BRANCH   1  22
ATOM     22  C   UNL A   1      36.533  22.087  23.878  1.00  0.00     0.042 C 
BRANCH  22  23
ATOM     23  C   UNL A   1      36.833  21.705  25.320  1.00  0.00     0.118 C 
BRANCH  23  24
ATOM     24  N   UNL A   1      37.921  20.740  25.491  1.00  0.00    -0.352 N 
ATOM     25  C   UNL A   1      39.189  20.841  26.028  1.00  0.00     0.251 C 
ATOM     26  H   UNL A   1      37.705  19.840  25.156  1.00  0.00     0.163 HD
ATOM     27  O   UNL A   1      39.923  19.862  25.998  1.00  0.00    -0.269 OA
BRANCH  25  28
ATOM     28  C   UNL A   1      39.692  22.116  26.598  1.00  0.00     0.039 A 
ATOM     29  C   UNL A   1      40.693  22.079  27.577  1.00  0.00     0.014 A 
ATOM     30  C   UNL A   1      39.200  23.347  26.182  1.00  0.00     0.014 A 
ATOM     31  C   UNL A   1      41.266  23.271  28.038  1.00  0.00     0.010 A 
ATOM     32  C   UNL A   1      39.874  24.515  26.517  1.00  0.00     0.010 A 
ATOM     33  C   UNL A   1      40.910  24.500  27.460  1.00  0.00    -0.014 A 
BRANCH  33  34
ATOM     34  C   UNL A   1      41.587  25.778  27.814  1.00  0.00     0.031 A 
ATOM     35  C   UNL A   1      40.840  26.853  28.570  1.00  0.00     0.074 A 
ATOM     36  C   UNL A   1      42.829  26.031  27.349  1.00  0.00     0.049 A 
ATOM     37  N   UNL A   1      41.213  28.075  28.853  1.00  0.00    -0.248 NA
ATOM     38  C   UNL A   1      39.474  26.532  29.020  1.00  0.00     0.031 C 
ATOM     39  C   UNL A   1      43.624  25.130  26.512  1.00  0.00     0.029 A 
ATOM     40  N   UNL A   1      43.630  27.139  27.489  1.00  0.00    -0.354 N 
ATOM     41  C   UNL A   1      40.111  28.680  29.449  1.00  0.00     0.074 A 
ATOM     42  C   UNL A   1      39.042  27.709  29.446  1.00  0.00     0.031 C 
ATOM     43  C   UNL A   1      44.802  25.710  26.229  1.00  0.00     0.029 A 
ATOM     44  C   UNL A   1      44.836  27.037  26.833  1.00  0.00     0.049 A 
ATOM     45  H   UNL A   1      43.366  27.931  28.010  1.00  0.00     0.167 HD
ATOM     46  C   UNL A   1      40.007  29.916  29.992  1.00  0.00     0.034 A 
ATOM     47  C   UNL A   1      45.854  27.912  26.726  1.00  0.00     0.034 A 
ATOM     48  C   UNL A   1      41.099  30.846  30.083  1.00  0.00     0.049 A 
ATOM     49  C   UNL A   1      45.755  29.238  27.431  1.00  0.00     0.074 A 
ATOM     50  C   UNL A   1      41.136  32.071  30.724  1.00  0.00     0.029 A 
ATOM     51  N   UNL A   1      42.351  30.649  29.523  1.00  0.00    -0.354 N 
ATOM     52  N   UNL A   1      44.762  29.723  28.138  1.00  0.00    -0.248 NA
ATOM     53  C   UNL A   1      46.928  30.121  27.361  1.00  0.00     0.031 C 
ATOM     54  C   UNL A   1      42.409  32.621  30.542  1.00  0.00     0.029 A 
ATOM     55  C   UNL A   1      43.170  31.729  29.804  1.00  0.00     0.049 A 
ATOM     56  H   UNL A   1      42.620  29.857  29.003  1.00  0.00     0.167 HD
ATOM     57  C   UNL A   1      45.204  30.948  28.624  1.00  0.00     0.074 A 
ATOM     58  C   UNL A   1      46.562  31.120  28.151  1.00  0.00     0.031 C 
ATOM     59  C   UNL A   1      44.538  31.858  29.377  1.00  0.00     0.034 A 
BRANCH  46  60
ATOM     60  C   UNL A   1      38.685  30.308  30.603  1.00  0.00     0.023 A 
ATOM     61  C   UNL A   1      38.372  29.889  31.913  1.00  0.00     0.012 A 
ATOM     62  C   UNL A   1      37.777  31.131  29.908  1.00  0.00     0.148 A 
ATOM     63  C   UNL A   1      37.162  30.246  32.506  1.00  0.00     0.002 A 
ATOM     64  C   UNL A   1      36.594  31.525  30.525  1.00  0.00     0.091 A 
ATOM     65  F   UNL A   1      38.080  31.505  28.657  1.00  0.00    -0.205 F 
ATOM     66  C   UNL A   1      36.280  31.072  31.817  1.00  0.00     0.022 A 
BRANCH  64  67
ATOM     67  S   UNL A   1      35.429  32.655  29.756  1.00  0.00     0.127 S 
ATOM     68  O   UNL A   1      34.596  31.737  28.980  1.00  0.00    -0.237 OA
ATOM     69  O   UNL A   1      34.765  33.248  30.917  1.00  0.00    -0.237 OA
ATOM     70  O   UNL A   1      36.230  33.585  28.973  1.00  0.00    -0.744 OA
ENDBRANCH  64  67
ENDBRANCH  46  60
BRANCH  47  71
ATOM     71  C   UNL A   1      47.095  27.528  25.993  1.00  0.00     0.023 A 
ATOM     72  C   UNL A   1      48.117  26.845  26.681  1.00  0.00     0.012 A 
ATOM     73  C   UNL A   1      47.258  27.804  24.622  1.00  0.00     0.148 A 
ATOM     74  C   UNL A   1      49.294  26.475  26.027  1.00  0.00     0.002 A 
ATOM     75  C   UNL A   1      48.408  27.383  23.962  1.00  0.00     0.091 A 
ATOM     76  F   UNL A   1      46.280  28.464  23.985  1.00  0.00    -0.205 F 
ATOM     77  C   UNL A   1      49.435  26.735  24.667  1.00  0.00     0.022 A 
BRANCH  75  78
ATOM     78  S   UNL A   1      48.617  27.556  22.186  1.00  0.00     0.127 S 
ATOM     79  O   UNL A   1      49.828  28.368  22.104  1.00  0.00    -0.237 OA
ATOM     80  O   UNL A   1      48.777  26.166  21.760  1.00  0.00    -0.237 OA
ATOM     81  O   UNL A   1      47.394  28.190  21.709  1.00  0.00    -0.744 OA
ENDBRANCH  75  78
ENDBRANCH  47  71
BRANCH  59  82
ATOM     82  C   UNL A   1      45.275  33.110  29.772  1.00  0.00     0.023 A 
ATOM     83  C   UNL A   1      46.079  33.114  30.928  1.00  0.00     0.012 A 
ATOM     84  C   UNL A   1      45.227  34.259  28.958  1.00  0.00     0.148 A 
ATOM     85  C   UNL A   1      46.800  34.252  31.286  1.00  0.00     0.002 A 
ATOM     86  C   UNL A   1      45.986  35.373  29.293  1.00  0.00     0.091 A 
ATOM     87  F   UNL A   1      44.440  34.243  27.872  1.00  0.00    -0.205 F 
ATOM     88  C   UNL A   1      46.763  35.376  30.464  1.00  0.00     0.022 A 
BRANCH  86  89
ATOM     89  S   UNL A   1      46.075  36.826  28.241  1.00  0.00     0.127 S 
ATOM     90  O   UNL A   1      47.079  36.421  27.259  1.00  0.00    -0.237 OA
ATOM     91  O   UNL A   1      44.711  36.918  27.718  1.00  0.00    -0.237 OA
ATOM     92  O   UNL A   1      46.459  37.927  29.115  1.00  0.00    -0.744 OA
ENDBRANCH  86  89
ENDBRANCH  59  82
ENDBRANCH  33  34
ENDBRANCH  25  28
ENDBRANCH  23  24
ENDBRANCH  22  23
ENDBRANCH   1  22
TORSDOF 17
ENDMDL
MODEL 3
REMARK VINA RESULT:     -10.7      4.700      9.688
REMARK SMILES COCCC(=O)N1[C@@H](C(=O)NCCCNC(=O)c2ccc(-c3c4nc(c(-c5cccc(S(=O)(=O)[O-])c5F)c5ccc([nH]5)c(-c5cccc(S(=O)(=O)[O-])c5F)c5nc(c(-c6cccc(S(=O)(=O)[O-])c6F)c6ccc3[nH]6)C=C5)C=C4)cc2)CC[C@H]2CCCC[C@@H]21
REMARK SMILES IDX 12 1 11 2 9 3 10 4 8 6 7 7 88 8 81 9 83 10 87 11 82 12 84 13
REMARK SMILES IDX 86 14 85 15 5 16 6 17 4 18 3 19 2 20 1 21 13 22 14 23 15 24
REMARK SMILES IDX 16 25 17 27 18 28 19 29 80 30 20 31 79 32 21 33 22 34 23 35
REMARK SMILES IDX 73 36 24 37 78 38 72 39 74 40 25 41 77 42 71 43 70 44 26 46
REMARK SMILES IDX 58 47 38 48 57 49 39 50 42 51 56 52 75 53 40 54 41 55 55 57
REMARK SMILES IDX 76 58 43 59 27 60 28 61 36 62 29 63 31 64 37 65 30 66 32 67
REMARK SMILES IDX 33 68 34 69 35 70 59 71 60 72 68 73 61 74 63 75 69 76 62 77
REMARK SMILES IDX 64 78 65 79 66 80 67 81 44 82 45 83 53 84 46 85 48 86 54 87
REMARK SMILES IDX 47 88 49 89 50 90 51 91 52 92
REMARK H PARENT 11 5 15 26 74 45 42 56
REMARK Flexibility Score: inf
ROOT
ATOM      1  C   UNL A   1      35.974  23.413  23.812  1.00  0.00     0.117 C 
ENDROOT
BRANCH   1   2
ATOM      2  N   UNL A   1      34.792  23.038  23.088  1.00  0.00    -0.354 N 
ATOM      3  C   UNL A   1      33.807  23.898  22.675  1.00  0.00     0.242 C 
ATOM      4  O   UNL A   1      32.949  23.432  21.913  1.00  0.00    -0.273 OA
ATOM      5  H   UNL A   1      34.681  22.085  22.869  1.00  0.00     0.163 HD
BRANCH   3   6
ATOM      6  C   UNL A   1      33.565  25.284  23.372  1.00  0.00     0.174 C 
ATOM      7  N   UNL A   1      32.563  25.449  24.460  1.00  0.00    -0.327 N 
ATOM      8  C   UNL A   1      32.233  26.831  24.868  1.00  0.00     0.089 C 
ATOM      9  C   UNL A   1      33.225  26.201  22.154  1.00  0.00     0.036 C 
ATOM     10  C   UNL A   1      32.767  27.907  23.897  1.00  0.00     0.012 C 
ATOM     11  C   UNL A   1      32.766  27.224  26.265  1.00  0.00     0.025 C 
ATOM     12  C   UNL A   1      32.484  27.495  22.470  1.00  0.00     0.008 C 
ATOM     13  C   UNL A   1      32.172  29.275  24.246  1.00  0.00     0.006 C 
ATOM     14  C   UNL A   1      32.234  28.594  26.689  1.00  0.00     0.002 C 
ATOM     15  C   UNL A   1      32.551  29.683  25.669  1.00  0.00     0.000 C 
BRANCH   7  16
ATOM     16  C   UNL A   1      32.443  24.457  25.443  1.00  0.00     0.225 C 
ATOM     17  O   UNL A   1      33.377  24.140  26.174  1.00  0.00    -0.275 OA
BRANCH  16  18
ATOM     18  C   UNL A   1      31.151  23.630  25.373  1.00  0.00     0.128 C 
BRANCH  18  19
ATOM     19  C   UNL A   1      30.915  22.539  26.396  1.00  0.00     0.169 C 
BRANCH  19  20
ATOM     20  O   UNL A   1      30.143  23.008  27.510  1.00  0.00    -0.384 OA
ATOM     21  C   UNL A   1      28.800  22.543  27.536  1.00  0.00     0.194 C 
ENDBRANCH  19  20
ENDBRANCH  18  19
ENDBRANCH  16  18
ENDBRANCH   7  16
ENDBRANCH   3   6
ENDBRANCH   1   2
BRANCH   1  22
ATOM     22  C   UNL A   1      36.440  22.504  24.925  1.00  0.00     0.042 C 
BRANCH  22  23
ATOM     23  C   UNL A   1      37.544  23.092  25.791  1.00  0.00     0.118 C 
BRANCH  23  24
ATOM     24  N   UNL A   1      38.538  22.128  26.266  1.00  0.00    -0.352 N 
ATOM     25  C   UNL A   1      39.772  22.271  26.868  1.00  0.00     0.251 C 
ATOM     26  H   UNL A   1      38.274  21.189  26.126  1.00  0.00     0.163 HD
ATOM     27  O   UNL A   1      40.427  21.269  27.121  1.00  0.00    -0.269 OA
BRANCH  25  28
ATOM     28  C   UNL A   1      40.336  23.610  27.174  1.00  0.00     0.039 A 
ATOM     29  C   UNL A   1      40.063  24.680  26.312  1.00  0.00     0.014 A 
ATOM     30  C   UNL A   1      41.123  23.832  28.297  1.00  0.00     0.014 A 
ATOM     31  C   UNL A   1      40.483  25.973  26.647  1.00  0.00     0.010 A 
ATOM     32  C   UNL A   1      41.398  25.130  28.708  1.00  0.00     0.010 A 
ATOM     33  C   UNL A   1      41.096  26.223  27.885  1.00  0.00    -0.014 A 
BRANCH  33  34
ATOM     34  C   UNL A   1      41.434  27.597  28.350  1.00  0.00     0.031 A 
ATOM     35  C   UNL A   1      42.878  28.024  28.478  1.00  0.00     0.074 A 
ATOM     36  C   UNL A   1      40.455  28.421  28.780  1.00  0.00     0.049 A 
ATOM     37  N   UNL A   1      43.373  29.124  28.985  1.00  0.00    -0.248 NA
ATOM     38  C   UNL A   1      43.905  27.067  28.027  1.00  0.00     0.031 C 
ATOM     39  C   UNL A   1      39.027  28.097  28.818  1.00  0.00     0.029 A 
ATOM     40  N   UNL A   1      40.516  29.692  29.297  1.00  0.00    -0.354 N 
ATOM     41  C   UNL A   1      44.754  28.961  28.974  1.00  0.00     0.074 A 
ATOM     42  C   UNL A   1      45.020  27.640  28.454  1.00  0.00     0.031 C 
ATOM     43  C   UNL A   1      38.348  29.145  29.312  1.00  0.00     0.029 A 
ATOM     44  C   UNL A   1      39.289  30.203  29.659  1.00  0.00     0.049 A 
ATOM     45  H   UNL A   1      41.358  30.192  29.399  1.00  0.00     0.167 HD
ATOM     46  C   UNL A   1      45.720  29.844  29.321  1.00  0.00     0.034 A 
ATOM     47  C   UNL A   1      38.959  31.387  30.209  1.00  0.00     0.034 A 
ATOM     48  C   UNL A   1      45.458  31.192  29.746  1.00  0.00     0.049 A 
ATOM     49  C   UNL A   1      40.045  32.392  30.485  1.00  0.00     0.074 A 
ATOM     50  C   UNL A   1      46.364  32.206  29.999  1.00  0.00     0.029 A 
ATOM     51  N   UNL A   1      44.196  31.717  29.970  1.00  0.00    -0.354 N 
ATOM     52  N   UNL A   1      41.339  32.278  30.305  1.00  0.00    -0.248 NA
ATOM     53  C   UNL A   1      39.624  33.703  31.000  1.00  0.00     0.031 C 
ATOM     54  C   UNL A   1      45.649  33.343  30.389  1.00  0.00     0.029 A 
ATOM     55  C   UNL A   1      44.296  33.041  30.359  1.00  0.00     0.049 A 
ATOM     56  H   UNL A   1      43.351  31.222  29.867  1.00  0.00     0.167 HD
ATOM     57  C   UNL A   1      41.881  33.510  30.651  1.00  0.00     0.074 A 
ATOM     58  C   UNL A   1      40.773  34.363  31.027  1.00  0.00     0.031 C 
ATOM     59  C   UNL A   1      43.181  33.895  30.673  1.00  0.00     0.034 A 
BRANCH  46  60
ATOM     60  C   UNL A   1      47.157  29.407  29.182  1.00  0.00     0.023 A 
ATOM     61  C   UNL A   1      47.838  28.887  30.303  1.00  0.00     0.012 A 
ATOM     62  C   UNL A   1      47.816  29.458  27.938  1.00  0.00     0.148 A 
ATOM     63  C   UNL A   1      49.162  28.466  30.199  1.00  0.00     0.002 A 
ATOM     64  C   UNL A   1      49.121  28.990  27.832  1.00  0.00     0.091 A 
ATOM     65  F   UNL A   1      47.162  29.973  26.887  1.00  0.00    -0.205 F 
ATOM     66  C   UNL A   1      49.799  28.507  28.963  1.00  0.00     0.022 A 
BRANCH  64  67
ATOM     67  S   UNL A   1      50.002  28.921  26.268  1.00  0.00     0.127 S 
ATOM     68  O   UNL A   1      51.092  27.999  26.584  1.00  0.00    -0.237 OA
ATOM     69  O   UNL A   1      48.986  28.377  25.367  1.00  0.00    -0.237 OA
ATOM     70  O   UNL A   1      50.406  30.288  25.973  1.00  0.00    -0.744 OA
ENDBRANCH  64  67
ENDBRANCH  46  60
BRANCH  47  71
ATOM     71  C   UNL A   1      37.526  31.722  30.454  1.00  0.00     0.023 A 
ATOM     72  C   UNL A   1      37.015  31.636  31.764  1.00  0.00     0.012 A 
ATOM     73  C   UNL A   1      36.680  32.152  29.414  1.00  0.00     0.148 A 
ATOM     74  C   UNL A   1      35.678  31.938  32.028  1.00  0.00     0.002 A 
ATOM     75  C   UNL A   1      35.364  32.505  29.694  1.00  0.00     0.091 A 
ATOM     76  F   UNL A   1      37.181  32.219  28.172  1.00  0.00    -0.205 F 
ATOM     77  C   UNL A   1      34.856  32.381  30.996  1.00  0.00     0.022 A 
BRANCH  75  78
ATOM     78  S   UNL A   1      34.274  33.213  28.453  1.00  0.00     0.127 S 
ATOM     79  O   UNL A   1      33.688  32.017  27.852  1.00  0.00    -0.237 OA
ATOM     80  O   UNL A   1      33.355  34.005  29.270  1.00  0.00    -0.237 OA
ATOM     81  O   UNL A   1      35.134  34.004  27.583  1.00  0.00    -0.744 OA
ENDBRANCH  75  78
ENDBRANCH  47  71
BRANCH  59  82
ATOM     82  C   UNL A   1      43.483  35.311  31.084  1.00  0.00     0.023 A 
ATOM     83  C   UNL A   1      43.749  35.606  32.435  1.00  0.00     0.012 A 
ATOM     84  C   UNL A   1      43.576  36.335  30.121  1.00  0.00     0.148 A 
ATOM     85  C   UNL A   1      44.071  36.905  32.827  1.00  0.00     0.002 A 
ATOM     86  C   UNL A   1      43.944  37.616  30.510  1.00  0.00     0.091 A 
ATOM     87  F   UNL A   1      43.300  36.039  28.842  1.00  0.00    -0.205 F 
ATOM     88  C   UNL A   1      44.180  37.906  31.865  1.00  0.00     0.022 A 
BRANCH  86  89
ATOM     89  S   UNL A   1      44.205  38.941  29.326  1.00  0.00     0.127 S 
ATOM     90  O   UNL A   1      44.446  40.084  30.205  1.00  0.00    -0.237 OA
ATOM     91  O   UNL A   1      45.382  38.477  28.591  1.00  0.00    -0.237 OA
ATOM     92  O   UNL A   1      42.986  39.008  28.529  1.00  0.00    -0.744 OA
ENDBRANCH  86  89
ENDBRANCH  59  82
ENDBRANCH  33  34
ENDBRANCH  25  28
ENDBRANCH  23  24
ENDBRANCH  22  23
ENDBRANCH   1  22
TORSDOF 17
ENDMDL
