MODEL 1
REMARK VINA RESULT:     -11.6      0.000      0.000
REMARK SMILES C[C@@](NC(=O)CN1CSCC1=O)(C(=O)NCCCNC(=O)c1ccc(-c2c3nc(c(-c4cccc(S(=O)(=O)[O-])c4F)c4ccc([nH]4)c(-c4cccc(S(=O)(=O)[O-])c4F)c4nc(c(-c5cccc(S(=O)(=O)[O-])c5F)c5ccc2[nH]5)C=C4)C=C3)cc1)C(F)(F)F
REMARK SMILES IDX 17 1 16 2 15 3 13 4 14 5 2 7 1 8 3 9 4 10 5 12 6 13 7 14
REMARK SMILES IDX 8 15 11 16 9 17 10 18 12 19 85 20 86 21 87 22 88 23 18 24
REMARK SMILES IDX 19 25 20 26 21 28 22 29 23 30 84 31 24 32 83 33 25 34 26 35
REMARK SMILES IDX 27 36 77 37 28 38 82 39 76 40 78 41 29 42 81 43 75 44 74 45
REMARK SMILES IDX 30 47 62 48 42 49 61 50 43 51 46 52 60 53 79 54 44 55 45 56
REMARK SMILES IDX 59 58 80 59 47 60 31 61 32 62 40 63 33 64 35 65 41 66 34 67
REMARK SMILES IDX 36 68 37 69 38 70 39 71 63 72 64 73 72 74 65 75 67 76 73 77
REMARK SMILES IDX 66 78 68 79 69 80 70 81 71 82 48 83 49 84 57 85 50 86 52 87
REMARK SMILES IDX 58 88 51 89 53 90 54 91 55 92 56 93
REMARK H PARENT 15 6 3 11 19 27 78 46 46 57
REMARK Flexibility Score: inf
ROOT
ATOM      1  C   UNL A   1      31.790  29.044  26.907  1.00  0.00     0.042 C 
ENDROOT
BRANCH   1   2
ATOM      2  C   UNL A   1      32.076  27.557  27.070  1.00  0.00     0.117 C 
BRANCH   2   3
ATOM      3  N   UNL A   1      33.218  27.092  26.292  1.00  0.00    -0.354 N 
ATOM      4  C   UNL A   1      33.245  26.350  25.137  1.00  0.00     0.254 C 
ATOM      5  O   UNL A   1      34.351  26.120  24.644  1.00  0.00    -0.272 OA
ATOM      6  H   UNL A   1      34.099  27.346  26.648  1.00  0.00     0.163 HD
BRANCH   4   7
ATOM      7  C   UNL A   1      31.966  25.714  24.580  1.00  0.00     0.212 C 
ATOM      8  C   UNL A   1      32.390  24.827  23.379  1.00  0.00     0.056 C 
BRANCH   7   9
ATOM      9  N   UNL A   1      31.290  24.851  25.598  1.00  0.00    -0.333 N 
ATOM     10  C   UNL A   1      31.750  23.889  26.446  1.00  0.00     0.240 C 
ATOM     11  H   UNL A   1      30.321  25.010  25.670  1.00  0.00     0.164 HD
ATOM     12  O   UNL A   1      31.026  23.663  27.423  1.00  0.00    -0.273 OA
BRANCH  10  13
ATOM     13  C   UNL A   1      33.118  23.188  26.327  1.00  0.00     0.220 C 
BRANCH  13  14
ATOM     14  N   UNL A   1      33.172  21.821  25.824  1.00  0.00    -0.323 N 
ATOM     15  C   UNL A   1      32.095  21.333  24.999  1.00  0.00     0.190 C 
ATOM     16  C   UNL A   1      34.397  21.190  25.651  1.00  0.00     0.233 C 
ATOM     17  S   UNL A   1      32.575  19.729  24.357  1.00  0.00    -0.130 SA
ATOM     18  C   UNL A   1      34.291  19.898  24.873  1.00  0.00     0.171 C 
ATOM     19  O   UNL A   1      35.451  21.613  26.112  1.00  0.00    -0.274 OA
ENDBRANCH  13  14
ENDBRANCH  10  13
ENDBRANCH   7   9
BRANCH   7  20
ATOM     20  C   UNL A   1      31.044  26.800  23.983  1.00  0.00     0.420 C 
ATOM     21  F   UNL A   1      31.676  27.968  23.737  1.00  0.00    -0.168 F 
ATOM     22  F   UNL A   1      30.562  26.374  22.779  1.00  0.00    -0.168 F 
ATOM     23  F   UNL A   1      29.964  27.065  24.746  1.00  0.00    -0.168 F 
ENDBRANCH   7  20
ENDBRANCH   4   7
ENDBRANCH   2   3
ENDBRANCH   1   2
BRANCH   1  24
ATOM     24  C   UNL A   1      33.023  29.886  26.611  1.00  0.00     0.118 C 
BRANCH  24  25
ATOM     25  N   UNL A   1      32.888  31.284  26.996  1.00  0.00    -0.352 N 
ATOM     26  C   UNL A   1      33.793  32.063  27.683  1.00  0.00     0.251 C 
ATOM     27  H   UNL A   1      32.048  31.725  26.734  1.00  0.00     0.163 HD
ATOM     28  O   UNL A   1      33.531  33.225  27.958  1.00  0.00    -0.269 OA
BRANCH  26  29
ATOM     29  C   UNL A   1      35.071  31.468  28.126  1.00  0.00     0.039 A 
ATOM     30  C   UNL A   1      36.216  32.265  28.081  1.00  0.00     0.014 A 
ATOM     31  C   UNL A   1      35.140  30.157  28.609  1.00  0.00     0.014 A 
ATOM     32  C   UNL A   1      37.418  31.772  28.588  1.00  0.00     0.010 A 
ATOM     33  C   UNL A   1      36.327  29.688  29.167  1.00  0.00     0.010 A 
ATOM     34  C   UNL A   1      37.474  30.495  29.170  1.00  0.00    -0.014 A 
BRANCH  34  35
ATOM     35  C   UNL A   1      38.717  30.035  29.836  1.00  0.00     0.031 A 
ATOM     36  C   UNL A   1      39.112  30.560  31.184  1.00  0.00     0.074 A 
ATOM     37  C   UNL A   1      39.516  29.165  29.186  1.00  0.00     0.049 A 
ATOM     38  N   UNL A   1      40.113  30.196  31.944  1.00  0.00    -0.248 NA
ATOM     39  C   UNL A   1      38.295  31.646  31.747  1.00  0.00     0.031 C 
ATOM     40  C   UNL A   1      39.291  28.667  27.826  1.00  0.00     0.029 A 
ATOM     41  N   UNL A   1      40.679  28.552  29.575  1.00  0.00    -0.354 N 
ATOM     42  C   UNL A   1      40.058  31.015  33.064  1.00  0.00     0.074 A 
ATOM     43  C   UNL A   1      38.947  31.923  32.868  1.00  0.00     0.031 C 
ATOM     44  C   UNL A   1      40.273  27.812  27.503  1.00  0.00     0.029 A 
ATOM     45  C   UNL A   1      41.197  27.701  28.627  1.00  0.00     0.049 A 
ATOM     46  H   UNL A   1      41.103  28.707  30.450  1.00  0.00     0.167 HD
ATOM     47  C   UNL A   1      40.840  30.992  34.169  1.00  0.00     0.034 A 
ATOM     48  C   UNL A   1      42.280  26.900  28.670  1.00  0.00     0.034 A 
ATOM     49  C   UNL A   1      41.924  30.066  34.368  1.00  0.00     0.049 A 
ATOM     50  C   UNL A   1      43.074  26.824  29.946  1.00  0.00     0.074 A 
ATOM     51  C   UNL A   1      42.735  29.912  35.479  1.00  0.00     0.029 A 
ATOM     52  N   UNL A   1      42.349  29.136  33.432  1.00  0.00    -0.354 N 
ATOM     53  N   UNL A   1      42.892  27.474  31.070  1.00  0.00    -0.248 NA
ATOM     54  C   UNL A   1      44.186  25.863  29.980  1.00  0.00     0.031 C 
ATOM     55  C   UNL A   1      43.655  28.891  35.210  1.00  0.00     0.029 A 
ATOM     56  C   UNL A   1      43.406  28.400  33.939  1.00  0.00     0.049 A 
ATOM     57  H   UNL A   1      41.956  29.015  32.537  1.00  0.00     0.167 HD
ATOM     58  C   UNL A   1      43.839  26.975  31.957  1.00  0.00     0.074 A 
ATOM     59  C   UNL A   1      44.578  25.952  31.244  1.00  0.00     0.031 C 
ATOM     60  C   UNL A   1      44.088  27.343  33.238  1.00  0.00     0.034 A 
BRANCH  47  61
ATOM     61  C   UNL A   1      40.506  31.955  35.278  1.00  0.00     0.023 A 
ATOM     62  C   UNL A   1      41.290  33.116  35.440  1.00  0.00     0.012 A 
ATOM     63  C   UNL A   1      39.401  31.746  36.124  1.00  0.00     0.148 A 
ATOM     64  C   UNL A   1      41.003  34.035  36.448  1.00  0.00     0.002 A 
ATOM     65  C   UNL A   1      39.096  32.687  37.102  1.00  0.00     0.091 A 
ATOM     66  F   UNL A   1      38.679  30.627  35.972  1.00  0.00    -0.205 F 
ATOM     67  C   UNL A   1      39.901  33.825  37.272  1.00  0.00     0.022 A 
BRANCH  65  68
ATOM     68  S   UNL A   1      37.655  32.543  38.168  1.00  0.00     0.127 S 
ATOM     69  O   UNL A   1      37.961  33.521  39.211  1.00  0.00    -0.237 OA
ATOM     70  O   UNL A   1      36.566  32.929  37.271  1.00  0.00    -0.237 OA
ATOM     71  O   UNL A   1      37.618  31.153  38.601  1.00  0.00    -0.744 OA
ENDBRANCH  65  68
ENDBRANCH  47  61
BRANCH  48  72
ATOM     72  C   UNL A   1      42.596  26.020  27.510  1.00  0.00     0.023 A 
ATOM     73  C   UNL A   1      43.434  26.503  26.486  1.00  0.00     0.012 A 
ATOM     74  C   UNL A   1      42.111  24.701  27.434  1.00  0.00     0.148 A 
ATOM     75  C   UNL A   1      43.757  25.701  25.392  1.00  0.00     0.002 A 
ATOM     76  C   UNL A   1      42.480  23.888  26.368  1.00  0.00     0.091 A 
ATOM     77  F   UNL A   1      41.304  24.261  28.411  1.00  0.00    -0.205 F 
ATOM     78  C   UNL A   1      43.290  24.391  25.337  1.00  0.00     0.022 A 
BRANCH  76  79
ATOM     79  S   UNL A   1      42.036  22.149  26.294  1.00  0.00     0.127 S 
ATOM     80  O   UNL A   1      42.788  21.695  25.127  1.00  0.00    -0.237 OA
ATOM     81  O   UNL A   1      42.529  21.650  27.578  1.00  0.00    -0.237 OA
ATOM     82  O   UNL A   1      40.585  22.127  26.165  1.00  0.00    -0.744 OA
ENDBRANCH  76  79
ENDBRANCH  48  72
BRANCH  60  83
ATOM     83  C   UNL A   1      45.183  26.612  33.969  1.00  0.00     0.023 A 
ATOM     84  C   UNL A   1      46.511  27.076  33.882  1.00  0.00     0.012 A 
ATOM     85  C   UNL A   1      44.890  25.503  34.786  1.00  0.00     0.148 A 
ATOM     86  C   UNL A   1      47.535  26.426  34.571  1.00  0.00     0.002 A 
ATOM     87  C   UNL A   1      45.910  24.888  35.505  1.00  0.00     0.091 A 
ATOM     88  F   UNL A   1      43.626  25.058  34.838  1.00  0.00    -0.205 F 
ATOM     89  C   UNL A   1      47.234  25.340  35.390  1.00  0.00     0.022 A 
BRANCH  87  90
ATOM     90  S   UNL A   1      45.579  23.544  36.650  1.00  0.00     0.127 S 
ATOM     91  O   UNL A   1      46.927  23.175  37.078  1.00  0.00    -0.237 OA
ATOM     92  O   UNL A   1      44.770  24.196  37.681  1.00  0.00    -0.237 OA
ATOM     93  O   UNL A   1      44.861  22.540  35.875  1.00  0.00    -0.744 OA
ENDBRANCH  87  90
ENDBRANCH  60  83
ENDBRANCH  34  35
ENDBRANCH  26  29
ENDBRANCH  24  25
ENDBRANCH   1  24
TORSDOF 17
ENDMDL
MODEL 2
REMARK VINA RESULT:     -11.3      5.086     10.138
REMARK SMILES C[C@@](NC(=O)CN1CSCC1=O)(C(=O)NCCCNC(=O)c1ccc(-c2c3nc(c(-c4cccc(S(=O)(=O)[O-])c4F)c4ccc([nH]4)c(-c4cccc(S(=O)(=O)[O-])c4F)c4nc(c(-c5cccc(S(=O)(=O)[O-])c5F)c5ccc2[nH]5)C=C4)C=C3)cc1)C(F)(F)F
REMARK SMILES IDX 17 1 16 2 15 3 13 4 14 5 2 7 1 8 3 9 4 10 5 12 6 13 7 14
REMARK SMILES IDX 8 15 11 16 9 17 10 18 12 19 85 20 86 21 87 22 88 23 18 24
REMARK SMILES IDX 19 25 20 26 21 28 22 29 23 30 84 31 24 32 83 33 25 34 26 35
REMARK SMILES IDX 27 36 77 37 28 38 82 39 76 40 78 41 29 42 81 43 75 44 74 45
REMARK SMILES IDX 30 47 62 48 42 49 61 50 43 51 46 52 60 53 79 54 44 55 45 56
REMARK SMILES IDX 59 58 80 59 47 60 31 61 32 62 40 63 33 64 35 65 41 66 34 67
REMARK SMILES IDX 36 68 37 69 38 70 39 71 63 72 64 73 72 74 65 75 67 76 73 77
REMARK SMILES IDX 66 78 68 79 69 80 70 81 71 82 48 83 49 84 57 85 50 86 52 87
REMARK SMILES IDX 58 88 51 89 53 90 54 91 55 92 56 93
REMARK H PARENT 15 6 3 11 19 27 78 46 46 57
REMARK Flexibility Score: inf
ROOT
ATOM      1  C   UNL A   1      35.924  21.964  24.619  1.00  0.00     0.042 C 
ENDROOT
BRANCH   1   2
ATOM      2  C   UNL A   1      34.500  21.834  25.142  1.00  0.00     0.117 C 
BRANCH   2   3
ATOM      3  N   UNL A   1      33.554  21.345  24.145  1.00  0.00    -0.354 N 
ATOM      4  C   UNL A   1      32.558  22.018  23.480  1.00  0.00     0.254 C 
ATOM      5  O   UNL A   1      31.914  21.383  22.642  1.00  0.00    -0.272 OA
ATOM      6  H   UNL A   1      33.642  20.392  23.915  1.00  0.00     0.163 HD
BRANCH   4   7
ATOM      7  C   UNL A   1      32.173  23.447  23.879  1.00  0.00     0.212 C 
ATOM      8  C   UNL A   1      30.761  23.713  23.292  1.00  0.00     0.056 C 
BRANCH   7   9
ATOM      9  N   UNL A   1      32.113  23.609  25.365  1.00  0.00    -0.333 N 
ATOM     10  C   UNL A   1      31.329  24.367  26.181  1.00  0.00     0.240 C 
ATOM     11  H   UNL A   1      32.771  23.059  25.848  1.00  0.00     0.164 HD
ATOM     12  O   UNL A   1      31.258  23.972  27.352  1.00  0.00    -0.273 OA
BRANCH  10  13
ATOM     13  C   UNL A   1      30.469  25.560  25.721  1.00  0.00     0.220 C 
BRANCH  13  14
ATOM     14  N   UNL A   1      31.108  26.852  25.503  1.00  0.00    -0.323 N 
ATOM     15  C   UNL A   1      30.922  27.525  24.242  1.00  0.00     0.190 C 
ATOM     16  C   UNL A   1      31.412  27.670  26.584  1.00  0.00     0.233 C 
ATOM     17  S   UNL A   1      31.626  29.167  24.384  1.00  0.00    -0.130 SA
ATOM     18  C   UNL A   1      31.812  29.069  26.172  1.00  0.00     0.171 C 
ATOM     19  O   UNL A   1      31.395  27.291  27.750  1.00  0.00    -0.274 OA
ENDBRANCH  13  14
ENDBRANCH  10  13
ENDBRANCH   7   9
BRANCH   7  20
ATOM     20  C   UNL A   1      33.104  24.466  23.185  1.00  0.00     0.420 C 
ATOM     21  F   UNL A   1      33.837  25.201  24.049  1.00  0.00    -0.168 F 
ATOM     22  F   UNL A   1      34.002  23.800  22.403  1.00  0.00    -0.168 F 
ATOM     23  F   UNL A   1      32.452  25.318  22.366  1.00  0.00    -0.168 F 
ENDBRANCH   7  20
ENDBRANCH   4   7
ENDBRANCH   2   3
ENDBRANCH   1   2
BRANCH   1  24
ATOM     24  C   UNL A   1      36.965  22.213  25.702  1.00  0.00     0.118 C 
BRANCH  24  25
ATOM     25  N   UNL A   1      38.072  21.269  25.684  1.00  0.00    -0.352 N 
ATOM     26  C   UNL A   1      39.361  21.469  26.126  1.00  0.00     0.251 C 
ATOM     27  H   UNL A   1      37.876  20.379  25.310  1.00  0.00     0.163 HD
ATOM     28  O   UNL A   1      40.198  20.583  26.025  1.00  0.00    -0.269 OA
BRANCH  26  29
ATOM     29  C   UNL A   1      39.740  22.784  26.685  1.00  0.00     0.039 A 
ATOM     30  C   UNL A   1      40.601  22.806  27.783  1.00  0.00     0.014 A 
ATOM     31  C   UNL A   1      39.281  23.978  26.121  1.00  0.00     0.014 A 
ATOM     32  C   UNL A   1      41.062  24.028  28.271  1.00  0.00     0.010 A 
ATOM     33  C   UNL A   1      39.787  25.195  26.572  1.00  0.00     0.010 A 
ATOM     34  C   UNL A   1      40.689  25.230  27.645  1.00  0.00    -0.014 A 
BRANCH  34  35
ATOM     35  C   UNL A   1      41.295  26.512  28.079  1.00  0.00     0.031 A 
ATOM     36  C   UNL A   1      42.741  26.812  27.814  1.00  0.00     0.074 A 
ATOM     37  C   UNL A   1      40.533  27.392  28.758  1.00  0.00     0.049 A 
ATOM     38  N   UNL A   1      43.403  27.918  28.042  1.00  0.00    -0.248 NA
ATOM     39  C   UNL A   1      43.557  25.731  27.241  1.00  0.00     0.031 C 
ATOM     40  C   UNL A   1      39.145  27.165  29.169  1.00  0.00     0.029 A 
ATOM     41  N   UNL A   1      40.817  28.648  29.231  1.00  0.00    -0.354 N 
ATOM     42  C   UNL A   1      44.713  27.663  27.657  1.00  0.00     0.074 A 
ATOM     43  C   UNL A   1      44.761  26.285  27.216  1.00  0.00     0.031 C 
ATOM     44  C   UNL A   1      38.693  28.252  29.814  1.00  0.00     0.029 A 
ATOM     45  C   UNL A   1      39.756  29.250  29.866  1.00  0.00     0.049 A 
ATOM     46  H   UNL A   1      41.697  29.077  29.126  1.00  0.00     0.167 HD
ATOM     47  C   UNL A   1      45.771  28.509  27.640  1.00  0.00     0.034 A 
ATOM     48  C   UNL A   1      39.645  30.480  30.406  1.00  0.00     0.034 A 
ATOM     49  C   UNL A   1      45.705  29.886  28.053  1.00  0.00     0.049 A 
ATOM     50  C   UNL A   1      40.804  31.431  30.286  1.00  0.00     0.074 A 
ATOM     51  C   UNL A   1      46.700  30.848  28.012  1.00  0.00     0.029 A 
ATOM     52  N   UNL A   1      44.580  30.499  28.584  1.00  0.00    -0.354 N 
ATOM     53  N   UNL A   1      41.982  31.231  29.745  1.00  0.00    -0.248 NA
ATOM     54  C   UNL A   1      40.602  32.793  30.800  1.00  0.00     0.031 C 
ATOM     55  C   UNL A   1      46.175  32.041  28.524  1.00  0.00     0.029 A 
ATOM     56  C   UNL A   1      44.852  31.825  28.870  1.00  0.00     0.049 A 
ATOM     57  H   UNL A   1      43.714  30.055  28.735  1.00  0.00     0.167 HD
ATOM     58  C   UNL A   1      42.647  32.450  29.817  1.00  0.00     0.074 A 
ATOM     59  C   UNL A   1      41.730  33.387  30.434  1.00  0.00     0.031 C 
ATOM     60  C   UNL A   1      43.907  32.760  29.426  1.00  0.00     0.034 A 
BRANCH  47  61
ATOM     61  C   UNL A   1      47.073  27.984  27.095  1.00  0.00     0.023 A 
ATOM     62  C   UNL A   1      48.084  27.586  27.994  1.00  0.00     0.012 A 
ATOM     63  C   UNL A   1      47.283  27.837  25.711  1.00  0.00     0.148 A 
ATOM     64  C   UNL A   1      49.297  27.084  27.525  1.00  0.00     0.002 A 
ATOM     65  C   UNL A   1      48.481  27.298  25.251  1.00  0.00     0.091 A 
ATOM     66  F   UNL A   1      46.321  28.240  24.870  1.00  0.00    -0.205 F 
ATOM     67  C   UNL A   1      49.491  26.931  26.155  1.00  0.00     0.022 A 
BRANCH  65  68
ATOM     68  S   UNL A   1      48.799  26.995  23.508  1.00  0.00     0.127 S 
ATOM     69  O   UNL A   1      47.958  25.826  23.253  1.00  0.00    -0.237 OA
ATOM     70  O   UNL A   1      48.327  28.233  22.887  1.00  0.00    -0.237 OA
ATOM     71  O   UNL A   1      50.234  26.772  23.399  1.00  0.00    -0.744 OA
ENDBRANCH  65  68
ENDBRANCH  47  61
BRANCH  48  72
ATOM     72  C   UNL A   1      38.346  30.916  30.992  1.00  0.00     0.023 A 
ATOM     73  C   UNL A   1      38.109  30.715  32.366  1.00  0.00     0.012 A 
ATOM     74  C   UNL A   1      37.367  31.562  30.215  1.00  0.00     0.148 A 
ATOM     75  C   UNL A   1      36.908  31.120  32.949  1.00  0.00     0.002 A 
ATOM     76  C   UNL A   1      36.194  32.013  30.812  1.00  0.00     0.091 A 
ATOM     77  F   UNL A   1      37.604  31.734  28.906  1.00  0.00    -0.205 F 
ATOM     78  C   UNL A   1      35.956  31.777  32.175  1.00  0.00     0.022 A 
BRANCH  76  79
ATOM     79  S   UNL A   1      34.981  32.990  29.918  1.00  0.00     0.127 S 
ATOM     80  O   UNL A   1      34.441  32.012  28.977  1.00  0.00    -0.237 OA
ATOM     81  O   UNL A   1      34.064  33.394  30.984  1.00  0.00    -0.237 OA
ATOM     82  O   UNL A   1      35.732  34.093  29.331  1.00  0.00    -0.744 OA
ENDBRANCH  76  79
ENDBRANCH  48  72
BRANCH  60  83
ATOM     83  C   UNL A   1      44.363  34.183  29.619  1.00  0.00     0.023 A 
ATOM     84  C   UNL A   1      44.903  34.580  30.858  1.00  0.00     0.012 A 
ATOM     85  C   UNL A   1      44.310  35.108  28.558  1.00  0.00     0.148 A 
ATOM     86  C   UNL A   1      45.352  35.887  31.049  1.00  0.00     0.002 A 
ATOM     87  C   UNL A   1      44.801  36.396  28.743  1.00  0.00     0.091 A 
ATOM     88  F   UNL A   1      43.769  34.721  27.394  1.00  0.00    -0.205 F 
ATOM     89  C   UNL A   1      45.311  36.791  29.990  1.00  0.00     0.022 A 
BRANCH  87  90
ATOM     90  S   UNL A   1      44.864  37.584  27.397  1.00  0.00     0.127 S 
ATOM     91  O   UNL A   1      43.469  37.620  26.963  1.00  0.00    -0.237 OA
ATOM     92  O   UNL A   1      45.325  38.800  28.068  1.00  0.00    -0.237 OA
ATOM     93  O   UNL A   1      45.814  37.035  26.437  1.00  0.00    -0.744 OA
ENDBRANCH  87  90
ENDBRANCH  60  83
ENDBRANCH  34  35
ENDBRANCH  26  29
ENDBRANCH  24  25
ENDBRANCH   1  24
TORSDOF 17
ENDMDL
MODEL 3
REMARK VINA RESULT:     -11.2      2.381      3.703
REMARK SMILES C[C@@](NC(=O)CN1CSCC1=O)(C(=O)NCCCNC(=O)c1ccc(-c2c3nc(c(-c4cccc(S(=O)(=O)[O-])c4F)c4ccc([nH]4)c(-c4cccc(S(=O)(=O)[O-])c4F)c4nc(c(-c5cccc(S(=O)(=O)[O-])c5F)c5ccc2[nH]5)C=C4)C=C3)cc1)C(F)(F)F
REMARK SMILES IDX 17 1 16 2 15 3 13 4 14 5 2 7 1 8 3 9 4 10 5 12 6 13 7 14
REMARK SMILES IDX 8 15 11 16 9 17 10 18 12 19 85 20 86 21 87 22 88 23 18 24
REMARK SMILES IDX 19 25 20 26 21 28 22 29 23 30 84 31 24 32 83 33 25 34 26 35
REMARK SMILES IDX 27 36 77 37 28 38 82 39 76 40 78 41 29 42 81 43 75 44 74 45
REMARK SMILES IDX 30 47 62 48 42 49 61 50 43 51 46 52 60 53 79 54 44 55 45 56
REMARK SMILES IDX 59 58 80 59 47 60 31 61 32 62 40 63 33 64 35 65 41 66 34 67
REMARK SMILES IDX 36 68 37 69 38 70 39 71 63 72 64 73 72 74 65 75 67 76 73 77
REMARK SMILES IDX 66 78 68 79 69 80 70 81 71 82 48 83 49 84 57 85 50 86 52 87
REMARK SMILES IDX 58 88 51 89 53 90 54 91 55 92 56 93
REMARK H PARENT 15 6 3 11 19 27 78 46 46 57
REMARK Flexibility Score: inf
ROOT
ATOM      1  C   UNL A   1      33.163  29.259  25.305  1.00  0.00     0.042 C 
ENDROOT
BRANCH   1   2
ATOM      2  C   UNL A   1      32.782  27.840  24.906  1.00  0.00     0.117 C 
BRANCH   2   3
ATOM      3  N   UNL A   1      31.744  27.255  25.746  1.00  0.00    -0.354 N 
ATOM      4  C   UNL A   1      30.692  26.443  25.400  1.00  0.00     0.254 C 
ATOM      5  O   UNL A   1      29.968  26.040  26.312  1.00  0.00    -0.272 OA
ATOM      6  H   UNL A   1      31.805  27.475  26.703  1.00  0.00     0.163 HD
BRANCH   4   7
ATOM      7  C   UNL A   1      30.352  26.182  23.927  1.00  0.00     0.212 C 
ATOM      8  C   UNL A   1      28.806  26.082  23.833  1.00  0.00     0.056 C 
BRANCH   7   9
ATOM      9  N   UNL A   1      30.815  27.300  23.047  1.00  0.00    -0.333 N 
ATOM     10  C   UNL A   1      30.378  28.579  22.871  1.00  0.00     0.240 C 
ATOM     11  H   UNL A   1      31.587  27.065  22.484  1.00  0.00     0.164 HD
ATOM     12  O   UNL A   1      31.212  29.353  22.384  1.00  0.00    -0.273 OA
BRANCH  10  13
ATOM     13  C   UNL A   1      29.011  29.118  23.336  1.00  0.00     0.220 C 
BRANCH  13  14
ATOM     14  N   UNL A   1      28.660  30.502  23.048  1.00  0.00    -0.323 N 
ATOM     15  C   UNL A   1      29.200  31.551  23.876  1.00  0.00     0.190 C 
ATOM     16  C   UNL A   1      28.301  30.876  21.760  1.00  0.00     0.233 C 
ATOM     17  S   UNL A   1      28.778  33.122  23.122  1.00  0.00    -0.130 SA
ATOM     18  C   UNL A   1      28.237  32.376  21.576  1.00  0.00     0.171 C 
ATOM     19  O   UNL A   1      28.028  30.078  20.870  1.00  0.00    -0.274 OA
ENDBRANCH  13  14
ENDBRANCH  10  13
ENDBRANCH   7   9
BRANCH   7  20
ATOM     20  C   UNL A   1      30.880  24.797  23.492  1.00  0.00     0.420 C 
ATOM     21  F   UNL A   1      29.903  23.938  23.128  1.00  0.00    -0.168 F 
ATOM     22  F   UNL A   1      31.681  24.941  22.397  1.00  0.00    -0.168 F 
ATOM     23  F   UNL A   1      31.634  24.192  24.432  1.00  0.00    -0.168 F 
ENDBRANCH   7  20
ENDBRANCH   4   7
ENDBRANCH   2   3
ENDBRANCH   1   2
BRANCH   1  24
ATOM     24  C   UNL A   1      32.774  29.632  26.728  1.00  0.00     0.118 C 
BRANCH  24  25
ATOM     25  N   UNL A   1      32.660  31.067  26.951  1.00  0.00    -0.352 N 
ATOM     26  C   UNL A   1      33.594  31.912  27.510  1.00  0.00     0.251 C 
ATOM     27  H   UNL A   1      31.814  31.482  26.669  1.00  0.00     0.163 HD
ATOM     28  O   UNL A   1      33.348  33.100  27.655  1.00  0.00    -0.269 OA
BRANCH  26  29
ATOM     29  C   UNL A   1      34.884  31.361  27.974  1.00  0.00     0.039 A 
ATOM     30  C   UNL A   1      35.989  32.212  28.002  1.00  0.00     0.014 A 
ATOM     31  C   UNL A   1      35.001  30.036  28.406  1.00  0.00     0.014 A 
ATOM     32  C   UNL A   1      37.196  31.757  28.532  1.00  0.00     0.010 A 
ATOM     33  C   UNL A   1      36.189  29.600  28.988  1.00  0.00     0.010 A 
ATOM     34  C   UNL A   1      37.295  30.460  29.064  1.00  0.00    -0.014 A 
BRANCH  34  35
ATOM     35  C   UNL A   1      38.536  30.033  29.754  1.00  0.00     0.031 A 
ATOM     36  C   UNL A   1      38.884  30.559  31.115  1.00  0.00     0.074 A 
ATOM     37  C   UNL A   1      39.375  29.192  29.116  1.00  0.00     0.049 A 
ATOM     38  N   UNL A   1      39.878  30.219  31.895  1.00  0.00    -0.248 NA
ATOM     39  C   UNL A   1      38.022  31.615  31.667  1.00  0.00     0.031 C 
ATOM     40  C   UNL A   1      39.197  28.699  27.748  1.00  0.00     0.029 A 
ATOM     41  N   UNL A   1      40.547  28.612  29.528  1.00  0.00    -0.354 N 
ATOM     42  C   UNL A   1      39.772  31.027  33.020  1.00  0.00     0.074 A 
ATOM     43  C   UNL A   1      38.639  31.902  32.805  1.00  0.00     0.031 C 
ATOM     44  C   UNL A   1      40.211  27.876  27.442  1.00  0.00     0.029 A 
ATOM     45  C   UNL A   1      41.113  27.784  28.586  1.00  0.00     0.049 A 
ATOM     46  H   UNL A   1      40.946  28.772  30.414  1.00  0.00     0.167 HD
ATOM     47  C   UNL A   1      40.530  31.019  34.143  1.00  0.00     0.034 A 
ATOM     48  C   UNL A   1      42.218  27.016  28.648  1.00  0.00     0.034 A 
ATOM     49  C   UNL A   1      41.636  30.125  34.360  1.00  0.00     0.049 A 
ATOM     50  C   UNL A   1      42.984  26.953  29.941  1.00  0.00     0.074 A 
ATOM     51  C   UNL A   1      42.426  29.986  35.487  1.00  0.00     0.029 A 
ATOM     52  N   UNL A   1      42.111  29.215  33.427  1.00  0.00    -0.354 N 
ATOM     53  N   UNL A   1      42.757  27.589  31.066  1.00  0.00    -0.248 NA
ATOM     54  C   UNL A   1      44.124  26.026  29.994  1.00  0.00     0.031 C 
ATOM     55  C   UNL A   1      43.382  28.995  35.233  1.00  0.00     0.029 A 
ATOM     56  C   UNL A   1      43.178  28.508  33.953  1.00  0.00     0.049 A 
ATOM     57  H   UNL A   1      41.742  29.090  32.522  1.00  0.00     0.167 HD
ATOM     58  C   UNL A   1      43.699  27.112  31.970  1.00  0.00     0.074 A 
ATOM     59  C   UNL A   1      44.484  26.117  31.268  1.00  0.00     0.031 C 
ATOM     60  C   UNL A   1      43.907  27.477  33.260  1.00  0.00     0.034 A 
BRANCH  47  61
ATOM     61  C   UNL A   1      40.141  31.962  35.251  1.00  0.00     0.023 A 
ATOM     62  C   UNL A   1      40.783  33.215  35.343  1.00  0.00     0.012 A 
ATOM     63  C   UNL A   1      39.120  31.641  36.164  1.00  0.00     0.148 A 
ATOM     64  C   UNL A   1      40.441  34.118  36.348  1.00  0.00     0.002 A 
ATOM     65  C   UNL A   1      38.756  32.564  37.140  1.00  0.00     0.091 A 
ATOM     66  F   UNL A   1      38.535  30.438  36.076  1.00  0.00    -0.205 F 
ATOM     67  C   UNL A   1      39.421  33.796  37.240  1.00  0.00     0.022 A 
BRANCH  65  68
ATOM     68  S   UNL A   1      37.406  32.272  38.291  1.00  0.00     0.127 S 
ATOM     69  O   UNL A   1      37.963  32.797  39.537  1.00  0.00    -0.237 OA
ATOM     70  O   UNL A   1      36.329  33.078  37.717  1.00  0.00    -0.237 OA
ATOM     71  O   UNL A   1      37.166  30.836  38.267  1.00  0.00    -0.744 OA
ENDBRANCH  65  68
ENDBRANCH  47  61
BRANCH  48  72
ATOM     72  C   UNL A   1      42.586  26.155  27.490  1.00  0.00     0.023 A 
ATOM     73  C   UNL A   1      43.454  26.662  26.502  1.00  0.00     0.012 A 
ATOM     74  C   UNL A   1      42.123  24.831  27.379  1.00  0.00     0.148 A 
ATOM     75  C   UNL A   1      43.827  25.879  25.411  1.00  0.00     0.002 A 
ATOM     76  C   UNL A   1      42.541  24.036  26.317  1.00  0.00     0.091 A 
ATOM     77  F   UNL A   1      41.288  24.368  28.322  1.00  0.00    -0.205 F 
ATOM     78  C   UNL A   1      43.379  24.564  25.323  1.00  0.00     0.022 A 
BRANCH  76  79
ATOM     79  S   UNL A   1      42.123  22.293  26.206  1.00  0.00     0.127 S 
ATOM     80  O   UNL A   1      42.842  21.887  25.002  1.00  0.00    -0.237 OA
ATOM     81  O   UNL A   1      42.667  21.765  27.457  1.00  0.00    -0.237 OA
ATOM     82  O   UNL A   1      40.668  22.249  26.126  1.00  0.00    -0.744 OA
ENDBRANCH  76  79
ENDBRANCH  48  72
BRANCH  60  83
ATOM     83  C   UNL A   1      45.007  26.773  34.010  1.00  0.00     0.023 A 
ATOM     84  C   UNL A   1      46.328  27.256  33.929  1.00  0.00     0.012 A 
ATOM     85  C   UNL A   1      44.723  25.672  34.841  1.00  0.00     0.148 A 
ATOM     86  C   UNL A   1      47.356  26.632  34.635  1.00  0.00     0.002 A 
ATOM     87  C   UNL A   1      45.746  25.083  35.577  1.00  0.00     0.091 A 
ATOM     88  F   UNL A   1      43.466  25.208  34.888  1.00  0.00    -0.205 F 
ATOM     89  C   UNL A   1      47.064  25.553  35.467  1.00  0.00     0.022 A 
BRANCH  87  90
ATOM     90  S   UNL A   1      45.426  23.749  36.738  1.00  0.00     0.127 S 
ATOM     91  O   UNL A   1      44.528  24.393  37.694  1.00  0.00    -0.237 OA
ATOM     92  O   UNL A   1      44.791  22.737  35.892  1.00  0.00    -0.237 OA
ATOM     93  O   UNL A   1      46.732  23.361  37.255  1.00  0.00    -0.744 OA
ENDBRANCH  87  90
ENDBRANCH  60  83
ENDBRANCH  34  35
ENDBRANCH  26  29
ENDBRANCH  24  25
ENDBRANCH   1  24
TORSDOF 17
ENDMDL
