MODEL 1
REMARK VINA RESULT:     -12.8      0.000      0.000
REMARK SMILES Cc1ccc(Nc2c(Cl)cc(Cl)cc2Cl)c(CC(=O)NCCCNC(=O)c2ccc(-c3c4nc(c(-c5cccc(S(=O)(=O)[O-])c5F)c5ccc([nH]5)c(-c5cccc(S(=O)(=O)[O-])c5F)c5nc(c(-c6cccc(S(=O)(=O)[O-])c6F)c6ccc3[nH]6)C=C5)C=C4)cc2)c1
REMARK SMILES IDX 22 1 21 2 20 3 18 4 19 5 17 7 16 8 1 9 2 10 3 11 90 12 4 13
REMARK SMILES IDX 5 14 6 15 7 17 8 18 14 19 9 20 10 21 13 22 15 23 11 24 12 25
REMARK SMILES IDX 23 26 24 27 25 28 26 30 27 31 28 32 89 33 29 34 88 35 30 36
REMARK SMILES IDX 31 37 32 38 82 39 33 40 87 41 81 42 83 43 34 44 86 45 80 46
REMARK SMILES IDX 79 47 35 49 67 50 47 51 66 52 48 53 51 54 65 55 84 56 49 57
REMARK SMILES IDX 50 58 64 60 85 61 52 62 36 63 37 64 45 65 38 66 40 67 46 68
REMARK SMILES IDX 39 69 41 70 42 71 43 72 44 73 68 74 69 75 77 76 70 77 72 78
REMARK SMILES IDX 78 79 71 80 73 81 74 82 75 83 76 84 53 85 54 86 62 87 55 88
REMARK SMILES IDX 57 89 63 90 56 91 58 92 59 93 60 94 61 95
REMARK H PARENT 20 6 6 16 24 29 83 48 51 59
REMARK Flexibility Score: inf
ROOT
ATOM      1  C   UNL A   1      32.550  30.185  27.266  1.00  0.00     0.042 C 
ENDROOT
BRANCH   1   2
ATOM      2  C   UNL A   1      31.817  29.378  26.201  1.00  0.00     0.117 C 
BRANCH   2   3
ATOM      3  N   UNL A   1      31.503  28.026  26.638  1.00  0.00    -0.356 N 
ATOM      4  C   UNL A   1      32.208  26.871  26.454  1.00  0.00     0.224 C 
ATOM      5  O   UNL A   1      31.725  25.806  26.848  1.00  0.00    -0.275 OA
ATOM      6  H   UNL A   1      30.660  27.930  27.139  1.00  0.00     0.163 HD
BRANCH   4   7
ATOM      7  C   UNL A   1      33.556  26.872  25.748  1.00  0.00     0.137 C 
BRANCH   7   8
ATOM      8  C   UNL A   1      33.871  25.560  25.059  1.00  0.00    -0.015 A 
ATOM      9  C   UNL A   1      35.967  22.483  25.941  1.00  0.00     0.044 C 
ATOM     10  C   UNL A   1      35.081  23.433  25.192  1.00  0.00    -0.051 A 
ATOM     11  C   UNL A   1      34.805  23.211  23.845  1.00  0.00     0.005 A 
ATOM     12  C   UNL A   1      34.571  24.583  25.803  1.00  0.00     0.009 A 
ATOM     13  C   UNL A   1      34.051  24.136  23.118  1.00  0.00     0.026 A 
ATOM     14  C   UNL A   1      33.583  25.329  23.695  1.00  0.00     0.042 A 
BRANCH  14  15
ATOM     15  N   UNL A   1      32.823  26.251  22.938  1.00  0.00    -0.353 N 
ATOM     16  H   UNL A   1      33.277  26.633  22.152  1.00  0.00     0.167 HD
BRANCH  15  17
ATOM     17  C   UNL A   1      31.496  26.702  23.160  1.00  0.00     0.076 A 
ATOM     18  C   UNL A   1      30.439  25.832  23.498  1.00  0.00     0.067 A 
ATOM     19  C   UNL A   1      31.175  28.062  22.947  1.00  0.00     0.067 A 
ATOM     20  Cl  UNL A   1      30.707  24.163  23.889  1.00  0.00    -0.082 Cl
ATOM     21  C   UNL A   1      29.123  26.296  23.595  1.00  0.00     0.043 A 
ATOM     22  C   UNL A   1      29.862  28.529  23.049  1.00  0.00     0.043 A 
ATOM     23  Cl  UNL A   1      32.402  29.203  22.515  1.00  0.00    -0.082 Cl
ATOM     24  C   UNL A   1      28.843  27.639  23.365  1.00  0.00     0.044 A 
ATOM     25  Cl  UNL A   1      27.220  28.195  23.483  1.00  0.00    -0.084 Cl
ENDBRANCH  15  17
ENDBRANCH  14  15
ENDBRANCH   7   8
ENDBRANCH   4   7
ENDBRANCH   2   3
ENDBRANCH   1   2
BRANCH   1  26
ATOM     26  C   UNL A   1      34.021  30.429  26.993  1.00  0.00     0.118 C 
BRANCH  26  27
ATOM     27  N   UNL A   1      34.609  31.439  27.859  1.00  0.00    -0.352 N 
ATOM     28  C   UNL A   1      35.681  31.327  28.725  1.00  0.00     0.251 C 
ATOM     29  H   UNL A   1      34.184  32.326  27.825  1.00  0.00     0.163 HD
ATOM     30  O   UNL A   1      35.940  32.262  29.478  1.00  0.00    -0.269 OA
BRANCH  28  31
ATOM     31  C   UNL A   1      36.573  30.146  28.631  1.00  0.00     0.039 A 
ATOM     32  C   UNL A   1      36.830  29.432  29.807  1.00  0.00     0.014 A 
ATOM     33  C   UNL A   1      37.329  29.906  27.487  1.00  0.00     0.014 A 
ATOM     34  C   UNL A   1      38.009  28.700  29.919  1.00  0.00     0.010 A 
ATOM     35  C   UNL A   1      38.538  29.260  27.619  1.00  0.00     0.010 A 
ATOM     36  C   UNL A   1      38.909  28.734  28.860  1.00  0.00    -0.014 A 
BRANCH  36  37
ATOM     37  C   UNL A   1      40.298  28.318  28.940  1.00  0.00     0.031 A 
ATOM     38  C   UNL A   1      40.654  26.900  28.810  1.00  0.00     0.074 A 
ATOM     39  C   UNL A   1      41.253  29.273  28.909  1.00  0.00     0.049 A 
ATOM     40  N   UNL A   1      41.836  26.438  29.028  1.00  0.00    -0.248 NA
ATOM     41  C   UNL A   1      39.684  25.876  28.458  1.00  0.00     0.031 C 
ATOM     42  C   UNL A   1      42.659  29.118  28.558  1.00  0.00     0.029 A 
ATOM     43  N   UNL A   1      41.176  30.572  29.420  1.00  0.00    -0.354 N 
ATOM     44  C   UNL A   1      41.868  25.154  28.539  1.00  0.00     0.074 A 
ATOM     45  C   UNL A   1      40.481  24.811  28.340  1.00  0.00     0.031 C 
ATOM     46  C   UNL A   1      43.353  30.122  29.115  1.00  0.00     0.029 A 
ATOM     47  C   UNL A   1      42.436  30.823  29.996  1.00  0.00     0.049 A 
ATOM     48  H   UNL A   1      40.403  31.182  29.385  1.00  0.00     0.167 HD
ATOM     49  C   UNL A   1      43.083  24.620  28.223  1.00  0.00     0.034 A 
ATOM     50  C   UNL A   1      42.615  31.013  31.339  1.00  0.00     0.034 A 
ATOM     51  C   UNL A   1      44.180  25.468  28.736  1.00  0.00     0.049 A 
ATOM     52  C   UNL A   1      43.571  30.008  31.978  1.00  0.00     0.074 A 
ATOM     53  C   UNL A   1      45.119  26.323  28.182  1.00  0.00     0.029 A 
ATOM     54  N   UNL A   1      44.244  25.683  30.104  1.00  0.00    -0.354 N 
ATOM     55  N   UNL A   1      44.237  29.087  31.333  1.00  0.00    -0.248 NA
ATOM     56  C   UNL A   1      43.764  29.905  33.425  1.00  0.00     0.031 C 
ATOM     57  C   UNL A   1      45.727  27.069  29.242  1.00  0.00     0.029 A 
ATOM     58  C   UNL A   1      45.179  26.645  30.440  1.00  0.00     0.049 A 
ATOM     59  H   UNL A   1      43.688  25.205  30.761  1.00  0.00     0.167 HD
ATOM     60  C   UNL A   1      44.767  28.189  32.227  1.00  0.00     0.074 A 
ATOM     61  C   UNL A   1      44.483  28.774  33.527  1.00  0.00     0.031 C 
ATOM     62  C   UNL A   1      45.321  26.992  31.850  1.00  0.00     0.034 A 
BRANCH  49  63
ATOM     63  C   UNL A   1      43.327  23.447  27.277  1.00  0.00     0.023 A 
ATOM     64  C   UNL A   1      44.211  23.665  26.193  1.00  0.00     0.012 A 
ATOM     65  C   UNL A   1      42.700  22.178  27.299  1.00  0.00     0.148 A 
ATOM     66  C   UNL A   1      44.401  22.727  25.169  1.00  0.00     0.002 A 
ATOM     67  C   UNL A   1      42.877  21.244  26.274  1.00  0.00     0.091 A 
ATOM     68  F   UNL A   1      41.925  21.826  28.319  1.00  0.00    -0.205 F 
ATOM     69  C   UNL A   1      43.720  21.521  25.199  1.00  0.00     0.022 A 
BRANCH  67  70
ATOM     70  S   UNL A   1      41.999  19.665  26.239  1.00  0.00     0.127 S 
ATOM     71  O   UNL A   1      42.578  19.023  25.058  1.00  0.00    -0.237 OA
ATOM     72  O   UNL A   1      42.389  19.062  27.512  1.00  0.00    -0.237 OA
ATOM     73  O   UNL A   1      40.580  19.977  26.117  1.00  0.00    -0.744 OA
ENDBRANCH  67  70
ENDBRANCH  49  63
BRANCH  50  74
ATOM     74  C   UNL A   1      41.414  31.609  32.006  1.00  0.00     0.023 A 
ATOM     75  C   UNL A   1      41.029  32.910  31.596  1.00  0.00     0.012 A 
ATOM     76  C   UNL A   1      40.475  30.813  32.685  1.00  0.00     0.148 A 
ATOM     77  C   UNL A   1      39.706  33.338  31.716  1.00  0.00     0.002 A 
ATOM     78  C   UNL A   1      39.163  31.260  32.826  1.00  0.00     0.091 A 
ATOM     79  F   UNL A   1      40.846  29.602  33.119  1.00  0.00    -0.205 F 
ATOM     80  C   UNL A   1      38.764  32.497  32.300  1.00  0.00     0.022 A 
BRANCH  78  81
ATOM     81  S   UNL A   1      37.909  30.218  33.585  1.00  0.00     0.127 S 
ATOM     82  O   UNL A   1      36.684  30.809  33.055  1.00  0.00    -0.237 OA
ATOM     83  O   UNL A   1      38.234  28.894  33.057  1.00  0.00    -0.237 OA
ATOM     84  O   UNL A   1      38.132  30.360  35.016  1.00  0.00    -0.744 OA
ENDBRANCH  78  81
ENDBRANCH  50  74
BRANCH  62  85
ATOM     85  C   UNL A   1      45.971  26.003  32.813  1.00  0.00     0.023 A 
ATOM     86  C   UNL A   1      47.362  25.777  32.791  1.00  0.00     0.012 A 
ATOM     87  C   UNL A   1      45.216  25.176  33.689  1.00  0.00     0.148 A 
ATOM     88  C   UNL A   1      47.982  24.870  33.661  1.00  0.00     0.002 A 
ATOM     89  C   UNL A   1      45.826  24.234  34.512  1.00  0.00     0.091 A 
ATOM     90  F   UNL A   1      43.886  25.285  33.733  1.00  0.00    -0.205 F 
ATOM     91  C   UNL A   1      47.215  24.101  34.523  1.00  0.00     0.022 A 
BRANCH  89  92
ATOM     92  S   UNL A   1      44.892  23.098  35.552  1.00  0.00     0.127 S 
ATOM     93  O   UNL A   1      45.901  22.083  35.856  1.00  0.00    -0.237 OA
ATOM     94  O   UNL A   1      44.530  23.955  36.681  1.00  0.00    -0.237 OA
ATOM     95  O   UNL A   1      43.772  22.631  34.750  1.00  0.00    -0.744 OA
ENDBRANCH  89  92
ENDBRANCH  62  85
ENDBRANCH  36  37
ENDBRANCH  28  31
ENDBRANCH  26  27
ENDBRANCH   1  26
TORSDOF 16
ENDMDL
MODEL 2
REMARK VINA RESULT:     -12.8      1.412      2.934
REMARK SMILES Cc1ccc(Nc2c(Cl)cc(Cl)cc2Cl)c(CC(=O)NCCCNC(=O)c2ccc(-c3c4nc(c(-c5cccc(S(=O)(=O)[O-])c5F)c5ccc([nH]5)c(-c5cccc(S(=O)(=O)[O-])c5F)c5nc(c(-c6cccc(S(=O)(=O)[O-])c6F)c6ccc3[nH]6)C=C5)C=C4)cc2)c1
REMARK SMILES IDX 22 1 21 2 20 3 18 4 19 5 17 7 16 8 1 9 2 10 3 11 90 12 4 13
REMARK SMILES IDX 5 14 6 15 7 17 8 18 14 19 9 20 10 21 13 22 15 23 11 24 12 25
REMARK SMILES IDX 23 26 24 27 25 28 26 30 27 31 28 32 89 33 29 34 88 35 30 36
REMARK SMILES IDX 31 37 32 38 82 39 33 40 87 41 81 42 83 43 34 44 86 45 80 46
REMARK SMILES IDX 79 47 35 49 67 50 47 51 66 52 48 53 51 54 65 55 84 56 49 57
REMARK SMILES IDX 50 58 64 60 85 61 52 62 36 63 37 64 45 65 38 66 40 67 46 68
REMARK SMILES IDX 39 69 41 70 42 71 43 72 44 73 68 74 69 75 77 76 70 77 72 78
REMARK SMILES IDX 78 79 71 80 73 81 74 82 75 83 76 84 53 85 54 86 62 87 55 88
REMARK SMILES IDX 57 89 63 90 56 91 58 92 59 93 60 94 61 95
REMARK H PARENT 20 6 6 16 24 29 83 48 51 59
REMARK Flexibility Score: inf
ROOT
ATOM      1  C   UNL A   1      32.283  30.858  26.818  1.00  0.00     0.042 C 
ENDROOT
BRANCH   1   2
ATOM      2  C   UNL A   1      31.990  30.039  25.566  1.00  0.00     0.117 C 
BRANCH   2   3
ATOM      3  N   UNL A   1      33.024  29.055  25.284  1.00  0.00    -0.356 N 
ATOM      4  C   UNL A   1      33.185  28.260  24.186  1.00  0.00     0.224 C 
ATOM      5  O   UNL A   1      34.101  27.433  24.176  1.00  0.00    -0.275 OA
ATOM      6  H   UNL A   1      33.707  28.948  25.986  1.00  0.00     0.163 HD
BRANCH   4   7
ATOM      7  C   UNL A   1      32.242  28.355  22.996  1.00  0.00     0.137 C 
BRANCH   7   8
ATOM      8  C   UNL A   1      30.893  27.713  23.249  1.00  0.00    -0.015 A 
ATOM      9  C   UNL A   1      27.257  28.861  22.946  1.00  0.00     0.044 C 
ATOM     10  C   UNL A   1      28.461  28.013  23.223  1.00  0.00    -0.051 A 
ATOM     11  C   UNL A   1      28.323  26.816  23.922  1.00  0.00     0.005 A 
ATOM     12  C   UNL A   1      29.743  28.429  22.849  1.00  0.00     0.009 A 
ATOM     13  C   UNL A   1      29.450  26.063  24.259  1.00  0.00     0.026 A 
ATOM     14  C   UNL A   1      30.751  26.494  23.949  1.00  0.00     0.042 A 
BRANCH  14  15
ATOM     15  N   UNL A   1      31.878  25.713  24.303  1.00  0.00    -0.353 N 
ATOM     16  H   UNL A   1      32.607  26.198  24.751  1.00  0.00     0.167 HD
BRANCH  15  17
ATOM     17  C   UNL A   1      32.097  24.327  24.096  1.00  0.00     0.076 A 
ATOM     18  C   UNL A   1      32.442  23.785  22.841  1.00  0.00     0.067 A 
ATOM     19  C   UNL A   1      31.872  23.419  25.155  1.00  0.00     0.067 A 
ATOM     20  Cl  UNL A   1      32.848  24.788  21.484  1.00  0.00    -0.082 Cl
ATOM     21  C   UNL A   1      32.536  22.403  22.650  1.00  0.00     0.043 A 
ATOM     22  C   UNL A   1      31.970  22.037  24.968  1.00  0.00     0.043 A 
ATOM     23  Cl  UNL A   1      31.429  23.987  26.729  1.00  0.00    -0.082 Cl
ATOM     24  C   UNL A   1      32.294  21.539  23.713  1.00  0.00     0.044 A 
ATOM     25  Cl  UNL A   1      32.408  19.841  23.464  1.00  0.00    -0.084 Cl
ENDBRANCH  15  17
ENDBRANCH  14  15
ENDBRANCH   7   8
ENDBRANCH   4   7
ENDBRANCH   2   3
ENDBRANCH   1   2
BRANCH   1  26
ATOM     26  C   UNL A   1      33.549  30.475  27.559  1.00  0.00     0.118 C 
BRANCH  26  27
ATOM     27  N   UNL A   1      34.296  31.621  28.054  1.00  0.00    -0.352 N 
ATOM     28  C   UNL A   1      35.536  31.654  28.666  1.00  0.00     0.251 C 
ATOM     29  H   UNL A   1      33.858  32.495  27.939  1.00  0.00     0.163 HD
ATOM     30  O   UNL A   1      35.938  32.713  29.141  1.00  0.00    -0.269 OA
BRANCH  28  31
ATOM     31  C   UNL A   1      36.406  30.455  28.613  1.00  0.00     0.039 A 
ATOM     32  C   UNL A   1      36.678  29.798  29.818  1.00  0.00     0.014 A 
ATOM     33  C   UNL A   1      37.132  30.145  27.467  1.00  0.00     0.014 A 
ATOM     34  C   UNL A   1      37.847  29.052  29.943  1.00  0.00     0.010 A 
ATOM     35  C   UNL A   1      38.333  29.485  27.606  1.00  0.00     0.010 A 
ATOM     36  C   UNL A   1      38.724  29.017  28.864  1.00  0.00    -0.014 A 
BRANCH  36  37
ATOM     37  C   UNL A   1      40.107  28.582  28.936  1.00  0.00     0.031 A 
ATOM     38  C   UNL A   1      40.443  27.158  28.807  1.00  0.00     0.074 A 
ATOM     39  C   UNL A   1      41.075  29.523  28.895  1.00  0.00     0.049 A 
ATOM     40  N   UNL A   1      41.620  26.681  29.018  1.00  0.00    -0.248 NA
ATOM     41  C   UNL A   1      39.455  26.147  28.464  1.00  0.00     0.031 C 
ATOM     42  C   UNL A   1      42.476  29.347  28.534  1.00  0.00     0.029 A 
ATOM     43  N   UNL A   1      41.020  30.824  29.402  1.00  0.00    -0.354 N 
ATOM     44  C   UNL A   1      41.630  25.394  28.532  1.00  0.00     0.074 A 
ATOM     45  C   UNL A   1      40.237  25.071  28.344  1.00  0.00     0.031 C 
ATOM     46  C   UNL A   1      43.188  30.343  29.083  1.00  0.00     0.029 A 
ATOM     47  C   UNL A   1      42.288  31.059  29.969  1.00  0.00     0.049 A 
ATOM     48  H   UNL A   1      40.256  31.445  29.372  1.00  0.00     0.167 HD
ATOM     49  C   UNL A   1      42.836  24.843  28.209  1.00  0.00     0.034 A 
ATOM     50  C   UNL A   1      42.478  31.250  31.310  1.00  0.00     0.034 A 
ATOM     51  C   UNL A   1      43.948  25.677  28.712  1.00  0.00     0.049 A 
ATOM     52  C   UNL A   1      43.425  30.233  31.945  1.00  0.00     0.074 A 
ATOM     53  C   UNL A   1      44.894  26.517  28.149  1.00  0.00     0.029 A 
ATOM     54  N   UNL A   1      44.025  25.894  30.079  1.00  0.00    -0.354 N 
ATOM     55  N   UNL A   1      44.074  29.302  31.298  1.00  0.00    -0.248 NA
ATOM     56  C   UNL A   1      43.627  30.132  33.391  1.00  0.00     0.031 C 
ATOM     57  C   UNL A   1      45.520  27.258  29.203  1.00  0.00     0.029 A 
ATOM     58  C   UNL A   1      44.975  26.844  30.405  1.00  0.00     0.049 A 
ATOM     59  H   UNL A   1      43.467  25.426  30.741  1.00  0.00     0.167 HD
ATOM     60  C   UNL A   1      44.598  28.399  32.191  1.00  0.00     0.074 A 
ATOM     61  C   UNL A   1      44.330  28.990  33.491  1.00  0.00     0.031 C 
ATOM     62  C   UNL A   1      45.131  27.193  31.813  1.00  0.00     0.034 A 
BRANCH  49  63
ATOM     63  C   UNL A   1      43.056  23.664  27.264  1.00  0.00     0.023 A 
ATOM     64  C   UNL A   1      43.861  23.894  26.123  1.00  0.00     0.012 A 
ATOM     65  C   UNL A   1      42.474  22.376  27.344  1.00  0.00     0.148 A 
ATOM     66  C   UNL A   1      44.015  22.947  25.101  1.00  0.00     0.002 A 
ATOM     67  C   UNL A   1      42.615  21.433  26.321  1.00  0.00     0.091 A 
ATOM     68  F   UNL A   1      41.777  22.015  28.416  1.00  0.00    -0.205 F 
ATOM     69  C   UNL A   1      43.377  21.720  25.190  1.00  0.00     0.022 A 
BRANCH  67  70
ATOM     70  S   UNL A   1      41.789  19.827  26.364  1.00  0.00     0.127 S 
ATOM     71  O   UNL A   1      42.195  19.313  27.672  1.00  0.00    -0.237 OA
ATOM     72  O   UNL A   1      40.378  20.198  26.266  1.00  0.00    -0.237 OA
ATOM     73  O   UNL A   1      42.302  19.062  25.233  1.00  0.00    -0.744 OA
ENDBRANCH  67  70
ENDBRANCH  49  63
BRANCH  50  74
ATOM     74  C   UNL A   1      41.291  31.864  31.985  1.00  0.00     0.023 A 
ATOM     75  C   UNL A   1      40.911  33.163  31.561  1.00  0.00     0.012 A 
ATOM     76  C   UNL A   1      40.354  31.086  32.686  1.00  0.00     0.148 A 
ATOM     77  C   UNL A   1      39.592  33.603  31.692  1.00  0.00     0.002 A 
ATOM     78  C   UNL A   1      39.048  31.545  32.838  1.00  0.00     0.091 A 
ATOM     79  F   UNL A   1      40.722  29.878  33.133  1.00  0.00    -0.205 F 
ATOM     80  C   UNL A   1      38.651  32.777  32.299  1.00  0.00     0.022 A 
BRANCH  78  81
ATOM     81  S   UNL A   1      37.796  30.523  33.627  1.00  0.00     0.127 S 
ATOM     82  O   UNL A   1      37.983  30.872  35.032  1.00  0.00    -0.237 OA
ATOM     83  O   UNL A   1      36.557  31.019  33.028  1.00  0.00    -0.237 OA
ATOM     84  O   UNL A   1      38.140  29.162  33.244  1.00  0.00    -0.744 OA
ENDBRANCH  78  81
ENDBRANCH  50  74
BRANCH  62  85
ATOM     85  C   UNL A   1      45.775  26.197  32.774  1.00  0.00     0.023 A 
ATOM     86  C   UNL A   1      47.163  25.958  32.748  1.00  0.00     0.012 A 
ATOM     87  C   UNL A   1      45.014  25.378  33.653  1.00  0.00     0.148 A 
ATOM     88  C   UNL A   1      47.777  25.045  33.616  1.00  0.00     0.002 A 
ATOM     89  C   UNL A   1      45.617  24.430  34.474  1.00  0.00     0.091 A 
ATOM     90  F   UNL A   1      43.685  25.501  33.701  1.00  0.00    -0.205 F 
ATOM     91  C   UNL A   1      47.005  24.283  34.481  1.00  0.00     0.022 A 
BRANCH  89  92
ATOM     92  S   UNL A   1      44.675  23.304  35.517  1.00  0.00     0.127 S 
ATOM     93  O   UNL A   1      43.798  22.663  34.536  1.00  0.00    -0.237 OA
ATOM     94  O   UNL A   1      45.727  22.439  36.051  1.00  0.00    -0.237 OA
ATOM     95  O   UNL A   1      43.994  24.127  36.504  1.00  0.00    -0.744 OA
ENDBRANCH  89  92
ENDBRANCH  62  85
ENDBRANCH  36  37
ENDBRANCH  28  31
ENDBRANCH  26  27
ENDBRANCH   1  26
TORSDOF 16
ENDMDL
MODEL 3
REMARK VINA RESULT:     -12.8      3.999      9.210
REMARK SMILES Cc1ccc(Nc2c(Cl)cc(Cl)cc2Cl)c(CC(=O)NCCCNC(=O)c2ccc(-c3c4nc(c(-c5cccc(S(=O)(=O)[O-])c5F)c5ccc([nH]5)c(-c5cccc(S(=O)(=O)[O-])c5F)c5nc(c(-c6cccc(S(=O)(=O)[O-])c6F)c6ccc3[nH]6)C=C5)C=C4)cc2)c1
REMARK SMILES IDX 22 1 21 2 20 3 18 4 19 5 17 7 16 8 1 9 2 10 3 11 90 12 4 13
REMARK SMILES IDX 5 14 6 15 7 17 8 18 14 19 9 20 10 21 13 22 15 23 11 24 12 25
REMARK SMILES IDX 23 26 24 27 25 28 26 30 27 31 28 32 89 33 29 34 88 35 30 36
REMARK SMILES IDX 31 37 32 38 82 39 33 40 87 41 81 42 83 43 34 44 86 45 80 46
REMARK SMILES IDX 79 47 35 49 67 50 47 51 66 52 48 53 51 54 65 55 84 56 49 57
REMARK SMILES IDX 50 58 64 60 85 61 52 62 36 63 37 64 45 65 38 66 40 67 46 68
REMARK SMILES IDX 39 69 41 70 42 71 43 72 44 73 68 74 69 75 77 76 70 77 72 78
REMARK SMILES IDX 78 79 71 80 73 81 74 82 75 83 76 84 53 85 54 86 62 87 55 88
REMARK SMILES IDX 57 89 63 90 56 91 58 92 59 93 60 94 61 95
REMARK H PARENT 20 6 6 16 24 29 83 48 51 59
REMARK Flexibility Score: inf
ROOT
ATOM      1  C   UNL A   1      37.984  21.104  25.149  1.00  0.00     0.042 C 
ENDROOT
BRANCH   1   2
ATOM      2  C   UNL A   1      36.473  21.092  24.952  1.00  0.00     0.117 C 
BRANCH   2   3
ATOM      3  N   UNL A   1      35.743  20.963  26.203  1.00  0.00    -0.356 N 
ATOM      4  C   UNL A   1      34.654  21.658  26.646  1.00  0.00     0.224 C 
ATOM      5  O   UNL A   1      34.226  21.438  27.782  1.00  0.00    -0.275 OA
ATOM      6  H   UNL A   1      36.083  20.274  26.820  1.00  0.00     0.163 HD
BRANCH   4   7
ATOM      7  C   UNL A   1      33.984  22.713  25.779  1.00  0.00     0.137 C 
BRANCH   7   8
ATOM      8  C   UNL A   1      33.176  22.126  24.640  1.00  0.00    -0.015 A 
ATOM      9  C   UNL A   1      32.397  18.581  23.430  1.00  0.00     0.044 C 
ATOM     10  C   UNL A   1      32.437  20.077  23.516  1.00  0.00    -0.051 A 
ATOM     11  C   UNL A   1      31.978  20.847  22.450  1.00  0.00     0.005 A 
ATOM     12  C   UNL A   1      32.989  20.725  24.626  1.00  0.00     0.009 A 
ATOM     13  C   UNL A   1      32.091  22.239  22.486  1.00  0.00     0.026 A 
ATOM     14  C   UNL A   1      32.700  22.907  23.563  1.00  0.00     0.042 A 
BRANCH  14  15
ATOM     15  N   UNL A   1      32.804  24.318  23.576  1.00  0.00    -0.353 N 
ATOM     16  H   UNL A   1      33.707  24.677  23.738  1.00  0.00     0.167 HD
BRANCH  15  17
ATOM     17  C   UNL A   1      31.783  25.285  23.388  1.00  0.00     0.076 A 
ATOM     18  C   UNL A   1      31.752  26.162  22.285  1.00  0.00     0.067 A 
ATOM     19  C   UNL A   1      30.796  25.459  24.385  1.00  0.00     0.067 A 
ATOM     20  Cl  UNL A   1      32.837  25.993  20.942  1.00  0.00    -0.082 Cl
ATOM     21  C   UNL A   1      30.795  27.178  22.194  1.00  0.00     0.043 A 
ATOM     22  C   UNL A   1      29.835  26.470  24.294  1.00  0.00     0.043 A 
ATOM     23  Cl  UNL A   1      30.760  24.441  25.783  1.00  0.00    -0.082 Cl
ATOM     24  C   UNL A   1      29.847  27.328  23.201  1.00  0.00     0.044 A 
ATOM     25  Cl  UNL A   1      28.679  28.584  23.080  1.00  0.00    -0.084 Cl
ENDBRANCH  15  17
ENDBRANCH  14  15
ENDBRANCH   7   8
ENDBRANCH   4   7
ENDBRANCH   2   3
ENDBRANCH   1   2
BRANCH   1  26
ATOM     26  C   UNL A   1      38.552  22.393  25.710  1.00  0.00     0.118 C 
BRANCH  26  27
ATOM     27  N   UNL A   1      39.919  22.261  26.190  1.00  0.00    -0.352 N 
ATOM     28  C   UNL A   1      40.778  23.241  26.651  1.00  0.00     0.251 C 
ATOM     29  H   UNL A   1      40.284  21.347  26.184  1.00  0.00     0.163 HD
ATOM     30  O   UNL A   1      41.949  22.947  26.882  1.00  0.00    -0.269 OA
BRANCH  28  31
ATOM     31  C   UNL A   1      40.242  24.581  26.987  1.00  0.00     0.039 A 
ATOM     32  C   UNL A   1      40.775  25.682  26.308  1.00  0.00     0.014 A 
ATOM     33  C   UNL A   1      39.435  24.772  28.105  1.00  0.00     0.014 A 
ATOM     34  C   UNL A   1      40.739  26.939  26.906  1.00  0.00     0.010 A 
ATOM     35  C   UNL A   1      39.473  25.991  28.745  1.00  0.00     0.010 A 
ATOM     36  C   UNL A   1      40.198  27.046  28.183  1.00  0.00    -0.014 A 
BRANCH  36  37
ATOM     37  C   UNL A   1      40.382  28.182  29.067  1.00  0.00     0.031 A 
ATOM     38  C   UNL A   1      39.528  29.369  28.935  1.00  0.00     0.074 A 
ATOM     39  C   UNL A   1      41.188  28.031  30.140  1.00  0.00     0.049 A 
ATOM     40  N   UNL A   1      39.733  30.470  29.570  1.00  0.00    -0.248 NA
ATOM     41  C   UNL A   1      38.387  29.418  28.035  1.00  0.00     0.031 C 
ATOM     42  C   UNL A   1      41.209  28.829  31.360  1.00  0.00     0.029 A 
ATOM     43  N   UNL A   1      42.332  27.234  30.241  1.00  0.00    -0.354 N 
ATOM     44  C   UNL A   1      38.601  31.238  29.428  1.00  0.00     0.074 A 
ATOM     45  C   UNL A   1      37.873  30.609  28.354  1.00  0.00     0.031 C 
ATOM     46  C   UNL A   1      42.418  28.710  31.930  1.00  0.00     0.029 A 
ATOM     47  C   UNL A   1      43.256  27.997  30.982  1.00  0.00     0.049 A 
ATOM     48  H   UNL A   1      42.465  26.332  29.871  1.00  0.00     0.167 HD
ATOM     49  C   UNL A   1      38.369  32.212  30.355  1.00  0.00     0.034 A 
ATOM     50  C   UNL A   1      44.429  28.461  30.454  1.00  0.00     0.034 A 
ATOM     51  C   UNL A   1      39.560  32.424  31.205  1.00  0.00     0.049 A 
ATOM     52  C   UNL A   1      44.564  29.982  30.504  1.00  0.00     0.074 A 
ATOM     53  C   UNL A   1      39.909  32.142  32.516  1.00  0.00     0.029 A 
ATOM     54  N   UNL A   1      40.736  32.813  30.584  1.00  0.00    -0.354 N 
ATOM     55  N   UNL A   1      43.704  30.796  31.057  1.00  0.00    -0.248 NA
ATOM     56  C   UNL A   1      45.644  30.706  29.832  1.00  0.00     0.031 C 
ATOM     57  C   UNL A   1      41.319  32.347  32.659  1.00  0.00     0.029 A 
ATOM     58  C   UNL A   1      41.818  32.782  31.444  1.00  0.00     0.049 A 
ATOM     59  H   UNL A   1      40.795  33.082  29.638  1.00  0.00     0.167 HD
ATOM     60  C   UNL A   1      43.981  32.087  30.677  1.00  0.00     0.074 A 
ATOM     61  C   UNL A   1      45.234  31.982  29.948  1.00  0.00     0.031 C 
ATOM     62  C   UNL A   1      43.126  33.136  30.904  1.00  0.00     0.034 A 
BRANCH  49  63
ATOM     63  C   UNL A   1      37.018  32.853  30.661  1.00  0.00     0.023 A 
ATOM     64  C   UNL A   1      36.522  32.712  31.979  1.00  0.00     0.012 A 
ATOM     65  C   UNL A   1      36.147  33.502  29.754  1.00  0.00     0.148 A 
ATOM     66  C   UNL A   1      35.232  33.116  32.351  1.00  0.00     0.002 A 
ATOM     67  C   UNL A   1      34.855  33.895  30.116  1.00  0.00     0.091 A 
ATOM     68  F   UNL A   1      36.544  33.774  28.515  1.00  0.00    -0.205 F 
ATOM     69  C   UNL A   1      34.389  33.693  31.414  1.00  0.00     0.022 A 
BRANCH  67  70
ATOM     70  S   UNL A   1      33.698  34.627  28.938  1.00  0.00     0.127 S 
ATOM     71  O   UNL A   1      33.458  33.514  28.018  1.00  0.00    -0.237 OA
ATOM     72  O   UNL A   1      32.560  34.971  29.788  1.00  0.00    -0.237 OA
ATOM     73  O   UNL A   1      34.380  35.767  28.334  1.00  0.00    -0.744 OA
ENDBRANCH  67  70
ENDBRANCH  49  63
BRANCH  50  74
ATOM     74  C   UNL A   1      44.967  27.582  29.368  1.00  0.00     0.023 A 
ATOM     75  C   UNL A   1      45.369  26.274  29.740  1.00  0.00     0.012 A 
ATOM     76  C   UNL A   1      44.720  27.848  28.010  1.00  0.00     0.148 A 
ATOM     77  C   UNL A   1      45.366  25.231  28.811  1.00  0.00     0.002 A 
ATOM     78  C   UNL A   1      44.748  26.807  27.084  1.00  0.00     0.091 A 
ATOM     79  F   UNL A   1      44.388  29.093  27.645  1.00  0.00    -0.205 F 
ATOM     80  C   UNL A   1      45.020  25.492  27.489  1.00  0.00     0.022 A 
BRANCH  78  81
ATOM     81  S   UNL A   1      44.322  27.093  25.361  1.00  0.00     0.127 S 
ATOM     82  O   UNL A   1      45.622  27.445  24.797  1.00  0.00    -0.237 OA
ATOM     83  O   UNL A   1      43.801  25.792  24.942  1.00  0.00    -0.237 OA
ATOM     84  O   UNL A   1      43.323  28.150  25.401  1.00  0.00    -0.744 OA
ENDBRANCH  78  81
ENDBRANCH  50  74
BRANCH  62  85
ATOM     85  C   UNL A   1      43.432  34.588  30.548  1.00  0.00     0.023 A 
ATOM     86  C   UNL A   1      43.558  35.570  31.552  1.00  0.00     0.012 A 
ATOM     87  C   UNL A   1      43.487  35.054  29.206  1.00  0.00     0.148 A 
ATOM     88  C   UNL A   1      43.833  36.910  31.251  1.00  0.00     0.002 A 
ATOM     89  C   UNL A   1      43.703  36.396  28.907  1.00  0.00     0.091 A 
ATOM     90  F   UNL A   1      43.323  34.199  28.193  1.00  0.00    -0.205 F 
ATOM     91  C   UNL A   1      43.908  37.324  29.929  1.00  0.00     0.022 A 
BRANCH  89  92
ATOM     92  S   UNL A   1      43.670  37.035  27.223  1.00  0.00     0.127 S 
ATOM     93  O   UNL A   1      44.807  36.336  26.623  1.00  0.00    -0.237 OA
ATOM     94  O   UNL A   1      42.360  36.580  26.756  1.00  0.00    -0.237 OA
ATOM     95  O   UNL A   1      43.821  38.478  27.326  1.00  0.00    -0.744 OA
ENDBRANCH  89  92
ENDBRANCH  62  85
ENDBRANCH  36  37
ENDBRANCH  28  31
ENDBRANCH  26  27
ENDBRANCH   1  26
TORSDOF 16
ENDMDL
