MODEL 1
REMARK VINA RESULT:     -13.0      0.000      0.000
REMARK SMILES O=C(NCCCNC(=O)c1nccnc1C(=O)N1CCC(Cc2ccccc2)CC1)c1ccc(-c2c3nc(c(-c4cccc(S(=O)(=O)[O-])c4F)c4ccc([nH]4)c(-c4cccc(S(=O)(=O)[O-])c4F)c4nc(c(-c5cccc(S(=O)(=O)[O-])c5F)c5ccc2[nH]5)C=C4)C=C3)cc1
REMARK SMILES IDX 5 1 4 2 3 3 1 4 2 5 31 7 32 8 93 9 33 10 92 11 34 12 35 13
REMARK SMILES IDX 36 14 86 15 37 16 91 17 85 18 87 19 38 20 90 21 84 22 83 23
REMARK SMILES IDX 39 25 71 26 51 27 70 28 52 29 55 30 69 31 88 32 53 33 54 34
REMARK SMILES IDX 68 36 89 37 56 38 40 39 41 40 49 41 42 42 44 43 50 44 43 45
REMARK SMILES IDX 45 46 46 47 47 48 48 49 72 50 73 51 81 52 74 53 76 54 82 55
REMARK SMILES IDX 75 56 77 57 78 58 79 59 80 60 57 61 58 62 66 63 59 64 61 65
REMARK SMILES IDX 67 66 60 67 62 68 63 69 64 70 65 71 6 72 7 73 8 74 9 76
REMARK SMILES IDX 10 77 11 78 15 79 12 80 14 81 13 82 16 83 17 84 18 85 19 86
REMARK SMILES IDX 30 87 20 88 29 89 21 90 22 91 23 92 24 93 28 94 25 95 27 96
REMARK SMILES IDX 26 97
REMARK H PARENT 3 6 87 24 55 35 7 75
REMARK Flexibility Score: inf
ROOT
ATOM      1  C   UNL A   1      36.102  22.741  23.501  1.00  0.00     0.042 C 
ENDROOT
BRANCH   1   2
ATOM      2  C   UNL A   1      36.847  23.029  24.797  1.00  0.00     0.118 C 
BRANCH   2   3
ATOM      3  N   UNL A   1      37.612  21.888  25.282  1.00  0.00    -0.352 N 
ATOM      4  O   UNL A   1      39.340  20.721  26.108  1.00  0.00    -0.269 OA
ATOM      5  C   UNL A   1      38.799  21.817  25.972  1.00  0.00     0.251 C 
ATOM      6  H   UNL A   1      37.208  21.012  25.078  1.00  0.00     0.163 HD
BRANCH   5   7
ATOM      7  C   UNL A   1      39.437  23.033  26.525  1.00  0.00     0.039 A 
ATOM      8  C   UNL A   1      39.083  24.301  26.070  1.00  0.00     0.014 A 
ATOM      9  C   UNL A   1      40.384  22.909  27.549  1.00  0.00     0.014 A 
ATOM     10  C   UNL A   1      39.798  25.416  26.492  1.00  0.00     0.010 A 
ATOM     11  C   UNL A   1      41.021  24.048  28.060  1.00  0.00     0.010 A 
ATOM     12  C   UNL A   1      40.764  25.310  27.507  1.00  0.00    -0.014 A 
BRANCH  12  13
ATOM     13  C   UNL A   1      41.410  26.554  28.003  1.00  0.00     0.031 A 
ATOM     14  C   UNL A   1      42.836  26.899  27.667  1.00  0.00     0.074 A 
ATOM     15  C   UNL A   1      40.665  27.413  28.727  1.00  0.00     0.049 A 
ATOM     16  N   UNL A   1      43.495  28.000  27.927  1.00  0.00    -0.248 NA
ATOM     17  C   UNL A   1      43.631  25.884  26.957  1.00  0.00     0.031 C 
ATOM     18  C   UNL A   1      39.293  27.159  29.178  1.00  0.00     0.029 A 
ATOM     19  N   UNL A   1      40.937  28.673  29.195  1.00  0.00    -0.354 N 
ATOM     20  C   UNL A   1      44.782  27.805  27.442  1.00  0.00     0.074 A 
ATOM     21  C   UNL A   1      44.820  26.469  26.885  1.00  0.00     0.031 C 
ATOM     22  C   UNL A   1      38.827  28.245  29.810  1.00  0.00     0.029 A 
ATOM     23  C   UNL A   1      39.878  29.253  29.856  1.00  0.00     0.049 A 
ATOM     24  H   UNL A   1      41.806  29.120  29.070  1.00  0.00     0.167 HD
ATOM     25  C   UNL A   1      45.828  28.666  27.439  1.00  0.00     0.034 A 
ATOM     26  C   UNL A   1      39.763  30.461  30.441  1.00  0.00     0.034 A 
ATOM     27  C   UNL A   1      45.778  30.005  27.969  1.00  0.00     0.049 A 
ATOM     28  C   UNL A   1      40.919  31.414  30.370  1.00  0.00     0.074 A 
ATOM     29  C   UNL A   1      46.776  30.965  27.979  1.00  0.00     0.029 A 
ATOM     30  N   UNL A   1      44.672  30.575  28.582  1.00  0.00    -0.354 N 
ATOM     31  N   UNL A   1      42.085  31.252  29.792  1.00  0.00    -0.248 NA
ATOM     32  C   UNL A   1      40.737  32.726  31.003  1.00  0.00     0.031 C 
ATOM     33  C   UNL A   1      46.275  32.113  28.605  1.00  0.00     0.029 A 
ATOM     34  C   UNL A   1      44.962  31.874  28.971  1.00  0.00     0.049 A 
ATOM     35  H   UNL A   1      43.809  30.124  28.721  1.00  0.00     0.167 HD
ATOM     36  C   UNL A   1      42.771  32.442  29.985  1.00  0.00     0.074 A 
ATOM     37  C   UNL A   1      41.873  33.334  30.690  1.00  0.00     0.031 C 
ATOM     38  C   UNL A   1      44.043  32.761  29.637  1.00  0.00     0.034 A 
BRANCH  25  39
ATOM     39  C   UNL A   1      47.112  28.214  26.790  1.00  0.00     0.023 A 
ATOM     40  C   UNL A   1      48.180  27.783  27.603  1.00  0.00     0.012 A 
ATOM     41  C   UNL A   1      47.236  28.134  25.388  1.00  0.00     0.148 A 
ATOM     42  C   UNL A   1      49.357  27.300  27.035  1.00  0.00     0.002 A 
ATOM     43  C   UNL A   1      48.400  27.616  24.830  1.00  0.00     0.091 A 
ATOM     44  F   UNL A   1      46.219  28.566  24.630  1.00  0.00    -0.205 F 
ATOM     45  C   UNL A   1      49.463  27.206  25.650  1.00  0.00     0.022 A 
BRANCH  43  46
ATOM     46  S   UNL A   1      48.610  27.387  23.059  1.00  0.00     0.127 S 
ATOM     47  O   UNL A   1      49.974  27.872  22.860  1.00  0.00    -0.237 OA
ATOM     48  O   UNL A   1      48.451  25.939  22.915  1.00  0.00    -0.237 OA
ATOM     49  O   UNL A   1      47.566  28.178  22.425  1.00  0.00    -0.744 OA
ENDBRANCH  43  46
ENDBRANCH  25  39
BRANCH  26  50
ATOM     50  C   UNL A   1      38.482  30.840  31.099  1.00  0.00     0.023 A 
ATOM     51  C   UNL A   1      38.303  30.604  32.476  1.00  0.00     0.012 A 
ATOM     52  C   UNL A   1      37.460  31.485  30.376  1.00  0.00     0.148 A 
ATOM     53  C   UNL A   1      37.120  30.980  33.113  1.00  0.00     0.002 A 
ATOM     54  C   UNL A   1      36.313  31.918  31.031  1.00  0.00     0.091 A 
ATOM     55  F   UNL A   1      37.635  31.683  29.061  1.00  0.00    -0.205 F 
ATOM     56  C   UNL A   1      36.132  31.650  32.395  1.00  0.00     0.022 A 
BRANCH  54  57
ATOM     57  S   UNL A   1      35.083  32.931  30.201  1.00  0.00     0.127 S 
ATOM     58  O   UNL A   1      34.146  33.212  31.284  1.00  0.00    -0.237 OA
ATOM     59  O   UNL A   1      35.876  34.077  29.756  1.00  0.00    -0.237 OA
ATOM     60  O   UNL A   1      34.582  32.101  29.113  1.00  0.00    -0.744 OA
ENDBRANCH  54  57
ENDBRANCH  26  50
BRANCH  38  61
ATOM     61  C   UNL A   1      44.533  34.132  30.018  1.00  0.00     0.023 A 
ATOM     62  C   UNL A   1      45.187  34.316  31.253  1.00  0.00     0.012 A 
ATOM     63  C   UNL A   1      44.380  35.227  29.146  1.00  0.00     0.148 A 
ATOM     64  C   UNL A   1      45.646  35.576  31.631  1.00  0.00     0.002 A 
ATOM     65  C   UNL A   1      44.879  36.471  29.511  1.00  0.00     0.091 A 
ATOM     66  F   UNL A   1      43.734  35.037  27.986  1.00  0.00    -0.205 F 
ATOM     67  C   UNL A   1      45.501  36.651  30.758  1.00  0.00     0.022 A 
BRANCH  65  68
ATOM     68  S   UNL A   1      44.808  37.888  28.408  1.00  0.00     0.127 S 
ATOM     69  O   UNL A   1      45.510  38.906  29.186  1.00  0.00    -0.237 OA
ATOM     70  O   UNL A   1      45.538  37.408  27.232  1.00  0.00    -0.237 OA
ATOM     71  O   UNL A   1      43.392  38.135  28.174  1.00  0.00    -0.744 OA
ENDBRANCH  65  68
ENDBRANCH  38  61
ENDBRANCH  12  13
ENDBRANCH   5   7
ENDBRANCH   2   3
ENDBRANCH   1   2
BRANCH   1  72
ATOM     72  C   UNL A   1      34.691  23.311  23.456  1.00  0.00     0.118 C 
BRANCH  72  73
ATOM     73  N   UNL A   1      33.668  22.287  23.282  1.00  0.00    -0.351 N 
ATOM     74  C   UNL A   1      32.928  21.605  24.227  1.00  0.00     0.272 C 
ATOM     75  H   UNL A   1      33.476  22.044  22.348  1.00  0.00     0.163 HD
ATOM     76  O   UNL A   1      32.096  20.782  23.853  1.00  0.00    -0.267 OA
BRANCH  74  77
ATOM     77  C   UNL A   1      33.148  21.870  25.669  1.00  0.00     0.159 A 
ATOM     78  N   UNL A   1      34.366  21.451  26.145  1.00  0.00    -0.247 NA
ATOM     79  C   UNL A   1      32.239  22.550  26.467  1.00  0.00     0.159 A 
ATOM     80  C   UNL A   1      34.628  21.730  27.438  1.00  0.00     0.132 A 
ATOM     81  N   UNL A   1      32.509  22.786  27.793  1.00  0.00    -0.247 NA
ATOM     82  C   UNL A   1      33.713  22.370  28.249  1.00  0.00     0.132 A 
BRANCH  79  83
ATOM     83  C   UNL A   1      31.088  23.325  25.927  1.00  0.00     0.274 C 
ATOM     84  O   UNL A   1      30.017  22.717  25.851  1.00  0.00    -0.267 OA
ATOM     85  N   UNL A   1      31.185  24.672  25.564  1.00  0.00    -0.337 N 
ATOM     86  C   UNL A   1      29.961  25.459  25.658  1.00  0.00     0.120 C 
ATOM     87  C   UNL A   1      32.403  25.420  25.258  1.00  0.00     0.120 C 
ATOM     88  C   UNL A   1      29.738  26.319  24.427  1.00  0.00     0.025 C 
ATOM     89  C   UNL A   1      32.213  26.345  24.046  1.00  0.00     0.025 C 
ATOM     90  C   UNL A   1      30.954  27.226  24.184  1.00  0.00    -0.003 C 
BRANCH  90  91
ATOM     91  C   UNL A   1      30.755  28.122  22.943  1.00  0.00     0.039 C 
BRANCH  91  92
ATOM     92  C   UNL A   1      29.720  29.212  23.135  1.00  0.00    -0.048 A 
ATOM     93  C   UNL A   1      28.430  29.066  22.605  1.00  0.00     0.004 A 
ATOM     94  C   UNL A   1      30.026  30.379  23.849  1.00  0.00     0.004 A 
ATOM     95  C   UNL A   1      27.465  30.058  22.796  1.00  0.00     0.000 A 
ATOM     96  C   UNL A   1      29.058  31.367  24.043  1.00  0.00     0.000 A 
ATOM     97  C   UNL A   1      27.778  31.207  23.518  1.00  0.00     0.000 A 
ENDBRANCH  91  92
ENDBRANCH  90  91
ENDBRANCH  79  83
ENDBRANCH  74  77
ENDBRANCH  72  73
ENDBRANCH   1  72
TORSDOF 16
ENDMDL
MODEL 2
REMARK VINA RESULT:     -12.9      1.670      2.185
REMARK SMILES O=C(NCCCNC(=O)c1nccnc1C(=O)N1CCC(Cc2ccccc2)CC1)c1ccc(-c2c3nc(c(-c4cccc(S(=O)(=O)[O-])c4F)c4ccc([nH]4)c(-c4cccc(S(=O)(=O)[O-])c4F)c4nc(c(-c5cccc(S(=O)(=O)[O-])c5F)c5ccc2[nH]5)C=C4)C=C3)cc1
REMARK SMILES IDX 5 1 4 2 3 3 1 4 2 5 31 7 32 8 93 9 33 10 92 11 34 12 35 13
REMARK SMILES IDX 36 14 86 15 37 16 91 17 85 18 87 19 38 20 90 21 84 22 83 23
REMARK SMILES IDX 39 25 71 26 51 27 70 28 52 29 55 30 69 31 88 32 53 33 54 34
REMARK SMILES IDX 68 36 89 37 56 38 40 39 41 40 49 41 42 42 44 43 50 44 43 45
REMARK SMILES IDX 45 46 46 47 47 48 48 49 72 50 73 51 81 52 74 53 76 54 82 55
REMARK SMILES IDX 75 56 77 57 78 58 79 59 80 60 57 61 58 62 66 63 59 64 61 65
REMARK SMILES IDX 67 66 60 67 62 68 63 69 64 70 65 71 6 72 7 73 8 74 9 76
REMARK SMILES IDX 10 77 11 78 15 79 12 80 14 81 13 82 16 83 17 84 18 85 19 86
REMARK SMILES IDX 30 87 20 88 29 89 21 90 22 91 23 92 24 93 28 94 25 95 27 96
REMARK SMILES IDX 26 97
REMARK H PARENT 3 6 87 24 55 35 7 75
REMARK Flexibility Score: inf
ROOT
ATOM      1  C   UNL A   1      36.260  22.702  24.158  1.00  0.00     0.042 C 
ENDROOT
BRANCH   1   2
ATOM      2  C   UNL A   1      36.555  22.269  25.588  1.00  0.00     0.118 C 
BRANCH   2   3
ATOM      3  N   UNL A   1      37.538  21.196  25.668  1.00  0.00    -0.352 N 
ATOM      4  O   UNL A   1      39.539  20.191  25.801  1.00  0.00    -0.269 OA
ATOM      5  C   UNL A   1      38.876  21.211  25.984  1.00  0.00     0.251 C 
ATOM      6  H   UNL A   1      37.180  20.302  25.458  1.00  0.00     0.163 HD
BRANCH   5   7
ATOM      7  C   UNL A   1      39.524  22.433  26.511  1.00  0.00     0.039 A 
ATOM      8  C   UNL A   1      39.148  23.697  26.061  1.00  0.00     0.014 A 
ATOM      9  C   UNL A   1      40.504  22.319  27.505  1.00  0.00     0.014 A 
ATOM     10  C   UNL A   1      39.870  24.818  26.456  1.00  0.00     0.010 A 
ATOM     11  C   UNL A   1      41.151  23.463  27.990  1.00  0.00     0.010 A 
ATOM     12  C   UNL A   1      40.869  24.722  27.440  1.00  0.00    -0.014 A 
BRANCH  12  13
ATOM     13  C   UNL A   1      41.523  25.972  27.910  1.00  0.00     0.031 A 
ATOM     14  C   UNL A   1      42.956  26.293  27.579  1.00  0.00     0.074 A 
ATOM     15  C   UNL A   1      40.780  26.858  28.604  1.00  0.00     0.049 A 
ATOM     16  N   UNL A   1      43.624  27.393  27.817  1.00  0.00    -0.248 NA
ATOM     17  C   UNL A   1      43.747  25.251  26.905  1.00  0.00     0.031 C 
ATOM     18  C   UNL A   1      39.401  26.630  29.047  1.00  0.00     0.029 A 
ATOM     19  N   UNL A   1      41.061  28.126  29.041  1.00  0.00    -0.354 N 
ATOM     20  C   UNL A   1      44.913  27.172  27.351  1.00  0.00     0.074 A 
ATOM     21  C   UNL A   1      44.943  25.821  26.829  1.00  0.00     0.031 C 
ATOM     22  C   UNL A   1      38.941  27.737  29.645  1.00  0.00     0.029 A 
ATOM     23  C   UNL A   1      40.002  28.734  29.676  1.00  0.00     0.049 A 
ATOM     24  H   UNL A   1      41.936  28.560  28.914  1.00  0.00     0.167 HD
ATOM     25  C   UNL A   1      45.969  28.022  27.336  1.00  0.00     0.034 A 
ATOM     26  C   UNL A   1      39.894  29.958  30.227  1.00  0.00     0.034 A 
ATOM     27  C   UNL A   1      45.928  29.374  27.830  1.00  0.00     0.049 A 
ATOM     28  C   UNL A   1      41.061  30.897  30.143  1.00  0.00     0.074 A 
ATOM     29  C   UNL A   1      46.936  30.324  27.825  1.00  0.00     0.029 A 
ATOM     30  N   UNL A   1      44.823  29.972  28.416  1.00  0.00    -0.354 N 
ATOM     31  N   UNL A   1      42.231  30.707  29.581  1.00  0.00    -0.248 NA
ATOM     32  C   UNL A   1      40.887  32.227  30.740  1.00  0.00     0.031 C 
ATOM     33  C   UNL A   1      46.442  31.493  28.416  1.00  0.00     0.029 A 
ATOM     34  C   UNL A   1      45.122  31.277  28.775  1.00  0.00     0.049 A 
ATOM     35  H   UNL A   1      43.953  29.534  28.559  1.00  0.00     0.167 HD
ATOM     36  C   UNL A   1      42.928  31.896  29.750  1.00  0.00     0.074 A 
ATOM     37  C   UNL A   1      42.032  32.814  30.423  1.00  0.00     0.031 C 
ATOM     38  C   UNL A   1      44.206  32.191  29.408  1.00  0.00     0.034 A 
BRANCH  25  39
ATOM     39  C   UNL A   1      47.255  27.539  26.711  1.00  0.00     0.023 A 
ATOM     40  C   UNL A   1      47.533  27.869  25.370  1.00  0.00     0.012 A 
ATOM     41  C   UNL A   1      48.218  26.840  27.464  1.00  0.00     0.148 A 
ATOM     42  C   UNL A   1      48.739  27.494  24.780  1.00  0.00     0.002 A 
ATOM     43  C   UNL A   1      49.434  26.501  26.880  1.00  0.00     0.091 A 
ATOM     44  F   UNL A   1      47.929  26.518  28.733  1.00  0.00    -0.205 F 
ATOM     45  C   UNL A   1      49.693  26.819  25.537  1.00  0.00     0.022 A 
BRANCH  43  46
ATOM     46  S   UNL A   1      50.759  25.695  27.789  1.00  0.00     0.127 S 
ATOM     47  O   UNL A   1      51.392  24.897  26.740  1.00  0.00    -0.237 OA
ATOM     48  O   UNL A   1      51.553  26.834  28.252  1.00  0.00    -0.237 OA
ATOM     49  O   UNL A   1      50.113  24.934  28.849  1.00  0.00    -0.744 OA
ENDBRANCH  43  46
ENDBRANCH  25  39
BRANCH  26  50
ATOM     50  C   UNL A   1      38.611  30.368  30.863  1.00  0.00     0.023 A 
ATOM     51  C   UNL A   1      38.405  30.145  32.237  1.00  0.00     0.012 A 
ATOM     52  C   UNL A   1      37.614  31.030  30.119  1.00  0.00     0.148 A 
ATOM     53  C   UNL A   1      37.220  30.549  32.853  1.00  0.00     0.002 A 
ATOM     54  C   UNL A   1      36.467  31.490  30.753  1.00  0.00     0.091 A 
ATOM     55  F   UNL A   1      37.815  31.215  28.806  1.00  0.00    -0.205 F 
ATOM     56  C   UNL A   1      36.258  31.235  32.115  1.00  0.00     0.022 A 
BRANCH  54  57
ATOM     57  S   UNL A   1      35.271  32.523  29.896  1.00  0.00     0.127 S 
ATOM     58  O   UNL A   1      34.781  31.619  28.861  1.00  0.00    -0.237 OA
ATOM     59  O   UNL A   1      34.310  32.827  30.957  1.00  0.00    -0.237 OA
ATOM     60  O   UNL A   1      36.030  33.679  29.437  1.00  0.00    -0.744 OA
ENDBRANCH  54  57
ENDBRANCH  26  50
BRANCH  38  61
ATOM     61  C   UNL A   1      44.708  33.567  29.757  1.00  0.00     0.023 A 
ATOM     62  C   UNL A   1      45.415  33.761  30.961  1.00  0.00     0.012 A 
ATOM     63  C   UNL A   1      44.512  34.655  28.886  1.00  0.00     0.148 A 
ATOM     64  C   UNL A   1      45.885  35.026  31.310  1.00  0.00     0.002 A 
ATOM     65  C   UNL A   1      45.021  35.904  29.220  1.00  0.00     0.091 A 
ATOM     66  F   UNL A   1      43.816  34.456  27.757  1.00  0.00    -0.205 F 
ATOM     67  C   UNL A   1      45.697  36.094  30.437  1.00  0.00     0.022 A 
BRANCH  65  68
ATOM     68  S   UNL A   1      44.896  37.313  28.112  1.00  0.00     0.127 S 
ATOM     69  O   UNL A   1      45.724  36.883  26.988  1.00  0.00    -0.237 OA
ATOM     70  O   UNL A   1      43.460  37.362  27.828  1.00  0.00    -0.237 OA
ATOM     71  O   UNL A   1      45.397  38.454  28.867  1.00  0.00    -0.744 OA
ENDBRANCH  65  68
ENDBRANCH  38  61
ENDBRANCH  12  13
ENDBRANCH   5   7
ENDBRANCH   2   3
ENDBRANCH   1   2
BRANCH   1  72
ATOM     72  C   UNL A   1      35.544  24.042  24.052  1.00  0.00     0.118 C 
BRANCH  72  73
ATOM     73  N   UNL A   1      34.386  24.001  23.167  1.00  0.00    -0.351 N 
ATOM     74  C   UNL A   1      33.053  23.795  23.462  1.00  0.00     0.272 C 
ATOM     75  H   UNL A   1      34.585  24.140  22.213  1.00  0.00     0.163 HD
ATOM     76  O   UNL A   1      32.230  23.815  22.550  1.00  0.00    -0.267 OA
BRANCH  74  77
ATOM     77  C   UNL A   1      32.637  23.549  24.863  1.00  0.00     0.159 A 
ATOM     78  N   UNL A   1      33.061  22.351  25.381  1.00  0.00    -0.247 NA
ATOM     79  C   UNL A   1      31.938  24.476  25.625  1.00  0.00     0.159 A 
ATOM     80  C   UNL A   1      32.755  22.119  26.673  1.00  0.00     0.132 A 
ATOM     81  N   UNL A   1      31.598  24.200  26.927  1.00  0.00    -0.247 NA
ATOM     82  C   UNL A   1      32.026  23.017  27.426  1.00  0.00     0.132 A 
BRANCH  79  83
ATOM     83  C   UNL A   1      31.771  25.903  25.235  1.00  0.00     0.274 C 
ATOM     84  O   UNL A   1      32.617  26.685  25.680  1.00  0.00    -0.267 OA
ATOM     85  N   UNL A   1      30.754  26.342  24.382  1.00  0.00    -0.337 N 
ATOM     86  C   UNL A   1      31.037  27.539  23.598  1.00  0.00     0.120 C 
ATOM     87  C   UNL A   1      29.506  25.650  24.063  1.00  0.00     0.120 C 
ATOM     88  C   UNL A   1      29.882  28.525  23.625  1.00  0.00     0.025 C 
ATOM     89  C   UNL A   1      28.313  26.617  24.031  1.00  0.00     0.025 C 
ATOM     90  C   UNL A   1      28.591  27.848  23.142  1.00  0.00    -0.003 C 
BRANCH  90  91
ATOM     91  C   UNL A   1      27.399  28.828  23.149  1.00  0.00     0.039 C 
BRANCH  91  92
ATOM     92  C   UNL A   1      27.740  30.210  22.629  1.00  0.00    -0.048 A 
ATOM     93  C   UNL A   1      27.821  31.298  23.510  1.00  0.00     0.004 A 
ATOM     94  C   UNL A   1      27.989  30.427  21.267  1.00  0.00     0.004 A 
ATOM     95  C   UNL A   1      28.155  32.571  23.041  1.00  0.00     0.000 A 
ATOM     96  C   UNL A   1      28.328  31.699  20.800  1.00  0.00     0.000 A 
ATOM     97  C   UNL A   1      28.412  32.771  21.686  1.00  0.00     0.000 A 
ENDBRANCH  91  92
ENDBRANCH  90  91
ENDBRANCH  79  83
ENDBRANCH  74  77
ENDBRANCH  72  73
ENDBRANCH   1  72
TORSDOF 16
ENDMDL
MODEL 3
REMARK VINA RESULT:     -12.8      2.224      4.696
REMARK SMILES O=C(NCCCNC(=O)c1nccnc1C(=O)N1CCC(Cc2ccccc2)CC1)c1ccc(-c2c3nc(c(-c4cccc(S(=O)(=O)[O-])c4F)c4ccc([nH]4)c(-c4cccc(S(=O)(=O)[O-])c4F)c4nc(c(-c5cccc(S(=O)(=O)[O-])c5F)c5ccc2[nH]5)C=C4)C=C3)cc1
REMARK SMILES IDX 5 1 4 2 3 3 1 4 2 5 31 7 32 8 93 9 33 10 92 11 34 12 35 13
REMARK SMILES IDX 36 14 86 15 37 16 91 17 85 18 87 19 38 20 90 21 84 22 83 23
REMARK SMILES IDX 39 25 71 26 51 27 70 28 52 29 55 30 69 31 88 32 53 33 54 34
REMARK SMILES IDX 68 36 89 37 56 38 40 39 41 40 49 41 42 42 44 43 50 44 43 45
REMARK SMILES IDX 45 46 46 47 47 48 48 49 72 50 73 51 81 52 74 53 76 54 82 55
REMARK SMILES IDX 75 56 77 57 78 58 79 59 80 60 57 61 58 62 66 63 59 64 61 65
REMARK SMILES IDX 67 66 60 67 62 68 63 69 64 70 65 71 6 72 7 73 8 74 9 76
REMARK SMILES IDX 10 77 11 78 15 79 12 80 14 81 13 82 16 83 17 84 18 85 19 86
REMARK SMILES IDX 30 87 20 88 29 89 21 90 22 91 23 92 24 93 28 94 25 95 27 96
REMARK SMILES IDX 26 97
REMARK H PARENT 3 6 87 24 55 35 7 75
REMARK Flexibility Score: inf
ROOT
ATOM      1  C   UNL A   1      35.501  22.423  26.455  1.00  0.00     0.042 C 
ENDROOT
BRANCH   1   2
ATOM      2  C   UNL A   1      36.313  22.120  25.203  1.00  0.00     0.118 C 
BRANCH   2   3
ATOM      3  N   UNL A   1      37.235  21.005  25.377  1.00  0.00    -0.352 N 
ATOM      4  O   UNL A   1      39.176  19.912  25.647  1.00  0.00    -0.269 OA
ATOM      5  C   UNL A   1      38.558  20.971  25.750  1.00  0.00     0.251 C 
ATOM      6  H   UNL A   1      36.842  20.120  25.197  1.00  0.00     0.163 HD
BRANCH   5   7
ATOM      7  C   UNL A   1      39.247  22.185  26.244  1.00  0.00     0.039 A 
ATOM      8  C   UNL A   1      38.854  23.454  25.824  1.00  0.00     0.014 A 
ATOM      9  C   UNL A   1      40.283  22.058  27.177  1.00  0.00     0.014 A 
ATOM     10  C   UNL A   1      39.607  24.567  26.180  1.00  0.00     0.010 A 
ATOM     11  C   UNL A   1      40.966  23.195  27.629  1.00  0.00     0.010 A 
ATOM     12  C   UNL A   1      40.662  24.458  27.103  1.00  0.00    -0.014 A 
BRANCH  12  13
ATOM     13  C   UNL A   1      41.353  25.700  27.539  1.00  0.00     0.031 A 
ATOM     14  C   UNL A   1      42.765  26.014  27.123  1.00  0.00     0.074 A 
ATOM     15  C   UNL A   1      40.661  26.586  28.284  1.00  0.00     0.049 A 
ATOM     16  N   UNL A   1      43.454  27.109  27.326  1.00  0.00    -0.248 NA
ATOM     17  C   UNL A   1      43.505  24.972  26.394  1.00  0.00     0.031 C 
ATOM     18  C   UNL A   1      39.309  26.365  28.810  1.00  0.00     0.029 A 
ATOM     19  N   UNL A   1      40.977  27.850  28.711  1.00  0.00    -0.354 N 
ATOM     20  C   UNL A   1      44.710  26.882  26.780  1.00  0.00     0.074 A 
ATOM     21  C   UNL A   1      44.698  25.535  26.249  1.00  0.00     0.031 C 
ATOM     22  C   UNL A   1      38.895  27.471  29.442  1.00  0.00     0.029 A 
ATOM     23  C   UNL A   1      39.963  28.461  29.414  1.00  0.00     0.049 A 
ATOM     24  H   UNL A   1      41.845  28.280  28.532  1.00  0.00     0.167 HD
ATOM     25  C   UNL A   1      45.769  27.725  26.705  1.00  0.00     0.034 A 
ATOM     26  C   UNL A   1      39.898  29.682  29.979  1.00  0.00     0.034 A 
ATOM     27  C   UNL A   1      45.768  29.074  27.210  1.00  0.00     0.049 A 
ATOM     28  C   UNL A   1      41.064  30.614  29.828  1.00  0.00     0.074 A 
ATOM     29  C   UNL A   1      46.781  30.017  27.148  1.00  0.00     0.029 A 
ATOM     30  N   UNL A   1      44.706  29.675  27.867  1.00  0.00    -0.354 N 
ATOM     31  N   UNL A   1      42.195  30.420  29.194  1.00  0.00    -0.248 NA
ATOM     32  C   UNL A   1      40.936  31.941  30.443  1.00  0.00     0.031 C 
ATOM     33  C   UNL A   1      46.332  31.186  27.776  1.00  0.00     0.029 A 
ATOM     34  C   UNL A   1      45.036  30.976  28.214  1.00  0.00     0.049 A 
ATOM     35  H   UNL A   1      43.843  29.242  28.060  1.00  0.00     0.167 HD
ATOM     36  C   UNL A   1      42.910  31.602  29.327  1.00  0.00     0.074 A 
ATOM     37  C   UNL A   1      42.064  32.522  30.060  1.00  0.00     0.031 C 
ATOM     38  C   UNL A   1      44.167  31.892  28.908  1.00  0.00     0.034 A 
BRANCH  25  39
ATOM     39  C   UNL A   1      47.010  27.238  25.999  1.00  0.00     0.023 A 
ATOM     40  C   UNL A   1      47.147  27.464  24.615  1.00  0.00     0.012 A 
ATOM     41  C   UNL A   1      48.070  26.640  26.709  1.00  0.00     0.148 A 
ATOM     42  C   UNL A   1      48.307  27.084  23.942  1.00  0.00     0.002 A 
ATOM     43  C   UNL A   1      49.240  26.297  26.038  1.00  0.00     0.091 A 
ATOM     44  F   UNL A   1      47.916  26.415  28.021  1.00  0.00    -0.205 F 
ATOM     45  C   UNL A   1      49.357  26.510  24.655  1.00  0.00     0.022 A 
BRANCH  43  46
ATOM     46  S   UNL A   1      50.678  25.618  26.875  1.00  0.00     0.127 S 
ATOM     47  O   UNL A   1      51.566  25.332  25.750  1.00  0.00    -0.237 OA
ATOM     48  O   UNL A   1      51.101  26.737  27.718  1.00  0.00    -0.237 OA
ATOM     49  O   UNL A   1      50.203  24.453  27.608  1.00  0.00    -0.744 OA
ENDBRANCH  43  46
ENDBRANCH  25  39
BRANCH  26  50
ATOM     50  C   UNL A   1      38.659  30.096  30.695  1.00  0.00     0.023 A 
ATOM     51  C   UNL A   1      38.499  29.784  32.058  1.00  0.00     0.012 A 
ATOM     52  C   UNL A   1      37.663  30.848  30.041  1.00  0.00     0.148 A 
ATOM     53  C   UNL A   1      37.357  30.190  32.750  1.00  0.00     0.002 A 
ATOM     54  C   UNL A   1      36.562  31.307  30.753  1.00  0.00     0.091 A 
ATOM     55  F   UNL A   1      37.820  31.117  28.737  1.00  0.00    -0.205 F 
ATOM     56  C   UNL A   1      36.397  30.964  32.102  1.00  0.00     0.022 A 
BRANCH  54  57
ATOM     57  S   UNL A   1      35.379  32.444  30.022  1.00  0.00     0.127 S 
ATOM     58  O   UNL A   1      34.404  32.597  31.098  1.00  0.00    -0.237 OA
ATOM     59  O   UNL A   1      36.204  33.625  29.763  1.00  0.00    -0.237 OA
ATOM     60  O   UNL A   1      34.908  31.776  28.816  1.00  0.00    -0.744 OA
ENDBRANCH  54  57
ENDBRANCH  26  50
BRANCH  38  61
ATOM     61  C   UNL A   1      44.699  33.262  29.235  1.00  0.00     0.023 A 
ATOM     62  C   UNL A   1      45.338  33.480  30.472  1.00  0.00     0.012 A 
ATOM     63  C   UNL A   1      44.599  34.319  28.311  1.00  0.00     0.148 A 
ATOM     64  C   UNL A   1      45.834  34.740  30.801  1.00  0.00     0.002 A 
ATOM     65  C   UNL A   1      45.135  35.562  28.628  1.00  0.00     0.091 A 
ATOM     66  F   UNL A   1      43.966  34.099  27.149  1.00  0.00    -0.205 F 
ATOM     67  C   UNL A   1      45.741  35.777  29.877  1.00  0.00     0.022 A 
BRANCH  65  68
ATOM     68  S   UNL A   1      45.132  36.927  27.461  1.00  0.00     0.127 S 
ATOM     69  O   UNL A   1      45.968  36.401  26.385  1.00  0.00    -0.237 OA
ATOM     70  O   UNL A   1      43.712  37.051  27.125  1.00  0.00    -0.237 OA
ATOM     71  O   UNL A   1      45.677  38.067  28.186  1.00  0.00    -0.744 OA
ENDBRANCH  65  68
ENDBRANCH  38  61
ENDBRANCH  12  13
ENDBRANCH   5   7
ENDBRANCH   2   3
ENDBRANCH   1   2
BRANCH   1  72
ATOM     72  C   UNL A   1      34.905  23.824  26.483  1.00  0.00     0.118 C 
BRANCH  72  73
ATOM     73  N   UNL A   1      34.988  24.505  25.197  1.00  0.00    -0.351 N 
ATOM     74  C   UNL A   1      34.072  25.323  24.567  1.00  0.00     0.272 C 
ATOM     75  H   UNL A   1      35.825  24.357  24.700  1.00  0.00     0.163 HD
ATOM     76  O   UNL A   1      34.357  25.810  23.476  1.00  0.00    -0.267 OA
BRANCH  74  77
ATOM     77  C   UNL A   1      32.763  25.597  25.209  1.00  0.00     0.159 A 
ATOM     78  N   UNL A   1      32.772  26.643  26.097  1.00  0.00    -0.247 NA
ATOM     79  C   UNL A   1      31.600  24.908  24.893  1.00  0.00     0.159 A 
ATOM     80  C   UNL A   1      31.587  26.961  26.655  1.00  0.00     0.132 A 
ATOM     81  N   UNL A   1      30.411  25.222  25.505  1.00  0.00    -0.247 NA
ATOM     82  C   UNL A   1      30.434  26.256  26.376  1.00  0.00     0.132 A 
BRANCH  79  83
ATOM     83  C   UNL A   1      31.464  24.027  23.700  1.00  0.00     0.274 C 
ATOM     84  O   UNL A   1      30.828  24.498  22.753  1.00  0.00    -0.267 OA
ATOM     85  N   UNL A   1      32.052  22.761  23.622  1.00  0.00    -0.337 N 
ATOM     86  C   UNL A   1      32.391  22.284  22.286  1.00  0.00     0.120 C 
ATOM     87  C   UNL A   1      32.515  21.930  24.733  1.00  0.00     0.120 C 
ATOM     88  C   UNL A   1      31.958  20.846  22.065  1.00  0.00     0.025 C 
ATOM     89  C   UNL A   1      32.142  20.454  24.532  1.00  0.00     0.025 C 
ATOM     90  C   UNL A   1      32.567  19.935  23.141  1.00  0.00    -0.003 C 
BRANCH  90  91
ATOM     91  C   UNL A   1      32.153  18.462  22.939  1.00  0.00     0.039 C 
BRANCH  91  92
ATOM     92  C   UNL A   1      32.893  17.490  23.835  1.00  0.00    -0.048 A 
ATOM     93  C   UNL A   1      34.245  17.200  23.603  1.00  0.00     0.004 A 
ATOM     94  C   UNL A   1      32.248  16.869  24.915  1.00  0.00     0.004 A 
ATOM     95  C   UNL A   1      34.939  16.321  24.438  1.00  0.00     0.000 A 
ATOM     96  C   UNL A   1      32.944  15.994  25.751  1.00  0.00     0.000 A 
ATOM     97  C   UNL A   1      34.290  15.720  25.514  1.00  0.00     0.000 A 
ENDBRANCH  91  92
ENDBRANCH  90  91
ENDBRANCH  79  83
ENDBRANCH  74  77
ENDBRANCH  72  73
ENDBRANCH   1  72
TORSDOF 16
ENDMDL
