MODEL 1
REMARK VINA RESULT:     -11.6      0.000      0.000
REMARK SMILES CC(C)[C@@H](NC(=O)[C@@](C)([NH3+])C(F)(F)F)C(=O)NCCCNC(=O)c1ccc(-c2c3nc(c(-c4cccc(S(=O)(=O)[O-])c4F)c4ccc([nH]4)c(-c4cccc(S(=O)(=O)[O-])c4F)c4nc(c(-c5cccc(S(=O)(=O)[O-])c5F)c5ccc2[nH]5)C=C4)C=C3)cc1
REMARK SMILES IDX 19 1 18 2 17 3 15 4 16 5 4 7 2 8 1 9 3 10 5 11 6 12 7 14
REMARK SMILES IDX 8 15 9 16 10 17 11 21 12 22 13 23 14 24 20 25 21 26 22 27
REMARK SMILES IDX 23 29 24 30 25 31 86 32 26 33 85 34 27 35 28 36 29 37 79 38
REMARK SMILES IDX 30 39 84 40 78 41 80 42 31 43 83 44 77 45 76 46 32 48 64 49
REMARK SMILES IDX 44 50 63 51 45 52 48 53 62 54 81 55 46 56 47 57 61 59 82 60
REMARK SMILES IDX 49 61 33 62 34 63 42 64 35 65 37 66 43 67 36 68 38 69 39 70
REMARK SMILES IDX 40 71 41 72 65 73 66 74 74 75 67 76 69 77 75 78 68 79 70 80
REMARK SMILES IDX 71 81 72 82 73 83 50 84 51 85 59 86 52 87 54 88 60 89 53 90
REMARK SMILES IDX 55 91 56 92 57 93 58 94
REMARK H PARENT 17 6 5 13 10 18 10 19 10 20 21 28 80 47 48 58
REMARK Flexibility Score: inf
ROOT
ATOM      1  C   UNL A   1      33.057  29.802  25.603  1.00  0.00     0.042 C 
ENDROOT
BRANCH   1   2
ATOM      2  C   UNL A   1      33.155  28.303  25.426  1.00  0.00     0.117 C 
BRANCH   2   3
ATOM      3  N   UNL A   1      31.987  27.606  25.943  1.00  0.00    -0.354 N 
ATOM      4  C   UNL A   1      31.011  26.965  25.241  1.00  0.00     0.242 C 
ATOM      5  O   UNL A   1      30.279  26.173  25.841  1.00  0.00    -0.273 OA
ATOM      6  H   UNL A   1      31.890  27.597  26.922  1.00  0.00     0.163 HD
BRANCH   4   7
ATOM      7  C   UNL A   1      30.783  27.273  23.757  1.00  0.00     0.174 C 
BRANCH   7   8
ATOM      8  C   UNL A   1      31.227  26.023  22.923  1.00  0.00     0.015 C 
ATOM      9  C   UNL A   1      31.405  26.328  21.435  1.00  0.00     0.010 C 
ATOM     10  C   UNL A   1      32.520  25.380  23.453  1.00  0.00     0.010 C 
ENDBRANCH   7   8
BRANCH   7  11
ATOM     11  N   UNL A   1      29.380  27.643  23.502  1.00  0.00    -0.338 N 
ATOM     12  C   UNL A   1      28.790  28.692  22.853  1.00  0.00     0.291 C 
ATOM     13  H   UNL A   1      28.733  27.002  23.876  1.00  0.00     0.164 HD
ATOM     14  O   UNL A   1      27.606  28.483  22.557  1.00  0.00    -0.267 OA
BRANCH  12  15
ATOM     15  C   UNL A   1      29.444  30.080  22.609  1.00  0.00     0.267 C 
ATOM     16  C   UNL A   1      29.903  30.739  23.921  1.00  0.00     0.100 C 
BRANCH  15  17
ATOM     17  N   UNL A   1      30.618  29.968  21.679  1.00  0.00    -0.337 N 
ATOM     18  H   UNL A   1      30.287  29.934  20.716  1.00  0.00     0.345 HD
ATOM     19  H   UNL A   1      31.139  29.117  21.890  1.00  0.00     0.345 HD
ATOM     20  H   UNL A   1      31.227  30.778  21.801  1.00  0.00     0.345 HD
ENDBRANCH  15  17
BRANCH  15  21
ATOM     21  C   UNL A   1      28.310  31.006  22.057  1.00  0.00     0.453 C 
ATOM     22  F   UNL A   1      27.771  30.563  20.901  1.00  0.00    -0.164 F 
ATOM     23  F   UNL A   1      27.312  31.212  22.947  1.00  0.00    -0.164 F 
ATOM     24  F   UNL A   1      28.828  32.240  21.785  1.00  0.00    -0.164 F 
ENDBRANCH  15  21
ENDBRANCH  12  15
ENDBRANCH   7  11
ENDBRANCH   4   7
ENDBRANCH   2   3
ENDBRANCH   1   2
BRANCH   1  25
ATOM     25  C   UNL A   1      32.707  30.217  27.022  1.00  0.00     0.118 C 
BRANCH  25  26
ATOM     26  N   UNL A   1      32.777  31.656  27.250  1.00  0.00    -0.352 N 
ATOM     27  C   UNL A   1      33.832  32.392  27.743  1.00  0.00     0.251 C 
ATOM     28  H   UNL A   1      31.965  32.165  27.025  1.00  0.00     0.163 HD
ATOM     29  O   UNL A   1      33.713  33.594  27.958  1.00  0.00    -0.269 OA
BRANCH  27  30
ATOM     30  C   UNL A   1      35.093  31.691  28.052  1.00  0.00     0.039 A 
ATOM     31  C   UNL A   1      36.279  32.423  28.112  1.00  0.00     0.014 A 
ATOM     32  C   UNL A   1      35.063  30.347  28.430  1.00  0.00     0.014 A 
ATOM     33  C   UNL A   1      37.420  31.829  28.655  1.00  0.00     0.010 A 
ATOM     34  C   UNL A   1      36.164  29.802  29.076  1.00  0.00     0.010 A 
ATOM     35  C   UNL A   1      37.355  30.535  29.199  1.00  0.00    -0.014 A 
BRANCH  35  36
ATOM     36  C   UNL A   1      38.508  29.932  29.919  1.00  0.00     0.031 A 
ATOM     37  C   UNL A   1      38.854  30.401  31.307  1.00  0.00     0.074 A 
ATOM     38  C   UNL A   1      39.316  29.058  29.281  1.00  0.00     0.049 A 
ATOM     39  N   UNL A   1      39.872  30.070  32.057  1.00  0.00    -0.248 NA
ATOM     40  C   UNL A   1      37.968  31.410  31.915  1.00  0.00     0.031 C 
ATOM     41  C   UNL A   1      39.164  28.614  27.893  1.00  0.00     0.029 A 
ATOM     42  N   UNL A   1      40.450  28.411  29.708  1.00  0.00    -0.354 N 
ATOM     43  C   UNL A   1      39.783  30.871  33.190  1.00  0.00     0.074 A 
ATOM     44  C   UNL A   1      38.633  31.729  33.015  1.00  0.00     0.031 C 
ATOM     45  C   UNL A   1      40.158  27.766  27.586  1.00  0.00     0.029 A 
ATOM     46  C   UNL A   1      41.035  27.621  28.743  1.00  0.00     0.049 A 
ATOM     47  H   UNL A   1      40.811  28.503  30.620  1.00  0.00     0.167 HD
ATOM     48  C   UNL A   1      40.565  30.869  34.293  1.00  0.00     0.034 A 
ATOM     49  C   UNL A   1      42.152  26.868  28.786  1.00  0.00     0.034 A 
ATOM     50  C   UNL A   1      41.644  29.945  34.508  1.00  0.00     0.049 A 
ATOM     51  C   UNL A   1      42.931  26.791  30.072  1.00  0.00     0.074 A 
ATOM     52  C   UNL A   1      42.399  29.758  35.651  1.00  0.00     0.029 A 
ATOM     53  N   UNL A   1      42.117  29.052  33.561  1.00  0.00    -0.354 N 
ATOM     54  N   UNL A   1      42.707  27.409  31.208  1.00  0.00    -0.248 NA
ATOM     55  C   UNL A   1      44.088  25.885  30.101  1.00  0.00     0.031 C 
ATOM     56  C   UNL A   1      43.338  28.755  35.392  1.00  0.00     0.029 A 
ATOM     57  C   UNL A   1      43.159  28.313  34.091  1.00  0.00     0.049 A 
ATOM     58  H   UNL A   1      41.766  28.957  32.646  1.00  0.00     0.167 HD
ATOM     59  C   UNL A   1      43.674  26.943  32.092  1.00  0.00     0.074 A 
ATOM     60  C   UNL A   1      44.469  25.973  31.368  1.00  0.00     0.031 C 
ATOM     61  C   UNL A   1      43.898  27.303  33.380  1.00  0.00     0.034 A 
BRANCH  48  62
ATOM     62  C   UNL A   1      40.236  31.843  35.392  1.00  0.00     0.023 A 
ATOM     63  C   UNL A   1      40.980  33.034  35.509  1.00  0.00     0.012 A 
ATOM     64  C   UNL A   1      39.153  31.614  36.261  1.00  0.00     0.148 A 
ATOM     65  C   UNL A   1      40.670  33.971  36.494  1.00  0.00     0.002 A 
ATOM     66  C   UNL A   1      38.823  32.570  37.213  1.00  0.00     0.091 A 
ATOM     67  F   UNL A   1      38.474  30.463  36.148  1.00  0.00    -0.205 F 
ATOM     68  C   UNL A   1      39.585  33.744  37.337  1.00  0.00     0.022 A 
BRANCH  66  69
ATOM     69  S   UNL A   1      37.398  32.410  38.295  1.00  0.00     0.127 S 
ATOM     70  O   UNL A   1      37.843  33.144  39.479  1.00  0.00    -0.237 OA
ATOM     71  O   UNL A   1      36.350  33.078  37.523  1.00  0.00    -0.237 OA
ATOM     72  O   UNL A   1      37.196  30.982  38.485  1.00  0.00    -0.744 OA
ENDBRANCH  66  69
ENDBRANCH  48  62
BRANCH  49  73
ATOM     73  C   UNL A   1      42.559  26.062  27.599  1.00  0.00     0.023 A 
ATOM     74  C   UNL A   1      43.373  26.650  26.611  1.00  0.00     0.012 A 
ATOM     75  C   UNL A   1      42.169  24.718  27.453  1.00  0.00     0.148 A 
ATOM     76  C   UNL A   1      43.760  25.926  25.482  1.00  0.00     0.002 A 
ATOM     77  C   UNL A   1      42.604  23.985  26.353  1.00  0.00     0.091 A 
ATOM     78  F   UNL A   1      41.382  24.175  28.394  1.00  0.00    -0.205 F 
ATOM     79  C   UNL A   1      43.384  24.592  25.357  1.00  0.00     0.022 A 
BRANCH  77  80
ATOM     80  S   UNL A   1      42.279  22.225  26.196  1.00  0.00     0.127 S 
ATOM     81  O   UNL A   1      42.783  21.711  27.465  1.00  0.00    -0.237 OA
ATOM     82  O   UNL A   1      40.822  22.190  26.053  1.00  0.00    -0.237 OA
ATOM     83  O   UNL A   1      43.001  21.807  25.001  1.00  0.00    -0.744 OA
ENDBRANCH  77  80
ENDBRANCH  49  73
BRANCH  61  84
ATOM     84  C   UNL A   1      45.027  26.629  34.110  1.00  0.00     0.023 A 
ATOM     85  C   UNL A   1      46.271  27.280  34.219  1.00  0.00     0.012 A 
ATOM     86  C   UNL A   1      44.827  25.398  34.766  1.00  0.00     0.148 A 
ATOM     87  C   UNL A   1      47.308  26.705  34.950  1.00  0.00     0.002 A 
ATOM     88  C   UNL A   1      45.850  24.853  35.531  1.00  0.00     0.091 A 
ATOM     89  F   UNL A   1      43.641  24.787  34.633  1.00  0.00    -0.205 F 
ATOM     90  C   UNL A   1      47.094  25.499  35.616  1.00  0.00     0.022 A 
BRANCH  88  91
ATOM     91  S   UNL A   1      45.628  23.357  36.499  1.00  0.00     0.127 S 
ATOM     92  O   UNL A   1      46.964  22.766  36.446  1.00  0.00    -0.237 OA
ATOM     93  O   UNL A   1      45.245  23.884  37.809  1.00  0.00    -0.237 OA
ATOM     94  O   UNL A   1      44.580  22.601  35.826  1.00  0.00    -0.744 OA
ENDBRANCH  88  91
ENDBRANCH  61  84
ENDBRANCH  35  36
ENDBRANCH  27  30
ENDBRANCH  25  26
ENDBRANCH   1  25
TORSDOF 18
ENDMDL
MODEL 2
REMARK VINA RESULT:     -11.6      5.489     10.359
REMARK SMILES CC(C)[C@@H](NC(=O)[C@@](C)([NH3+])C(F)(F)F)C(=O)NCCCNC(=O)c1ccc(-c2c3nc(c(-c4cccc(S(=O)(=O)[O-])c4F)c4ccc([nH]4)c(-c4cccc(S(=O)(=O)[O-])c4F)c4nc(c(-c5cccc(S(=O)(=O)[O-])c5F)c5ccc2[nH]5)C=C4)C=C3)cc1
REMARK SMILES IDX 19 1 18 2 17 3 15 4 16 5 4 7 2 8 1 9 3 10 5 11 6 12 7 14
REMARK SMILES IDX 8 15 9 16 10 17 11 21 12 22 13 23 14 24 20 25 21 26 22 27
REMARK SMILES IDX 23 29 24 30 25 31 86 32 26 33 85 34 27 35 28 36 29 37 79 38
REMARK SMILES IDX 30 39 84 40 78 41 80 42 31 43 83 44 77 45 76 46 32 48 64 49
REMARK SMILES IDX 44 50 63 51 45 52 48 53 62 54 81 55 46 56 47 57 61 59 82 60
REMARK SMILES IDX 49 61 33 62 34 63 42 64 35 65 37 66 43 67 36 68 38 69 39 70
REMARK SMILES IDX 40 71 41 72 65 73 66 74 74 75 67 76 69 77 75 78 68 79 70 80
REMARK SMILES IDX 71 81 72 82 73 83 50 84 51 85 59 86 52 87 54 88 60 89 53 90
REMARK SMILES IDX 55 91 56 92 57 93 58 94
REMARK H PARENT 17 6 5 13 10 18 10 19 10 20 21 28 80 47 48 58
REMARK Flexibility Score: inf
ROOT
ATOM      1  C   UNL A   1      35.898  21.648  25.933  1.00  0.00     0.042 C 
ENDROOT
BRANCH   1   2
ATOM      2  C   UNL A   1      35.125  22.945  26.036  1.00  0.00     0.117 C 
BRANCH   2   3
ATOM      3  N   UNL A   1      35.043  23.642  24.761  1.00  0.00    -0.354 N 
ATOM      4  C   UNL A   1      33.932  23.911  24.019  1.00  0.00     0.242 C 
ATOM      5  O   UNL A   1      34.007  24.773  23.138  1.00  0.00    -0.273 OA
ATOM      6  H   UNL A   1      35.896  23.960  24.389  1.00  0.00     0.163 HD
BRANCH   4   7
ATOM      7  C   UNL A   1      32.640  23.113  24.227  1.00  0.00     0.174 C 
BRANCH   7   8
ATOM      8  C   UNL A   1      32.880  21.651  23.717  1.00  0.00     0.015 C 
ATOM      9  C   UNL A   1      32.535  20.588  24.762  1.00  0.00     0.010 C 
ATOM     10  C   UNL A   1      32.113  21.337  22.421  1.00  0.00     0.010 C 
ENDBRANCH   7   8
BRANCH   7  11
ATOM     11  N   UNL A   1      32.217  23.148  25.638  1.00  0.00    -0.338 N 
ATOM     12  C   UNL A   1      31.204  23.786  26.298  1.00  0.00     0.291 C 
ATOM     13  H   UNL A   1      32.781  22.598  26.228  1.00  0.00     0.164 HD
ATOM     14  O   UNL A   1      30.966  23.308  27.414  1.00  0.00    -0.267 OA
BRANCH  12  15
ATOM     15  C   UNL A   1      30.482  25.072  25.808  1.00  0.00     0.267 C 
ATOM     16  C   UNL A   1      30.213  25.040  24.294  1.00  0.00     0.100 C 
BRANCH  15  17
ATOM     17  N   UNL A   1      29.181  25.272  26.533  1.00  0.00    -0.337 N 
ATOM     18  H   UNL A   1      29.259  26.074  27.157  1.00  0.00     0.345 HD
ATOM     19  H   UNL A   1      28.964  24.436  27.077  1.00  0.00     0.345 HD
ATOM     20  H   UNL A   1      28.437  25.439  25.856  1.00  0.00     0.345 HD
ENDBRANCH  15  17
BRANCH  15  21
ATOM     21  C   UNL A   1      31.491  26.248  26.022  1.00  0.00     0.453 C 
ATOM     22  F   UNL A   1      30.945  27.318  26.640  1.00  0.00    -0.164 F 
ATOM     23  F   UNL A   1      32.601  25.878  26.701  1.00  0.00    -0.164 F 
ATOM     24  F   UNL A   1      31.928  26.694  24.808  1.00  0.00    -0.164 F 
ENDBRANCH  15  21
ENDBRANCH  12  15
ENDBRANCH   7  11
ENDBRANCH   4   7
ENDBRANCH   2   3
ENDBRANCH   1   2
BRANCH   1  25
ATOM     25  C   UNL A   1      37.123  21.749  25.041  1.00  0.00     0.118 C 
BRANCH  25  26
ATOM     26  N   UNL A   1      38.138  20.738  25.314  1.00  0.00    -0.352 N 
ATOM     27  C   UNL A   1      39.319  20.879  26.009  1.00  0.00     0.251 C 
ATOM     28  H   UNL A   1      37.955  19.840  24.954  1.00  0.00     0.163 HD
ATOM     29  O   UNL A   1      40.116  19.950  26.087  1.00  0.00    -0.269 OA
BRANCH  27  30
ATOM     30  C   UNL A   1      39.625  22.189  26.614  1.00  0.00     0.039 A 
ATOM     31  C   UNL A   1      40.585  22.263  27.623  1.00  0.00     0.014 A 
ATOM     32  C   UNL A   1      39.070  23.350  26.070  1.00  0.00     0.014 A 
ATOM     33  C   UNL A   1      41.068  23.513  28.015  1.00  0.00     0.010 A 
ATOM     34  C   UNL A   1      39.637  24.579  26.378  1.00  0.00     0.010 A 
ATOM     35  C   UNL A   1      40.643  24.677  27.352  1.00  0.00    -0.014 A 
BRANCH  35  36
ATOM     36  C   UNL A   1      41.247  26.005  27.639  1.00  0.00     0.031 A 
ATOM     37  C   UNL A   1      42.656  26.300  27.197  1.00  0.00     0.074 A 
ATOM     38  C   UNL A   1      40.580  26.895  28.405  1.00  0.00     0.049 A 
ATOM     39  N   UNL A   1      43.389  27.355  27.436  1.00  0.00    -0.248 NA
ATOM     40  C   UNL A   1      43.350  25.253  26.426  1.00  0.00     0.031 C 
ATOM     41  C   UNL A   1      39.258  26.684  29.001  1.00  0.00     0.029 A 
ATOM     42  N   UNL A   1      40.939  28.147  28.842  1.00  0.00    -0.354 N 
ATOM     43  C   UNL A   1      44.642  27.074  26.903  1.00  0.00     0.074 A 
ATOM     44  C   UNL A   1      44.582  25.737  26.358  1.00  0.00     0.031 C 
ATOM     45  C   UNL A   1      38.916  27.767  29.717  1.00  0.00     0.029 A 
ATOM     46  C   UNL A   1      40.000  28.742  29.655  1.00  0.00     0.049 A 
ATOM     47  H   UNL A   1      41.789  28.579  28.596  1.00  0.00     0.167 HD
ATOM     48  C   UNL A   1      45.733  27.870  26.838  1.00  0.00     0.034 A 
ATOM     49  C   UNL A   1      40.012  29.936  30.280  1.00  0.00     0.034 A 
ATOM     50  C   UNL A   1      45.757  29.234  27.288  1.00  0.00     0.049 A 
ATOM     51  C   UNL A   1      41.192  30.849  30.085  1.00  0.00     0.074 A 
ATOM     52  C   UNL A   1      46.761  30.172  27.130  1.00  0.00     0.029 A 
ATOM     53  N   UNL A   1      44.730  29.855  27.978  1.00  0.00    -0.354 N 
ATOM     54  N   UNL A   1      42.291  30.639  29.399  1.00  0.00    -0.248 NA
ATOM     55  C   UNL A   1      41.121  32.178  30.709  1.00  0.00     0.031 C 
ATOM     56  C   UNL A   1      46.343  31.361  27.735  1.00  0.00     0.029 A 
ATOM     57  C   UNL A   1      45.076  31.163  28.259  1.00  0.00     0.049 A 
ATOM     58  H   UNL A   1      43.880  29.428  28.232  1.00  0.00     0.167 HD
ATOM     59  C   UNL A   1      43.024  31.817  29.485  1.00  0.00     0.074 A 
ATOM     60  C   UNL A   1      42.234  32.746  30.265  1.00  0.00     0.031 C 
ATOM     61  C   UNL A   1      44.251  32.097  28.980  1.00  0.00     0.034 A 
BRANCH  48  62
ATOM     62  C   UNL A   1      46.972  27.315  26.188  1.00  0.00     0.023 A 
ATOM     63  C   UNL A   1      47.173  27.504  24.805  1.00  0.00     0.012 A 
ATOM     64  C   UNL A   1      47.964  26.672  26.952  1.00  0.00     0.148 A 
ATOM     65  C   UNL A   1      48.331  27.033  24.186  1.00  0.00     0.002 A 
ATOM     66  C   UNL A   1      49.134  26.244  26.336  1.00  0.00     0.091 A 
ATOM     67  F   UNL A   1      47.741  26.482  28.260  1.00  0.00    -0.205 F 
ATOM     68  C   UNL A   1      49.314  26.415  24.953  1.00  0.00     0.022 A 
BRANCH  66  69
ATOM     69  S   UNL A   1      50.495  25.507  27.248  1.00  0.00     0.127 S 
ATOM     70  O   UNL A   1      49.870  24.297  27.782  1.00  0.00    -0.237 OA
ATOM     71  O   UNL A   1      51.478  25.268  26.191  1.00  0.00    -0.237 OA
ATOM     72  O   UNL A   1      50.895  26.493  28.240  1.00  0.00    -0.744 OA
ENDBRANCH  66  69
ENDBRANCH  48  62
BRANCH  49  73
ATOM     73  C   UNL A   1      38.835  30.371  31.086  1.00  0.00     0.023 A 
ATOM     74  C   UNL A   1      38.804  30.098  32.468  1.00  0.00     0.012 A 
ATOM     75  C   UNL A   1      37.763  31.073  30.504  1.00  0.00     0.148 A 
ATOM     76  C   UNL A   1      37.712  30.481  33.247  1.00  0.00     0.002 A 
ATOM     77  C   UNL A   1      36.702  31.501  31.297  1.00  0.00     0.091 A 
ATOM     78  F   UNL A   1      37.799  31.314  29.185  1.00  0.00    -0.205 F 
ATOM     79  C   UNL A   1      36.666  31.191  32.664  1.00  0.00     0.022 A 
BRANCH  77  80
ATOM     80  S   UNL A   1      35.390  32.541  30.645  1.00  0.00     0.127 S 
ATOM     81  O   UNL A   1      34.979  31.800  29.457  1.00  0.00    -0.237 OA
ATOM     82  O   UNL A   1      34.418  32.536  31.741  1.00  0.00    -0.237 OA
ATOM     83  O   UNL A   1      36.010  33.839  30.410  1.00  0.00    -0.744 OA
ENDBRANCH  77  80
ENDBRANCH  49  73
BRANCH  61  84
ATOM     84  C   UNL A   1      44.814  33.471  29.226  1.00  0.00     0.023 A 
ATOM     85  C   UNL A   1      45.601  33.705  30.369  1.00  0.00     0.012 A 
ATOM     86  C   UNL A   1      44.640  34.499  28.279  1.00  0.00     0.148 A 
ATOM     87  C   UNL A   1      46.189  34.951  30.580  1.00  0.00     0.002 A 
ATOM     88  C   UNL A   1      45.267  35.724  28.472  1.00  0.00     0.091 A 
ATOM     89  F   UNL A   1      43.870  34.260  27.207  1.00  0.00    -0.205 F 
ATOM     90  C   UNL A   1      46.032  35.955  29.626  1.00  0.00     0.022 A 
BRANCH  88  91
ATOM     91  S   UNL A   1      45.199  37.037  27.248  1.00  0.00     0.127 S 
ATOM     92  O   UNL A   1      45.777  38.160  27.984  1.00  0.00    -0.237 OA
ATOM     93  O   UNL A   1      46.043  36.510  26.175  1.00  0.00    -0.237 OA
ATOM     94  O   UNL A   1      43.793  37.175  26.893  1.00  0.00    -0.744 OA
ENDBRANCH  88  91
ENDBRANCH  61  84
ENDBRANCH  35  36
ENDBRANCH  27  30
ENDBRANCH  25  26
ENDBRANCH   1  25
TORSDOF 18
ENDMDL
MODEL 3
REMARK VINA RESULT:     -11.5      2.613      3.526
REMARK SMILES CC(C)[C@@H](NC(=O)[C@@](C)([NH3+])C(F)(F)F)C(=O)NCCCNC(=O)c1ccc(-c2c3nc(c(-c4cccc(S(=O)(=O)[O-])c4F)c4ccc([nH]4)c(-c4cccc(S(=O)(=O)[O-])c4F)c4nc(c(-c5cccc(S(=O)(=O)[O-])c5F)c5ccc2[nH]5)C=C4)C=C3)cc1
REMARK SMILES IDX 19 1 18 2 17 3 15 4 16 5 4 7 2 8 1 9 3 10 5 11 6 12 7 14
REMARK SMILES IDX 8 15 9 16 10 17 11 21 12 22 13 23 14 24 20 25 21 26 22 27
REMARK SMILES IDX 23 29 24 30 25 31 86 32 26 33 85 34 27 35 28 36 29 37 79 38
REMARK SMILES IDX 30 39 84 40 78 41 80 42 31 43 83 44 77 45 76 46 32 48 64 49
REMARK SMILES IDX 44 50 63 51 45 52 48 53 62 54 81 55 46 56 47 57 61 59 82 60
REMARK SMILES IDX 49 61 33 62 34 63 42 64 35 65 37 66 43 67 36 68 38 69 39 70
REMARK SMILES IDX 40 71 41 72 65 73 66 74 74 75 67 76 69 77 75 78 68 79 70 80
REMARK SMILES IDX 71 81 72 82 73 83 50 84 51 85 59 86 52 87 54 88 60 89 53 90
REMARK SMILES IDX 55 91 56 92 57 93 58 94
REMARK H PARENT 17 6 5 13 10 18 10 19 10 20 21 28 80 47 48 58
REMARK Flexibility Score: inf
ROOT
ATOM      1  C   UNL A   1      31.695  29.591  25.273  1.00  0.00     0.042 C 
ENDROOT
BRANCH   1   2
ATOM      2  C   UNL A   1      32.701  28.975  24.325  1.00  0.00     0.117 C 
BRANCH   2   3
ATOM      3  N   UNL A   1      32.110  28.627  23.041  1.00  0.00    -0.354 N 
ATOM      4  C   UNL A   1      31.613  27.422  22.642  1.00  0.00     0.242 C 
ATOM      5  O   UNL A   1      30.876  27.389  21.653  1.00  0.00    -0.273 OA
ATOM      6  H   UNL A   1      32.063  29.353  22.378  1.00  0.00     0.163 HD
BRANCH   4   7
ATOM      7  C   UNL A   1      32.016  26.132  23.364  1.00  0.00     0.174 C 
BRANCH   7   8
ATOM      8  C   UNL A   1      30.731  25.508  24.009  1.00  0.00     0.015 C 
ATOM      9  C   UNL A   1      30.438  24.092  23.510  1.00  0.00     0.010 C 
ATOM     10  C   UNL A   1      30.785  25.489  25.546  1.00  0.00     0.010 C 
ENDBRANCH   7   8
BRANCH   7  11
ATOM     11  N   UNL A   1      32.686  25.197  22.442  1.00  0.00    -0.338 N 
ATOM     12  C   UNL A   1      33.518  24.129  22.631  1.00  0.00     0.291 C 
ATOM     13  H   UNL A   1      32.494  25.380  21.494  1.00  0.00     0.164 HD
ATOM     14  O   UNL A   1      33.604  23.392  21.640  1.00  0.00    -0.267 OA
BRANCH  12  15
ATOM     15  C   UNL A   1      34.401  23.888  23.887  1.00  0.00     0.267 C 
ATOM     16  C   UNL A   1      35.792  23.347  23.518  1.00  0.00     0.100 C 
BRANCH  15  17
ATOM     17  N   UNL A   1      34.562  25.152  24.684  1.00  0.00    -0.337 N 
ATOM     18  H   UNL A   1      35.420  25.101  25.232  1.00  0.00     0.345 HD
ATOM     19  H   UNL A   1      33.764  25.262  25.310  1.00  0.00     0.345 HD
ATOM     20  H   UNL A   1      34.609  25.949  24.051  1.00  0.00     0.345 HD
ENDBRANCH  15  17
BRANCH  15  21
ATOM     21  C   UNL A   1      33.711  22.738  24.692  1.00  0.00     0.453 C 
ATOM     22  F   UNL A   1      32.882  23.184  25.661  1.00  0.00    -0.164 F 
ATOM     23  F   UNL A   1      33.030  21.874  23.906  1.00  0.00    -0.164 F 
ATOM     24  F   UNL A   1      34.666  21.994  25.323  1.00  0.00    -0.164 F 
ENDBRANCH  15  21
ENDBRANCH  12  15
ENDBRANCH   7  11
ENDBRANCH   4   7
ENDBRANCH   2   3
ENDBRANCH   1   2
BRANCH   1  25
ATOM     25  C   UNL A   1      32.303  30.015  26.599  1.00  0.00     0.118 C 
BRANCH  25  26
ATOM     26  N   UNL A   1      32.215  31.447  26.857  1.00  0.00    -0.352 N 
ATOM     27  C   UNL A   1      33.168  32.276  27.409  1.00  0.00     0.251 C 
ATOM     28  H   UNL A   1      31.366  31.877  26.606  1.00  0.00     0.163 HD
ATOM     29  O   UNL A   1      32.917  33.454  27.642  1.00  0.00    -0.269 OA
BRANCH  27  30
ATOM     30  C   UNL A   1      34.480  31.700  27.761  1.00  0.00     0.039 A 
ATOM     31  C   UNL A   1      35.560  32.555  27.978  1.00  0.00     0.014 A 
ATOM     32  C   UNL A   1      34.588  30.332  28.023  1.00  0.00     0.014 A 
ATOM     33  C   UNL A   1      36.724  32.050  28.561  1.00  0.00     0.010 A 
ATOM     34  C   UNL A   1      35.699  29.861  28.709  1.00  0.00     0.010 A 
ATOM     35  C   UNL A   1      36.779  30.713  28.988  1.00  0.00    -0.014 A 
BRANCH  35  36
ATOM     36  C   UNL A   1      37.943  30.183  29.747  1.00  0.00     0.031 A 
ATOM     37  C   UNL A   1      38.182  30.631  31.165  1.00  0.00     0.074 A 
ATOM     38  C   UNL A   1      38.853  29.402  29.125  1.00  0.00     0.049 A 
ATOM     39  N   UNL A   1      39.187  30.361  31.955  1.00  0.00    -0.248 NA
ATOM     40  C   UNL A   1      37.185  31.542  31.757  1.00  0.00     0.031 C 
ATOM     41  C   UNL A   1      38.805  28.994  27.719  1.00  0.00     0.029 A 
ATOM     42  N   UNL A   1      40.015  28.837  29.589  1.00  0.00    -0.354 N 
ATOM     43  C   UNL A   1      38.976  31.113  33.106  1.00  0.00     0.074 A 
ATOM     44  C   UNL A   1      37.768  31.877  32.899  1.00  0.00     0.031 C 
ATOM     45  C   UNL A   1      39.881  28.243  27.437  1.00  0.00     0.029 A 
ATOM     46  C   UNL A   1      40.711  28.132  28.632  1.00  0.00     0.049 A 
ATOM     47  H   UNL A   1      40.323  28.928  30.520  1.00  0.00     0.167 HD
ATOM     48  C   UNL A   1      39.702  31.137  34.247  1.00  0.00     0.034 A 
ATOM     49  C   UNL A   1      41.884  27.473  28.709  1.00  0.00     0.034 A 
ATOM     50  C   UNL A   1      40.844  30.299  34.487  1.00  0.00     0.049 A 
ATOM     51  C   UNL A   1      42.604  27.417  30.030  1.00  0.00     0.074 A 
ATOM     52  C   UNL A   1      41.556  30.137  35.661  1.00  0.00     0.029 A 
ATOM     53  N   UNL A   1      41.436  29.482  33.539  1.00  0.00    -0.354 N 
ATOM     54  N   UNL A   1      42.275  27.975  31.171  1.00  0.00    -0.248 NA
ATOM     55  C   UNL A   1      43.831  26.610  30.090  1.00  0.00     0.031 C 
ATOM     56  C   UNL A   1      42.588  29.224  35.420  1.00  0.00     0.029 A 
ATOM     57  C   UNL A   1      42.509  28.814  34.099  1.00  0.00     0.049 A 
ATOM     58  H   UNL A   1      41.138  29.390  32.605  1.00  0.00     0.167 HD
ATOM     59  C   UNL A   1      43.234  27.562  32.088  1.00  0.00     0.074 A 
ATOM     60  C   UNL A   1      44.142  26.686  31.377  1.00  0.00     0.031 C 
ATOM     61  C   UNL A   1      43.365  27.894  33.396  1.00  0.00     0.034 A 
BRANCH  48  62
ATOM     62  C   UNL A   1      39.240  32.042  35.356  1.00  0.00     0.023 A 
ATOM     63  C   UNL A   1      38.320  31.558  36.309  1.00  0.00     0.012 A 
ATOM     64  C   UNL A   1      39.764  33.341  35.497  1.00  0.00     0.148 A 
ATOM     65  C   UNL A   1      37.906  32.364  37.368  1.00  0.00     0.002 A 
ATOM     66  C   UNL A   1      39.380  34.123  36.579  1.00  0.00     0.091 A 
ATOM     67  F   UNL A   1      40.619  33.789  34.567  1.00  0.00    -0.205 F 
ATOM     68  C   UNL A   1      38.444  33.640  37.509  1.00  0.00     0.022 A 
BRANCH  66  69
ATOM     69  S   UNL A   1      40.073  35.750  36.894  1.00  0.00     0.127 S 
ATOM     70  O   UNL A   1      41.501  35.448  36.986  1.00  0.00    -0.237 OA
ATOM     71  O   UNL A   1      39.682  36.488  35.694  1.00  0.00    -0.237 OA
ATOM     72  O   UNL A   1      39.453  36.218  38.125  1.00  0.00    -0.744 OA
ENDBRANCH  66  69
ENDBRANCH  48  62
BRANCH  49  73
ATOM     73  C   UNL A   1      42.414  26.745  27.520  1.00  0.00     0.023 A 
ATOM     74  C   UNL A   1      43.191  27.441  26.573  1.00  0.00     0.012 A 
ATOM     75  C   UNL A   1      42.177  25.371  27.332  1.00  0.00     0.148 A 
ATOM     76  C   UNL A   1      43.691  26.791  25.444  1.00  0.00     0.002 A 
ATOM     77  C   UNL A   1      42.724  24.716  26.232  1.00  0.00     0.091 A 
ATOM     78  F   UNL A   1      41.423  24.724  28.234  1.00  0.00    -0.205 F 
ATOM     79  C   UNL A   1      43.466  25.428  25.278  1.00  0.00     0.022 A 
BRANCH  77  80
ATOM     80  S   UNL A   1      42.596  22.936  26.027  1.00  0.00     0.127 S 
ATOM     81  O   UNL A   1      43.398  22.446  27.144  1.00  0.00    -0.237 OA
ATOM     82  O   UNL A   1      41.155  22.711  26.158  1.00  0.00    -0.237 OA
ATOM     83  O   UNL A   1      43.119  22.665  24.694  1.00  0.00    -0.744 OA
ENDBRANCH  77  80
ENDBRANCH  49  73
BRANCH  61  84
ATOM     84  C   UNL A   1      44.511  27.292  34.161  1.00  0.00     0.023 A 
ATOM     85  C   UNL A   1      45.764  27.935  34.158  1.00  0.00     0.012 A 
ATOM     86  C   UNL A   1      44.321  26.145  34.958  1.00  0.00     0.148 A 
ATOM     87  C   UNL A   1      46.819  27.432  34.916  1.00  0.00     0.002 A 
ATOM     88  C   UNL A   1      45.363  25.676  35.747  1.00  0.00     0.091 A 
ATOM     89  F   UNL A   1      43.125  25.538  34.931  1.00  0.00    -0.205 F 
ATOM     90  C   UNL A   1      46.615  26.312  35.720  1.00  0.00     0.022 A 
BRANCH  88  91
ATOM     91  S   UNL A   1      45.159  24.301  36.884  1.00  0.00     0.127 S 
ATOM     92  O   UNL A   1      44.718  23.235  35.986  1.00  0.00    -0.237 OA
ATOM     93  O   UNL A   1      46.510  24.131  37.418  1.00  0.00    -0.237 OA
ATOM     94  O   UNL A   1      44.176  24.741  37.866  1.00  0.00    -0.744 OA
ENDBRANCH  88  91
ENDBRANCH  61  84
ENDBRANCH  35  36
ENDBRANCH  27  30
ENDBRANCH  25  26
ENDBRANCH   1  25
TORSDOF 18
ENDMDL
