MODEL 1
REMARK VINA RESULT:     -11.3      0.000      0.000
REMARK SMILES CC[N@@H+]1CC[C@H](C[NH2+]Cc2cc(C(=O)NCCCNC(=O)c3ccc(-c4c5nc(c(-c6cccc(S(=O)(=O)[O-])c6F)c6ccc([nH]6)c(-c6cccc(S(=O)(=O)[O-])c6F)c6nc(c(-c7cccc(S(=O)(=O)[O-])c7F)c7ccc4[nH]7)C=C6)C=C5)cc3)cs2)C1
REMARK SMILES IDX 16 1 15 2 13 3 14 4 12 6 10 7 11 8 86 9 85 10 9 11 8 12 7 15
REMARK SMILES IDX 6 16 3 17 4 18 87 19 5 21 2 22 1 23 17 24 18 25 19 26 20 27
REMARK SMILES IDX 21 29 22 30 23 31 84 32 24 33 83 34 25 35 26 36 27 37 77 38
REMARK SMILES IDX 28 39 82 40 76 41 78 42 29 43 81 44 75 45 74 46 30 48 62 49
REMARK SMILES IDX 42 50 61 51 43 52 46 53 60 54 79 55 44 56 45 57 59 59 80 60
REMARK SMILES IDX 47 61 31 62 32 63 40 64 33 65 35 66 41 67 34 68 36 69 37 70
REMARK SMILES IDX 38 71 39 72 63 73 64 74 72 75 65 76 67 77 73 78 66 79 68 80
REMARK SMILES IDX 69 81 70 82 71 83 48 84 49 85 57 86 50 87 52 88 58 89 51 90
REMARK SMILES IDX 53 91 54 92 55 93 56 94
REMARK H PARENT 15 5 8 13 8 14 3 20 19 28 78 47 46 58
REMARK Flexibility Score: inf
ROOT
ATOM      1  C   UNL A   1      31.804  30.403  25.873  1.00  0.00     0.118 C 
ENDROOT
BRANCH   1   2
ATOM      2  N   UNL A   1      31.011  30.313  24.661  1.00  0.00    -0.352 N 
ATOM      3  C   UNL A   1      30.597  29.221  23.939  1.00  0.00     0.252 C 
ATOM      4  O   UNL A   1      29.762  29.403  23.055  1.00  0.00    -0.269 OA
ATOM      5  H   UNL A   1      30.722  31.179  24.295  1.00  0.00     0.163 HD
BRANCH   3   6
ATOM      6  C   UNL A   1      31.081  27.883  24.274  1.00  0.00     0.051 A 
ATOM      7  C   UNL A   1      31.214  25.733  25.223  1.00  0.00     0.059 A 
ATOM      8  C   UNL A   1      30.662  26.998  25.323  1.00  0.00     0.035 A 
ATOM      9  S   UNL A   1      32.445  25.701  24.032  1.00  0.00    -0.142 S 
ATOM     10  C   UNL A   1      32.126  27.310  23.570  1.00  0.00     0.079 A 
BRANCH   7  11
ATOM     11  C   UNL A   1      30.884  24.475  25.984  1.00  0.00     0.308 C 
BRANCH  11  12
ATOM     12  N   UNL A   1      30.666  23.299  25.131  1.00  0.00    -0.341 N 
ATOM     13  H   UNL A   1      29.663  23.179  24.994  1.00  0.00     0.346 HD
ATOM     14  H   UNL A   1      31.155  23.468  24.251  1.00  0.00     0.346 HD
BRANCH  12  15
ATOM     15  C   UNL A   1      31.208  22.065  25.700  1.00  0.00     0.270 C 
BRANCH  15  16
ATOM     16  C   UNL A   1      32.516  21.635  25.023  1.00  0.00     0.105 C 
ATOM     17  N   UNL A   1      33.123  19.577  23.878  1.00  0.00    -0.335 N 
ATOM     18  C   UNL A   1      34.156  19.909  24.876  1.00  0.00     0.262 C 
ATOM     19  C   UNL A   1      32.246  20.751  23.797  1.00  0.00     0.271 C 
ATOM     20  H   UNL A   1      33.484  19.408  22.938  1.00  0.00     0.348 HD
ATOM     21  C   UNL A   1      33.439  20.789  25.887  1.00  0.00     0.076 C 
BRANCH  17  22
ATOM     22  C   UNL A   1      32.490  18.293  24.212  1.00  0.00     0.258 C 
ATOM     23  C   UNL A   1      33.369  17.048  24.169  1.00  0.00     0.071 C 
ENDBRANCH  17  22
ENDBRANCH  15  16
ENDBRANCH  12  15
ENDBRANCH  11  12
ENDBRANCH   7  11
ENDBRANCH   3   6
ENDBRANCH   1   2
BRANCH   1  24
ATOM     24  C   UNL A   1      31.511  31.693  26.632  1.00  0.00     0.042 C 
BRANCH  24  25
ATOM     25  C   UNL A   1      32.752  32.296  27.281  1.00  0.00     0.118 C 
BRANCH  25  26
ATOM     26  N   UNL A   1      32.574  33.714  27.584  1.00  0.00    -0.352 N 
ATOM     27  C   UNL A   1      33.157  34.505  28.545  1.00  0.00     0.251 C 
ATOM     28  H   UNL A   1      31.930  34.180  27.004  1.00  0.00     0.163 HD
ATOM     29  O   UNL A   1      32.675  35.612  28.775  1.00  0.00    -0.269 OA
BRANCH  27  30
ATOM     30  C   UNL A   1      34.354  34.054  29.286  1.00  0.00     0.039 A 
ATOM     31  C   UNL A   1      35.625  34.438  28.841  1.00  0.00     0.014 A 
ATOM     32  C   UNL A   1      34.236  33.176  30.366  1.00  0.00     0.014 A 
ATOM     33  C   UNL A   1      36.769  33.966  29.496  1.00  0.00     0.010 A 
ATOM     34  C   UNL A   1      35.366  32.782  31.071  1.00  0.00     0.010 A 
ATOM     35  C   UNL A   1      36.645  33.141  30.624  1.00  0.00    -0.014 A 
BRANCH  35  36
ATOM     36  C   UNL A   1      37.821  32.568  31.327  1.00  0.00     0.031 A 
ATOM     37  C   UNL A   1      38.557  31.409  30.702  1.00  0.00     0.074 A 
ATOM     38  C   UNL A   1      38.146  32.993  32.563  1.00  0.00     0.049 A 
ATOM     39  N   UNL A   1      39.475  30.634  31.219  1.00  0.00    -0.248 NA
ATOM     40  C   UNL A   1      38.172  31.044  29.327  1.00  0.00     0.031 C 
ATOM     41  C   UNL A   1      37.462  34.055  33.302  1.00  0.00     0.029 A 
ATOM     42  N   UNL A   1      39.109  32.547  33.433  1.00  0.00    -0.354 N 
ATOM     43  C   UNL A   1      39.731  29.660  30.261  1.00  0.00     0.074 A 
ATOM     44  C   UNL A   1      38.848  29.921  29.145  1.00  0.00     0.031 C 
ATOM     45  C   UNL A   1      38.017  34.170  34.519  1.00  0.00     0.029 A 
ATOM     46  C   UNL A   1      39.076  33.173  34.657  1.00  0.00     0.049 A 
ATOM     47  H   UNL A   1      39.761  31.846  33.204  1.00  0.00     0.167 HD
ATOM     48  C   UNL A   1      40.640  28.656  30.290  1.00  0.00     0.034 A 
ATOM     49  C   UNL A   1      39.810  32.961  35.767  1.00  0.00     0.034 A 
ATOM     50  C   UNL A   1      41.568  28.452  31.369  1.00  0.00     0.049 A 
ATOM     51  C   UNL A   1      40.887  31.909  35.735  1.00  0.00     0.074 A 
ATOM     52  C   UNL A   1      42.581  27.516  31.471  1.00  0.00     0.029 A 
ATOM     53  N   UNL A   1      41.608  29.214  32.526  1.00  0.00    -0.354 N 
ATOM     54  N   UNL A   1      41.195  31.073  34.772  1.00  0.00    -0.248 NA
ATOM     55  C   UNL A   1      41.747  31.801  36.922  1.00  0.00     0.031 C 
ATOM     56  C   UNL A   1      43.240  27.718  32.689  1.00  0.00     0.029 A 
ATOM     57  C   UNL A   1      42.642  28.786  33.339  1.00  0.00     0.049 A 
ATOM     58  H   UNL A   1      40.992  29.952  32.737  1.00  0.00     0.167 HD
ATOM     59  C   UNL A   1      42.307  30.368  35.220  1.00  0.00     0.074 A 
ATOM     60  C   UNL A   1      42.629  30.891  36.533  1.00  0.00     0.031 C 
ATOM     61  C   UNL A   1      42.989  29.368  34.610  1.00  0.00     0.034 A 
BRANCH  48  62
ATOM     62  C   UNL A   1      40.724  27.753  29.086  1.00  0.00     0.023 A 
ATOM     63  C   UNL A   1      39.848  26.652  28.984  1.00  0.00     0.012 A 
ATOM     64  C   UNL A   1      41.632  28.010  28.038  1.00  0.00     0.148 A 
ATOM     65  C   UNL A   1      39.902  25.797  27.885  1.00  0.00     0.002 A 
ATOM     66  C   UNL A   1      41.649  27.178  26.923  1.00  0.00     0.091 A 
ATOM     67  F   UNL A   1      42.473  29.046  28.159  1.00  0.00    -0.205 F 
ATOM     68  C   UNL A   1      40.794  26.065  26.850  1.00  0.00     0.022 A 
BRANCH  66  69
ATOM     69  S   UNL A   1      42.705  27.484  25.502  1.00  0.00     0.127 S 
ATOM     70  O   UNL A   1      42.043  28.632  24.885  1.00  0.00    -0.237 OA
ATOM     71  O   UNL A   1      43.991  27.789  26.132  1.00  0.00    -0.237 OA
ATOM     72  O   UNL A   1      42.690  26.256  24.721  1.00  0.00    -0.744 OA
ENDBRANCH  66  69
ENDBRANCH  48  62
BRANCH  49  73
ATOM     73  C   UNL A   1      39.607  33.821  36.965  1.00  0.00     0.023 A 
ATOM     74  C   UNL A   1      39.995  35.174  36.913  1.00  0.00     0.012 A 
ATOM     75  C   UNL A   1      38.992  33.329  38.133  1.00  0.00     0.148 A 
ATOM     76  C   UNL A   1      39.805  36.014  38.009  1.00  0.00     0.002 A 
ATOM     77  C   UNL A   1      38.756  34.186  39.205  1.00  0.00     0.091 A 
ATOM     78  F   UNL A   1      38.640  32.037  38.171  1.00  0.00    -0.205 F 
ATOM     79  C   UNL A   1      39.176  35.524  39.151  1.00  0.00     0.022 A 
BRANCH  77  80
ATOM     80  S   UNL A   1      37.827  33.671  40.653  1.00  0.00     0.127 S 
ATOM     81  O   UNL A   1      38.736  32.706  41.265  1.00  0.00    -0.237 OA
ATOM     82  O   UNL A   1      37.679  34.929  41.386  1.00  0.00    -0.237 OA
ATOM     83  O   UNL A   1      36.574  33.132  40.138  1.00  0.00    -0.744 OA
ENDBRANCH  77  80
ENDBRANCH  49  73
BRANCH  61  84
ATOM     84  C   UNL A   1      44.183  28.802  35.328  1.00  0.00     0.023 A 
ATOM     85  C   UNL A   1      45.453  29.380  35.139  1.00  0.00     0.012 A 
ATOM     86  C   UNL A   1      44.032  27.743  36.245  1.00  0.00     0.148 A 
ATOM     87  C   UNL A   1      46.562  28.893  35.829  1.00  0.00     0.002 A 
ATOM     88  C   UNL A   1      45.135  27.291  36.961  1.00  0.00     0.091 A 
ATOM     89  F   UNL A   1      42.821  27.189  36.395  1.00  0.00    -0.205 F 
ATOM     90  C   UNL A   1      46.401  27.858  36.747  1.00  0.00     0.022 A 
BRANCH  88  91
ATOM     91  S   UNL A   1      44.992  26.025  38.228  1.00  0.00     0.127 S 
ATOM     92  O   UNL A   1      46.307  26.086  38.862  1.00  0.00    -0.237 OA
ATOM     93  O   UNL A   1      43.894  26.528  39.055  1.00  0.00    -0.237 OA
ATOM     94  O   UNL A   1      44.688  24.790  37.517  1.00  0.00    -0.744 OA
ENDBRANCH  88  91
ENDBRANCH  61  84
ENDBRANCH  35  36
ENDBRANCH  27  30
ENDBRANCH  25  26
ENDBRANCH  24  25
ENDBRANCH   1  24
TORSDOF 18
ENDMDL
MODEL 2
REMARK VINA RESULT:     -11.0      5.725      9.502
REMARK SMILES CC[N@@H+]1CC[C@H](C[NH2+]Cc2cc(C(=O)NCCCNC(=O)c3ccc(-c4c5nc(c(-c6cccc(S(=O)(=O)[O-])c6F)c6ccc([nH]6)c(-c6cccc(S(=O)(=O)[O-])c6F)c6nc(c(-c7cccc(S(=O)(=O)[O-])c7F)c7ccc4[nH]7)C=C6)C=C5)cc3)cs2)C1
REMARK SMILES IDX 16 1 15 2 13 3 14 4 12 6 10 7 11 8 86 9 85 10 9 11 8 12 7 15
REMARK SMILES IDX 6 16 3 17 4 18 87 19 5 21 2 22 1 23 17 24 18 25 19 26 20 27
REMARK SMILES IDX 21 29 22 30 23 31 84 32 24 33 83 34 25 35 26 36 27 37 77 38
REMARK SMILES IDX 28 39 82 40 76 41 78 42 29 43 81 44 75 45 74 46 30 48 62 49
REMARK SMILES IDX 42 50 61 51 43 52 46 53 60 54 79 55 44 56 45 57 59 59 80 60
REMARK SMILES IDX 47 61 31 62 32 63 40 64 33 65 35 66 41 67 34 68 36 69 37 70
REMARK SMILES IDX 38 71 39 72 63 73 64 74 72 75 65 76 67 77 73 78 66 79 68 80
REMARK SMILES IDX 69 81 70 82 71 83 48 84 49 85 57 86 50 87 52 88 58 89 51 90
REMARK SMILES IDX 53 91 54 92 55 93 56 94
REMARK H PARENT 15 5 8 13 8 14 3 20 19 28 78 47 46 58
REMARK Flexibility Score: inf
ROOT
ATOM      1  C   UNL A   1      36.079  20.580  25.021  1.00  0.00     0.118 C 
ENDROOT
BRANCH   1   2
ATOM      2  N   UNL A   1      35.082  19.535  24.880  1.00  0.00    -0.352 N 
ATOM      3  C   UNL A   1      33.729  19.609  24.662  1.00  0.00     0.252 C 
ATOM      4  O   UNL A   1      33.137  18.569  24.381  1.00  0.00    -0.269 OA
ATOM      5  H   UNL A   1      35.436  18.619  24.953  1.00  0.00     0.163 HD
BRANCH   3   6
ATOM      6  C   UNL A   1      33.043  20.900  24.690  1.00  0.00     0.051 A 
ATOM      7  C   UNL A   1      32.073  22.925  23.983  1.00  0.00     0.059 A 
ATOM      8  C   UNL A   1      32.969  21.915  23.678  1.00  0.00     0.035 A 
ATOM      9  S   UNL A   1      31.537  22.791  25.605  1.00  0.00    -0.142 S 
ATOM     10  C   UNL A   1      32.377  21.324  25.827  1.00  0.00     0.079 A 
BRANCH   7  11
ATOM     11  C   UNL A   1      31.556  24.046  23.120  1.00  0.00     0.308 C 
BRANCH  11  12
ATOM     12  N   UNL A   1      30.194  24.482  23.457  1.00  0.00    -0.341 N 
ATOM     13  H   UNL A   1      29.655  24.557  22.595  1.00  0.00     0.346 HD
ATOM     14  H   UNL A   1      29.803  23.788  24.095  1.00  0.00     0.346 HD
BRANCH  12  15
ATOM     15  C   UNL A   1      30.156  25.774  24.143  1.00  0.00     0.270 C 
BRANCH  15  16
ATOM     16  C   UNL A   1      30.434  26.947  23.194  1.00  0.00     0.105 C 
ATOM     17  N   UNL A   1      31.387  29.147  23.606  1.00  0.00    -0.335 N 
ATOM     18  C   UNL A   1      30.128  29.288  22.851  1.00  0.00     0.262 C 
ATOM     19  C   UNL A   1      31.699  27.713  23.608  1.00  0.00     0.271 C 
ATOM     20  H   UNL A   1      32.185  29.626  23.188  1.00  0.00     0.348 HD
ATOM     21  C   UNL A   1      29.354  28.018  23.162  1.00  0.00     0.076 C 
BRANCH  17  22
ATOM     22  C   UNL A   1      31.268  29.805  24.915  1.00  0.00     0.258 C 
ATOM     23  C   UNL A   1      31.700  29.008  26.141  1.00  0.00     0.071 C 
ENDBRANCH  17  22
ENDBRANCH  15  16
ENDBRANCH  12  15
ENDBRANCH  11  12
ENDBRANCH   7  11
ENDBRANCH   3   6
ENDBRANCH   1   2
BRANCH   1  24
ATOM     24  C   UNL A   1      37.491  20.027  24.850  1.00  0.00     0.042 C 
BRANCH  24  25
ATOM     25  C   UNL A   1      38.560  20.924  25.465  1.00  0.00     0.118 C 
BRANCH  25  26
ATOM     26  N   UNL A   1      39.483  20.170  26.309  1.00  0.00    -0.352 N 
ATOM     27  C   UNL A   1      40.588  20.580  27.017  1.00  0.00     0.251 C 
ATOM     28  H   UNL A   1      39.282  19.210  26.383  1.00  0.00     0.163 HD
ATOM     29  O   UNL A   1      41.359  19.732  27.459  1.00  0.00    -0.269 OA
BRANCH  27  30
ATOM     30  C   UNL A   1      40.849  22.014  27.267  1.00  0.00     0.039 A 
ATOM     31  C   UNL A   1      40.281  22.975  26.421  1.00  0.00     0.014 A 
ATOM     32  C   UNL A   1      41.727  22.414  28.276  1.00  0.00     0.014 A 
ATOM     33  C   UNL A   1      40.571  24.332  26.608  1.00  0.00     0.010 A 
ATOM     34  C   UNL A   1      41.942  23.764  28.519  1.00  0.00     0.010 A 
ATOM     35  C   UNL A   1      41.399  24.737  27.667  1.00  0.00    -0.014 A 
BRANCH  35  36
ATOM     36  C   UNL A   1      41.784  26.154  27.882  1.00  0.00     0.031 A 
ATOM     37  C   UNL A   1      43.177  26.601  27.518  1.00  0.00     0.074 A 
ATOM     38  C   UNL A   1      40.943  26.997  28.512  1.00  0.00     0.049 A 
ATOM     39  N   UNL A   1      43.788  27.722  27.795  1.00  0.00    -0.248 NA
ATOM     40  C   UNL A   1      44.012  25.631  26.785  1.00  0.00     0.031 C 
ATOM     41  C   UNL A   1      39.598  26.661  28.979  1.00  0.00     0.029 A 
ATOM     42  N   UNL A   1      41.119  28.299  28.907  1.00  0.00    -0.354 N 
ATOM     43  C   UNL A   1      45.089  27.571  27.327  1.00  0.00     0.074 A 
ATOM     44  C   UNL A   1      45.189  26.238  26.778  1.00  0.00     0.031 C 
ATOM     45  C   UNL A   1      39.074  27.725  29.611  1.00  0.00     0.029 A 
ATOM     46  C   UNL A   1      40.056  28.806  29.617  1.00  0.00     0.049 A 
ATOM     47  H   UNL A   1      41.928  28.821  28.703  1.00  0.00     0.167 HD
ATOM     48  C   UNL A   1      46.101  28.471  27.324  1.00  0.00     0.034 A 
ATOM     49  C   UNL A   1      39.895  30.004  30.214  1.00  0.00     0.034 A 
ATOM     50  C   UNL A   1      45.970  29.822  27.799  1.00  0.00     0.049 A 
ATOM     51  C   UNL A   1      40.997  31.024  30.102  1.00  0.00     0.074 A 
ATOM     52  C   UNL A   1      46.905  30.840  27.775  1.00  0.00     0.029 A 
ATOM     53  N   UNL A   1      44.820  30.347  28.367  1.00  0.00    -0.354 N 
ATOM     54  N   UNL A   1      42.180  30.903  29.549  1.00  0.00    -0.248 NA
ATOM     55  C   UNL A   1      40.726  32.359  30.654  1.00  0.00     0.031 C 
ATOM     56  C   UNL A   1      46.316  31.986  28.322  1.00  0.00     0.029 A 
ATOM     57  C   UNL A   1      45.011  31.681  28.677  1.00  0.00     0.049 A 
ATOM     58  H   UNL A   1      43.988  29.844  28.525  1.00  0.00     0.167 HD
ATOM     59  C   UNL A   1      42.779  32.154  29.651  1.00  0.00     0.074 A 
ATOM     60  C   UNL A   1      41.819  33.023  30.302  1.00  0.00     0.031 C 
ATOM     61  C   UNL A   1      44.016  32.545  29.259  1.00  0.00     0.034 A 
BRANCH  48  62
ATOM     62  C   UNL A   1      47.414  28.045  26.718  1.00  0.00     0.023 A 
ATOM     63  C   UNL A   1      48.495  27.723  27.565  1.00  0.00     0.012 A 
ATOM     64  C   UNL A   1      47.572  27.920  25.323  1.00  0.00     0.148 A 
ATOM     65  C   UNL A   1      49.723  27.328  27.037  1.00  0.00     0.002 A 
ATOM     66  C   UNL A   1      48.786  27.481  24.805  1.00  0.00     0.091 A 
ATOM     67  F   UNL A   1      46.544  28.250  24.530  1.00  0.00    -0.205 F 
ATOM     68  C   UNL A   1      49.865  27.196  25.658  1.00  0.00     0.022 A 
BRANCH  66  69
ATOM     69  S   UNL A   1      49.046  27.204  23.048  1.00  0.00     0.127 S 
ATOM     70  O   UNL A   1      50.497  27.025  22.990  1.00  0.00    -0.237 OA
ATOM     71  O   UNL A   1      48.273  25.984  22.810  1.00  0.00    -0.237 OA
ATOM     72  O   UNL A   1      48.532  28.388  22.376  1.00  0.00    -0.744 OA
ENDBRANCH  66  69
ENDBRANCH  48  62
BRANCH  49  73
ATOM     73  C   UNL A   1      38.608  30.329  30.890  1.00  0.00     0.023 A 
ATOM     74  C   UNL A   1      38.400  29.895  32.213  1.00  0.00     0.012 A 
ATOM     75  C   UNL A   1      37.614  31.100  30.256  1.00  0.00     0.148 A 
ATOM     76  C   UNL A   1      37.214  30.194  32.884  1.00  0.00     0.002 A 
ATOM     77  C   UNL A   1      36.457  31.441  30.949  1.00  0.00     0.091 A 
ATOM     78  F   UNL A   1      37.824  31.495  28.992  1.00  0.00    -0.205 F 
ATOM     79  C   UNL A   1      36.247  30.976  32.256  1.00  0.00     0.022 A 
BRANCH  77  80
ATOM     80  S   UNL A   1      35.228  32.560  30.266  1.00  0.00     0.127 S 
ATOM     81  O   UNL A   1      34.712  31.787  29.140  1.00  0.00    -0.237 OA
ATOM     82  O   UNL A   1      34.299  32.715  31.385  1.00  0.00    -0.237 OA
ATOM     83  O   UNL A   1      35.959  33.775  29.926  1.00  0.00    -0.744 OA
ENDBRANCH  77  80
ENDBRANCH  49  73
BRANCH  61  84
ATOM     84  C   UNL A   1      44.391  33.986  29.475  1.00  0.00     0.023 A 
ATOM     85  C   UNL A   1      45.088  34.361  30.641  1.00  0.00     0.012 A 
ATOM     86  C   UNL A   1      44.117  34.954  28.489  1.00  0.00     0.148 A 
ATOM     87  C   UNL A   1      45.478  35.684  30.836  1.00  0.00     0.002 A 
ATOM     88  C   UNL A   1      44.548  36.262  28.672  1.00  0.00     0.091 A 
ATOM     89  F   UNL A   1      43.433  34.584  27.397  1.00  0.00    -0.205 F 
ATOM     90  C   UNL A   1      45.219  36.632  29.848  1.00  0.00     0.022 A 
BRANCH  88  91
ATOM     91  S   UNL A   1      44.334  37.519  27.406  1.00  0.00     0.127 S 
ATOM     92  O   UNL A   1      45.562  37.371  26.626  1.00  0.00    -0.237 OA
ATOM     93  O   UNL A   1      43.120  37.074  26.720  1.00  0.00    -0.237 OA
ATOM     94  O   UNL A   1      44.188  38.779  28.123  1.00  0.00    -0.744 OA
ENDBRANCH  88  91
ENDBRANCH  61  84
ENDBRANCH  35  36
ENDBRANCH  27  30
ENDBRANCH  25  26
ENDBRANCH  24  25
ENDBRANCH   1  24
TORSDOF 18
ENDMDL
MODEL 3
REMARK VINA RESULT:     -11.0      3.412      8.730
REMARK SMILES CC[N@@H+]1CC[C@H](C[NH2+]Cc2cc(C(=O)NCCCNC(=O)c3ccc(-c4c5nc(c(-c6cccc(S(=O)(=O)[O-])c6F)c6ccc([nH]6)c(-c6cccc(S(=O)(=O)[O-])c6F)c6nc(c(-c7cccc(S(=O)(=O)[O-])c7F)c7ccc4[nH]7)C=C6)C=C5)cc3)cs2)C1
REMARK SMILES IDX 16 1 15 2 13 3 14 4 12 6 10 7 11 8 86 9 85 10 9 11 8 12 7 15
REMARK SMILES IDX 6 16 3 17 4 18 87 19 5 21 2 22 1 23 17 24 18 25 19 26 20 27
REMARK SMILES IDX 21 29 22 30 23 31 84 32 24 33 83 34 25 35 26 36 27 37 77 38
REMARK SMILES IDX 28 39 82 40 76 41 78 42 29 43 81 44 75 45 74 46 30 48 62 49
REMARK SMILES IDX 42 50 61 51 43 52 46 53 60 54 79 55 44 56 45 57 59 59 80 60
REMARK SMILES IDX 47 61 31 62 32 63 40 64 33 65 35 66 41 67 34 68 36 69 37 70
REMARK SMILES IDX 38 71 39 72 63 73 64 74 72 75 65 76 67 77 73 78 66 79 68 80
REMARK SMILES IDX 69 81 70 82 71 83 48 84 49 85 57 86 50 87 52 88 58 89 51 90
REMARK SMILES IDX 53 91 54 92 55 93 56 94
REMARK H PARENT 15 5 8 13 8 14 3 20 19 28 78 47 46 58
REMARK Flexibility Score: inf
ROOT
ATOM      1  C   UNL A   1      33.343  29.330  24.902  1.00  0.00     0.118 C 
ENDROOT
BRANCH   1   2
ATOM      2  N   UNL A   1      33.891  29.051  23.588  1.00  0.00    -0.352 N 
ATOM      3  C   UNL A   1      33.641  28.024  22.712  1.00  0.00     0.252 C 
ATOM      4  O   UNL A   1      34.090  28.123  21.571  1.00  0.00    -0.269 OA
ATOM      5  H   UNL A   1      34.551  29.708  23.270  1.00  0.00     0.163 HD
BRANCH   3   6
ATOM      6  C   UNL A   1      32.804  26.894  23.112  1.00  0.00     0.051 A 
ATOM      7  C   UNL A   1      32.129  24.834  24.030  1.00  0.00     0.059 A 
ATOM      8  C   UNL A   1      33.191  25.585  23.556  1.00  0.00     0.035 A 
ATOM      9  S   UNL A   1      30.639  25.602  23.680  1.00  0.00    -0.142 S 
ATOM     10  C   UNL A   1      31.424  26.975  23.045  1.00  0.00     0.079 A 
BRANCH   7  11
ATOM     11  C   UNL A   1      32.133  23.517  24.762  1.00  0.00     0.308 C 
BRANCH  11  12
ATOM     12  N   UNL A   1      33.389  23.227  25.466  1.00  0.00    -0.341 N 
ATOM     13  H   UNL A   1      34.127  23.804  25.064  1.00  0.00     0.346 HD
ATOM     14  H   UNL A   1      33.237  23.434  26.454  1.00  0.00     0.346 HD
BRANCH  12  15
ATOM     15  C   UNL A   1      33.793  21.824  25.372  1.00  0.00     0.270 C 
BRANCH  15  16
ATOM     16  C   UNL A   1      35.048  21.634  24.511  1.00  0.00     0.105 C 
ATOM     17  N   UNL A   1      37.290  22.553  24.725  1.00  0.00    -0.335 N 
ATOM     18  C   UNL A   1      36.801  22.760  23.350  1.00  0.00     0.262 C 
ATOM     19  C   UNL A   1      36.322  21.655  25.367  1.00  0.00     0.271 C 
ATOM     20  H   UNL A   1      38.202  22.100  24.784  1.00  0.00     0.348 HD
ATOM     21  C   UNL A   1      35.287  22.721  23.474  1.00  0.00     0.076 C 
BRANCH  17  22
ATOM     22  C   UNL A   1      37.533  23.848  25.376  1.00  0.00     0.258 C 
ATOM     23  C   UNL A   1      38.399  23.848  26.631  1.00  0.00     0.071 C 
ENDBRANCH  17  22
ENDBRANCH  15  16
ENDBRANCH  12  15
ENDBRANCH  11  12
ENDBRANCH   7  11
ENDBRANCH   3   6
ENDBRANCH   1   2
BRANCH   1  24
ATOM     24  C   UNL A   1      34.058  28.525  25.983  1.00  0.00     0.042 C 
BRANCH  24  25
ATOM     25  C   UNL A   1      33.661  28.942  27.395  1.00  0.00     0.118 C 
BRANCH  25  26
ATOM     26  N   UNL A   1      33.663  30.393  27.556  1.00  0.00    -0.352 N 
ATOM     27  C   UNL A   1      34.519  31.217  28.247  1.00  0.00     0.251 C 
ATOM     28  H   UNL A   1      32.930  30.858  27.093  1.00  0.00     0.163 HD
ATOM     29  O   UNL A   1      34.188  32.384  28.447  1.00  0.00    -0.269 OA
BRANCH  27  30
ATOM     30  C   UNL A   1      35.827  30.729  28.732  1.00  0.00     0.039 A 
ATOM     31  C   UNL A   1      36.999  31.146  28.088  1.00  0.00     0.014 A 
ATOM     32  C   UNL A   1      35.901  29.789  29.762  1.00  0.00     0.014 A 
ATOM     33  C   UNL A   1      38.240  30.642  28.497  1.00  0.00     0.010 A 
ATOM     34  C   UNL A   1      37.137  29.359  30.227  1.00  0.00     0.010 A 
ATOM     35  C   UNL A   1      38.317  29.750  29.579  1.00  0.00    -0.014 A 
BRANCH  35  36
ATOM     36  C   UNL A   1      39.597  29.142  30.023  1.00  0.00     0.031 A 
ATOM     37  C   UNL A   1      40.364  29.787  31.149  1.00  0.00     0.074 A 
ATOM     38  C   UNL A   1      40.127  28.107  29.344  1.00  0.00     0.049 A 
ATOM     39  N   UNL A   1      41.580  29.550  31.567  1.00  0.00    -0.248 NA
ATOM     40  C   UNL A   1      39.688  30.880  31.871  1.00  0.00     0.031 C 
ATOM     41  C   UNL A   1      39.515  27.446  28.191  1.00  0.00     0.029 A 
ATOM     42  N   UNL A   1      41.327  27.460  29.502  1.00  0.00    -0.354 N 
ATOM     43  C   UNL A   1      41.834  30.497  32.552  1.00  0.00     0.074 A 
ATOM     44  C   UNL A   1      40.659  31.335  32.647  1.00  0.00     0.031 C 
ATOM     45  C   UNL A   1      40.348  26.496  27.736  1.00  0.00     0.029 A 
ATOM     46  C   UNL A   1      41.563  26.500  28.546  1.00  0.00     0.049 A 
ATOM     47  H   UNL A   1      41.958  27.663  30.229  1.00  0.00     0.167 HD
ATOM     48  C   UNL A   1      42.933  30.641  33.331  1.00  0.00     0.034 A 
ATOM     49  C   UNL A   1      42.642  25.718  28.341  1.00  0.00     0.034 A 
ATOM     50  C   UNL A   1      44.065  29.755  33.285  1.00  0.00     0.049 A 
ATOM     51  C   UNL A   1      43.807  25.825  29.289  1.00  0.00     0.074 A 
ATOM     52  C   UNL A   1      45.198  29.760  34.078  1.00  0.00     0.029 A 
ATOM     53  N   UNL A   1      44.195  28.691  32.407  1.00  0.00    -0.354 N 
ATOM     54  N   UNL A   1      43.979  26.651  30.294  1.00  0.00    -0.248 NA
ATOM     55  C   UNL A   1      44.904  24.864  29.107  1.00  0.00     0.031 C 
ATOM     56  C   UNL A   1      46.010  28.692  33.684  1.00  0.00     0.029 A 
ATOM     57  C   UNL A   1      45.377  28.017  32.652  1.00  0.00     0.049 A 
ATOM     58  H   UNL A   1      43.541  28.450  31.711  1.00  0.00     0.167 HD
ATOM     59  C   UNL A   1      45.183  26.284  30.886  1.00  0.00     0.074 A 
ATOM     60  C   UNL A   1      45.686  25.149  30.139  1.00  0.00     0.031 C 
ATOM     61  C   UNL A   1      45.823  26.846  31.940  1.00  0.00     0.034 A 
BRANCH  48  62
ATOM     62  C   UNL A   1      42.927  31.751  34.351  1.00  0.00     0.023 A 
ATOM     63  C   UNL A   1      43.489  33.001  34.018  1.00  0.00     0.012 A 
ATOM     64  C   UNL A   1      42.334  31.579  35.619  1.00  0.00     0.148 A 
ATOM     65  C   UNL A   1      43.501  34.046  34.939  1.00  0.00     0.002 A 
ATOM     66  C   UNL A   1      42.310  32.641  36.516  1.00  0.00     0.091 A 
ATOM     67  F   UNL A   1      41.824  30.379  35.930  1.00  0.00    -0.205 F 
ATOM     68  C   UNL A   1      42.903  33.871  36.183  1.00  0.00     0.022 A 
BRANCH  66  69
ATOM     69  S   UNL A   1      41.493  32.541  38.114  1.00  0.00     0.127 S 
ATOM     70  O   UNL A   1      42.330  31.564  38.811  1.00  0.00    -0.237 OA
ATOM     71  O   UNL A   1      41.616  33.912  38.611  1.00  0.00    -0.237 OA
ATOM     72  O   UNL A   1      40.129  32.116  37.839  1.00  0.00    -0.744 OA
ENDBRANCH  66  69
ENDBRANCH  48  62
BRANCH  49  73
ATOM     73  C   UNL A   1      42.628  24.708  27.246  1.00  0.00     0.023 A 
ATOM     74  C   UNL A   1      43.247  25.018  26.020  1.00  0.00     0.012 A 
ATOM     75  C   UNL A   1      42.054  23.434  27.423  1.00  0.00     0.148 A 
ATOM     76  C   UNL A   1      43.268  24.091  24.978  1.00  0.00     0.002 A 
ATOM     77  C   UNL A   1      42.125  22.495  26.398  1.00  0.00     0.091 A 
ATOM     78  F   UNL A   1      41.458  23.161  28.592  1.00  0.00    -0.205 F 
ATOM     79  C   UNL A   1      42.718  22.826  25.170  1.00  0.00     0.022 A 
BRANCH  77  80
ATOM     80  S   UNL A   1      41.569  20.801  26.614  1.00  0.00     0.127 S 
ATOM     81  O   UNL A   1      42.213  20.128  25.489  1.00  0.00    -0.237 OA
ATOM     82  O   UNL A   1      42.113  20.464  27.929  1.00  0.00    -0.237 OA
ATOM     83  O   UNL A   1      40.113  20.864  26.571  1.00  0.00    -0.744 OA
ENDBRANCH  77  80
ENDBRANCH  49  73
BRANCH  61  84
ATOM     84  C   UNL A   1      47.115  26.216  32.385  1.00  0.00     0.023 A 
ATOM     85  C   UNL A   1      48.338  26.688  31.871  1.00  0.00     0.012 A 
ATOM     86  C   UNL A   1      47.119  25.206  33.367  1.00  0.00     0.148 A 
ATOM     87  C   UNL A   1      49.545  26.143  32.304  1.00  0.00     0.002 A 
ATOM     88  C   UNL A   1      48.329  24.697  33.826  1.00  0.00     0.091 A 
ATOM     89  F   UNL A   1      45.945  24.753  33.829  1.00  0.00    -0.205 F 
ATOM     90  C   UNL A   1      49.542  25.157  33.288  1.00  0.00     0.022 A 
BRANCH  88  91
ATOM     91  S   UNL A   1      48.410  23.493  35.156  1.00  0.00     0.127 S 
ATOM     92  O   UNL A   1      47.718  24.193  36.237  1.00  0.00    -0.237 OA
ATOM     93  O   UNL A   1      47.677  22.355  34.599  1.00  0.00    -0.237 OA
ATOM     94  O   UNL A   1      49.830  23.241  35.372  1.00  0.00    -0.744 OA
ENDBRANCH  88  91
ENDBRANCH  61  84
ENDBRANCH  35  36
ENDBRANCH  27  30
ENDBRANCH  25  26
ENDBRANCH  24  25
ENDBRANCH   1  24
TORSDOF 18
ENDMDL
