MODEL 1
REMARK VINA RESULT:     -12.7      0.000      0.000
REMARK SMILES Nc1c(N2CCC(C(=O)NCCCNC(=O)c3ccc(-c4c5nc(c(-c6cccc(S(=O)(=O)[O-])c6F)c6ccc([nH]6)c(-c6cccc(S(=O)(=O)[O-])c6F)c6nc(c(-c7cccc(S(=O)(=O)[O-])c7F)c7ccc4[nH]7)C=C6)C=C5)cc3)CC2)ncnc1N1CCN(c2ccccc2)CC1
REMARK SMILES IDX 12 1 11 2 10 3 8 4 9 5 7 7 4 8 5 9 81 10 6 11 80 12 3 13
REMARK SMILES IDX 2 14 85 15 82 16 84 17 83 18 1 19 86 22 87 23 97 24 88 25
REMARK SMILES IDX 96 26 89 27 90 28 91 29 95 30 92 31 94 32 93 33 13 34 14 35
REMARK SMILES IDX 15 36 16 38 17 39 18 40 79 41 19 42 78 43 20 44 21 45 22 46
REMARK SMILES IDX 72 47 23 48 77 49 71 50 73 51 24 52 76 53 70 54 69 55 25 57
REMARK SMILES IDX 57 58 37 59 56 60 38 61 41 62 55 63 74 64 39 65 40 66 54 68
REMARK SMILES IDX 75 69 42 70 26 71 27 72 35 73 28 74 30 75 36 76 29 77 31 78
REMARK SMILES IDX 32 79 33 80 34 81 58 82 59 83 67 84 60 85 62 86 68 87 61 88
REMARK SMILES IDX 63 89 64 90 65 91 66 92 43 93 44 94 52 95 45 96 47 97 53 98
REMARK SMILES IDX 46 99 48 100 49 101 50 102 51 103
REMARK H PARENT 10 6 1 20 1 21 14 37 73 56 41 67
REMARK Flexibility Score: inf
ROOT
ATOM      1  C   UNL A   1      31.694  32.704  26.500  1.00  0.00     0.042 C 
ENDROOT
BRANCH   1   2
ATOM      2  C   UNL A   1      31.331  31.226  26.517  1.00  0.00     0.117 C 
BRANCH   2   3
ATOM      3  N   UNL A   1      32.474  30.378  26.835  1.00  0.00    -0.356 N 
ATOM      4  C   UNL A   1      32.720  29.068  26.557  1.00  0.00     0.223 C 
ATOM      5  O   UNL A   1      33.787  28.584  26.941  1.00  0.00    -0.275 OA
ATOM      6  H   UNL A   1      33.191  30.830  27.335  1.00  0.00     0.163 HD
BRANCH   4   7
ATOM      7  C   UNL A   1      31.735  28.227  25.767  1.00  0.00     0.082 C 
ATOM      8  N   UNL A   1      31.259  25.767  24.474  1.00  0.00    -0.355 N 
ATOM      9  C   UNL A   1      31.446  26.907  23.606  1.00  0.00     0.119 C 
ATOM     10  C   UNL A   1      30.606  25.946  25.754  1.00  0.00     0.119 C 
ATOM     11  C   UNL A   1      32.232  27.981  24.334  1.00  0.00     0.035 C 
ATOM     12  C   UNL A   1      31.342  26.983  26.578  1.00  0.00     0.035 C 
BRANCH   8  13
ATOM     13  C   UNL A   1      31.751  24.533  24.083  1.00  0.00     0.157 A 
ATOM     14  C   UNL A   1      33.061  24.169  24.410  1.00  0.00     0.118 A 
ATOM     15  C   UNL A   1      33.510  22.931  23.926  1.00  0.00     0.157 A 
ATOM     16  N   UNL A   1      30.953  23.727  23.364  1.00  0.00    -0.217 NA
ATOM     17  N   UNL A   1      32.754  22.149  23.144  1.00  0.00    -0.217 NA
ATOM     18  C   UNL A   1      31.498  22.575  22.934  1.00  0.00     0.226 A 
BRANCH  14  19
ATOM     19  N   UNL A   1      33.874  24.959  25.246  1.00  0.00    -0.393 N 
ATOM     20  H   UNL A   1      34.246  25.808  24.910  1.00  0.00     0.156 HD
ATOM     21  H   UNL A   1      34.070  24.664  26.164  1.00  0.00     0.156 HD
ENDBRANCH  14  19
BRANCH  15  22
ATOM     22  N   UNL A   1      34.790  22.530  24.256  1.00  0.00    -0.351 N 
ATOM     23  C   UNL A   1      35.938  22.947  23.463  1.00  0.00     0.139 C 
ATOM     24  C   UNL A   1      34.967  21.286  25.014  1.00  0.00     0.139 C 
ATOM     25  C   UNL A   1      37.123  23.182  24.437  1.00  0.00     0.138 C 
ATOM     26  C   UNL A   1      36.146  21.465  25.993  1.00  0.00     0.138 C 
ATOM     27  N   UNL A   1      37.331  21.996  25.290  1.00  0.00    -0.368 N 
BRANCH  27  28
ATOM     28  C   UNL A   1      38.578  21.667  25.774  1.00  0.00     0.037 A 
ATOM     29  C   UNL A   1      39.152  20.405  25.598  1.00  0.00     0.026 A 
ATOM     30  C   UNL A   1      39.302  22.625  26.497  1.00  0.00     0.026 A 
ATOM     31  C   UNL A   1      40.411  20.109  26.131  1.00  0.00     0.002 A 
ATOM     32  C   UNL A   1      40.548  22.332  27.047  1.00  0.00     0.002 A 
ATOM     33  C   UNL A   1      41.105  21.070  26.862  1.00  0.00     0.000 A 
ENDBRANCH  27  28
ENDBRANCH  15  22
ENDBRANCH   8  13
ENDBRANCH   4   7
ENDBRANCH   2   3
ENDBRANCH   1   2
BRANCH   1  34
ATOM     34  C   UNL A   1      32.665  33.103  27.598  1.00  0.00     0.118 C 
BRANCH  34  35
ATOM     35  N   UNL A   1      32.576  34.519  27.934  1.00  0.00    -0.352 N 
ATOM     36  C   UNL A   1      33.227  35.233  28.908  1.00  0.00     0.251 C 
ATOM     37  H   UNL A   1      31.953  35.042  27.378  1.00  0.00     0.163 HD
ATOM     38  O   UNL A   1      32.861  36.377  29.171  1.00  0.00    -0.269 OA
BRANCH  36  39
ATOM     39  C   UNL A   1      34.353  34.625  29.647  1.00  0.00     0.039 A 
ATOM     40  C   UNL A   1      34.119  34.069  30.907  1.00  0.00     0.014 A 
ATOM     41  C   UNL A   1      35.640  34.609  29.102  1.00  0.00     0.014 A 
ATOM     42  C   UNL A   1      35.165  33.445  31.591  1.00  0.00     0.010 A 
ATOM     43  C   UNL A   1      36.652  33.901  29.736  1.00  0.00     0.010 A 
ATOM     44  C   UNL A   1      36.432  33.329  30.996  1.00  0.00    -0.014 A 
BRANCH  44  45
ATOM     45  C   UNL A   1      37.547  32.634  31.685  1.00  0.00     0.031 A 
ATOM     46  C   UNL A   1      38.238  31.475  31.020  1.00  0.00     0.074 A 
ATOM     47  C   UNL A   1      37.896  33.004  32.933  1.00  0.00     0.049 A 
ATOM     48  N   UNL A   1      39.214  30.731  31.468  1.00  0.00    -0.248 NA
ATOM     49  C   UNL A   1      37.751  31.084  29.686  1.00  0.00     0.031 C 
ATOM     50  C   UNL A   1      37.255  34.067  33.708  1.00  0.00     0.029 A 
ATOM     51  N   UNL A   1      38.868  32.520  33.773  1.00  0.00    -0.354 N 
ATOM     52  C   UNL A   1      39.444  29.775  30.485  1.00  0.00     0.074 A 
ATOM     53  C   UNL A   1      38.466  29.995  29.444  1.00  0.00     0.031 C 
ATOM     54  C   UNL A   1      37.869  34.176  34.896  1.00  0.00     0.029 A 
ATOM     55  C   UNL A   1      38.925  33.171  34.982  1.00  0.00     0.049 A 
ATOM     56  H   UNL A   1      39.468  31.778  33.530  1.00  0.00     0.167 HD
ATOM     57  C   UNL A   1      40.412  28.830  30.430  1.00  0.00     0.034 A 
ATOM     58  C   UNL A   1      39.742  32.985  36.038  1.00  0.00     0.034 A 
ATOM     59  C   UNL A   1      41.403  28.640  31.452  1.00  0.00     0.049 A 
ATOM     60  C   UNL A   1      40.811  31.930  35.956  1.00  0.00     0.074 A 
ATOM     61  C   UNL A   1      42.466  27.755  31.463  1.00  0.00     0.029 A 
ATOM     62  N   UNL A   1      41.454  29.344  32.646  1.00  0.00    -0.354 N 
ATOM     63  N   UNL A   1      41.105  31.129  34.960  1.00  0.00    -0.248 NA
ATOM     64  C   UNL A   1      41.680  31.768  37.132  1.00  0.00     0.031 C 
ATOM     65  C   UNL A   1      43.144  27.906  32.677  1.00  0.00     0.029 A 
ATOM     66  C   UNL A   1      42.521  28.904  33.410  1.00  0.00     0.049 A 
ATOM     67  H   UNL A   1      40.824  30.053  32.912  1.00  0.00     0.167 HD
ATOM     68  C   UNL A   1      42.205  30.387  35.375  1.00  0.00     0.074 A 
ATOM     69  C   UNL A   1      42.539  30.851  36.707  1.00  0.00     0.031 C 
ATOM     70  C   UNL A   1      42.866  29.401  34.720  1.00  0.00     0.034 A 
BRANCH  57  71
ATOM     71  C   UNL A   1      40.482  27.978  29.188  1.00  0.00     0.023 A 
ATOM     72  C   UNL A   1      39.581  26.902  29.038  1.00  0.00     0.012 A 
ATOM     73  C   UNL A   1      41.396  28.261  28.154  1.00  0.00     0.148 A 
ATOM     74  C   UNL A   1      39.616  26.097  27.902  1.00  0.00     0.002 A 
ATOM     75  C   UNL A   1      41.390  27.483  27.000  1.00  0.00     0.091 A 
ATOM     76  F   UNL A   1      42.259  29.272  28.321  1.00  0.00    -0.205 F 
ATOM     77  C   UNL A   1      40.512  26.393  26.879  1.00  0.00     0.022 A 
BRANCH  75  78
ATOM     78  S   UNL A   1      42.445  27.833  25.590  1.00  0.00     0.127 S 
ATOM     79  O   UNL A   1      41.905  29.112  25.129  1.00  0.00    -0.237 OA
ATOM     80  O   UNL A   1      43.768  27.919  26.210  1.00  0.00    -0.237 OA
ATOM     81  O   UNL A   1      42.275  26.715  24.673  1.00  0.00    -0.744 OA
ENDBRANCH  75  78
ENDBRANCH  57  71
BRANCH  58  82
ATOM     82  C   UNL A   1      39.635  33.895  37.215  1.00  0.00     0.023 A 
ATOM     83  C   UNL A   1      40.066  35.230  37.087  1.00  0.00     0.012 A 
ATOM     84  C   UNL A   1      39.037  33.478  38.421  1.00  0.00     0.148 A 
ATOM     85  C   UNL A   1      39.913  36.130  38.141  1.00  0.00     0.002 A 
ATOM     86  C   UNL A   1      38.838  34.394  39.447  1.00  0.00     0.091 A 
ATOM     87  F   UNL A   1      38.639  32.202  38.522  1.00  0.00    -0.205 F 
ATOM     88  C   UNL A   1      39.288  35.718  39.314  1.00  0.00     0.022 A 
BRANCH  86  89
ATOM     89  S   UNL A   1      37.922  33.997  40.941  1.00  0.00     0.127 S 
ATOM     90  O   UNL A   1      37.766  35.313  41.556  1.00  0.00    -0.237 OA
ATOM     91  O   UNL A   1      36.693  33.423  40.391  1.00  0.00    -0.237 OA
ATOM     92  O   UNL A   1      38.753  33.057  41.678  1.00  0.00    -0.744 OA
ENDBRANCH  86  89
ENDBRANCH  58  82
BRANCH  70  93
ATOM     93  C   UNL A   1      44.024  28.736  35.421  1.00  0.00     0.023 A 
ATOM     94  C   UNL A   1      45.320  29.270  35.276  1.00  0.00     0.012 A 
ATOM     95  C   UNL A   1      43.812  27.670  36.317  1.00  0.00     0.148 A 
ATOM     96  C   UNL A   1      46.389  28.742  35.998  1.00  0.00     0.002 A 
ATOM     97  C   UNL A   1      44.873  27.183  37.073  1.00  0.00     0.091 A 
ATOM     98  F   UNL A   1      42.574  27.167  36.430  1.00  0.00    -0.205 F 
ATOM     99  C   UNL A   1      46.163  27.711  36.906  1.00  0.00     0.022 A 
BRANCH  97 100
ATOM    100  S   UNL A   1      44.663  25.932  38.345  1.00  0.00     0.127 S 
ATOM    101  O   UNL A   1      43.773  26.611  39.286  1.00  0.00    -0.237 OA
ATOM    102  O   UNL A   1      44.042  24.836  37.600  1.00  0.00    -0.237 OA
ATOM    103  O   UNL A   1      45.998  25.642  38.852  1.00  0.00    -0.744 OA
ENDBRANCH  97 100
ENDBRANCH  70  93
ENDBRANCH  44  45
ENDBRANCH  36  39
ENDBRANCH  34  35
ENDBRANCH   1  34
TORSDOF 17
ENDMDL
MODEL 2
REMARK VINA RESULT:     -12.4      5.420     12.145
REMARK SMILES Nc1c(N2CCC(C(=O)NCCCNC(=O)c3ccc(-c4c5nc(c(-c6cccc(S(=O)(=O)[O-])c6F)c6ccc([nH]6)c(-c6cccc(S(=O)(=O)[O-])c6F)c6nc(c(-c7cccc(S(=O)(=O)[O-])c7F)c7ccc4[nH]7)C=C6)C=C5)cc3)CC2)ncnc1N1CCN(c2ccccc2)CC1
REMARK SMILES IDX 12 1 11 2 10 3 8 4 9 5 7 7 4 8 5 9 81 10 6 11 80 12 3 13
REMARK SMILES IDX 2 14 85 15 82 16 84 17 83 18 1 19 86 22 87 23 97 24 88 25
REMARK SMILES IDX 96 26 89 27 90 28 91 29 95 30 92 31 94 32 93 33 13 34 14 35
REMARK SMILES IDX 15 36 16 38 17 39 18 40 79 41 19 42 78 43 20 44 21 45 22 46
REMARK SMILES IDX 72 47 23 48 77 49 71 50 73 51 24 52 76 53 70 54 69 55 25 57
REMARK SMILES IDX 57 58 37 59 56 60 38 61 41 62 55 63 74 64 39 65 40 66 54 68
REMARK SMILES IDX 75 69 42 70 26 71 27 72 35 73 28 74 30 75 36 76 29 77 31 78
REMARK SMILES IDX 32 79 33 80 34 81 58 82 59 83 67 84 60 85 62 86 68 87 61 88
REMARK SMILES IDX 63 89 64 90 65 91 66 92 43 93 44 94 52 95 45 96 47 97 53 98
REMARK SMILES IDX 46 99 48 100 49 101 50 102 51 103
REMARK H PARENT 10 6 1 20 1 21 14 37 73 56 41 67
REMARK Flexibility Score: inf
ROOT
ATOM      1  C   UNL A   1      38.405  19.412  25.232  1.00  0.00     0.042 C 
ENDROOT
BRANCH   1   2
ATOM      2  C   UNL A   1      37.568  20.441  24.486  1.00  0.00     0.117 C 
BRANCH   2   3
ATOM      3  N   UNL A   1      37.550  21.735  25.160  1.00  0.00    -0.356 N 
ATOM      4  C   UNL A   1      36.566  22.668  25.277  1.00  0.00     0.223 C 
ATOM      5  O   UNL A   1      36.811  23.692  25.918  1.00  0.00    -0.275 OA
ATOM      6  H   UNL A   1      38.393  21.973  25.609  1.00  0.00     0.163 HD
BRANCH   4   7
ATOM      7  C   UNL A   1      35.191  22.450  24.673  1.00  0.00     0.082 C 
ATOM      8  N   UNL A   1      32.664  23.574  24.126  1.00  0.00    -0.355 N 
ATOM      9  C   UNL A   1      32.695  22.576  25.171  1.00  0.00     0.119 C 
ATOM     10  C   UNL A   1      33.558  23.447  22.995  1.00  0.00     0.119 C 
ATOM     11  C   UNL A   1      34.095  22.483  25.749  1.00  0.00     0.035 C 
ATOM     12  C   UNL A   1      34.996  23.382  23.468  1.00  0.00     0.035 C 
BRANCH   8  13
ATOM     13  C   UNL A   1      31.809  24.656  24.252  1.00  0.00     0.157 A 
ATOM     14  C   UNL A   1      32.224  25.793  24.952  1.00  0.00     0.118 A 
ATOM     15  C   UNL A   1      31.282  26.824  25.091  1.00  0.00     0.157 A 
ATOM     16  N   UNL A   1      30.581  24.564  23.716  1.00  0.00    -0.217 NA
ATOM     17  N   UNL A   1      30.028  26.719  24.630  1.00  0.00    -0.217 NA
ATOM     18  C   UNL A   1      29.756  25.604  23.934  1.00  0.00     0.226 A 
BRANCH  14  19
ATOM     19  N   UNL A   1      33.539  25.943  25.431  1.00  0.00    -0.393 N 
ATOM     20  H   UNL A   1      34.233  26.333  24.852  1.00  0.00     0.156 HD
ATOM     21  H   UNL A   1      33.765  25.656  26.345  1.00  0.00     0.156 HD
ENDBRANCH  14  19
BRANCH  15  22
ATOM     22  N   UNL A   1      31.670  27.973  25.753  1.00  0.00    -0.351 N 
ATOM     23  C   UNL A   1      31.702  28.030  27.208  1.00  0.00     0.139 C 
ATOM     24  C   UNL A   1      31.513  29.265  25.077  1.00  0.00     0.139 C 
ATOM     25  C   UNL A   1      32.920  28.900  27.619  1.00  0.00     0.138 C 
ATOM     26  C   UNL A   1      32.696  30.175  25.463  1.00  0.00     0.138 C 
ATOM     27  N   UNL A   1      32.876  30.204  26.928  1.00  0.00    -0.368 N 
BRANCH  27  28
ATOM     28  C   UNL A   1      33.410  31.338  27.498  1.00  0.00     0.037 A 
ATOM     29  C   UNL A   1      32.769  32.580  27.461  1.00  0.00     0.026 A 
ATOM     30  C   UNL A   1      34.660  31.261  28.126  1.00  0.00     0.026 A 
ATOM     31  C   UNL A   1      33.363  33.711  28.031  1.00  0.00     0.002 A 
ATOM     32  C   UNL A   1      35.267  32.386  28.679  1.00  0.00     0.002 A 
ATOM     33  C   UNL A   1      34.616  33.615  28.633  1.00  0.00     0.000 A 
ENDBRANCH  27  28
ENDBRANCH  15  22
ENDBRANCH   8  13
ENDBRANCH   4   7
ENDBRANCH   2   3
ENDBRANCH   1   2
BRANCH   1  34
ATOM     34  C   UNL A   1      39.642  19.998  25.891  1.00  0.00     0.118 C 
BRANCH  34  35
ATOM     35  N   UNL A   1      40.689  19.004  26.096  1.00  0.00    -0.352 N 
ATOM     36  C   UNL A   1      42.041  19.174  26.262  1.00  0.00     0.251 C 
ATOM     37  H   UNL A   1      40.379  18.070  26.118  1.00  0.00     0.163 HD
ATOM     38  O   UNL A   1      42.787  18.197  26.211  1.00  0.00    -0.269 OA
BRANCH  36  39
ATOM     39  C   UNL A   1      42.598  20.524  26.485  1.00  0.00     0.039 A 
ATOM     40  C   UNL A   1      43.057  21.260  25.391  1.00  0.00     0.014 A 
ATOM     41  C   UNL A   1      42.674  21.061  27.773  1.00  0.00     0.014 A 
ATOM     42  C   UNL A   1      43.537  22.558  25.584  1.00  0.00     0.010 A 
ATOM     43  C   UNL A   1      43.055  22.385  27.950  1.00  0.00     0.010 A 
ATOM     44  C   UNL A   1      43.510  23.141  26.862  1.00  0.00    -0.014 A 
BRANCH  44  45
ATOM     45  C   UNL A   1      43.974  24.532  27.085  1.00  0.00     0.031 A 
ATOM     46  C   UNL A   1      43.009  25.580  27.565  1.00  0.00     0.074 A 
ATOM     47  C   UNL A   1      45.247  24.865  26.796  1.00  0.00     0.049 A 
ATOM     48  N   UNL A   1      43.220  26.850  27.797  1.00  0.00    -0.248 NA
ATOM     49  C   UNL A   1      41.616  25.155  27.789  1.00  0.00     0.031 C 
ATOM     50  C   UNL A   1      46.258  23.953  26.259  1.00  0.00     0.029 A 
ATOM     51  N   UNL A   1      45.906  26.065  26.903  1.00  0.00    -0.354 N 
ATOM     52  C   UNL A   1      41.989  27.375  28.174  1.00  0.00     0.074 A 
ATOM     53  C   UNL A   1      41.024  26.303  28.080  1.00  0.00     0.031 C 
ATOM     54  C   UNL A   1      47.415  24.616  26.112  1.00  0.00     0.029 A 
ATOM     55  C   UNL A   1      47.223  26.007  26.512  1.00  0.00     0.049 A 
ATOM     56  H   UNL A   1      45.476  26.888  27.229  1.00  0.00     0.167 HD
ATOM     57  C   UNL A   1      41.696  28.624  28.605  1.00  0.00     0.034 A 
ATOM     58  C   UNL A   1      48.171  26.965  26.488  1.00  0.00     0.034 A 
ATOM     59  C   UNL A   1      42.667  29.675  28.730  1.00  0.00     0.049 A 
ATOM     60  C   UNL A   1      47.825  28.347  26.972  1.00  0.00     0.074 A 
ATOM     61  C   UNL A   1      42.486  30.958  29.217  1.00  0.00     0.029 A 
ATOM     62  N   UNL A   1      44.000  29.570  28.362  1.00  0.00    -0.354 N 
ATOM     63  N   UNL A   1      46.690  28.790  27.459  1.00  0.00    -0.248 NA
ATOM     64  C   UNL A   1      48.894  29.356  26.929  1.00  0.00     0.031 C 
ATOM     65  C   UNL A   1      43.706  31.635  29.119  1.00  0.00     0.029 A 
ATOM     66  C   UNL A   1      44.652  30.767  28.597  1.00  0.00     0.049 A 
ATOM     67  H   UNL A   1      44.421  28.762  27.988  1.00  0.00     0.167 HD
ATOM     68  C   UNL A   1      46.913  30.118  27.803  1.00  0.00     0.074 A 
ATOM     69  C   UNL A   1      48.300  30.401  27.490  1.00  0.00     0.031 C 
ATOM     70  C   UNL A   1      46.044  31.024  28.316  1.00  0.00     0.034 A 
BRANCH  57  71
ATOM     71  C   UNL A   1      40.278  28.895  29.038  1.00  0.00     0.023 A 
ATOM     72  C   UNL A   1      39.294  29.156  28.059  1.00  0.00     0.012 A 
ATOM     73  C   UNL A   1      39.902  28.849  30.395  1.00  0.00     0.148 A 
ATOM     74  C   UNL A   1      37.974  29.407  28.424  1.00  0.00     0.002 A 
ATOM     75  C   UNL A   1      38.571  29.051  30.747  1.00  0.00     0.091 A 
ATOM     76  F   UNL A   1      40.851  28.622  31.315  1.00  0.00    -0.205 F 
ATOM     77  C   UNL A   1      37.610  29.344  29.766  1.00  0.00     0.022 A 
BRANCH  75  78
ATOM     78  S   UNL A   1      37.984  28.906  32.439  1.00  0.00     0.127 S 
ATOM     79  O   UNL A   1      38.874  29.832  33.139  1.00  0.00    -0.237 OA
ATOM     80  O   UNL A   1      36.599  29.365  32.323  1.00  0.00    -0.237 OA
ATOM     81  O   UNL A   1      38.132  27.503  32.797  1.00  0.00    -0.744 OA
ENDBRANCH  75  78
ENDBRANCH  57  71
BRANCH  58  82
ATOM     82  C   UNL A   1      49.561  26.608  26.082  1.00  0.00     0.023 A 
ATOM     83  C   UNL A   1      50.313  25.749  26.906  1.00  0.00     0.012 A 
ATOM     84  C   UNL A   1      50.109  27.039  24.858  1.00  0.00     0.148 A 
ATOM     85  C   UNL A   1      51.588  25.332  26.524  1.00  0.00     0.002 A 
ATOM     86  C   UNL A   1      51.357  26.577  24.457  1.00  0.00     0.091 A 
ATOM     87  F   UNL A   1      49.378  27.861  24.091  1.00  0.00    -0.205 F 
ATOM     88  C   UNL A   1      52.105  25.734  25.296  1.00  0.00     0.022 A 
BRANCH  86  89
ATOM     89  S   UNL A   1      52.049  26.926  22.836  1.00  0.00     0.127 S 
ATOM     90  O   UNL A   1      50.885  26.757  21.970  1.00  0.00    -0.237 OA
ATOM     91  O   UNL A   1      52.503  28.307  22.998  1.00  0.00    -0.237 OA
ATOM     92  O   UNL A   1      53.118  25.956  22.644  1.00  0.00    -0.744 OA
ENDBRANCH  86  89
ENDBRANCH  58  82
BRANCH  70  93
ATOM     93  C   UNL A   1      46.549  32.422  28.576  1.00  0.00     0.023 A 
ATOM     94  C   UNL A   1      47.118  32.731  29.827  1.00  0.00     0.012 A 
ATOM     95  C   UNL A   1      46.575  33.385  27.548  1.00  0.00     0.148 A 
ATOM     96  C   UNL A   1      47.689  33.981  30.056  1.00  0.00     0.002 A 
ATOM     97  C   UNL A   1      47.193  34.610  27.767  1.00  0.00     0.091 A 
ATOM     98  F   UNL A   1      46.015  33.075  26.368  1.00  0.00    -0.205 F 
ATOM     99  C   UNL A   1      47.740  34.914  29.023  1.00  0.00     0.022 A 
BRANCH  97 100
ATOM    100  S   UNL A   1      47.405  35.835  26.468  1.00  0.00     0.127 S 
ATOM    101  O   UNL A   1      46.025  36.247  26.219  1.00  0.00    -0.237 OA
ATOM    102  O   UNL A   1      48.234  36.844  27.129  1.00  0.00    -0.237 OA
ATOM    103  O   UNL A   1      48.056  35.143  25.363  1.00  0.00    -0.744 OA
ENDBRANCH  97 100
ENDBRANCH  70  93
ENDBRANCH  44  45
ENDBRANCH  36  39
ENDBRANCH  34  35
ENDBRANCH   1  34
TORSDOF 17
ENDMDL
MODEL 3
REMARK VINA RESULT:     -12.2      1.353      7.386
REMARK SMILES Nc1c(N2CCC(C(=O)NCCCNC(=O)c3ccc(-c4c5nc(c(-c6cccc(S(=O)(=O)[O-])c6F)c6ccc([nH]6)c(-c6cccc(S(=O)(=O)[O-])c6F)c6nc(c(-c7cccc(S(=O)(=O)[O-])c7F)c7ccc4[nH]7)C=C6)C=C5)cc3)CC2)ncnc1N1CCN(c2ccccc2)CC1
REMARK SMILES IDX 12 1 11 2 10 3 8 4 9 5 7 7 4 8 5 9 81 10 6 11 80 12 3 13
REMARK SMILES IDX 2 14 85 15 82 16 84 17 83 18 1 19 86 22 87 23 97 24 88 25
REMARK SMILES IDX 96 26 89 27 90 28 91 29 95 30 92 31 94 32 93 33 13 34 14 35
REMARK SMILES IDX 15 36 16 38 17 39 18 40 79 41 19 42 78 43 20 44 21 45 22 46
REMARK SMILES IDX 72 47 23 48 77 49 71 50 73 51 24 52 76 53 70 54 69 55 25 57
REMARK SMILES IDX 57 58 37 59 56 60 38 61 41 62 55 63 74 64 39 65 40 66 54 68
REMARK SMILES IDX 75 69 42 70 26 71 27 72 35 73 28 74 30 75 36 76 29 77 31 78
REMARK SMILES IDX 32 79 33 80 34 81 58 82 59 83 67 84 60 85 62 86 68 87 61 88
REMARK SMILES IDX 63 89 64 90 65 91 66 92 43 93 44 94 52 95 45 96 47 97 53 98
REMARK SMILES IDX 46 99 48 100 49 101 50 102 51 103
REMARK H PARENT 10 6 1 20 1 21 14 37 73 56 41 67
REMARK Flexibility Score: inf
ROOT
ATOM      1  C   UNL A   1      31.620  32.770  26.639  1.00  0.00     0.042 C 
ENDROOT
BRANCH   1   2
ATOM      2  C   UNL A   1      31.376  31.270  26.549  1.00  0.00     0.117 C 
BRANCH   2   3
ATOM      3  N   UNL A   1      32.610  30.500  26.669  1.00  0.00    -0.356 N 
ATOM      4  C   UNL A   1      32.893  29.210  26.341  1.00  0.00     0.223 C 
ATOM      5  O   UNL A   1      34.039  28.799  26.540  1.00  0.00    -0.275 OA
ATOM      6  H   UNL A   1      33.367  31.000  27.050  1.00  0.00     0.163 HD
BRANCH   4   7
ATOM      7  C   UNL A   1      31.851  28.304  25.712  1.00  0.00     0.082 C 
ATOM      8  N   UNL A   1      31.313  25.781  24.576  1.00  0.00    -0.355 N 
ATOM      9  C   UNL A   1      31.343  26.892  23.653  1.00  0.00     0.119 C 
ATOM     10  C   UNL A   1      30.821  25.986  25.922  1.00  0.00     0.119 C 
ATOM     11  C   UNL A   1      32.171  28.021  24.237  1.00  0.00     0.035 C 
ATOM     12  C   UNL A   1      31.614  27.080  26.609  1.00  0.00     0.035 C 
BRANCH   8  13
ATOM     13  C   UNL A   1      31.800  24.551  24.167  1.00  0.00     0.157 A 
ATOM     14  C   UNL A   1      33.115  24.185  24.472  1.00  0.00     0.118 A 
ATOM     15  C   UNL A   1      33.558  22.952  23.971  1.00  0.00     0.157 A 
ATOM     16  N   UNL A   1      30.992  23.749  23.454  1.00  0.00    -0.217 NA
ATOM     17  N   UNL A   1      32.791  22.175  23.194  1.00  0.00    -0.217 NA
ATOM     18  C   UNL A   1      31.532  22.601  23.007  1.00  0.00     0.226 A 
BRANCH  14  19
ATOM     19  N   UNL A   1      33.940  24.970  25.301  1.00  0.00    -0.393 N 
ATOM     20  H   UNL A   1      33.721  25.918  25.458  1.00  0.00     0.156 HD
ATOM     21  H   UNL A   1      34.735  24.572  25.723  1.00  0.00     0.156 HD
ENDBRANCH  14  19
BRANCH  15  22
ATOM     22  N   UNL A   1      34.843  22.550  24.278  1.00  0.00    -0.351 N 
ATOM     23  C   UNL A   1      35.999  23.173  23.647  1.00  0.00     0.139 C 
ATOM     24  C   UNL A   1      35.057  21.186  24.775  1.00  0.00     0.139 C 
ATOM     25  C   UNL A   1      37.128  23.256  24.709  1.00  0.00     0.138 C 
ATOM     26  C   UNL A   1      36.183  21.212  25.829  1.00  0.00     0.138 C 
ATOM     27  N   UNL A   1      37.366  21.930  25.312  1.00  0.00    -0.368 N 
BRANCH  27  28
ATOM     28  C   UNL A   1      38.607  21.565  25.782  1.00  0.00     0.037 A 
ATOM     29  C   UNL A   1      39.125  20.275  25.637  1.00  0.00     0.026 A 
ATOM     30  C   UNL A   1      39.385  22.514  26.459  1.00  0.00     0.026 A 
ATOM     31  C   UNL A   1      40.382  19.944  26.156  1.00  0.00     0.002 A 
ATOM     32  C   UNL A   1      40.629  22.188  26.994  1.00  0.00     0.002 A 
ATOM     33  C   UNL A   1      41.129  20.899  26.841  1.00  0.00     0.000 A 
ENDBRANCH  27  28
ENDBRANCH  15  22
ENDBRANCH   8  13
ENDBRANCH   4   7
ENDBRANCH   2   3
ENDBRANCH   1   2
BRANCH   1  34
ATOM     34  C   UNL A   1      32.875  33.136  27.411  1.00  0.00     0.118 C 
BRANCH  34  35
ATOM     35  N   UNL A   1      32.769  34.434  28.067  1.00  0.00    -0.352 N 
ATOM     36  C   UNL A   1      33.429  34.918  29.168  1.00  0.00     0.251 C 
ATOM     37  H   UNL A   1      32.125  35.056  27.659  1.00  0.00     0.163 HD
ATOM     38  O   UNL A   1      33.049  35.962  29.695  1.00  0.00    -0.269 OA
BRANCH  36  39
ATOM     39  C   UNL A   1      34.582  34.181  29.726  1.00  0.00     0.039 A 
ATOM     40  C   UNL A   1      35.866  34.472  29.259  1.00  0.00     0.014 A 
ATOM     41  C   UNL A   1      34.398  33.200  30.704  1.00  0.00     0.014 A 
ATOM     42  C   UNL A   1      36.968  33.820  29.817  1.00  0.00     0.010 A 
ATOM     43  C   UNL A   1      35.499  32.628  31.327  1.00  0.00     0.010 A 
ATOM     44  C   UNL A   1      36.795  32.915  30.877  1.00  0.00    -0.014 A 
BRANCH  44  45
ATOM     45  C   UNL A   1      37.953  32.242  31.514  1.00  0.00     0.031 A 
ATOM     46  C   UNL A   1      38.450  32.707  32.855  1.00  0.00     0.074 A 
ATOM     47  C   UNL A   1      38.595  31.256  30.859  1.00  0.00     0.049 A 
ATOM     48  N   UNL A   1      39.457  32.261  33.560  1.00  0.00    -0.248 NA
ATOM     49  C   UNL A   1      37.741  33.839  33.475  1.00  0.00     0.031 C 
ATOM     50  C   UNL A   1      38.250  30.764  29.524  1.00  0.00     0.029 A 
ATOM     51  N   UNL A   1      39.680  30.496  31.222  1.00  0.00    -0.354 N 
ATOM     52  C   UNL A   1      39.513  33.066  34.691  1.00  0.00     0.074 A 
ATOM     53  C   UNL A   1      38.479  34.067  34.551  1.00  0.00     0.031 C 
ATOM     54  C   UNL A   1      39.085  29.767  29.193  1.00  0.00     0.029 A 
ATOM     55  C   UNL A   1      40.045  29.569  30.275  1.00  0.00     0.049 A 
ATOM     56  H   UNL A   1      40.151  30.606  32.079  1.00  0.00     0.167 HD
ATOM     57  C   UNL A   1      40.320  32.956  35.773  1.00  0.00     0.034 A 
ATOM     58  C   UNL A   1      41.037  28.655  30.281  1.00  0.00     0.034 A 
ATOM     59  C   UNL A   1      41.322  31.937  35.922  1.00  0.00     0.049 A 
ATOM     60  C   UNL A   1      41.922  28.549  31.493  1.00  0.00     0.074 A 
ATOM     61  C   UNL A   1      42.148  31.697  37.006  1.00  0.00     0.029 A 
ATOM     62  N   UNL A   1      41.637  30.990  34.959  1.00  0.00    -0.354 N 
ATOM     63  N   UNL A   1      41.869  29.226  32.615  1.00  0.00    -0.248 NA
ATOM     64  C   UNL A   1      42.986  27.534  31.453  1.00  0.00     0.031 C 
ATOM     65  C   UNL A   1      42.981  30.621  36.686  1.00  0.00     0.029 A 
ATOM     66  C   UNL A   1      42.656  30.172  35.416  1.00  0.00     0.049 A 
ATOM     67  H   UNL A   1      41.201  30.911  34.080  1.00  0.00     0.167 HD
ATOM     68  C   UNL A   1      42.874  28.707  33.424  1.00  0.00     0.074 A 
ATOM     69  C   UNL A   1      43.503  27.640  32.671  1.00  0.00     0.031 C 
ATOM     70  C   UNL A   1      43.250  29.089  34.670  1.00  0.00     0.034 A 
BRANCH  57  71
ATOM     71  C   UNL A   1      40.099  33.924  36.907  1.00  0.00     0.023 A 
ATOM     72  C   UNL A   1      38.950  33.789  37.716  1.00  0.00     0.012 A 
ATOM     73  C   UNL A   1      41.037  34.931  37.207  1.00  0.00     0.148 A 
ATOM     74  C   UNL A   1      38.716  34.664  38.774  1.00  0.00     0.002 A 
ATOM     75  C   UNL A   1      40.821  35.769  38.297  1.00  0.00     0.091 A 
ATOM     76  F   UNL A   1      42.112  35.061  36.416  1.00  0.00    -0.205 F 
ATOM     77  C   UNL A   1      39.656  35.646  39.071  1.00  0.00     0.022 A 
BRANCH  75  78
ATOM     78  S   UNL A   1      42.012  37.010  38.815  1.00  0.00     0.127 S 
ATOM     79  O   UNL A   1      41.143  38.010  39.435  1.00  0.00    -0.237 OA
ATOM     80  O   UNL A   1      42.846  36.261  39.756  1.00  0.00    -0.237 OA
ATOM     81  O   UNL A   1      42.696  37.441  37.605  1.00  0.00    -0.744 OA
ENDBRANCH  75  78
ENDBRANCH  57  71
BRANCH  58  82
ATOM     82  C   UNL A   1      41.165  27.708  29.137  1.00  0.00     0.023 A 
ATOM     83  C   UNL A   1      40.365  26.549  29.117  1.00  0.00     0.012 A 
ATOM     84  C   UNL A   1      42.003  27.985  28.038  1.00  0.00     0.148 A 
ATOM     85  C   UNL A   1      40.403  25.678  28.028  1.00  0.00     0.002 A 
ATOM     86  C   UNL A   1      41.994  27.141  26.933  1.00  0.00     0.091 A 
ATOM     87  F   UNL A   1      42.760  29.090  28.081  1.00  0.00    -0.205 F 
ATOM     88  C   UNL A   1      41.206  25.979  26.932  1.00  0.00     0.022 A 
BRANCH  86  89
ATOM     89  S   UNL A   1      42.887  27.514  25.418  1.00  0.00     0.127 S 
ATOM     90  O   UNL A   1      42.683  26.295  24.641  1.00  0.00    -0.237 OA
ATOM     91  O   UNL A   1      42.162  28.687  24.928  1.00  0.00    -0.237 OA
ATOM     92  O   UNL A   1      44.261  27.776  25.822  1.00  0.00    -0.744 OA
ENDBRANCH  86  89
ENDBRANCH  58  82
BRANCH  70  93
ATOM     93  C   UNL A   1      44.402  28.362  35.317  1.00  0.00     0.023 A 
ATOM     94  C   UNL A   1      45.722  28.747  35.012  1.00  0.00     0.012 A 
ATOM     95  C   UNL A   1      44.177  27.392  36.315  1.00  0.00     0.148 A 
ATOM     96  C   UNL A   1      46.800  28.165  35.677  1.00  0.00     0.002 A 
ATOM     97  C   UNL A   1      45.254  26.856  37.010  1.00  0.00     0.091 A 
ATOM     98  F   UNL A   1      42.912  27.031  36.580  1.00  0.00    -0.205 F 
ATOM     99  C   UNL A   1      46.567  27.233  36.684  1.00  0.00     0.022 A 
BRANCH  97 100
ATOM    100  S   UNL A   1      45.050  25.731  38.396  1.00  0.00     0.127 S 
ATOM    101  O   UNL A   1      46.425  25.595  38.875  1.00  0.00    -0.237 OA
ATOM    102  O   UNL A   1      44.167  26.490  39.282  1.00  0.00    -0.237 OA
ATOM    103  O   UNL A   1      44.461  24.516  37.848  1.00  0.00    -0.744 OA
ENDBRANCH  97 100
ENDBRANCH  70  93
ENDBRANCH  44  45
ENDBRANCH  36  39
ENDBRANCH  34  35
ENDBRANCH   1  34
TORSDOF 17
ENDMDL
