MODEL 1
REMARK VINA RESULT:     -11.1      0.000      0.000
REMARK SMILES CC[C@@H](C)C[C@@H](C)NC(=O)NC1(CC(=O)NCCCNC(=O)c2ccc(-c3c4nc(c(-c5cccc(S(=O)(=O)[O-])c5F)c5ccc([nH]5)c(-c5cccc(S(=O)(=O)[O-])c5F)c5nc(c(-c6cccc(S(=O)(=O)[O-])c6F)c6ccc3[nH]6)C=C5)C=C4)cc2)CCC1
REMARK SMILES IDX 14 1 15 2 16 3 13 5 12 6 86 7 88 8 87 9 11 10 8 11 9 12
REMARK SMILES IDX 10 14 6 16 7 17 5 18 3 19 4 20 2 21 1 22 17 23 18 24 19 25
REMARK SMILES IDX 20 26 21 27 22 29 23 30 24 31 85 32 25 33 84 34 26 35 27 36
REMARK SMILES IDX 28 37 78 38 29 39 83 40 77 41 79 42 30 43 82 44 76 45 75 46
REMARK SMILES IDX 31 48 63 49 43 50 62 51 44 52 47 53 61 54 80 55 45 56 46 57
REMARK SMILES IDX 60 59 81 60 48 61 32 62 33 63 41 64 34 65 36 66 42 67 35 68
REMARK SMILES IDX 37 69 38 70 39 71 40 72 64 73 65 74 73 75 66 76 68 77 74 78
REMARK SMILES IDX 67 79 69 80 70 81 71 82 72 83 49 84 50 85 58 86 51 87 53 88
REMARK SMILES IDX 59 89 52 90 54 91 55 92 56 93 57 94
REMARK H PARENT 16 4 8 13 11 15 20 28 79 47 47 58
REMARK Flexibility Score: inf
ROOT
ATOM      1  C   UNL A   1      31.760  24.216  26.488  1.00  0.00     0.222 C 
ATOM      2  O   UNL A   1      32.040  23.525  27.476  1.00  0.00    -0.275 OA
ATOM      3  N   UNL A   1      31.151  25.416  26.759  1.00  0.00    -0.356 N 
ATOM      4  H   UNL A   1      30.843  25.484  27.690  1.00  0.00     0.163 HD
ENDROOT
BRANCH   1   5
ATOM      5  C   UNL A   1      32.152  23.732  25.085  1.00  0.00     0.128 C 
BRANCH   5   6
ATOM      6  C   UNL A   1      33.448  24.310  24.413  1.00  0.00     0.051 C 
ATOM      7  C   UNL A   1      33.157  25.612  23.544  1.00  0.00     0.029 C 
ATOM      8  C   UNL A   1      34.000  23.785  23.025  1.00  0.00     0.029 C 
ATOM      9  C   UNL A   1      32.977  24.673  22.329  1.00  0.00     0.005 C 
BRANCH   6  10
ATOM     10  N   UNL A   1      34.549  24.520  25.372  1.00  0.00    -0.332 N 
ATOM     11  N   UNL A   1      35.604  22.414  25.243  1.00  0.00    -0.336 N 
ATOM     12  C   UNL A   1      35.628  23.728  25.599  1.00  0.00     0.315 C 
ATOM     13  H   UNL A   1      36.404  22.062  24.791  1.00  0.00     0.165 HD
ATOM     14  O   UNL A   1      36.639  24.210  26.108  1.00  0.00    -0.249 OA
ATOM     15  H   UNL A   1      34.495  25.339  25.915  1.00  0.00     0.165 HD
BRANCH  11  16
ATOM     16  C   UNL A   1      34.498  21.464  25.467  1.00  0.00     0.081 C 
ATOM     17  C   UNL A   1      34.364  21.441  27.002  1.00  0.00     0.031 C 
BRANCH  16  18
ATOM     18  C   UNL A   1      34.768  20.081  24.761  1.00  0.00     0.028 C 
BRANCH  18  19
ATOM     19  C   UNL A   1      33.695  18.899  24.656  1.00  0.00    -0.013 C 
ATOM     20  C   UNL A   1      34.431  17.619  24.239  1.00  0.00     0.008 C 
BRANCH  19  21
ATOM     21  C   UNL A   1      32.461  19.124  23.749  1.00  0.00    -0.000 C 
ATOM     22  C   UNL A   1      32.309  20.509  23.115  1.00  0.00     0.004 C 
ENDBRANCH  19  21
ENDBRANCH  18  19
ENDBRANCH  16  18
ENDBRANCH  11  16
ENDBRANCH   6  10
ENDBRANCH   5   6
ENDBRANCH   1   5
BRANCH   3  23
ATOM     23  C   UNL A   1      30.857  26.617  25.977  1.00  0.00     0.117 C 
BRANCH  23  24
ATOM     24  C   UNL A   1      31.462  27.952  26.477  1.00  0.00     0.042 C 
BRANCH  24  25
ATOM     25  C   UNL A   1      32.227  28.980  25.612  1.00  0.00     0.118 C 
BRANCH  25  26
ATOM     26  N   UNL A   1      32.083  30.350  26.103  1.00  0.00    -0.352 N 
ATOM     27  C   UNL A   1      32.815  31.189  26.919  1.00  0.00     0.251 C 
ATOM     28  H   UNL A   1      31.263  30.779  25.770  1.00  0.00     0.163 HD
ATOM     29  O   UNL A   1      32.232  32.224  27.260  1.00  0.00    -0.269 OA
BRANCH  27  30
ATOM     30  C   UNL A   1      34.220  30.998  27.418  1.00  0.00     0.039 A 
ATOM     31  C   UNL A   1      34.581  29.690  27.807  1.00  0.00     0.014 A 
ATOM     32  C   UNL A   1      35.120  32.021  27.727  1.00  0.00     0.014 A 
ATOM     33  C   UNL A   1      35.783  29.413  28.491  1.00  0.00     0.010 A 
ATOM     34  C   UNL A   1      36.349  31.735  28.384  1.00  0.00     0.010 A 
ATOM     35  C   UNL A   1      36.692  30.433  28.799  1.00  0.00    -0.014 A 
BRANCH  35  36
ATOM     36  C   UNL A   1      37.954  30.131  29.574  1.00  0.00     0.031 A 
ATOM     37  C   UNL A   1      39.017  29.198  29.022  1.00  0.00     0.074 A 
ATOM     38  C   UNL A   1      38.173  30.684  30.789  1.00  0.00     0.049 A 
ATOM     39  N   UNL A   1      40.150  28.813  29.562  1.00  0.00    -0.248 NA
ATOM     40  C   UNL A   1      38.769  28.616  27.695  1.00  0.00     0.031 C 
ATOM     41  C   UNL A   1      37.253  31.584  31.482  1.00  0.00     0.029 A 
ATOM     42  N   UNL A   1      39.228  30.553  31.669  1.00  0.00    -0.354 N 
ATOM     43  C   UNL A   1      40.727  27.914  28.666  1.00  0.00     0.074 A 
ATOM     44  C   UNL A   1      39.808  27.804  27.552  1.00  0.00     0.031 C 
ATOM     45  C   UNL A   1      37.774  31.916  32.676  1.00  0.00     0.029 A 
ATOM     46  C   UNL A   1      39.053  31.233  32.856  1.00  0.00     0.049 A 
ATOM     47  H   UNL A   1      40.033  30.022  31.468  1.00  0.00     0.167 HD
ATOM     48  C   UNL A   1      41.913  27.254  28.742  1.00  0.00     0.034 A 
ATOM     49  C   UNL A   1      39.815  31.296  33.971  1.00  0.00     0.034 A 
ATOM     50  C   UNL A   1      42.862  27.387  29.819  1.00  0.00     0.049 A 
ATOM     51  C   UNL A   1      41.133  30.563  34.028  1.00  0.00     0.074 A 
ATOM     52  C   UNL A   1      44.119  26.813  29.932  1.00  0.00     0.029 A 
ATOM     53  N   UNL A   1      42.664  28.132  30.970  1.00  0.00    -0.354 N 
ATOM     54  N   UNL A   1      41.710  29.830  33.108  1.00  0.00    -0.248 NA
ATOM     55  C   UNL A   1      41.921  30.695  35.266  1.00  0.00     0.031 C 
ATOM     56  C   UNL A   1      44.667  27.186  31.164  1.00  0.00     0.029 A 
ATOM     57  C   UNL A   1      43.768  28.022  31.803  1.00  0.00     0.049 A 
ATOM     58  H   UNL A   1      41.859  28.662  31.168  1.00  0.00     0.167 HD
ATOM     59  C   UNL A   1      42.940  29.449  33.638  1.00  0.00     0.074 A 
ATOM     60  C   UNL A   1      43.034  30.046  34.953  1.00  0.00     0.031 C 
ATOM     61  C   UNL A   1      43.896  28.663  33.086  1.00  0.00     0.034 A 
BRANCH  48  62
ATOM     62  C   UNL A   1      42.288  26.338  27.599  1.00  0.00     0.023 A 
ATOM     63  C   UNL A   1      43.125  26.815  26.569  1.00  0.00     0.012 A 
ATOM     64  C   UNL A   1      41.887  24.986  27.587  1.00  0.00     0.148 A 
ATOM     65  C   UNL A   1      43.520  25.977  25.526  1.00  0.00     0.002 A 
ATOM     66  C   UNL A   1      42.321  24.144  26.569  1.00  0.00     0.091 A 
ATOM     67  F   UNL A   1      41.089  24.547  28.571  1.00  0.00    -0.205 F 
ATOM     68  C   UNL A   1      43.126  24.642  25.530  1.00  0.00     0.022 A 
BRANCH  66  69
ATOM     69  S   UNL A   1      41.940  22.388  26.525  1.00  0.00     0.127 S 
ATOM     70  O   UNL A   1      40.481  22.406  26.446  1.00  0.00    -0.237 OA
ATOM     71  O   UNL A   1      42.611  21.957  25.299  1.00  0.00    -0.237 OA
ATOM     72  O   UNL A   1      42.492  21.826  27.749  1.00  0.00    -0.744 OA
ENDBRANCH  66  69
ENDBRANCH  48  62
BRANCH  49  73
ATOM     73  C   UNL A   1      39.371  32.123  35.134  1.00  0.00     0.023 A 
ATOM     74  C   UNL A   1      39.633  33.508  35.149  1.00  0.00     0.012 A 
ATOM     75  C   UNL A   1      38.692  31.545  36.225  1.00  0.00     0.148 A 
ATOM     76  C   UNL A   1      39.255  34.294  36.238  1.00  0.00     0.002 A 
ATOM     77  C   UNL A   1      38.265  32.344  37.280  1.00  0.00     0.091 A 
ATOM     78  F   UNL A   1      38.471  30.223  36.207  1.00  0.00    -0.205 F 
ATOM     79  C   UNL A   1      38.561  33.716  37.298  1.00  0.00     0.022 A 
BRANCH  77  80
ATOM     80  S   UNL A   1      37.250  31.713  38.621  1.00  0.00     0.127 S 
ATOM     81  O   UNL A   1      38.123  31.903  39.774  1.00  0.00    -0.237 OA
ATOM     82  O   UNL A   1      36.092  32.604  38.568  1.00  0.00    -0.237 OA
ATOM     83  O   UNL A   1      36.956  30.327  38.269  1.00  0.00    -0.744 OA
ENDBRANCH  77  80
ENDBRANCH  49  73
BRANCH  61  84
ATOM     84  C   UNL A   1      45.168  28.430  33.864  1.00  0.00     0.023 A 
ATOM     85  C   UNL A   1      46.274  29.285  33.682  1.00  0.00     0.012 A 
ATOM     86  C   UNL A   1      45.237  27.415  34.839  1.00  0.00     0.148 A 
ATOM     87  C   UNL A   1      47.435  29.115  34.437  1.00  0.00     0.002 A 
ATOM     88  C   UNL A   1      46.378  27.283  35.623  1.00  0.00     0.091 A 
ATOM     89  F   UNL A   1      44.182  26.600  34.987  1.00  0.00    -0.205 F 
ATOM     90  C   UNL A   1      47.483  28.124  35.415  1.00  0.00     0.022 A 
BRANCH  88  91
ATOM     91  S   UNL A   1      46.495  26.099  36.971  1.00  0.00     0.127 S 
ATOM     92  O   UNL A   1      46.501  24.827  36.250  1.00  0.00    -0.237 OA
ATOM     93  O   UNL A   1      47.773  26.458  37.587  1.00  0.00    -0.237 OA
ATOM     94  O   UNL A   1      45.330  26.332  37.814  1.00  0.00    -0.744 OA
ENDBRANCH  88  91
ENDBRANCH  61  84
ENDBRANCH  35  36
ENDBRANCH  27  30
ENDBRANCH  25  26
ENDBRANCH  24  25
ENDBRANCH  23  24
ENDBRANCH   3  23
TORSDOF 19
ENDMDL
MODEL 2
REMARK VINA RESULT:     -11.1      1.713      8.042
REMARK SMILES CC[C@@H](C)C[C@@H](C)NC(=O)NC1(CC(=O)NCCCNC(=O)c2ccc(-c3c4nc(c(-c5cccc(S(=O)(=O)[O-])c5F)c5ccc([nH]5)c(-c5cccc(S(=O)(=O)[O-])c5F)c5nc(c(-c6cccc(S(=O)(=O)[O-])c6F)c6ccc3[nH]6)C=C5)C=C4)cc2)CCC1
REMARK SMILES IDX 14 1 15 2 16 3 13 5 12 6 86 7 88 8 87 9 11 10 8 11 9 12
REMARK SMILES IDX 10 14 6 16 7 17 5 18 3 19 4 20 2 21 1 22 17 23 18 24 19 25
REMARK SMILES IDX 20 26 21 27 22 29 23 30 24 31 85 32 25 33 84 34 26 35 27 36
REMARK SMILES IDX 28 37 78 38 29 39 83 40 77 41 79 42 30 43 82 44 76 45 75 46
REMARK SMILES IDX 31 48 63 49 43 50 62 51 44 52 47 53 61 54 80 55 45 56 46 57
REMARK SMILES IDX 60 59 81 60 48 61 32 62 33 63 41 64 34 65 36 66 42 67 35 68
REMARK SMILES IDX 37 69 38 70 39 71 40 72 64 73 65 74 73 75 66 76 68 77 74 78
REMARK SMILES IDX 67 79 69 80 70 81 71 82 72 83 49 84 50 85 58 86 51 87 53 88
REMARK SMILES IDX 59 89 52 90 54 91 55 92 56 93 57 94
REMARK H PARENT 16 4 8 13 11 15 20 28 79 47 47 58
REMARK Flexibility Score: inf
ROOT
ATOM      1  C   UNL A   1      31.918  24.605  26.629  1.00  0.00     0.222 C 
ATOM      2  O   UNL A   1      31.785  23.686  27.447  1.00  0.00    -0.275 OA
ATOM      3  N   UNL A   1      30.859  25.473  26.539  1.00  0.00    -0.356 N 
ATOM      4  H   UNL A   1      30.054  25.140  26.996  1.00  0.00     0.163 HD
ENDROOT
BRANCH   1   5
ATOM      5  C   UNL A   1      33.231  24.745  25.847  1.00  0.00     0.128 C 
BRANCH   5   6
ATOM      6  C   UNL A   1      34.016  23.449  25.435  1.00  0.00     0.051 C 
ATOM      7  C   UNL A   1      35.127  23.042  26.501  1.00  0.00     0.029 C 
ATOM      8  C   UNL A   1      35.275  23.479  24.475  1.00  0.00     0.029 C 
ATOM      9  C   UNL A   1      36.126  23.880  25.672  1.00  0.00     0.005 C 
BRANCH   6  10
ATOM     10  N   UNL A   1      33.128  22.319  25.103  1.00  0.00    -0.332 N 
ATOM     11  N   UNL A   1      32.512  22.921  22.907  1.00  0.00    -0.336 N 
ATOM     12  C   UNL A   1      32.604  21.988  23.895  1.00  0.00     0.315 C 
ATOM     13  H   UNL A   1      32.786  22.639  22.005  1.00  0.00     0.165 HD
ATOM     14  O   UNL A   1      32.234  20.834  23.690  1.00  0.00    -0.249 OA
ATOM     15  H   UNL A   1      32.885  21.730  25.853  1.00  0.00     0.165 HD
BRANCH  11  16
ATOM     16  C   UNL A   1      32.043  24.311  23.053  1.00  0.00     0.081 C 
ATOM     17  C   UNL A   1      30.521  24.148  23.227  1.00  0.00     0.031 C 
BRANCH  16  18
ATOM     18  C   UNL A   1      32.522  25.215  21.855  1.00  0.00     0.028 C 
BRANCH  18  19
ATOM     19  C   UNL A   1      33.103  26.697  22.020  1.00  0.00    -0.013 C 
ATOM     20  C   UNL A   1      33.860  26.771  23.351  1.00  0.00     0.008 C 
BRANCH  19  21
ATOM     21  C   UNL A   1      32.107  27.877  21.906  1.00  0.00    -0.000 C 
ATOM     22  C   UNL A   1      30.715  27.671  22.510  1.00  0.00     0.004 C 
ENDBRANCH  19  21
ENDBRANCH  18  19
ENDBRANCH  16  18
ENDBRANCH  11  16
ENDBRANCH   6  10
ENDBRANCH   5   6
ENDBRANCH   1   5
BRANCH   3  23
ATOM     23  C   UNL A   1      30.654  26.782  25.918  1.00  0.00     0.117 C 
BRANCH  23  24
ATOM     24  C   UNL A   1      31.510  27.958  26.448  1.00  0.00     0.042 C 
BRANCH  24  25
ATOM     25  C   UNL A   1      32.248  29.004  25.581  1.00  0.00     0.118 C 
BRANCH  25  26
ATOM     26  N   UNL A   1      32.157  30.358  26.127  1.00  0.00    -0.352 N 
ATOM     27  C   UNL A   1      32.920  31.134  26.974  1.00  0.00     0.251 C 
ATOM     28  H   UNL A   1      31.353  30.830  25.813  1.00  0.00     0.163 HD
ATOM     29  O   UNL A   1      32.378  32.176  27.359  1.00  0.00    -0.269 OA
BRANCH  27  30
ATOM     30  C   UNL A   1      34.318  30.870  27.462  1.00  0.00     0.039 A 
ATOM     31  C   UNL A   1      34.635  29.532  27.778  1.00  0.00     0.014 A 
ATOM     32  C   UNL A   1      35.250  31.845  27.826  1.00  0.00     0.014 A 
ATOM     33  C   UNL A   1      35.826  29.179  28.446  1.00  0.00     0.010 A 
ATOM     34  C   UNL A   1      36.469  31.483  28.466  1.00  0.00     0.010 A 
ATOM     35  C   UNL A   1      36.768  30.150  28.809  1.00  0.00    -0.014 A 
BRANCH  35  36
ATOM     36  C   UNL A   1      38.018  29.765  29.567  1.00  0.00     0.031 A 
ATOM     37  C   UNL A   1      38.271  30.264  30.978  1.00  0.00     0.074 A 
ATOM     38  C   UNL A   1      38.954  28.966  29.005  1.00  0.00     0.049 A 
ATOM     39  N   UNL A   1      39.300  30.049  31.766  1.00  0.00    -0.248 NA
ATOM     40  C   UNL A   1      37.239  31.121  31.578  1.00  0.00     0.031 C 
ATOM     41  C   UNL A   1      38.888  28.415  27.653  1.00  0.00     0.029 A 
ATOM     42  N   UNL A   1      40.156  28.496  29.492  1.00  0.00    -0.354 N 
ATOM     43  C   UNL A   1      39.061  30.776  32.931  1.00  0.00     0.074 A 
ATOM     44  C   UNL A   1      37.792  31.449  32.738  1.00  0.00     0.031 C 
ATOM     45  C   UNL A   1      39.996  27.692  27.415  1.00  0.00     0.029 A 
ATOM     46  C   UNL A   1      40.873  27.747  28.582  1.00  0.00     0.049 A 
ATOM     47  H   UNL A   1      40.474  28.676  30.407  1.00  0.00     0.167 HD
ATOM     48  C   UNL A   1      39.805  30.868  34.064  1.00  0.00     0.034 A 
ATOM     49  C   UNL A   1      42.099  27.182  28.658  1.00  0.00     0.034 A 
ATOM     50  C   UNL A   1      41.046  30.169  34.294  1.00  0.00     0.049 A 
ATOM     51  C   UNL A   1      42.903  27.288  29.931  1.00  0.00     0.074 A 
ATOM     52  C   UNL A   1      41.819  30.149  35.444  1.00  0.00     0.029 A 
ATOM     53  N   UNL A   1      41.701  29.380  33.364  1.00  0.00    -0.354 N 
ATOM     54  N   UNL A   1      42.587  27.871  31.060  1.00  0.00    -0.248 NA
ATOM     55  C   UNL A   1      44.220  26.628  29.950  1.00  0.00     0.031 C 
ATOM     56  C   UNL A   1      42.957  29.373  35.198  1.00  0.00     0.029 A 
ATOM     57  C   UNL A   1      42.874  28.879  33.908  1.00  0.00     0.049 A 
ATOM     58  H   UNL A   1      41.381  29.200  32.451  1.00  0.00     0.167 HD
ATOM     59  C   UNL A   1      43.642  27.615  31.932  1.00  0.00     0.074 A 
ATOM     60  C   UNL A   1      44.600  26.810  31.207  1.00  0.00     0.031 C 
ATOM     61  C   UNL A   1      43.803  28.026  33.214  1.00  0.00     0.034 A 
BRANCH  48  62
ATOM     62  C   UNL A   1      39.283  31.737  35.187  1.00  0.00     0.023 A 
ATOM     63  C   UNL A   1      38.408  31.187  36.145  1.00  0.00     0.012 A 
ATOM     64  C   UNL A   1      39.725  33.068  35.344  1.00  0.00     0.148 A 
ATOM     65  C   UNL A   1      37.946  31.956  37.214  1.00  0.00     0.002 A 
ATOM     66  C   UNL A   1      39.296  33.815  36.436  1.00  0.00     0.091 A 
ATOM     67  F   UNL A   1      40.555  33.578  34.423  1.00  0.00    -0.205 F 
ATOM     68  C   UNL A   1      38.396  33.265  37.363  1.00  0.00     0.022 A 
BRANCH  66  69
ATOM     69  S   UNL A   1      39.881  35.481  36.767  1.00  0.00     0.127 S 
ATOM     70  O   UNL A   1      41.330  35.286  36.785  1.00  0.00    -0.237 OA
ATOM     71  O   UNL A   1      39.381  36.221  35.608  1.00  0.00    -0.237 OA
ATOM     72  O   UNL A   1      39.288  35.871  38.038  1.00  0.00    -0.744 OA
ENDBRANCH  66  69
ENDBRANCH  48  62
BRANCH  49  73
ATOM     73  C   UNL A   1      42.643  26.417  27.495  1.00  0.00     0.023 A 
ATOM     74  C   UNL A   1      43.532  27.046  26.599  1.00  0.00     0.012 A 
ATOM     75  C   UNL A   1      42.286  25.073  27.271  1.00  0.00     0.148 A 
ATOM     76  C   UNL A   1      44.029  26.361  25.489  1.00  0.00     0.002 A 
ATOM     77  C   UNL A   1      42.831  24.378  26.198  1.00  0.00     0.091 A 
ATOM     78  F   UNL A   1      41.421  24.497  28.119  1.00  0.00    -0.205 F 
ATOM     79  C   UNL A   1      43.689  25.025  25.294  1.00  0.00     0.022 A 
BRANCH  77  80
ATOM     80  S   UNL A   1      42.558  22.621  25.944  1.00  0.00     0.127 S 
ATOM     81  O   UNL A   1      43.058  22.431  24.588  1.00  0.00    -0.237 OA
ATOM     82  O   UNL A   1      43.383  22.032  26.997  1.00  0.00    -0.237 OA
ATOM     83  O   UNL A   1      41.123  22.419  26.125  1.00  0.00    -0.744 OA
ENDBRANCH  77  80
ENDBRANCH  49  73
BRANCH  61  84
ATOM     84  C   UNL A   1      45.036  27.575  33.959  1.00  0.00     0.023 A 
ATOM     85  C   UNL A   1      46.222  28.333  33.887  1.00  0.00     0.012 A 
ATOM     86  C   UNL A   1      44.992  26.444  34.799  1.00  0.00     0.148 A 
ATOM     87  C   UNL A   1      47.350  27.958  34.617  1.00  0.00     0.002 A 
ATOM     88  C   UNL A   1      46.104  26.105  35.562  1.00  0.00     0.091 A 
ATOM     89  F   UNL A   1      43.862  25.724  34.842  1.00  0.00    -0.205 F 
ATOM     90  C   UNL A   1      47.288  26.853  35.463  1.00  0.00     0.022 A 
BRANCH  88  91
ATOM     91  S   UNL A   1      46.087  24.757  36.751  1.00  0.00     0.127 S 
ATOM     92  O   UNL A   1      44.959  25.127  37.605  1.00  0.00    -0.237 OA
ATOM     93  O   UNL A   1      45.848  23.593  35.897  1.00  0.00    -0.237 OA
ATOM     94  O   UNL A   1      47.391  24.773  37.400  1.00  0.00    -0.744 OA
ENDBRANCH  88  91
ENDBRANCH  61  84
ENDBRANCH  35  36
ENDBRANCH  27  30
ENDBRANCH  25  26
ENDBRANCH  24  25
ENDBRANCH  23  24
ENDBRANCH   3  23
TORSDOF 19
ENDMDL
MODEL 3
REMARK VINA RESULT:     -10.8      2.094      8.074
REMARK SMILES CC[C@@H](C)C[C@@H](C)NC(=O)NC1(CC(=O)NCCCNC(=O)c2ccc(-c3c4nc(c(-c5cccc(S(=O)(=O)[O-])c5F)c5ccc([nH]5)c(-c5cccc(S(=O)(=O)[O-])c5F)c5nc(c(-c6cccc(S(=O)(=O)[O-])c6F)c6ccc3[nH]6)C=C5)C=C4)cc2)CCC1
REMARK SMILES IDX 14 1 15 2 16 3 13 5 12 6 86 7 88 8 87 9 11 10 8 11 9 12
REMARK SMILES IDX 10 14 6 16 7 17 5 18 3 19 4 20 2 21 1 22 17 23 18 24 19 25
REMARK SMILES IDX 20 26 21 27 22 29 23 30 24 31 85 32 25 33 84 34 26 35 27 36
REMARK SMILES IDX 28 37 78 38 29 39 83 40 77 41 79 42 30 43 82 44 76 45 75 46
REMARK SMILES IDX 31 48 63 49 43 50 62 51 44 52 47 53 61 54 80 55 45 56 46 57
REMARK SMILES IDX 60 59 81 60 48 61 32 62 33 63 41 64 34 65 36 66 42 67 35 68
REMARK SMILES IDX 37 69 38 70 39 71 40 72 64 73 65 74 73 75 66 76 68 77 74 78
REMARK SMILES IDX 67 79 69 80 70 81 71 82 72 83 49 84 50 85 58 86 51 87 53 88
REMARK SMILES IDX 59 89 52 90 54 91 55 92 56 93 57 94
REMARK H PARENT 16 4 8 13 11 15 20 28 79 47 47 58
REMARK Flexibility Score: inf
ROOT
ATOM      1  C   UNL A   1      32.114  24.584  26.730  1.00  0.00     0.222 C 
ATOM      2  O   UNL A   1      31.823  23.566  27.372  1.00  0.00    -0.275 OA
ATOM      3  N   UNL A   1      31.164  25.575  26.732  1.00  0.00    -0.356 N 
ATOM      4  H   UNL A   1      30.297  25.270  27.083  1.00  0.00     0.163 HD
ENDROOT
BRANCH   1   5
ATOM      5  C   UNL A   1      33.487  24.692  26.054  1.00  0.00     0.128 C 
BRANCH   5   6
ATOM      6  C   UNL A   1      34.170  23.392  25.499  1.00  0.00     0.051 C 
ATOM      7  C   UNL A   1      35.459  22.973  26.336  1.00  0.00     0.029 C 
ATOM      8  C   UNL A   1      35.224  23.414  24.318  1.00  0.00     0.029 C 
ATOM      9  C   UNL A   1      36.290  23.805  25.333  1.00  0.00     0.005 C 
BRANCH   6  10
ATOM     10  N   UNL A   1      33.226  22.269  25.341  1.00  0.00    -0.332 N 
ATOM     11  N   UNL A   1      32.377  22.756  23.195  1.00  0.00    -0.336 N 
ATOM     12  C   UNL A   1      32.561  21.881  24.222  1.00  0.00     0.315 C 
ATOM     13  H   UNL A   1      32.540  22.413  22.287  1.00  0.00     0.165 HD
ATOM     14  O   UNL A   1      32.146  20.727  24.132  1.00  0.00    -0.249 OA
ATOM     15  H   UNL A   1      33.058  21.732  26.148  1.00  0.00     0.165 HD
BRANCH  11  16
ATOM     16  C   UNL A   1      31.956  24.165  23.305  1.00  0.00     0.081 C 
ATOM     17  C   UNL A   1      30.420  24.066  23.375  1.00  0.00     0.031 C 
BRANCH  16  18
ATOM     18  C   UNL A   1      32.554  25.043  22.141  1.00  0.00     0.028 C 
BRANCH  18  19
ATOM     19  C   UNL A   1      32.747  26.630  22.217  1.00  0.00    -0.013 C 
ATOM     20  C   UNL A   1      33.851  26.931  23.238  1.00  0.00     0.008 C 
BRANCH  19  21
ATOM     21  C   UNL A   1      31.497  27.494  22.513  1.00  0.00    -0.000 C 
ATOM     22  C   UNL A   1      31.738  28.961  22.878  1.00  0.00     0.004 C 
ENDBRANCH  19  21
ENDBRANCH  18  19
ENDBRANCH  16  18
ENDBRANCH  11  16
ENDBRANCH   6  10
ENDBRANCH   5   6
ENDBRANCH   1   5
BRANCH   3  23
ATOM     23  C   UNL A   1      31.148  26.982  26.333  1.00  0.00     0.117 C 
BRANCH  23  24
ATOM     24  C   UNL A   1      32.106  27.941  27.080  1.00  0.00     0.042 C 
BRANCH  24  25
ATOM     25  C   UNL A   1      33.372  28.601  26.486  1.00  0.00     0.118 C 
BRANCH  25  26
ATOM     26  N   UNL A   1      33.443  30.036  26.758  1.00  0.00    -0.352 N 
ATOM     27  C   UNL A   1      34.213  30.853  27.560  1.00  0.00     0.251 C 
ATOM     28  H   UNL A   1      32.777  30.544  26.242  1.00  0.00     0.163 HD
ATOM     29  O   UNL A   1      33.810  32.017  27.660  1.00  0.00    -0.269 OA
BRANCH  27  30
ATOM     30  C   UNL A   1      35.472  30.499  28.301  1.00  0.00     0.039 A 
ATOM     31  C   UNL A   1      36.690  30.866  27.690  1.00  0.00     0.014 A 
ATOM     32  C   UNL A   1      35.551  29.665  29.420  1.00  0.00     0.014 A 
ATOM     33  C   UNL A   1      37.937  30.408  28.163  1.00  0.00     0.010 A 
ATOM     34  C   UNL A   1      36.813  29.234  29.918  1.00  0.00     0.010 A 
ATOM     35  C   UNL A   1      38.025  29.576  29.287  1.00  0.00    -0.014 A 
BRANCH  35  36
ATOM     36  C   UNL A   1      39.362  29.053  29.756  1.00  0.00     0.031 A 
ATOM     37  C   UNL A   1      40.103  29.701  30.912  1.00  0.00     0.074 A 
ATOM     38  C   UNL A   1      39.944  27.991  29.154  1.00  0.00     0.049 A 
ATOM     39  N   UNL A   1      41.269  29.394  31.432  1.00  0.00    -0.248 NA
ATOM     40  C   UNL A   1      39.452  30.846  31.563  1.00  0.00     0.031 C 
ATOM     41  C   UNL A   1      39.389  27.260  28.016  1.00  0.00     0.029 A 
ATOM     42  N   UNL A   1      41.143  27.352  29.399  1.00  0.00    -0.354 N 
ATOM     43  C   UNL A   1      41.511  30.330  32.436  1.00  0.00     0.074 A 
ATOM     44  C   UNL A   1      40.371  31.224  32.441  1.00  0.00     0.031 C 
ATOM     45  C   UNL A   1      40.241  26.285  27.657  1.00  0.00     0.029 A 
ATOM     46  C   UNL A   1      41.423  26.331  28.515  1.00  0.00     0.049 A 
ATOM     47  H   UNL A   1      41.744  27.601  30.139  1.00  0.00     0.167 HD
ATOM     48  C   UNL A   1      42.564  30.435  33.289  1.00  0.00     0.034 A 
ATOM     49  C   UNL A   1      42.505  25.531  28.388  1.00  0.00     0.034 A 
ATOM     50  C   UNL A   1      43.684  29.528  33.331  1.00  0.00     0.049 A 
ATOM     51  C   UNL A   1      43.658  25.659  29.354  1.00  0.00     0.074 A 
ATOM     52  C   UNL A   1      44.750  29.521  34.216  1.00  0.00     0.029 A 
ATOM     53  N   UNL A   1      43.894  28.478  32.453  1.00  0.00    -0.354 N 
ATOM     54  N   UNL A   1      43.793  26.468  30.375  1.00  0.00    -0.248 NA
ATOM     55  C   UNL A   1      44.793  24.738  29.169  1.00  0.00     0.031 C 
ATOM     56  C   UNL A   1      45.620  28.486  33.854  1.00  0.00     0.029 A 
ATOM     57  C   UNL A   1      45.076  27.825  32.766  1.00  0.00     0.049 A 
ATOM     58  H   UNL A   1      43.291  28.231  31.715  1.00  0.00     0.167 HD
ATOM     59  C   UNL A   1      45.002  26.129  30.976  1.00  0.00     0.074 A 
ATOM     60  C   UNL A   1      45.555  25.029  30.215  1.00  0.00     0.031 C 
ATOM     61  C   UNL A   1      45.603  26.691  32.053  1.00  0.00     0.034 A 
BRANCH  48  62
ATOM     62  C   UNL A   1      42.550  31.563  34.296  1.00  0.00     0.023 A 
ATOM     63  C   UNL A   1      43.355  32.701  34.081  1.00  0.00     0.012 A 
ATOM     64  C   UNL A   1      41.679  31.538  35.406  1.00  0.00     0.148 A 
ATOM     65  C   UNL A   1      43.327  33.772  34.974  1.00  0.00     0.002 A 
ATOM     66  C   UNL A   1      41.624  32.628  36.268  1.00  0.00     0.091 A 
ATOM     67  F   UNL A   1      40.922  30.448  35.600  1.00  0.00    -0.205 F 
ATOM     68  C   UNL A   1      42.458  33.740  36.061  1.00  0.00     0.022 A 
BRANCH  66  69
ATOM     69  S   UNL A   1      40.479  32.724  37.649  1.00  0.00     0.127 S 
ATOM     70  O   UNL A   1      40.105  34.137  37.624  1.00  0.00    -0.237 OA
ATOM     71  O   UNL A   1      39.418  31.806  37.234  1.00  0.00    -0.237 OA
ATOM     72  O   UNL A   1      41.226  32.296  38.823  1.00  0.00    -0.744 OA
ENDBRANCH  66  69
ENDBRANCH  48  62
BRANCH  49  73
ATOM     73  C   UNL A   1      42.545  24.492  27.314  1.00  0.00     0.023 A 
ATOM     74  C   UNL A   1      43.159  24.786  26.079  1.00  0.00     0.012 A 
ATOM     75  C   UNL A   1      41.979  23.217  27.508  1.00  0.00     0.148 A 
ATOM     76  C   UNL A   1      43.182  23.842  25.051  1.00  0.00     0.002 A 
ATOM     77  C   UNL A   1      42.057  22.261  26.502  1.00  0.00     0.091 A 
ATOM     78  F   UNL A   1      41.378  22.961  28.679  1.00  0.00    -0.205 F 
ATOM     79  C   UNL A   1      42.642  22.577  25.266  1.00  0.00     0.022 A 
BRANCH  77  80
ATOM     80  S   UNL A   1      41.511  20.566  26.734  1.00  0.00     0.127 S 
ATOM     81  O   UNL A   1      42.153  20.212  27.995  1.00  0.00    -0.237 OA
ATOM     82  O   UNL A   1      40.059  20.723  26.801  1.00  0.00    -0.237 OA
ATOM     83  O   UNL A   1      41.981  19.839  25.558  1.00  0.00    -0.744 OA
ENDBRANCH  77  80
ENDBRANCH  49  73
BRANCH  61  84
ATOM     84  C   UNL A   1      46.910  26.106  32.529  1.00  0.00     0.023 A 
ATOM     85  C   UNL A   1      48.132  26.664  32.101  1.00  0.00     0.012 A 
ATOM     86  C   UNL A   1      46.925  25.055  33.468  1.00  0.00     0.148 A 
ATOM     87  C   UNL A   1      49.345  26.167  32.580  1.00  0.00     0.002 A 
ATOM     88  C   UNL A   1      48.136  24.599  33.978  1.00  0.00     0.091 A 
ATOM     89  F   UNL A   1      45.755  24.524  33.851  1.00  0.00    -0.205 F 
ATOM     90  C   UNL A   1      49.348  25.146  33.526  1.00  0.00     0.022 A 
BRANCH  88  91
ATOM     91  S   UNL A   1      48.233  23.354  35.271  1.00  0.00     0.127 S 
ATOM     92  O   UNL A   1      49.623  23.484  35.706  1.00  0.00    -0.237 OA
ATOM     93  O   UNL A   1      47.245  23.833  36.238  1.00  0.00    -0.237 OA
ATOM     94  O   UNL A   1      47.895  22.086  34.638  1.00  0.00    -0.744 OA
ENDBRANCH  88  91
ENDBRANCH  61  84
ENDBRANCH  35  36
ENDBRANCH  27  30
ENDBRANCH  25  26
ENDBRANCH  24  25
ENDBRANCH  23  24
ENDBRANCH   3  23
TORSDOF 19
ENDMDL
