MODEL 1
REMARK VINA RESULT:     -10.9      0.000      0.000
REMARK SMILES O=C(CC1CC1)NCc1ccc(C(=O)NCCCNC(=O)c2ccc(-c3c4nc(c(-c5cccc(S(=O)(=O)[O-])c5F)c5ccc([nH]5)c(-c5cccc(S(=O)(=O)[O-])c5F)c5nc(c(-c6cccc(S(=O)(=O)[O-])c6F)c6ccc3[nH]6)C=C5)C=C4)cc2)o1
REMARK SMILES IDX 16 1 15 2 13 3 14 4 12 6 9 7 10 8 85 9 11 10 8 11 7 12 1 13
REMARK SMILES IDX 2 14 3 16 4 17 5 18 6 19 17 20 18 21 19 22 20 23 21 25 22 26
REMARK SMILES IDX 23 27 84 28 24 29 83 30 25 31 26 32 27 33 77 34 28 35 82 36
REMARK SMILES IDX 76 37 78 38 29 39 81 40 75 41 74 42 30 44 62 45 42 46 61 47
REMARK SMILES IDX 43 48 46 49 60 50 79 51 44 52 45 53 59 55 80 56 47 57 31 58
REMARK SMILES IDX 32 59 40 60 33 61 35 62 41 63 34 64 36 65 37 66 38 67 39 68
REMARK SMILES IDX 63 69 64 70 72 71 65 72 67 73 73 74 66 75 68 76 69 77 70 78
REMARK SMILES IDX 71 79 48 80 49 81 57 82 50 83 52 84 58 85 51 86 53 87 54 88
REMARK SMILES IDX 55 89 56 90
REMARK H PARENT 15 5 7 15 19 24 78 43 46 54
REMARK Flexibility Score: inf
ROOT
ATOM      1  C   UNL A   1      31.858  29.358  24.728  1.00  0.00     0.118 C 
ENDROOT
BRANCH   1   2
ATOM      2  N   UNL A   1      31.220  29.449  23.429  1.00  0.00    -0.349 N 
ATOM      3  C   UNL A   1      30.545  28.505  22.689  1.00  0.00     0.286 C 
ATOM      4  O   UNL A   1      29.938  28.931  21.703  1.00  0.00    -0.266 OA
ATOM      5  H   UNL A   1      31.281  30.336  23.005  1.00  0.00     0.163 HD
BRANCH   3   6
ATOM      6  C   UNL A   1      30.543  27.102  23.066  1.00  0.00     0.191 A 
ATOM      7  C   UNL A   1      31.422  25.065  23.067  1.00  0.00     0.124 A 
ATOM      8  C   UNL A   1      30.302  25.003  23.862  1.00  0.00     0.048 A 
ATOM      9  O   UNL A   1      31.563  26.324  22.562  1.00  0.00    -0.454 OA
ATOM     10  C   UNL A   1      29.755  26.308  23.882  1.00  0.00     0.056 A 
BRANCH   7  11
ATOM     11  C   UNL A   1      32.424  24.042  22.683  1.00  0.00     0.191 C 
BRANCH  11  12
ATOM     12  N   UNL A   1      32.048  22.743  23.184  1.00  0.00    -0.349 N 
ATOM     13  O   UNL A   1      34.101  22.240  24.075  1.00  0.00    -0.275 OA
ATOM     14  C   UNL A   1      32.917  21.963  23.905  1.00  0.00     0.220 C 
ATOM     15  H   UNL A   1      31.141  22.406  23.005  1.00  0.00     0.163 HD
BRANCH  14  16
ATOM     16  C   UNL A   1      32.267  20.770  24.580  1.00  0.00     0.103 C 
BRANCH  16  17
ATOM     17  C   UNL A   1      32.645  19.470  23.917  1.00  0.00    -0.002 C 
ATOM     18  C   UNL A   1      33.874  18.710  24.357  1.00  0.00     0.004 C 
ATOM     19  C   UNL A   1      32.513  18.157  24.657  1.00  0.00     0.004 C 
ENDBRANCH  16  17
ENDBRANCH  14  16
ENDBRANCH  11  12
ENDBRANCH   7  11
ENDBRANCH   3   6
ENDBRANCH   1   2
BRANCH   1  20
ATOM     20  C   UNL A   1      33.267  28.774  24.649  1.00  0.00     0.042 C 
BRANCH  20  21
ATOM     21  C   UNL A   1      34.085  28.953  25.930  1.00  0.00     0.118 C 
BRANCH  21  22
ATOM     22  N   UNL A   1      33.876  30.263  26.536  1.00  0.00    -0.352 N 
ATOM     23  C   UNL A   1      34.520  30.884  27.577  1.00  0.00     0.251 C 
ATOM     24  H   UNL A   1      33.152  30.792  26.130  1.00  0.00     0.163 HD
ATOM     25  O   UNL A   1      34.024  31.903  28.053  1.00  0.00    -0.269 OA
BRANCH  23  26
ATOM     26  C   UNL A   1      35.787  30.355  28.133  1.00  0.00     0.039 A 
ATOM     27  C   UNL A   1      35.752  29.705  29.372  1.00  0.00     0.014 A 
ATOM     28  C   UNL A   1      37.010  30.553  27.489  1.00  0.00     0.014 A 
ATOM     29  C   UNL A   1      36.932  29.214  29.938  1.00  0.00     0.010 A 
ATOM     30  C   UNL A   1      38.176  30.002  28.021  1.00  0.00     0.010 A 
ATOM     31  C   UNL A   1      38.153  29.334  29.254  1.00  0.00    -0.014 A 
BRANCH  31  32
ATOM     32  C   UNL A   1      39.401  28.747  29.806  1.00  0.00     0.031 A 
ATOM     33  C   UNL A   1      40.058  29.337  31.024  1.00  0.00     0.074 A 
ATOM     34  C   UNL A   1      39.992  27.725  29.155  1.00  0.00     0.049 A 
ATOM     35  N   UNL A   1      41.162  28.969  31.626  1.00  0.00    -0.248 NA
ATOM     36  C   UNL A   1      39.409  30.510  31.633  1.00  0.00     0.031 C 
ATOM     37  C   UNL A   1      39.505  27.124  27.912  1.00  0.00     0.029 A 
ATOM     38  N   UNL A   1      41.142  27.030  29.432  1.00  0.00    -0.354 N 
ATOM     39  C   UNL A   1      41.359  29.884  32.654  1.00  0.00     0.074 A 
ATOM     40  C   UNL A   1      40.277  30.841  32.579  1.00  0.00     0.031 C 
ATOM     41  C   UNL A   1      40.348  26.151  27.535  1.00  0.00     0.029 A 
ATOM     42  C   UNL A   1      41.446  26.072  28.493  1.00  0.00     0.049 A 
ATOM     43  H   UNL A   1      41.698  27.201  30.227  1.00  0.00     0.167 HD
ATOM     44  C   UNL A   1      42.335  29.908  33.594  1.00  0.00     0.034 A 
ATOM     45  C   UNL A   1      42.491  25.225  28.410  1.00  0.00     0.034 A 
ATOM     46  C   UNL A   1      43.383  28.927  33.694  1.00  0.00     0.049 A 
ATOM     47  C   UNL A   1      43.526  25.230  29.501  1.00  0.00     0.074 A 
ATOM     48  C   UNL A   1      44.354  28.801  34.673  1.00  0.00     0.029 A 
ATOM     49  N   UNL A   1      43.605  27.908  32.781  1.00  0.00    -0.354 N 
ATOM     50  N   UNL A   1      43.593  25.986  30.570  1.00  0.00    -0.248 NA
ATOM     51  C   UNL A   1      44.604  24.236  29.399  1.00  0.00     0.031 C 
ATOM     52  C   UNL A   1      45.176  27.719  34.338  1.00  0.00     0.029 A 
ATOM     53  C   UNL A   1      44.703  27.156  33.164  1.00  0.00     0.049 A 
ATOM     54  H   UNL A   1      43.060  27.742  31.977  1.00  0.00     0.167 HD
ATOM     55  C   UNL A   1      44.703  25.545  31.281  1.00  0.00     0.074 A 
ATOM     56  C   UNL A   1      45.260  24.435  30.534  1.00  0.00     0.031 C 
ATOM     57  C   UNL A   1      45.223  26.026  32.437  1.00  0.00     0.034 A 
BRANCH  44  58
ATOM     58  C   UNL A   1      42.284  31.005  34.627  1.00  0.00     0.023 A 
ATOM     59  C   UNL A   1      41.650  30.764  35.864  1.00  0.00     0.012 A 
ATOM     60  C   UNL A   1      42.902  32.250  34.401  1.00  0.00     0.148 A 
ATOM     61  C   UNL A   1      41.598  31.756  36.843  1.00  0.00     0.002 A 
ATOM     62  C   UNL A   1      42.884  33.219  35.398  1.00  0.00     0.091 A 
ATOM     63  F   UNL A   1      43.482  32.471  33.212  1.00  0.00    -0.205 F 
ATOM     64  C   UNL A   1      42.223  32.978  36.614  1.00  0.00     0.022 A 
BRANCH  62  65
ATOM     65  S   UNL A   1      43.728  34.796  35.229  1.00  0.00     0.127 S 
ATOM     66  O   UNL A   1      42.871  35.488  34.268  1.00  0.00    -0.237 OA
ATOM     67  O   UNL A   1      43.668  35.328  36.591  1.00  0.00    -0.237 OA
ATOM     68  O   UNL A   1      45.071  34.482  34.762  1.00  0.00    -0.744 OA
ENDBRANCH  62  65
ENDBRANCH  44  58
BRANCH  45  69
ATOM     69  C   UNL A   1      42.561  24.251  27.285  1.00  0.00     0.023 A 
ATOM     70  C   UNL A   1      43.296  24.581  26.131  1.00  0.00     0.012 A 
ATOM     71  C   UNL A   1      41.955  22.983  27.375  1.00  0.00     0.148 A 
ATOM     72  C   UNL A   1      43.404  23.676  25.074  1.00  0.00     0.002 A 
ATOM     73  C   UNL A   1      42.114  22.066  26.343  1.00  0.00     0.091 A 
ATOM     74  F   UNL A   1      41.251  22.692  28.480  1.00  0.00    -0.205 F 
ATOM     75  C   UNL A   1      42.823  22.416  25.184  1.00  0.00     0.022 A 
BRANCH  73  76
ATOM     76  S   UNL A   1      41.522  20.373  26.459  1.00  0.00     0.127 S 
ATOM     77  O   UNL A   1      40.087  20.542  26.250  1.00  0.00    -0.237 OA
ATOM     78  O   UNL A   1      42.235  19.728  25.357  1.00  0.00    -0.237 OA
ATOM     79  O   UNL A   1      41.920  19.908  27.782  1.00  0.00    -0.744 OA
ENDBRANCH  73  76
ENDBRANCH  45  69
BRANCH  57  80
ATOM     80  C   UNL A   1      46.452  25.345  32.982  1.00  0.00     0.023 A 
ATOM     81  C   UNL A   1      47.729  25.839  32.649  1.00  0.00     0.012 A 
ATOM     82  C   UNL A   1      46.342  24.257  33.869  1.00  0.00     0.148 A 
ATOM     83  C   UNL A   1      48.878  25.239  33.163  1.00  0.00     0.002 A 
ATOM     84  C   UNL A   1      47.490  23.694  34.415  1.00  0.00     0.091 A 
ATOM     85  F   UNL A   1      45.120  23.786  34.158  1.00  0.00    -0.205 F 
ATOM     86  C   UNL A   1      48.759  24.175  34.054  1.00  0.00     0.022 A 
BRANCH  84  87
ATOM     87  S   UNL A   1      47.424  22.383  35.642  1.00  0.00     0.127 S 
ATOM     88  O   UNL A   1      46.868  21.276  34.866  1.00  0.00    -0.237 OA
ATOM     89  O   UNL A   1      48.833  22.224  36.007  1.00  0.00    -0.237 OA
ATOM     90  O   UNL A   1      46.579  22.886  36.717  1.00  0.00    -0.744 OA
ENDBRANCH  84  87
ENDBRANCH  57  80
ENDBRANCH  31  32
ENDBRANCH  23  26
ENDBRANCH  21  22
ENDBRANCH  20  21
ENDBRANCH   1  20
TORSDOF 17
ENDMDL
MODEL 2
REMARK VINA RESULT:     -10.8      1.738      2.182
REMARK SMILES O=C(CC1CC1)NCc1ccc(C(=O)NCCCNC(=O)c2ccc(-c3c4nc(c(-c5cccc(S(=O)(=O)[O-])c5F)c5ccc([nH]5)c(-c5cccc(S(=O)(=O)[O-])c5F)c5nc(c(-c6cccc(S(=O)(=O)[O-])c6F)c6ccc3[nH]6)C=C5)C=C4)cc2)o1
REMARK SMILES IDX 16 1 15 2 13 3 14 4 12 6 9 7 10 8 85 9 11 10 8 11 7 12 1 13
REMARK SMILES IDX 2 14 3 16 4 17 5 18 6 19 17 20 18 21 19 22 20 23 21 25 22 26
REMARK SMILES IDX 23 27 84 28 24 29 83 30 25 31 26 32 27 33 77 34 28 35 82 36
REMARK SMILES IDX 76 37 78 38 29 39 81 40 75 41 74 42 30 44 62 45 42 46 61 47
REMARK SMILES IDX 43 48 46 49 60 50 79 51 44 52 45 53 59 55 80 56 47 57 31 58
REMARK SMILES IDX 32 59 40 60 33 61 35 62 41 63 34 64 36 65 37 66 38 67 39 68
REMARK SMILES IDX 63 69 64 70 72 71 65 72 67 73 73 74 66 75 68 76 69 77 70 78
REMARK SMILES IDX 71 79 48 80 49 81 57 82 50 83 52 84 58 85 51 86 53 87 54 88
REMARK SMILES IDX 55 89 56 90
REMARK H PARENT 15 5 7 15 19 24 78 43 46 54
REMARK Flexibility Score: inf
ROOT
ATOM      1  C   UNL A   1      32.565  26.687  26.458  1.00  0.00     0.118 C 
ENDROOT
BRANCH   1   2
ATOM      2  N   UNL A   1      31.344  25.996  26.823  1.00  0.00    -0.349 N 
ATOM      3  C   UNL A   1      30.753  24.871  26.294  1.00  0.00     0.286 C 
ATOM      4  O   UNL A   1      29.816  24.401  26.944  1.00  0.00    -0.266 OA
ATOM      5  H   UNL A   1      30.855  26.400  27.577  1.00  0.00     0.163 HD
BRANCH   3   6
ATOM      6  C   UNL A   1      31.225  24.276  25.056  1.00  0.00     0.191 A 
ATOM      7  C   UNL A   1      32.524  22.888  23.911  1.00  0.00     0.124 A 
ATOM      8  C   UNL A   1      31.699  23.493  22.992  1.00  0.00     0.048 A 
ATOM      9  O   UNL A   1      32.261  23.373  25.158  1.00  0.00    -0.454 OA
ATOM     10  C   UNL A   1      30.853  24.359  23.724  1.00  0.00     0.056 A 
BRANCH   7  11
ATOM     11  C   UNL A   1      33.595  21.873  23.767  1.00  0.00     0.191 C 
BRANCH  11  12
ATOM     12  N   UNL A   1      33.179  20.607  24.317  1.00  0.00    -0.349 N 
ATOM     13  O   UNL A   1      32.028  19.918  22.456  1.00  0.00    -0.275 OA
ATOM     14  C   UNL A   1      32.469  19.693  23.580  1.00  0.00     0.220 C 
ATOM     15  H   UNL A   1      33.412  20.391  25.249  1.00  0.00     0.163 HD
BRANCH  14  16
ATOM     16  C   UNL A   1      32.364  18.322  24.224  1.00  0.00     0.103 C 
BRANCH  16  17
ATOM     17  C   UNL A   1      33.715  17.681  24.413  1.00  0.00    -0.002 C 
ATOM     18  C   UNL A   1      33.834  16.291  24.991  1.00  0.00     0.004 C 
ATOM     19  C   UNL A   1      34.150  16.523  23.543  1.00  0.00     0.004 C 
ENDBRANCH  16  17
ENDBRANCH  14  16
ENDBRANCH  11  12
ENDBRANCH   7  11
ENDBRANCH   3   6
ENDBRANCH   1   2
BRANCH   1  20
ATOM     20  C   UNL A   1      32.441  28.204  26.589  1.00  0.00     0.042 C 
BRANCH  20  21
ATOM     21  C   UNL A   1      33.732  28.961  26.272  1.00  0.00     0.118 C 
BRANCH  21  22
ATOM     22  N   UNL A   1      33.687  30.343  26.735  1.00  0.00    -0.352 N 
ATOM     23  C   UNL A   1      34.467  31.012  27.645  1.00  0.00     0.251 C 
ATOM     24  H   UNL A   1      32.977  30.889  26.326  1.00  0.00     0.163 HD
ATOM     25  O   UNL A   1      34.100  32.119  28.035  1.00  0.00    -0.269 OA
BRANCH  23  26
ATOM     26  C   UNL A   1      35.727  30.431  28.161  1.00  0.00     0.039 A 
ATOM     27  C   UNL A   1      36.890  30.571  27.396  1.00  0.00     0.014 A 
ATOM     28  C   UNL A   1      35.764  29.692  29.346  1.00  0.00     0.014 A 
ATOM     29  C   UNL A   1      38.093  30.016  27.841  1.00  0.00     0.010 A 
ATOM     30  C   UNL A   1      36.978  29.198  29.823  1.00  0.00     0.010 A 
ATOM     31  C   UNL A   1      38.153  29.345  29.074  1.00  0.00    -0.014 A 
BRANCH  31  32
ATOM     32  C   UNL A   1      39.441  28.819  29.596  1.00  0.00     0.031 A 
ATOM     33  C   UNL A   1      40.147  29.501  30.737  1.00  0.00     0.074 A 
ATOM     34  C   UNL A   1      40.020  27.768  28.983  1.00  0.00     0.049 A 
ATOM     35  N   UNL A   1      41.288  29.195  31.302  1.00  0.00    -0.248 NA
ATOM     36  C   UNL A   1      39.504  30.699  31.302  1.00  0.00     0.031 C 
ATOM     37  C   UNL A   1      39.483  27.076  27.810  1.00  0.00     0.029 A 
ATOM     38  N   UNL A   1      41.198  27.114  29.244  1.00  0.00    -0.354 N 
ATOM     39  C   UNL A   1      41.518  30.178  32.257  1.00  0.00     0.074 A 
ATOM     40  C   UNL A   1      40.412  31.108  32.177  1.00  0.00     0.031 C 
ATOM     41  C   UNL A   1      40.327  26.097  27.453  1.00  0.00     0.029 A 
ATOM     42  C   UNL A   1      41.474  26.102  28.355  1.00  0.00     0.049 A 
ATOM     43  H   UNL A   1      41.790  27.348  29.995  1.00  0.00     0.167 HD
ATOM     44  C   UNL A   1      42.540  30.283  33.140  1.00  0.00     0.034 A 
ATOM     45  C   UNL A   1      42.532  25.271  28.271  1.00  0.00     0.034 A 
ATOM     46  C   UNL A   1      43.613  29.331  33.249  1.00  0.00     0.049 A 
ATOM     47  C   UNL A   1      43.621  25.367  29.304  1.00  0.00     0.074 A 
ATOM     48  C   UNL A   1      44.636  29.288  34.181  1.00  0.00     0.029 A 
ATOM     49  N   UNL A   1      43.810  28.257  32.394  1.00  0.00    -0.354 N 
ATOM     50  N   UNL A   1      43.726  26.194  30.316  1.00  0.00    -0.248 NA
ATOM     51  C   UNL A   1      44.715  24.389  29.210  1.00  0.00     0.031 C 
ATOM     52  C   UNL A   1      45.463  28.201  33.874  1.00  0.00     0.029 A 
ATOM     53  C   UNL A   1      44.943  27.554  32.766  1.00  0.00     0.049 A 
ATOM     54  H   UNL A   1      43.229  28.029  31.632  1.00  0.00     0.167 HD
ATOM     55  C   UNL A   1      44.882  25.822  30.994  1.00  0.00     0.074 A 
ATOM     56  C   UNL A   1      45.424  24.675  30.293  1.00  0.00     0.031 C 
ATOM     57  C   UNL A   1      45.450  26.388  32.087  1.00  0.00     0.034 A 
BRANCH  44  58
ATOM     58  C   UNL A   1      42.518  31.445  34.101  1.00  0.00     0.023 A 
ATOM     59  C   UNL A   1      43.227  32.622  33.782  1.00  0.00     0.012 A 
ATOM     60  C   UNL A   1      41.762  31.396  35.288  1.00  0.00     0.148 A 
ATOM     61  C   UNL A   1      43.214  33.717  34.646  1.00  0.00     0.002 A 
ATOM     62  C   UNL A   1      41.720  32.507  36.124  1.00  0.00     0.091 A 
ATOM     63  F   UNL A   1      41.112  30.262  35.589  1.00  0.00    -0.205 F 
ATOM     64  C   UNL A   1      42.454  33.663  35.810  1.00  0.00     0.022 A 
BRANCH  62  65
ATOM     65  S   UNL A   1      40.707  32.564  37.606  1.00  0.00     0.127 S 
ATOM     66  O   UNL A   1      41.539  31.834  38.561  1.00  0.00    -0.237 OA
ATOM     67  O   UNL A   1      40.607  34.002  37.860  1.00  0.00    -0.237 OA
ATOM     68  O   UNL A   1      39.447  31.925  37.253  1.00  0.00    -0.744 OA
ENDBRANCH  62  65
ENDBRANCH  44  58
BRANCH  45  69
ATOM     69  C   UNL A   1      42.566  24.226  27.210  1.00  0.00     0.023 A 
ATOM     70  C   UNL A   1      43.283  24.470  26.024  1.00  0.00     0.012 A 
ATOM     71  C   UNL A   1      41.942  22.976  27.393  1.00  0.00     0.148 A 
ATOM     72  C   UNL A   1      43.356  23.498  25.025  1.00  0.00     0.002 A 
ATOM     73  C   UNL A   1      42.067  21.993  26.419  1.00  0.00     0.091 A 
ATOM     74  F   UNL A   1      41.256  22.768  28.526  1.00  0.00    -0.205 F 
ATOM     75  C   UNL A   1      42.760  22.257  25.227  1.00  0.00     0.022 A 
BRANCH  73  76
ATOM     76  S   UNL A   1      41.453  20.321  26.654  1.00  0.00     0.127 S 
ATOM     77  O   UNL A   1      40.010  20.536  26.705  1.00  0.00    -0.237 OA
ATOM     78  O   UNL A   1      41.935  19.650  25.446  1.00  0.00    -0.237 OA
ATOM     79  O   UNL A   1      42.068  19.846  27.887  1.00  0.00    -0.744 OA
ENDBRANCH  73  76
ENDBRANCH  45  69
BRANCH  57  80
ATOM     80  C   UNL A   1      46.720  25.767  32.610  1.00  0.00     0.023 A 
ATOM     81  C   UNL A   1      47.966  26.233  32.146  1.00  0.00     0.012 A 
ATOM     82  C   UNL A   1      46.682  24.768  33.602  1.00  0.00     0.148 A 
ATOM     83  C   UNL A   1      49.153  25.690  32.636  1.00  0.00     0.002 A 
ATOM     84  C   UNL A   1      47.870  24.265  34.120  1.00  0.00     0.091 A 
ATOM     85  F   UNL A   1      45.487  24.321  34.016  1.00  0.00    -0.205 F 
ATOM     86  C   UNL A   1      49.106  24.715  33.629  1.00  0.00     0.022 A 
BRANCH  84  87
ATOM     87  S   UNL A   1      47.901  23.076  35.467  1.00  0.00     0.127 S 
ATOM     88  O   UNL A   1      47.695  21.816  34.757  1.00  0.00    -0.237 OA
ATOM     89  O   UNL A   1      49.247  23.256  36.013  1.00  0.00    -0.237 OA
ATOM     90  O   UNL A   1      46.829  23.472  36.371  1.00  0.00    -0.744 OA
ENDBRANCH  84  87
ENDBRANCH  57  80
ENDBRANCH  31  32
ENDBRANCH  23  26
ENDBRANCH  21  22
ENDBRANCH  20  21
ENDBRANCH   1  20
TORSDOF 17
ENDMDL
MODEL 3
REMARK VINA RESULT:     -10.8      2.418      3.180
REMARK SMILES O=C(CC1CC1)NCc1ccc(C(=O)NCCCNC(=O)c2ccc(-c3c4nc(c(-c5cccc(S(=O)(=O)[O-])c5F)c5ccc([nH]5)c(-c5cccc(S(=O)(=O)[O-])c5F)c5nc(c(-c6cccc(S(=O)(=O)[O-])c6F)c6ccc3[nH]6)C=C5)C=C4)cc2)o1
REMARK SMILES IDX 16 1 15 2 13 3 14 4 12 6 9 7 10 8 85 9 11 10 8 11 7 12 1 13
REMARK SMILES IDX 2 14 3 16 4 17 5 18 6 19 17 20 18 21 19 22 20 23 21 25 22 26
REMARK SMILES IDX 23 27 84 28 24 29 83 30 25 31 26 32 27 33 77 34 28 35 82 36
REMARK SMILES IDX 76 37 78 38 29 39 81 40 75 41 74 42 30 44 62 45 42 46 61 47
REMARK SMILES IDX 43 48 46 49 60 50 79 51 44 52 45 53 59 55 80 56 47 57 31 58
REMARK SMILES IDX 32 59 40 60 33 61 35 62 41 63 34 64 36 65 37 66 38 67 39 68
REMARK SMILES IDX 63 69 64 70 72 71 65 72 67 73 73 74 66 75 68 76 69 77 70 78
REMARK SMILES IDX 71 79 48 80 49 81 57 82 50 83 52 84 58 85 51 86 53 87 54 88
REMARK SMILES IDX 55 89 56 90
REMARK H PARENT 15 5 7 15 19 24 78 43 46 54
REMARK Flexibility Score: inf
ROOT
ATOM      1  C   UNL A   1      32.237  27.527  26.842  1.00  0.00     0.118 C 
ENDROOT
BRANCH   1   2
ATOM      2  N   UNL A   1      31.257  26.459  26.782  1.00  0.00    -0.349 N 
ATOM      3  C   UNL A   1      31.410  25.107  26.574  1.00  0.00     0.286 C 
ATOM      4  O   UNL A   1      30.407  24.418  26.774  1.00  0.00    -0.266 OA
ATOM      5  H   UNL A   1      30.326  26.752  26.910  1.00  0.00     0.163 HD
BRANCH   3   6
ATOM      6  C   UNL A   1      32.682  24.540  26.162  1.00  0.00     0.191 A 
ATOM      7  C   UNL A   1      34.196  22.919  26.136  1.00  0.00     0.124 A 
ATOM      8  C   UNL A   1      34.674  23.907  25.308  1.00  0.00     0.048 A 
ATOM      9  O   UNL A   1      33.005  23.303  26.676  1.00  0.00    -0.454 OA
ATOM     10  C   UNL A   1      33.697  24.930  25.304  1.00  0.00     0.056 A 
BRANCH   7  11
ATOM     11  C   UNL A   1      34.746  21.597  26.524  1.00  0.00     0.191 C 
BRANCH  11  12
ATOM     12  N   UNL A   1      33.735  20.574  26.428  1.00  0.00    -0.349 N 
ATOM     13  O   UNL A   1      33.890  20.313  24.155  1.00  0.00    -0.275 OA
ATOM     14  C   UNL A   1      33.430  19.963  25.238  1.00  0.00     0.220 C 
ATOM     15  H   UNL A   1      33.249  20.304  27.241  1.00  0.00     0.163 HD
BRANCH  14  16
ATOM     16  C   UNL A   1      32.553  18.732  25.378  1.00  0.00     0.103 C 
BRANCH  16  17
ATOM     17  C   UNL A   1      33.062  17.578  24.554  1.00  0.00    -0.002 C 
ATOM     18  C   UNL A   1      34.262  16.779  25.005  1.00  0.00     0.004 C 
ATOM     19  C   UNL A   1      32.899  16.153  25.035  1.00  0.00     0.004 C 
ENDBRANCH  16  17
ENDBRANCH  14  16
ENDBRANCH  11  12
ENDBRANCH   7  11
ENDBRANCH   3   6
ENDBRANCH   1   2
BRANCH   1  20
ATOM     20  C   UNL A   1      31.731  28.823  26.212  1.00  0.00     0.042 C 
BRANCH  20  21
ATOM     21  C   UNL A   1      32.845  29.740  25.702  1.00  0.00     0.118 C 
BRANCH  21  22
ATOM     22  N   UNL A   1      32.652  31.124  26.122  1.00  0.00    -0.352 N 
ATOM     23  C   UNL A   1      33.240  31.847  27.128  1.00  0.00     0.251 C 
ATOM     24  H   UNL A   1      31.988  31.622  25.594  1.00  0.00     0.163 HD
ATOM     25  O   UNL A   1      32.757  32.936  27.431  1.00  0.00    -0.269 OA
BRANCH  23  26
ATOM     26  C   UNL A   1      34.432  31.346  27.850  1.00  0.00     0.039 A 
ATOM     27  C   UNL A   1      35.538  32.192  27.983  1.00  0.00     0.014 A 
ATOM     28  C   UNL A   1      34.501  30.036  28.331  1.00  0.00     0.014 A 
ATOM     29  C   UNL A   1      36.689  31.744  28.637  1.00  0.00     0.010 A 
ATOM     30  C   UNL A   1      35.623  29.613  29.044  1.00  0.00     0.010 A 
ATOM     31  C   UNL A   1      36.732  30.457  29.198  1.00  0.00    -0.014 A 
BRANCH  31  32
ATOM     32  C   UNL A   1      37.918  29.996  29.965  1.00  0.00     0.031 A 
ATOM     33  C   UNL A   1      38.184  30.507  31.356  1.00  0.00     0.074 A 
ATOM     34  C   UNL A   1      38.807  29.175  29.372  1.00  0.00     0.049 A 
ATOM     35  N   UNL A   1      39.182  30.233  32.158  1.00  0.00    -0.248 NA
ATOM     36  C   UNL A   1      37.221  31.473  31.909  1.00  0.00     0.031 C 
ATOM     37  C   UNL A   1      38.712  28.682  27.997  1.00  0.00     0.029 A 
ATOM     38  N   UNL A   1      39.978  28.631  29.840  1.00  0.00    -0.354 N 
ATOM     39  C   UNL A   1      38.989  31.017  33.290  1.00  0.00     0.074 A 
ATOM     40  C   UNL A   1      37.794  31.800  33.060  1.00  0.00     0.031 C 
ATOM     41  C   UNL A   1      39.776  27.909  27.733  1.00  0.00     0.029 A 
ATOM     42  C   UNL A   1      40.640  27.867  28.908  1.00  0.00     0.049 A 
ATOM     43  H   UNL A   1      40.311  28.774  30.755  1.00  0.00     0.167 HD
ATOM     44  C   UNL A   1      39.722  31.060  34.429  1.00  0.00     0.034 A 
ATOM     45  C   UNL A   1      41.814  27.209  28.987  1.00  0.00     0.034 A 
ATOM     46  C   UNL A   1      40.882  30.246  34.673  1.00  0.00     0.049 A 
ATOM     47  C   UNL A   1      42.574  27.221  30.284  1.00  0.00     0.074 A 
ATOM     48  C   UNL A   1      41.628  30.136  35.834  1.00  0.00     0.029 A 
ATOM     49  N   UNL A   1      41.472  29.406  33.741  1.00  0.00    -0.354 N 
ATOM     50  N   UNL A   1      42.275  27.826  31.409  1.00  0.00    -0.248 NA
ATOM     51  C   UNL A   1      43.809  26.427  30.339  1.00  0.00     0.031 C 
ATOM     52  C   UNL A   1      42.683  29.247  35.594  1.00  0.00     0.029 A 
ATOM     53  C   UNL A   1      42.580  28.786  34.292  1.00  0.00     0.049 A 
ATOM     54  H   UNL A   1      41.150  29.272  32.820  1.00  0.00     0.167 HD
ATOM     55  C   UNL A   1      43.270  27.466  32.311  1.00  0.00     0.074 A 
ATOM     56  C   UNL A   1      44.162  26.565  31.609  1.00  0.00     0.031 C 
ATOM     57  C   UNL A   1      43.436  27.858  33.599  1.00  0.00     0.034 A 
BRANCH  44  58
ATOM     58  C   UNL A   1      39.256  31.985  35.525  1.00  0.00     0.023 A 
ATOM     59  C   UNL A   1      38.332  31.517  36.482  1.00  0.00     0.012 A 
ATOM     60  C   UNL A   1      39.765  33.293  35.642  1.00  0.00     0.148 A 
ATOM     61  C   UNL A   1      37.893  32.346  37.514  1.00  0.00     0.002 A 
ATOM     62  C   UNL A   1      39.355  34.100  36.698  1.00  0.00     0.091 A 
ATOM     63  F   UNL A   1      40.626  33.732  34.712  1.00  0.00    -0.205 F 
ATOM     64  C   UNL A   1      38.412  33.632  37.627  1.00  0.00     0.022 A 
BRANCH  62  65
ATOM     65  S   UNL A   1      40.025  35.744  36.975  1.00  0.00     0.127 S 
ATOM     66  O   UNL A   1      41.455  35.463  37.101  1.00  0.00    -0.237 OA
ATOM     67  O   UNL A   1      39.649  36.444  35.747  1.00  0.00    -0.237 OA
ATOM     68  O   UNL A   1      39.373  36.243  38.178  1.00  0.00    -0.744 OA
ENDBRANCH  62  65
ENDBRANCH  44  58
BRANCH  45  69
ATOM     69  C   UNL A   1      42.295  26.419  27.819  1.00  0.00     0.023 A 
ATOM     70  C   UNL A   1      43.211  27.002  26.923  1.00  0.00     0.012 A 
ATOM     71  C   UNL A   1      41.897  25.083  27.624  1.00  0.00     0.148 A 
ATOM     72  C   UNL A   1      43.702  26.277  25.836  1.00  0.00     0.002 A 
ATOM     73  C   UNL A   1      42.433  24.348  26.573  1.00  0.00     0.091 A 
ATOM     74  F   UNL A   1      41.016  24.550  28.484  1.00  0.00    -0.205 F 
ATOM     75  C   UNL A   1      43.323  24.948  25.668  1.00  0.00     0.022 A 
BRANCH  73  76
ATOM     76  S   UNL A   1      42.112  22.593  26.362  1.00  0.00     0.127 S 
ATOM     77  O   UNL A   1      40.654  22.562  26.285  1.00  0.00    -0.237 OA
ATOM     78  O   UNL A   1      42.803  22.309  25.104  1.00  0.00    -0.237 OA
ATOM     79  O   UNL A   1      42.701  21.944  27.526  1.00  0.00    -0.744 OA
ENDBRANCH  73  76
ENDBRANCH  45  69
BRANCH  57  80
ATOM     80  C   UNL A   1      44.622  27.303  34.345  1.00  0.00     0.023 A 
ATOM     81  C   UNL A   1      45.837  28.017  34.354  1.00  0.00     0.012 A 
ATOM     82  C   UNL A   1      44.517  26.110  35.086  1.00  0.00     0.148 A 
ATOM     83  C   UNL A   1      46.939  27.534  35.059  1.00  0.00     0.002 A 
ATOM     84  C   UNL A   1      45.605  25.659  35.825  1.00  0.00     0.091 A 
ATOM     85  F   UNL A   1      43.360  25.432  35.049  1.00  0.00    -0.205 F 
ATOM     86  C   UNL A   1      46.820  26.363  35.803  1.00  0.00     0.022 A 
BRANCH  84  87
ATOM     87  S   UNL A   1      45.509  24.212  36.885  1.00  0.00     0.127 S 
ATOM     88  O   UNL A   1      46.869  24.139  37.416  1.00  0.00    -0.237 OA
ATOM     89  O   UNL A   1      44.493  24.606  37.863  1.00  0.00    -0.237 OA
ATOM     90  O   UNL A   1      45.113  23.110  36.018  1.00  0.00    -0.744 OA
ENDBRANCH  84  87
ENDBRANCH  57  80
ENDBRANCH  31  32
ENDBRANCH  23  26
ENDBRANCH  21  22
ENDBRANCH  20  21
ENDBRANCH   1  20
TORSDOF 17
ENDMDL
