MODEL 1
REMARK VINA RESULT:     -10.5      0.000      0.000
REMARK SMILES CN(Cc1cccs1)C(=O)NCCOCC(=O)NCCCNC(=O)c1ccc(-c2c3nc(c(-c4cccc(S(=O)(=O)[O-])c4F)c4ccc([nH]4)c(-c4cccc(S(=O)(=O)[O-])c4F)c4nc(c(-c5cccc(S(=O)(=O)[O-])c5F)c5ccc2[nH]5)C=C4)C=C3)cc1
REMARK SMILES IDX 16 1 17 2 18 3 15 5 14 6 13 7 12 8 11 9 9 10 10 11 2 13 1 14
REMARK SMILES IDX 3 15 4 16 5 17 8 18 6 19 7 20 19 21 20 22 21 23 22 24 23 25
REMARK SMILES IDX 24 27 25 28 26 29 87 30 27 31 86 32 28 33 29 34 30 35 80 36
REMARK SMILES IDX 31 37 85 38 79 39 81 40 32 41 84 42 78 43 77 44 33 46 65 47
REMARK SMILES IDX 45 48 64 49 46 50 49 51 63 52 82 53 47 54 48 55 62 57 83 58
REMARK SMILES IDX 50 59 34 60 35 61 43 62 36 63 38 64 44 65 37 66 39 67 40 68
REMARK SMILES IDX 41 69 42 70 66 71 67 72 75 73 68 74 70 75 76 76 69 77 71 78
REMARK SMILES IDX 72 79 73 80 74 81 51 82 52 83 60 84 53 85 55 86 61 87 54 88
REMARK SMILES IDX 56 89 57 90 58 91 59 92
REMARK H PARENT 18 4 11 12 22 26 81 45 49 56
REMARK Flexibility Score: inf
ROOT
ATOM      1  C   UNL A   1      33.622  20.371  25.349  1.00  0.00     0.245 C 
ATOM      2  O   UNL A   1      32.732  19.520  25.331  1.00  0.00    -0.272 OA
ATOM      3  N   UNL A   1      34.917  19.962  25.221  1.00  0.00    -0.354 N 
ATOM      4  H   UNL A   1      35.055  18.989  25.163  1.00  0.00     0.163 HD
ENDROOT
BRANCH   1   5
ATOM      5  C   UNL A   1      33.311  21.870  25.476  1.00  0.00     0.260 C 
BRANCH   5   6
ATOM      6  O   UNL A   1      32.765  22.555  24.363  1.00  0.00    -0.370 OA
BRANCH   6   7
ATOM      7  C   UNL A   1      31.530  23.237  24.618  1.00  0.00     0.182 C 
BRANCH   7   8
ATOM      8  C   UNL A   1      30.778  23.657  23.347  1.00  0.00     0.146 C 
BRANCH   8   9
ATOM      9  N   UNL A   1      31.570  24.446  22.413  1.00  0.00    -0.336 N 
ATOM     10  C   UNL A   1      32.243  25.605  22.381  1.00  0.00     0.317 C 
ATOM     11  O   UNL A   1      32.802  25.835  21.301  1.00  0.00    -0.249 OA
ATOM     12  H   UNL A   1      31.627  23.991  21.542  1.00  0.00     0.165 HD
BRANCH  10  13
ATOM     13  N   UNL A   1      32.344  26.476  23.425  1.00  0.00    -0.323 N 
ATOM     14  C   UNL A   1      33.462  26.245  24.336  1.00  0.00     0.149 C 
BRANCH  13  15
ATOM     15  C   UNL A   1      31.515  27.636  23.733  1.00  0.00     0.167 C 
BRANCH  15  16
ATOM     16  C   UNL A   1      31.643  28.081  25.159  1.00  0.00     0.024 A 
ATOM     17  C   UNL A   1      31.310  27.434  26.335  1.00  0.00     0.017 A 
ATOM     18  S   UNL A   1      32.280  29.648  25.474  1.00  0.00    -0.147 S 
ATOM     19  C   UNL A   1      31.649  28.197  27.491  1.00  0.00     0.012 A 
ATOM     20  C   UNL A   1      32.202  29.414  27.163  1.00  0.00     0.065 A 
ENDBRANCH  15  16
ENDBRANCH  13  15
ENDBRANCH  10  13
ENDBRANCH   8   9
ENDBRANCH   7   8
ENDBRANCH   6   7
ENDBRANCH   5   6
ENDBRANCH   1   5
BRANCH   3  21
ATOM     21  C   UNL A   1      36.118  20.772  25.160  1.00  0.00     0.117 C 
BRANCH  21  22
ATOM     22  C   UNL A   1      37.367  19.946  24.873  1.00  0.00     0.042 C 
BRANCH  22  23
ATOM     23  C   UNL A   1      38.644  20.463  25.533  1.00  0.00     0.118 C 
BRANCH  23  24
ATOM     24  N   UNL A   1      39.638  19.421  25.756  1.00  0.00    -0.352 N 
ATOM     25  C   UNL A   1      40.970  19.511  26.084  1.00  0.00     0.251 C 
ATOM     26  H   UNL A   1      39.301  18.502  25.654  1.00  0.00     0.163 HD
ATOM     27  O   UNL A   1      41.663  18.499  26.061  1.00  0.00    -0.269 OA
BRANCH  25  28
ATOM     28  C   UNL A   1      41.578  20.812  26.441  1.00  0.00     0.039 A 
ATOM     29  C   UNL A   1      42.005  21.659  25.413  1.00  0.00     0.014 A 
ATOM     30  C   UNL A   1      41.755  21.194  27.774  1.00  0.00     0.014 A 
ATOM     31  C   UNL A   1      42.534  22.916  25.719  1.00  0.00     0.010 A 
ATOM     32  C   UNL A   1      42.213  22.476  28.075  1.00  0.00     0.010 A 
ATOM     33  C   UNL A   1      42.602  23.354  27.052  1.00  0.00    -0.014 A 
BRANCH  33  34
ATOM     34  C   UNL A   1      43.033  24.739  27.388  1.00  0.00     0.031 A 
ATOM     35  C   UNL A   1      42.071  25.715  28.011  1.00  0.00     0.074 A 
ATOM     36  C   UNL A   1      44.272  25.147  27.038  1.00  0.00     0.049 A 
ATOM     37  N   UNL A   1      42.257  26.975  28.311  1.00  0.00    -0.248 NA
ATOM     38  C   UNL A   1      40.717  25.224  28.316  1.00  0.00     0.031 C 
ATOM     39  C   UNL A   1      45.271  24.325  26.352  1.00  0.00     0.029 A 
ATOM     40  N   UNL A   1      44.889  26.367  27.177  1.00  0.00    -0.354 N 
ATOM     41  C   UNL A   1      41.039  27.439  28.793  1.00  0.00     0.074 A 
ATOM     42  C   UNL A   1      40.114  26.327  28.736  1.00  0.00     0.031 C 
ATOM     43  C   UNL A   1      46.370  25.063  26.125  1.00  0.00     0.029 A 
ATOM     44  C   UNL A   1      46.144  26.417  26.615  1.00  0.00     0.049 A 
ATOM     45  H   UNL A   1      44.472  27.132  27.636  1.00  0.00     0.167 HD
ATOM     46  C   UNL A   1      40.725  28.671  29.257  1.00  0.00     0.034 A 
ATOM     47  C   UNL A   1      47.010  27.443  26.487  1.00  0.00     0.034 A 
ATOM     48  C   UNL A   1      41.661  29.758  29.365  1.00  0.00     0.049 A 
ATOM     49  C   UNL A   1      46.643  28.787  27.057  1.00  0.00     0.074 A 
ATOM     50  C   UNL A   1      41.466  31.002  29.941  1.00  0.00     0.029 A 
ATOM     51  N   UNL A   1      42.955  29.744  28.872  1.00  0.00    -0.354 N 
ATOM     52  N   UNL A   1      45.553  29.145  27.689  1.00  0.00    -0.248 NA
ATOM     53  C   UNL A   1      47.642  29.860  26.928  1.00  0.00     0.031 C 
ATOM     54  C   UNL A   1      42.630  31.754  29.760  1.00  0.00     0.029 A 
ATOM     55  C   UNL A   1      43.561  30.965  29.106  1.00  0.00     0.049 A 
ATOM     56  H   UNL A   1      43.380  28.978  28.423  1.00  0.00     0.167 HD
ATOM     57  C   UNL A   1      45.749  30.471  28.063  1.00  0.00     0.074 A 
ATOM     58  C   UNL A   1      47.072  30.843  27.612  1.00  0.00     0.031 C 
ATOM     59  C   UNL A   1      44.900  31.310  28.705  1.00  0.00     0.034 A 
BRANCH  46  60
ATOM     60  C   UNL A   1      39.317  28.921  29.731  1.00  0.00     0.023 A 
ATOM     61  C   UNL A   1      38.933  28.518  31.025  1.00  0.00     0.012 A 
ATOM     62  C   UNL A   1      38.419  29.664  28.939  1.00  0.00     0.148 A 
ATOM     63  C   UNL A   1      37.668  28.838  31.518  1.00  0.00     0.002 A 
ATOM     64  C   UNL A   1      37.178  30.016  29.455  1.00  0.00     0.091 A 
ATOM     65  F   UNL A   1      38.802  30.022  27.705  1.00  0.00    -0.205 F 
ATOM     66  C   UNL A   1      36.798  29.597  30.740  1.00  0.00     0.022 A 
BRANCH  64  67
ATOM     67  S   UNL A   1      36.019  31.064  28.568  1.00  0.00     0.127 S 
ATOM     68  O   UNL A   1      34.976  31.265  29.573  1.00  0.00    -0.237 OA
ATOM     69  O   UNL A   1      36.831  32.246  28.285  1.00  0.00    -0.237 OA
ATOM     70  O   UNL A   1      35.608  30.308  27.392  1.00  0.00    -0.744 OA
ENDBRANCH  64  67
ENDBRANCH  46  60
BRANCH  47  71
ATOM     71  C   UNL A   1      48.327  27.241  25.816  1.00  0.00     0.023 A 
ATOM     72  C   UNL A   1      49.451  26.873  26.581  1.00  0.00     0.012 A 
ATOM     73  C   UNL A   1      48.474  27.425  24.428  1.00  0.00     0.148 A 
ATOM     74  C   UNL A   1      50.706  26.743  25.985  1.00  0.00     0.002 A 
ATOM     75  C   UNL A   1      49.715  27.234  23.830  1.00  0.00     0.091 A 
ATOM     76  F   UNL A   1      47.398  27.790  23.715  1.00  0.00    -0.205 F 
ATOM     77  C   UNL A   1      50.836  26.915  24.609  1.00  0.00     0.022 A 
BRANCH  75  78
ATOM     78  S   UNL A   1      49.935  27.301  22.050  1.00  0.00     0.127 S 
ATOM     79  O   UNL A   1      48.932  26.347  21.587  1.00  0.00    -0.237 OA
ATOM     80  O   UNL A   1      49.636  28.703  21.757  1.00  0.00    -0.237 OA
ATOM     81  O   UNL A   1      51.325  26.929  21.817  1.00  0.00    -0.744 OA
ENDBRANCH  75  78
ENDBRANCH  47  71
BRANCH  59  82
ATOM     82  C   UNL A   1      45.384  32.706  29.000  1.00  0.00     0.023 A 
ATOM     83  C   UNL A   1      46.038  32.981  30.217  1.00  0.00     0.012 A 
ATOM     84  C   UNL A   1      45.253  33.728  28.039  1.00  0.00     0.148 A 
ATOM     85  C   UNL A   1      46.523  34.260  30.488  1.00  0.00     0.002 A 
ATOM     86  C   UNL A   1      45.786  34.985  28.294  1.00  0.00     0.091 A 
ATOM     87  F   UNL A   1      44.613  33.450  26.894  1.00  0.00    -0.205 F 
ATOM     88  C   UNL A   1      46.408  35.257  29.523  1.00  0.00     0.022 A 
BRANCH  86  89
ATOM     89  S   UNL A   1      45.773  36.302  27.072  1.00  0.00     0.127 S 
ATOM     90  O   UNL A   1      46.779  37.218  27.611  1.00  0.00    -0.237 OA
ATOM     91  O   UNL A   1      46.178  35.599  25.854  1.00  0.00    -0.237 OA
ATOM     92  O   UNL A   1      44.411  36.817  27.048  1.00  0.00    -0.744 OA
ENDBRANCH  86  89
ENDBRANCH  59  82
ENDBRANCH  33  34
ENDBRANCH  25  28
ENDBRANCH  23  24
ENDBRANCH  22  23
ENDBRANCH  21  22
ENDBRANCH   3  21
TORSDOF 20
ENDMDL
MODEL 2
REMARK VINA RESULT:     -10.2      1.988      7.880
REMARK SMILES CN(Cc1cccs1)C(=O)NCCOCC(=O)NCCCNC(=O)c1ccc(-c2c3nc(c(-c4cccc(S(=O)(=O)[O-])c4F)c4ccc([nH]4)c(-c4cccc(S(=O)(=O)[O-])c4F)c4nc(c(-c5cccc(S(=O)(=O)[O-])c5F)c5ccc2[nH]5)C=C4)C=C3)cc1
REMARK SMILES IDX 16 1 17 2 18 3 15 5 14 6 13 7 12 8 11 9 9 10 10 11 2 13 1 14
REMARK SMILES IDX 3 15 4 16 5 17 8 18 6 19 7 20 19 21 20 22 21 23 22 24 23 25
REMARK SMILES IDX 24 27 25 28 26 29 87 30 27 31 86 32 28 33 29 34 30 35 80 36
REMARK SMILES IDX 31 37 85 38 79 39 81 40 32 41 84 42 78 43 77 44 33 46 65 47
REMARK SMILES IDX 45 48 64 49 46 50 49 51 63 52 82 53 47 54 48 55 62 57 83 58
REMARK SMILES IDX 50 59 34 60 35 61 43 62 36 63 38 64 44 65 37 66 39 67 40 68
REMARK SMILES IDX 41 69 42 70 66 71 67 72 75 73 68 74 70 75 76 76 69 77 71 78
REMARK SMILES IDX 72 79 73 80 74 81 51 82 52 83 60 84 53 85 55 86 61 87 54 88
REMARK SMILES IDX 56 89 57 90 58 91 59 92
REMARK H PARENT 18 4 11 12 22 26 81 45 49 56
REMARK Flexibility Score: inf
ROOT
ATOM      1  C   UNL A   1      33.221  22.645  27.048  1.00  0.00     0.245 C 
ATOM      2  O   UNL A   1      32.569  22.534  28.087  1.00  0.00    -0.272 OA
ATOM      3  N   UNL A   1      34.583  22.662  27.132  1.00  0.00    -0.354 N 
ATOM      4  H   UNL A   1      34.956  22.625  28.043  1.00  0.00     0.163 HD
ENDROOT
BRANCH   1   5
ATOM      5  C   UNL A   1      32.547  22.729  25.670  1.00  0.00     0.260 C 
BRANCH   5   6
ATOM      6  O   UNL A   1      32.384  23.997  25.061  1.00  0.00    -0.370 OA
BRANCH   6   7
ATOM      7  C   UNL A   1      32.875  24.092  23.719  1.00  0.00     0.182 C 
BRANCH   7   8
ATOM      8  C   UNL A   1      32.164  25.155  22.869  1.00  0.00     0.146 C 
BRANCH   8   9
ATOM      9  N   UNL A   1      30.909  25.634  23.433  1.00  0.00    -0.336 N 
ATOM     10  C   UNL A   1      30.255  26.790  23.612  1.00  0.00     0.317 C 
ATOM     11  O   UNL A   1      29.148  26.666  24.150  1.00  0.00    -0.249 OA
ATOM     12  H   UNL A   1      30.385  24.883  23.792  1.00  0.00     0.165 HD
BRANCH  10  13
ATOM     13  N   UNL A   1      30.721  28.016  23.237  1.00  0.00    -0.323 N 
ATOM     14  C   UNL A   1      29.730  28.920  22.660  1.00  0.00     0.149 C 
BRANCH  13  15
ATOM     15  C   UNL A   1      32.065  28.566  23.374  1.00  0.00     0.167 C 
BRANCH  15  16
ATOM     16  C   UNL A   1      32.507  28.672  24.803  1.00  0.00     0.024 A 
ATOM     17  C   UNL A   1      33.331  27.853  25.552  1.00  0.00     0.017 A 
ATOM     18  S   UNL A   1      31.922  29.989  25.744  1.00  0.00    -0.147 S 
ATOM     19  C   UNL A   1      33.538  28.350  26.873  1.00  0.00     0.012 A 
ATOM     20  C   UNL A   1      32.844  29.517  27.101  1.00  0.00     0.065 A 
ENDBRANCH  15  16
ENDBRANCH  13  15
ENDBRANCH  10  13
ENDBRANCH   8   9
ENDBRANCH   7   8
ENDBRANCH   6   7
ENDBRANCH   5   6
ENDBRANCH   1   5
BRANCH   3  21
ATOM     21  C   UNL A   1      35.553  22.728  26.057  1.00  0.00     0.117 C 
BRANCH  21  22
ATOM     22  C   UNL A   1      35.874  21.357  25.474  1.00  0.00     0.042 C 
BRANCH  22  23
ATOM     23  C   UNL A   1      37.213  21.268  24.743  1.00  0.00     0.118 C 
BRANCH  23  24
ATOM     24  N   UNL A   1      38.129  20.302  25.337  1.00  0.00    -0.352 N 
ATOM     25  C   UNL A   1      39.306  20.490  26.021  1.00  0.00     0.251 C 
ATOM     26  H   UNL A   1      37.860  19.361  25.231  1.00  0.00     0.163 HD
ATOM     27  O   UNL A   1      40.004  19.518  26.291  1.00  0.00    -0.269 OA
BRANCH  25  28
ATOM     28  C   UNL A   1      39.749  21.847  26.412  1.00  0.00     0.039 A 
ATOM     29  C   UNL A   1      40.742  21.973  27.388  1.00  0.00     0.014 A 
ATOM     30  C   UNL A   1      39.180  22.992  25.848  1.00  0.00     0.014 A 
ATOM     31  C   UNL A   1      41.218  23.240  27.739  1.00  0.00     0.010 A 
ATOM     32  C   UNL A   1      39.707  24.248  26.143  1.00  0.00     0.010 A 
ATOM     33  C   UNL A   1      40.735  24.387  27.088  1.00  0.00    -0.014 A 
BRANCH  33  34
ATOM     34  C   UNL A   1      41.326  25.728  27.349  1.00  0.00     0.031 A 
ATOM     35  C   UNL A   1      42.732  26.048  26.916  1.00  0.00     0.074 A 
ATOM     36  C   UNL A   1      40.624  26.630  28.068  1.00  0.00     0.049 A 
ATOM     37  N   UNL A   1      43.426  27.139  27.115  1.00  0.00    -0.248 NA
ATOM     38  C   UNL A   1      43.466  25.001  26.185  1.00  0.00     0.031 C 
ATOM     39  C   UNL A   1      39.284  26.412  28.619  1.00  0.00     0.029 A 
ATOM     40  N   UNL A   1      40.953  27.895  28.491  1.00  0.00    -0.354 N 
ATOM     41  C   UNL A   1      44.685  26.897  26.581  1.00  0.00     0.074 A 
ATOM     42  C   UNL A   1      44.667  25.548  26.056  1.00  0.00     0.031 C 
ATOM     43  C   UNL A   1      38.909  27.501  29.311  1.00  0.00     0.029 A 
ATOM     44  C   UNL A   1      39.991  28.479  29.284  1.00  0.00     0.049 A 
ATOM     45  H   UNL A   1      41.796  28.342  28.249  1.00  0.00     0.167 HD
ATOM     46  C   UNL A   1      45.753  27.726  26.516  1.00  0.00     0.034 A 
ATOM     47  C   UNL A   1      39.986  29.659  29.936  1.00  0.00     0.034 A 
ATOM     48  C   UNL A   1      45.752  29.086  26.989  1.00  0.00     0.049 A 
ATOM     49  C   UNL A   1      41.173  30.575  29.802  1.00  0.00     0.074 A 
ATOM     50  C   UNL A   1      46.744  30.041  26.851  1.00  0.00     0.029 A 
ATOM     51  N   UNL A   1      44.724  29.676  27.705  1.00  0.00    -0.354 N 
ATOM     52  N   UNL A   1      42.278  30.399  29.121  1.00  0.00    -0.248 NA
ATOM     53  C   UNL A   1      41.098  31.868  30.499  1.00  0.00     0.031 C 
ATOM     54  C   UNL A   1      46.332  31.197  27.519  1.00  0.00     0.029 A 
ATOM     55  C   UNL A   1      45.069  30.974  28.038  1.00  0.00     0.049 A 
ATOM     56  H   UNL A   1      43.874  29.239  27.939  1.00  0.00     0.167 HD
ATOM     57  C   UNL A   1      43.013  31.570  29.278  1.00  0.00     0.074 A 
ATOM     58  C   UNL A   1      42.215  32.459  30.095  1.00  0.00     0.031 C 
ATOM     59  C   UNL A   1      44.245  31.873  28.803  1.00  0.00     0.034 A 
BRANCH  46  60
ATOM     60  C   UNL A   1      47.018  27.219  25.876  1.00  0.00     0.023 A 
ATOM     61  C   UNL A   1      47.250  27.449  24.506  1.00  0.00     0.012 A 
ATOM     62  C   UNL A   1      48.027  26.625  26.661  1.00  0.00     0.148 A 
ATOM     63  C   UNL A   1      48.462  27.080  23.923  1.00  0.00     0.002 A 
ATOM     64  C   UNL A   1      49.247  26.302  26.082  1.00  0.00     0.091 A 
ATOM     65  F   UNL A   1      47.777  26.401  27.959  1.00  0.00    -0.205 F 
ATOM     66  C   UNL A   1      49.464  26.521  24.712  1.00  0.00     0.022 A 
BRANCH  64  67
ATOM     67  S   UNL A   1      50.632  25.657  27.028  1.00  0.00     0.127 S 
ATOM     68  O   UNL A   1      50.045  24.458  27.627  1.00  0.00    -0.237 OA
ATOM     69  O   UNL A   1      51.621  25.396  25.983  1.00  0.00    -0.237 OA
ATOM     70  O   UNL A   1      51.000  26.703  27.972  1.00  0.00    -0.744 OA
ENDBRANCH  64  67
ENDBRANCH  46  60
BRANCH  47  71
ATOM     71  C   UNL A   1      38.807  30.066  30.754  1.00  0.00     0.023 A 
ATOM     72  C   UNL A   1      38.720  29.661  32.101  1.00  0.00     0.012 A 
ATOM     73  C   UNL A   1      37.768  30.839  30.203  1.00  0.00     0.148 A 
ATOM     74  C   UNL A   1      37.597  29.974  32.867  1.00  0.00     0.002 A 
ATOM     75  C   UNL A   1      36.680  31.200  30.990  1.00  0.00     0.091 A 
ATOM     76  F   UNL A   1      37.858  31.204  28.917  1.00  0.00    -0.205 F 
ATOM     77  C   UNL A   1      36.581  30.750  32.315  1.00  0.00     0.022 A 
BRANCH  75  78
ATOM     78  S   UNL A   1      35.401  32.311  30.396  1.00  0.00     0.127 S 
ATOM     79  O   UNL A   1      34.499  32.371  31.542  1.00  0.00    -0.237 OA
ATOM     80  O   UNL A   1      36.157  33.539  30.140  1.00  0.00    -0.237 OA
ATOM     81  O   UNL A   1      34.867  31.681  29.195  1.00  0.00    -0.744 OA
ENDBRANCH  75  78
ENDBRANCH  47  71
BRANCH  59  82
ATOM     82  C   UNL A   1      44.800  33.239  29.116  1.00  0.00     0.023 A 
ATOM     83  C   UNL A   1      45.419  33.479  30.359  1.00  0.00     0.012 A 
ATOM     84  C   UNL A   1      44.772  34.262  28.149  1.00  0.00     0.148 A 
ATOM     85  C   UNL A   1      45.969  34.727  30.647  1.00  0.00     0.002 A 
ATOM     86  C   UNL A   1      45.369  35.486  28.423  1.00  0.00     0.091 A 
ATOM     87  F   UNL A   1      44.164  34.020  26.978  1.00  0.00    -0.205 F 
ATOM     88  C   UNL A   1      45.955  35.726  29.676  1.00  0.00     0.022 A 
BRANCH  86  89
ATOM     89  S   UNL A   1      45.488  36.796  27.199  1.00  0.00     0.127 S 
ATOM     90  O   UNL A   1      44.098  37.240  27.102  1.00  0.00    -0.237 OA
ATOM     91  O   UNL A   1      46.388  37.749  27.851  1.00  0.00    -0.237 OA
ATOM     92  O   UNL A   1      46.030  36.177  25.997  1.00  0.00    -0.744 OA
ENDBRANCH  86  89
ENDBRANCH  59  82
ENDBRANCH  33  34
ENDBRANCH  25  28
ENDBRANCH  23  24
ENDBRANCH  22  23
ENDBRANCH  21  22
ENDBRANCH   3  21
TORSDOF 20
ENDMDL
MODEL 3
REMARK VINA RESULT:     -10.1      3.277      8.507
REMARK SMILES CN(Cc1cccs1)C(=O)NCCOCC(=O)NCCCNC(=O)c1ccc(-c2c3nc(c(-c4cccc(S(=O)(=O)[O-])c4F)c4ccc([nH]4)c(-c4cccc(S(=O)(=O)[O-])c4F)c4nc(c(-c5cccc(S(=O)(=O)[O-])c5F)c5ccc2[nH]5)C=C4)C=C3)cc1
REMARK SMILES IDX 16 1 17 2 18 3 15 5 14 6 13 7 12 8 11 9 9 10 10 11 2 13 1 14
REMARK SMILES IDX 3 15 4 16 5 17 8 18 6 19 7 20 19 21 20 22 21 23 22 24 23 25
REMARK SMILES IDX 24 27 25 28 26 29 87 30 27 31 86 32 28 33 29 34 30 35 80 36
REMARK SMILES IDX 31 37 85 38 79 39 81 40 32 41 84 42 78 43 77 44 33 46 65 47
REMARK SMILES IDX 45 48 64 49 46 50 49 51 63 52 82 53 47 54 48 55 62 57 83 58
REMARK SMILES IDX 50 59 34 60 35 61 43 62 36 63 38 64 44 65 37 66 39 67 40 68
REMARK SMILES IDX 41 69 42 70 66 71 67 72 75 73 68 74 70 75 76 76 69 77 71 78
REMARK SMILES IDX 72 79 73 80 74 81 51 82 52 83 60 84 53 85 55 86 61 87 54 88
REMARK SMILES IDX 56 89 57 90 58 91 59 92
REMARK H PARENT 18 4 11 12 22 26 81 45 49 56
REMARK Flexibility Score: inf
ROOT
ATOM      1  C   UNL A   1      33.836  21.327  26.742  1.00  0.00     0.245 C 
ATOM      2  O   UNL A   1      33.413  21.715  27.831  1.00  0.00    -0.272 OA
ATOM      3  N   UNL A   1      35.151  21.532  26.443  1.00  0.00    -0.354 N 
ATOM      4  H   UNL A   1      35.671  22.025  27.118  1.00  0.00     0.163 HD
ENDROOT
BRANCH   1   5
ATOM      5  C   UNL A   1      32.936  20.593  25.735  1.00  0.00     0.260 C 
BRANCH   5   6
ATOM      6  O   UNL A   1      32.145  21.353  24.840  1.00  0.00    -0.370 OA
BRANCH   6   7
ATOM      7  C   UNL A   1      32.622  21.388  23.490  1.00  0.00     0.182 C 
BRANCH   7   8
ATOM      8  C   UNL A   1      32.844  22.806  22.944  1.00  0.00     0.146 C 
BRANCH   8   9
ATOM      9  N   UNL A   1      31.679  23.676  23.041  1.00  0.00    -0.336 N 
ATOM     10  C   UNL A   1      31.070  24.457  23.944  1.00  0.00     0.317 C 
ATOM     11  O   UNL A   1      30.069  25.042  23.513  1.00  0.00    -0.249 OA
ATOM     12  H   UNL A   1      31.192  23.696  22.186  1.00  0.00     0.165 HD
BRANCH  10  13
ATOM     13  N   UNL A   1      31.489  24.634  25.230  1.00  0.00    -0.323 N 
ATOM     14  C   UNL A   1      30.660  24.010  26.257  1.00  0.00     0.149 C 
BRANCH  13  15
ATOM     15  C   UNL A   1      32.678  25.325  25.719  1.00  0.00     0.167 C 
BRANCH  15  16
ATOM     16  C   UNL A   1      32.908  26.639  25.036  1.00  0.00     0.024 A 
ATOM     17  C   UNL A   1      33.827  27.001  24.069  1.00  0.00     0.017 A 
ATOM     18  S   UNL A   1      31.923  27.978  25.485  1.00  0.00    -0.147 S 
ATOM     19  C   UNL A   1      33.670  28.355  23.647  1.00  0.00     0.012 A 
ATOM     20  C   UNL A   1      32.656  28.993  24.324  1.00  0.00     0.065 A 
ENDBRANCH  15  16
ENDBRANCH  13  15
ENDBRANCH  10  13
ENDBRANCH   8   9
ENDBRANCH   7   8
ENDBRANCH   6   7
ENDBRANCH   5   6
ENDBRANCH   1   5
BRANCH   3  21
ATOM     21  C   UNL A   1      35.883  21.121  25.260  1.00  0.00     0.117 C 
BRANCH  21  22
ATOM     22  C   UNL A   1      36.455  22.303  24.487  1.00  0.00     0.042 C 
BRANCH  22  23
ATOM     23  C   UNL A   1      37.537  23.090  25.224  1.00  0.00     0.118 C 
BRANCH  23  24
ATOM     24  N   UNL A   1      38.646  22.258  25.675  1.00  0.00    -0.352 N 
ATOM     25  C   UNL A   1      39.817  22.595  26.310  1.00  0.00     0.251 C 
ATOM     26  H   UNL A   1      38.538  21.295  25.496  1.00  0.00     0.163 HD
ATOM     27  O   UNL A   1      40.690  21.744  26.451  1.00  0.00    -0.269 OA
BRANCH  25  28
ATOM     28  C   UNL A   1      40.045  23.972  26.802  1.00  0.00     0.039 A 
ATOM     29  C   UNL A   1      40.033  24.203  28.181  1.00  0.00     0.014 A 
ATOM     30  C   UNL A   1      40.243  25.039  25.922  1.00  0.00     0.014 A 
ATOM     31  C   UNL A   1      40.297  25.483  28.677  1.00  0.00     0.010 A 
ATOM     32  C   UNL A   1      40.581  26.297  26.418  1.00  0.00     0.010 A 
ATOM     33  C   UNL A   1      40.617  26.533  27.801  1.00  0.00    -0.014 A 
BRANCH  33  34
ATOM     34  C   UNL A   1      41.036  27.866  28.315  1.00  0.00     0.031 A 
ATOM     35  C   UNL A   1      42.494  28.200  28.491  1.00  0.00     0.074 A 
ATOM     36  C   UNL A   1      40.093  28.744  28.717  1.00  0.00     0.049 A 
ATOM     37  N   UNL A   1      43.034  29.285  28.983  1.00  0.00    -0.248 NA
ATOM     38  C   UNL A   1      43.473  27.177  28.086  1.00  0.00     0.031 C 
ATOM     39  C   UNL A   1      38.647  28.508  28.679  1.00  0.00     0.029 A 
ATOM     40  N   UNL A   1      40.207  29.995  29.273  1.00  0.00    -0.354 N 
ATOM     41  C   UNL A   1      44.406  29.061  28.991  1.00  0.00     0.074 A 
ATOM     42  C   UNL A   1      44.617  27.729  28.465  1.00  0.00     0.031 C 
ATOM     43  C   UNL A   1      38.013  29.574  29.193  1.00  0.00     0.029 A 
ATOM     44  C   UNL A   1      39.001  30.554  29.630  1.00  0.00     0.049 A 
ATOM     45  H   UNL A   1      41.071  30.450  29.401  1.00  0.00     0.167 HD
ATOM     46  C   UNL A   1      45.399  29.893  29.384  1.00  0.00     0.034 A 
ATOM     47  C   UNL A   1      38.720  31.712  30.258  1.00  0.00     0.034 A 
ATOM     48  C   UNL A   1      45.190  31.237  29.854  1.00  0.00     0.049 A 
ATOM     49  C   UNL A   1      39.849  32.633  30.638  1.00  0.00     0.074 A 
ATOM     50  C   UNL A   1      46.141  32.197  30.153  1.00  0.00     0.029 A 
ATOM     51  N   UNL A   1      43.954  31.804  30.115  1.00  0.00    -0.354 N 
ATOM     52  N   UNL A   1      41.136  32.479  30.452  1.00  0.00    -0.248 NA
ATOM     53  C   UNL A   1      39.484  33.904  31.283  1.00  0.00     0.031 C 
ATOM     54  C   UNL A   1      45.482  33.331  30.632  1.00  0.00     0.029 A 
ATOM     55  C   UNL A   1      44.119  33.091  30.595  1.00  0.00     0.049 A 
ATOM     56  H   UNL A   1      43.087  31.358  29.977  1.00  0.00     0.167 HD
ATOM     57  C   UNL A   1      41.731  33.645  30.923  1.00  0.00     0.074 A 
ATOM     58  C   UNL A   1      40.661  34.507  31.377  1.00  0.00     0.031 C 
ATOM     59  C   UNL A   1      43.046  33.965  30.991  1.00  0.00     0.034 A 
BRANCH  46  60
ATOM     60  C   UNL A   1      46.821  29.406  29.290  1.00  0.00     0.023 A 
ATOM     61  C   UNL A   1      47.408  28.747  30.388  1.00  0.00     0.012 A 
ATOM     62  C   UNL A   1      47.527  29.495  28.074  1.00  0.00     0.148 A 
ATOM     63  C   UNL A   1      48.685  28.197  30.281  1.00  0.00     0.002 A 
ATOM     64  C   UNL A   1      48.780  28.904  27.963  1.00  0.00     0.091 A 
ATOM     65  F   UNL A   1      46.954  30.141  27.049  1.00  0.00    -0.205 F 
ATOM     66  C   UNL A   1      49.364  28.263  29.067  1.00  0.00     0.022 A 
BRANCH  64  67
ATOM     67  S   UNL A   1      49.699  28.859  26.420  1.00  0.00     0.127 S 
ATOM     68  O   UNL A   1      50.155  30.244  26.309  1.00  0.00    -0.237 OA
ATOM     69  O   UNL A   1      50.753  27.891  26.721  1.00  0.00    -0.237 OA
ATOM     70  O   UNL A   1      48.753  28.436  25.397  1.00  0.00    -0.744 OA
ENDBRANCH  64  67
ENDBRANCH  46  60
BRANCH  47  71
ATOM     71  C   UNL A   1      37.307  32.092  30.547  1.00  0.00     0.023 A 
ATOM     72  C   UNL A   1      36.752  31.809  31.811  1.00  0.00     0.012 A 
ATOM     73  C   UNL A   1      36.506  32.719  29.574  1.00  0.00     0.148 A 
ATOM     74  C   UNL A   1      35.415  32.096  32.082  1.00  0.00     0.002 A 
ATOM     75  C   UNL A   1      35.191  33.058  29.871  1.00  0.00     0.091 A 
ATOM     76  F   UNL A   1      37.042  32.968  28.371  1.00  0.00    -0.205 F 
ATOM     77  C   UNL A   1      34.636  32.728  31.116  1.00  0.00     0.022 A 
BRANCH  75  78
ATOM     78  S   UNL A   1      34.167  33.995  28.731  1.00  0.00     0.127 S 
ATOM     79  O   UNL A   1      33.743  32.963  27.790  1.00  0.00    -0.237 OA
ATOM     80  O   UNL A   1      33.112  34.500  29.612  1.00  0.00    -0.237 OA
ATOM     81  O   UNL A   1      35.037  35.033  28.192  1.00  0.00    -0.744 OA
ENDBRANCH  75  78
ENDBRANCH  47  71
BRANCH  59  82
ATOM     82  C   UNL A   1      43.411  35.320  31.539  1.00  0.00     0.023 A 
ATOM     83  C   UNL A   1      43.696  36.381  30.658  1.00  0.00     0.012 A 
ATOM     84  C   UNL A   1      43.400  35.558  32.927  1.00  0.00     0.148 A 
ATOM     85  C   UNL A   1      43.999  37.650  31.151  1.00  0.00     0.002 A 
ATOM     86  C   UNL A   1      43.651  36.837  33.410  1.00  0.00     0.091 A 
ATOM     87  F   UNL A   1      43.142  34.531  33.751  1.00  0.00    -0.205 F 
ATOM     88  C   UNL A   1      43.965  37.880  32.524  1.00  0.00     0.022 A 
BRANCH  86  89
ATOM     89  S   UNL A   1      43.530  37.250  35.154  1.00  0.00     0.127 S 
ATOM     90  O   UNL A   1      42.158  36.848  35.461  1.00  0.00    -0.237 OA
ATOM     91  O   UNL A   1      44.563  36.399  35.746  1.00  0.00    -0.237 OA
ATOM     92  O   UNL A   1      43.797  38.679  35.248  1.00  0.00    -0.744 OA
ENDBRANCH  86  89
ENDBRANCH  59  82
ENDBRANCH  33  34
ENDBRANCH  25  28
ENDBRANCH  23  24
ENDBRANCH  22  23
ENDBRANCH  21  22
ENDBRANCH   3  21
TORSDOF 20
ENDMDL
