MODEL 1
REMARK VINA RESULT:     -11.1      0.000      0.000
REMARK SMILES C[C@H](O)C[C@@H](Cc1cccc(Br)c1)C(=O)NCCCNC(=O)c1ccc(-c2c3nc(c(-c4cccc(S(=O)(=O)[O-])c4F)c4ccc([nH]4)c(-c4cccc(S(=O)(=O)[O-])c4F)c4nc(c(-c5cccc(S(=O)(=O)[O-])c5F)c5ccc2[nH]5)C=C4)C=C3)cc1
REMARK SMILES IDX 18 1 17 2 16 3 14 4 15 5 5 7 4 8 2 9 1 10 3 11 6 13 7 14
REMARK SMILES IDX 8 15 13 16 9 17 11 18 10 19 12 20 19 21 20 22 21 23 22 25
REMARK SMILES IDX 23 26 24 27 85 28 25 29 84 30 26 31 27 32 28 33 78 34 29 35
REMARK SMILES IDX 83 36 77 37 79 38 30 39 82 40 76 41 75 42 31 44 63 45 43 46
REMARK SMILES IDX 62 47 44 48 47 49 61 50 80 51 45 52 46 53 60 55 81 56 48 57
REMARK SMILES IDX 32 58 33 59 41 60 34 61 36 62 42 63 35 64 37 65 38 66 39 67
REMARK SMILES IDX 40 68 64 69 65 70 73 71 66 72 68 73 74 74 67 75 69 76 70 77
REMARK SMILES IDX 71 78 72 79 49 80 50 81 58 82 51 83 53 84 59 85 52 86 54 87
REMARK SMILES IDX 55 88 56 89 57 90
REMARK H PARENT 16 6 3 12 20 24 79 43 47 54
REMARK Flexibility Score: inf
ROOT
ATOM      1  C   UNL A   1      36.143  22.453  24.110  1.00  0.00     0.042 C 
ENDROOT
BRANCH   1   2
ATOM      2  C   UNL A   1      35.069  23.497  23.917  1.00  0.00     0.117 C 
BRANCH   2   3
ATOM      3  N   UNL A   1      33.786  23.175  24.501  1.00  0.00    -0.356 N 
ATOM      4  C   UNL A   1      32.665  23.946  24.563  1.00  0.00     0.223 C 
ATOM      5  O   UNL A   1      31.585  23.372  24.731  1.00  0.00    -0.275 OA
ATOM      6  H   UNL A   1      33.712  22.281  24.906  1.00  0.00     0.163 HD
BRANCH   4   7
ATOM      7  C   UNL A   1      32.712  25.472  24.447  1.00  0.00     0.085 C 
BRANCH   7   8
ATOM      8  C   UNL A   1      32.351  25.945  23.024  1.00  0.00     0.045 C 
BRANCH   8   9
ATOM      9  C   UNL A   1      33.505  26.472  22.171  1.00  0.00     0.112 C 
ATOM     10  C   UNL A   1      33.691  27.965  22.424  1.00  0.00     0.038 C 
BRANCH   9  11
ATOM     11  O   UNL A   1      33.232  26.287  20.788  1.00  0.00    -0.393 OA
ATOM     12  H   UNL A   1      32.450  25.722  20.685  1.00  0.00     0.210 HD
ENDBRANCH   9  11
ENDBRANCH   8   9
ENDBRANCH   7   8
BRANCH   7  13
ATOM     13  C   UNL A   1      32.114  26.211  25.670  1.00  0.00     0.049 C 
BRANCH  13  14
ATOM     14  C   UNL A   1      32.544  27.629  25.960  1.00  0.00    -0.046 A 
ATOM     15  C   UNL A   1      31.643  28.698  25.838  1.00  0.00     0.004 A 
ATOM     16  C   UNL A   1      33.845  27.896  26.419  1.00  0.00     0.019 A 
ATOM     17  C   UNL A   1      32.006  29.985  26.244  1.00  0.00     0.001 A 
ATOM     18  C   UNL A   1      34.196  29.184  26.836  1.00  0.00     0.018 A 
ATOM     19  C   UNL A   1      33.276  30.226  26.766  1.00  0.00     0.016 A 
ATOM     20  Br  UNL A   1      35.898  29.485  27.604  1.00  0.00    -0.051 Br
ENDBRANCH  13  14
ENDBRANCH   7  13
ENDBRANCH   4   7
ENDBRANCH   2   3
ENDBRANCH   1   2
BRANCH   1  21
ATOM     21  C   UNL A   1      36.599  22.363  25.554  1.00  0.00     0.118 C 
BRANCH  21  22
ATOM     22  N   UNL A   1      37.609  21.323  25.769  1.00  0.00    -0.352 N 
ATOM     23  C   UNL A   1      38.928  21.414  26.130  1.00  0.00     0.251 C 
ATOM     24  H   UNL A   1      37.285  20.404  25.631  1.00  0.00     0.163 HD
ATOM     25  O   UNL A   1      39.655  20.424  26.046  1.00  0.00    -0.269 OA
BRANCH  23  26
ATOM     26  C   UNL A   1      39.476  22.696  26.609  1.00  0.00     0.039 A 
ATOM     27  C   UNL A   1      40.467  22.700  27.592  1.00  0.00     0.014 A 
ATOM     28  C   UNL A   1      39.007  23.899  26.082  1.00  0.00     0.014 A 
ATOM     29  C   UNL A   1      41.029  23.912  27.994  1.00  0.00     0.010 A 
ATOM     30  C   UNL A   1      39.666  25.079  26.370  1.00  0.00     0.010 A 
ATOM     31  C   UNL A   1      40.658  25.106  27.357  1.00  0.00    -0.014 A 
BRANCH  31  32
ATOM     32  C   UNL A   1      41.253  26.411  27.728  1.00  0.00     0.031 A 
ATOM     33  C   UNL A   1      42.670  26.724  27.320  1.00  0.00     0.074 A 
ATOM     34  C   UNL A   1      40.558  27.260  28.510  1.00  0.00     0.049 A 
ATOM     35  N   UNL A   1      43.402  27.765  27.615  1.00  0.00    -0.248 NA
ATOM     36  C   UNL A   1      43.375  25.711  26.512  1.00  0.00     0.031 C 
ATOM     37  C   UNL A   1      39.217  27.015  29.047  1.00  0.00     0.029 A 
ATOM     38  N   UNL A   1      40.893  28.492  29.007  1.00  0.00    -0.354 N 
ATOM     39  C   UNL A   1      44.659  27.507  27.079  1.00  0.00     0.074 A 
ATOM     40  C   UNL A   1      44.609  26.191  26.488  1.00  0.00     0.031 C 
ATOM     41  C   UNL A   1      38.836  28.073  29.781  1.00  0.00     0.029 A 
ATOM     42  C   UNL A   1      39.915  29.053  29.795  1.00  0.00     0.049 A 
ATOM     43  H   UNL A   1      41.752  28.934  28.818  1.00  0.00     0.167 HD
ATOM     44  C   UNL A   1      45.747  28.311  27.043  1.00  0.00     0.034 A 
ATOM     45  C   UNL A   1      39.896  30.228  30.452  1.00  0.00     0.034 A 
ATOM     46  C   UNL A   1      45.761  29.645  27.578  1.00  0.00     0.049 A 
ATOM     47  C   UNL A   1      41.086  31.139  30.325  1.00  0.00     0.074 A 
ATOM     48  C   UNL A   1      46.771  30.586  27.518  1.00  0.00     0.029 A 
ATOM     49  N   UNL A   1      44.710  30.224  28.272  1.00  0.00    -0.354 N 
ATOM     50  N   UNL A   1      42.214  30.940  29.685  1.00  0.00    -0.248 NA
ATOM     51  C   UNL A   1      40.985  32.454  30.973  1.00  0.00     0.031 C 
ATOM     52  C   UNL A   1      46.337  31.731  28.196  1.00  0.00     0.029 A 
ATOM     53  C   UNL A   1      45.044  31.513  28.645  1.00  0.00     0.049 A 
ATOM     54  H   UNL A   1      43.852  29.784  28.468  1.00  0.00     0.167 HD
ATOM     55  C   UNL A   1      42.939  32.119  29.816  1.00  0.00     0.074 A 
ATOM     56  C   UNL A   1      42.110  33.032  30.579  1.00  0.00     0.031 C 
ATOM     57  C   UNL A   1      44.181  32.417  29.361  1.00  0.00     0.034 A 
BRANCH  44  58
ATOM     58  C   UNL A   1      46.982  27.789  26.355  1.00  0.00     0.023 A 
ATOM     59  C   UNL A   1      47.946  27.070  27.093  1.00  0.00     0.012 A 
ATOM     60  C   UNL A   1      47.175  27.977  24.972  1.00  0.00     0.148 A 
ATOM     61  C   UNL A   1      49.101  26.588  26.478  1.00  0.00     0.002 A 
ATOM     62  C   UNL A   1      48.304  27.447  24.356  1.00  0.00     0.091 A 
ATOM     63  F   UNL A   1      46.262  28.681  24.289  1.00  0.00    -0.205 F 
ATOM     64  C   UNL A   1      49.274  26.766  25.110  1.00  0.00     0.022 A 
BRANCH  62  65
ATOM     65  S   UNL A   1      48.579  27.547  22.585  1.00  0.00     0.127 S 
ATOM     66  O   UNL A   1      49.858  28.255  22.524  1.00  0.00    -0.237 OA
ATOM     67  O   UNL A   1      48.646  26.135  22.205  1.00  0.00    -0.237 OA
ATOM     68  O   UNL A   1      47.440  28.272  22.039  1.00  0.00    -0.744 OA
ENDBRANCH  62  65
ENDBRANCH  44  58
BRANCH  45  69
ATOM     69  C   UNL A   1      38.681  30.641  31.210  1.00  0.00     0.023 A 
ATOM     70  C   UNL A   1      38.590  30.344  32.585  1.00  0.00     0.012 A 
ATOM     71  C   UNL A   1      37.636  31.353  30.592  1.00  0.00     0.148 A 
ATOM     72  C   UNL A   1      37.463  30.712  33.320  1.00  0.00     0.002 A 
ATOM     73  C   UNL A   1      36.541  31.768  31.343  1.00  0.00     0.091 A 
ATOM     74  F   UNL A   1      37.739  31.623  29.283  1.00  0.00    -0.205 F 
ATOM     75  C   UNL A   1      36.444  31.432  32.703  1.00  0.00     0.022 A 
BRANCH  73  76
ATOM     76  S   UNL A   1      35.249  32.814  30.665  1.00  0.00     0.127 S 
ATOM     77  O   UNL A   1      34.283  32.845  31.761  1.00  0.00    -0.237 OA
ATOM     78  O   UNL A   1      35.965  34.070  30.438  1.00  0.00    -0.237 OA
ATOM     79  O   UNL A   1      34.804  32.150  29.448  1.00  0.00    -0.744 OA
ENDBRANCH  73  76
ENDBRANCH  45  69
BRANCH  57  80
ATOM     80  C   UNL A   1      44.699  33.805  29.630  1.00  0.00     0.023 A 
ATOM     81  C   UNL A   1      45.312  34.103  30.863  1.00  0.00     0.012 A 
ATOM     82  C   UNL A   1      44.624  34.799  28.635  1.00  0.00     0.148 A 
ATOM     83  C   UNL A   1      45.801  35.384  31.118  1.00  0.00     0.002 A 
ATOM     84  C   UNL A   1      45.162  36.055  28.876  1.00  0.00     0.091 A 
ATOM     85  F   UNL A   1      44.020  34.500  27.475  1.00  0.00    -0.205 F 
ATOM     86  C   UNL A   1      45.735  36.355  30.122  1.00  0.00     0.022 A 
BRANCH  84  87
ATOM     87  S   UNL A   1      45.215  37.330  27.612  1.00  0.00     0.127 S 
ATOM     88  O   UNL A   1      45.929  36.650  26.533  1.00  0.00    -0.237 OA
ATOM     89  O   UNL A   1      43.796  37.567  27.350  1.00  0.00    -0.237 OA
ATOM     90  O   UNL A   1      45.913  38.458  28.213  1.00  0.00    -0.744 OA
ENDBRANCH  84  87
ENDBRANCH  57  80
ENDBRANCH  31  32
ENDBRANCH  23  26
ENDBRANCH  21  22
ENDBRANCH   1  21
TORSDOF 18
ENDMDL
MODEL 2
REMARK VINA RESULT:     -11.0      5.252     10.263
REMARK SMILES C[C@H](O)C[C@@H](Cc1cccc(Br)c1)C(=O)NCCCNC(=O)c1ccc(-c2c3nc(c(-c4cccc(S(=O)(=O)[O-])c4F)c4ccc([nH]4)c(-c4cccc(S(=O)(=O)[O-])c4F)c4nc(c(-c5cccc(S(=O)(=O)[O-])c5F)c5ccc2[nH]5)C=C4)C=C3)cc1
REMARK SMILES IDX 18 1 17 2 16 3 14 4 15 5 5 7 4 8 2 9 1 10 3 11 6 13 7 14
REMARK SMILES IDX 8 15 13 16 9 17 11 18 10 19 12 20 19 21 20 22 21 23 22 25
REMARK SMILES IDX 23 26 24 27 85 28 25 29 84 30 26 31 27 32 28 33 78 34 29 35
REMARK SMILES IDX 83 36 77 37 79 38 30 39 82 40 76 41 75 42 31 44 63 45 43 46
REMARK SMILES IDX 62 47 44 48 47 49 61 50 80 51 45 52 46 53 60 55 81 56 48 57
REMARK SMILES IDX 32 58 33 59 41 60 34 61 36 62 42 63 35 64 37 65 38 66 39 67
REMARK SMILES IDX 40 68 64 69 65 70 73 71 66 72 68 73 74 74 67 75 69 76 70 77
REMARK SMILES IDX 71 78 72 79 49 80 50 81 58 82 51 83 53 84 59 85 52 86 54 87
REMARK SMILES IDX 55 88 56 89 57 90
REMARK H PARENT 16 6 3 12 20 24 79 43 47 54
REMARK Flexibility Score: inf
ROOT
ATOM      1  C   UNL A   1      31.576  29.744  25.595  1.00  0.00     0.042 C 
ENDROOT
BRANCH   1   2
ATOM      2  C   UNL A   1      32.403  29.333  24.401  1.00  0.00     0.117 C 
BRANCH   2   3
ATOM      3  N   UNL A   1      31.668  29.194  23.163  1.00  0.00    -0.356 N 
ATOM      4  C   UNL A   1      30.903  28.149  22.743  1.00  0.00     0.223 C 
ATOM      5  O   UNL A   1      30.058  28.373  21.871  1.00  0.00    -0.275 OA
ATOM      6  H   UNL A   1      31.730  29.955  22.541  1.00  0.00     0.163 HD
BRANCH   4   7
ATOM      7  C   UNL A   1      31.071  26.733  23.302  1.00  0.00     0.085 C 
BRANCH   7   8
ATOM      8  C   UNL A   1      29.830  26.289  24.104  1.00  0.00     0.045 C 
BRANCH   8   9
ATOM      9  C   UNL A   1      30.089  25.746  25.509  1.00  0.00     0.112 C 
ATOM     10  C   UNL A   1      31.481  26.162  25.973  1.00  0.00     0.038 C 
BRANCH   9  11
ATOM     11  O   UNL A   1      30.025  24.325  25.518  1.00  0.00    -0.393 OA
ATOM     12  H   UNL A   1      30.922  23.961  25.451  1.00  0.00     0.210 HD
ENDBRANCH   9  11
ENDBRANCH   8   9
ENDBRANCH   7   8
BRANCH   7  13
ATOM     13  C   UNL A   1      31.732  25.744  22.312  1.00  0.00     0.049 C 
BRANCH  13  14
ATOM     14  C   UNL A   1      32.681  24.693  22.839  1.00  0.00    -0.046 A 
ATOM     15  C   UNL A   1      33.970  25.034  23.273  1.00  0.00     0.004 A 
ATOM     16  C   UNL A   1      32.263  23.357  22.960  1.00  0.00     0.019 A 
ATOM     17  C   UNL A   1      34.789  24.085  23.891  1.00  0.00     0.001 A 
ATOM     18  C   UNL A   1      33.082  22.415  23.590  1.00  0.00     0.018 A 
ATOM     19  C   UNL A   1      34.337  22.778  24.071  1.00  0.00     0.016 A 
ATOM     20  Br  UNL A   1      32.434  20.665  23.891  1.00  0.00    -0.051 Br
ENDBRANCH  13  14
ENDBRANCH   7  13
ENDBRANCH   4   7
ENDBRANCH   2   3
ENDBRANCH   1   2
BRANCH   1  21
ATOM     21  C   UNL A   1      32.436  30.239  26.743  1.00  0.00     0.118 C 
BRANCH  21  22
ATOM     22  N   UNL A   1      32.494  31.701  26.823  1.00  0.00    -0.352 N 
ATOM     23  C   UNL A   1      33.368  32.530  27.477  1.00  0.00     0.251 C 
ATOM     24  H   UNL A   1      31.787  32.167  26.321  1.00  0.00     0.163 HD
ATOM     25  O   UNL A   1      33.108  33.729  27.588  1.00  0.00    -0.269 OA
BRANCH  23  26
ATOM     26  C   UNL A   1      34.611  31.986  28.054  1.00  0.00     0.039 A 
ATOM     27  C   UNL A   1      35.749  32.792  28.129  1.00  0.00     0.014 A 
ATOM     28  C   UNL A   1      34.649  30.673  28.523  1.00  0.00     0.014 A 
ATOM     29  C   UNL A   1      36.902  32.294  28.736  1.00  0.00     0.010 A 
ATOM     30  C   UNL A   1      35.738  30.236  29.254  1.00  0.00     0.010 A 
ATOM     31  C   UNL A   1      36.891  31.025  29.336  1.00  0.00    -0.014 A 
BRANCH  31  32
ATOM     32  C   UNL A   1      38.082  30.470  30.021  1.00  0.00     0.031 A 
ATOM     33  C   UNL A   1      38.414  30.925  31.419  1.00  0.00     0.074 A 
ATOM     34  C   UNL A   1      38.908  29.644  29.351  1.00  0.00     0.049 A 
ATOM     35  N   UNL A   1      39.450  30.631  32.158  1.00  0.00    -0.248 NA
ATOM     36  C   UNL A   1      37.482  31.876  32.054  1.00  0.00     0.031 C 
ATOM     37  C   UNL A   1      38.738  29.217  27.959  1.00  0.00     0.029 A 
ATOM     38  N   UNL A   1      40.070  29.033  29.745  1.00  0.00    -0.354 N 
ATOM     39  C   UNL A   1      39.321  31.395  33.312  1.00  0.00     0.074 A 
ATOM     40  C   UNL A   1      38.139  32.208  33.155  1.00  0.00     0.031 C 
ATOM     41  C   UNL A   1      39.746  28.397  27.623  1.00  0.00     0.029 A 
ATOM     42  C   UNL A   1      40.650  28.267  28.760  1.00  0.00     0.049 A 
ATOM     43  H   UNL A   1      40.452  29.131  30.646  1.00  0.00     0.167 HD
ATOM     44  C   UNL A   1      40.095  31.391  34.422  1.00  0.00     0.034 A 
ATOM     45  C   UNL A   1      41.785  27.542  28.778  1.00  0.00     0.034 A 
ATOM     46  C   UNL A   1      41.232  30.529  34.590  1.00  0.00     0.049 A 
ATOM     47  C   UNL A   1      42.580  27.488  30.054  1.00  0.00     0.074 A 
ATOM     48  C   UNL A   1      42.034  30.368  35.703  1.00  0.00     0.029 A 
ATOM     49  N   UNL A   1      41.725  29.680  33.611  1.00  0.00    -0.354 N 
ATOM     50  N   UNL A   1      42.359  28.104  31.191  1.00  0.00    -0.248 NA
ATOM     51  C   UNL A   1      43.755  26.606  30.065  1.00  0.00     0.031 C 
ATOM     52  C   UNL A   1      43.028  29.434  35.390  1.00  0.00     0.029 A 
ATOM     53  C   UNL A   1      42.821  28.989  34.093  1.00  0.00     0.049 A 
ATOM     54  H   UNL A   1      41.349  29.583  32.706  1.00  0.00     0.167 HD
ATOM     55  C   UNL A   1      43.341  27.652  32.065  1.00  0.00     0.074 A 
ATOM     56  C   UNL A   1      44.142  26.695  31.329  1.00  0.00     0.031 C 
ATOM     57  C   UNL A   1      43.570  28.005  33.355  1.00  0.00     0.034 A 
BRANCH  44  58
ATOM     58  C   UNL A   1      39.699  32.303  35.555  1.00  0.00     0.023 A 
ATOM     59  C   UNL A   1      38.928  31.801  36.625  1.00  0.00     0.012 A 
ATOM     60  C   UNL A   1      40.118  33.648  35.583  1.00  0.00     0.148 A 
ATOM     61  C   UNL A   1      38.541  32.630  37.677  1.00  0.00     0.002 A 
ATOM     62  C   UNL A   1      39.773  34.455  36.662  1.00  0.00     0.091 A 
ATOM     63  F   UNL A   1      40.831  34.117  34.549  1.00  0.00    -0.205 F 
ATOM     64  C   UNL A   1      38.973  33.952  37.701  1.00  0.00     0.022 A 
BRANCH  62  65
ATOM     65  S   UNL A   1      40.349  36.147  36.832  1.00  0.00     0.127 S 
ATOM     66  O   UNL A   1      41.796  35.958  36.935  1.00  0.00    -0.237 OA
ATOM     67  O   UNL A   1      39.901  36.750  35.577  1.00  0.00    -0.237 OA
ATOM     68  O   UNL A   1      39.704  36.675  38.026  1.00  0.00    -0.744 OA
ENDBRANCH  62  65
ENDBRANCH  44  58
BRANCH  45  69
ATOM     69  C   UNL A   1      42.182  26.746  27.583  1.00  0.00     0.023 A 
ATOM     70  C   UNL A   1      42.895  27.371  26.541  1.00  0.00     0.012 A 
ATOM     71  C   UNL A   1      41.892  25.371  27.486  1.00  0.00     0.148 A 
ATOM     72  C   UNL A   1      43.276  26.655  25.407  1.00  0.00     0.002 A 
ATOM     73  C   UNL A   1      42.325  24.649  26.379  1.00  0.00     0.091 A 
ATOM     74  F   UNL A   1      41.210  24.794  28.486  1.00  0.00    -0.205 F 
ATOM     75  C   UNL A   1      43.000  25.292  25.330  1.00  0.00     0.022 A 
BRANCH  73  76
ATOM     76  S   UNL A   1      42.135  22.867  26.258  1.00  0.00     0.127 S 
ATOM     77  O   UNL A   1      42.730  22.591  24.953  1.00  0.00    -0.237 OA
ATOM     78  O   UNL A   1      42.916  22.401  27.404  1.00  0.00    -0.237 OA
ATOM     79  O   UNL A   1      40.704  22.617  26.367  1.00  0.00    -0.744 OA
ENDBRANCH  73  76
ENDBRANCH  45  69
BRANCH  57  80
ATOM     80  C   UNL A   1      44.701  27.313  34.068  1.00  0.00     0.023 A 
ATOM     81  C   UNL A   1      46.008  27.833  33.991  1.00  0.00     0.012 A 
ATOM     82  C   UNL A   1      44.454  26.176  34.861  1.00  0.00     0.148 A 
ATOM     83  C   UNL A   1      47.060  27.203  34.653  1.00  0.00     0.002 A 
ATOM     84  C   UNL A   1      45.496  25.586  35.562  1.00  0.00     0.091 A 
ATOM     85  F   UNL A   1      43.205  25.686  34.907  1.00  0.00    -0.205 F 
ATOM     86  C   UNL A   1      46.802  26.088  35.447  1.00  0.00     0.022 A 
BRANCH  84  87
ATOM     87  S   UNL A   1      45.233  24.213  36.690  1.00  0.00     0.127 S 
ATOM     88  O   UNL A   1      44.243  24.768  37.610  1.00  0.00    -0.237 OA
ATOM     89  O   UNL A   1      44.721  23.173  35.797  1.00  0.00    -0.237 OA
ATOM     90  O   UNL A   1      46.536  23.919  37.271  1.00  0.00    -0.744 OA
ENDBRANCH  84  87
ENDBRANCH  57  80
ENDBRANCH  31  32
ENDBRANCH  23  26
ENDBRANCH  21  22
ENDBRANCH   1  21
TORSDOF 18
ENDMDL
MODEL 3
REMARK VINA RESULT:     -11.0      2.398      3.942
REMARK SMILES C[C@H](O)C[C@@H](Cc1cccc(Br)c1)C(=O)NCCCNC(=O)c1ccc(-c2c3nc(c(-c4cccc(S(=O)(=O)[O-])c4F)c4ccc([nH]4)c(-c4cccc(S(=O)(=O)[O-])c4F)c4nc(c(-c5cccc(S(=O)(=O)[O-])c5F)c5ccc2[nH]5)C=C4)C=C3)cc1
REMARK SMILES IDX 18 1 17 2 16 3 14 4 15 5 5 7 4 8 2 9 1 10 3 11 6 13 7 14
REMARK SMILES IDX 8 15 13 16 9 17 11 18 10 19 12 20 19 21 20 22 21 23 22 25
REMARK SMILES IDX 23 26 24 27 85 28 25 29 84 30 26 31 27 32 28 33 78 34 29 35
REMARK SMILES IDX 83 36 77 37 79 38 30 39 82 40 76 41 75 42 31 44 63 45 43 46
REMARK SMILES IDX 62 47 44 48 47 49 61 50 80 51 45 52 46 53 60 55 81 56 48 57
REMARK SMILES IDX 32 58 33 59 41 60 34 61 36 62 42 63 35 64 37 65 38 66 39 67
REMARK SMILES IDX 40 68 64 69 65 70 73 71 66 72 68 73 74 74 67 75 69 76 70 77
REMARK SMILES IDX 71 78 72 79 49 80 50 81 58 82 51 83 53 84 59 85 52 86 54 87
REMARK SMILES IDX 55 88 56 89 57 90
REMARK H PARENT 16 6 3 12 20 24 79 43 47 54
REMARK Flexibility Score: inf
ROOT
ATOM      1  C   UNL A   1      36.427  22.148  24.183  1.00  0.00     0.042 C 
ENDROOT
BRANCH   1   2
ATOM      2  C   UNL A   1      35.631  23.351  23.739  1.00  0.00     0.117 C 
BRANCH   2   3
ATOM      3  N   UNL A   1      34.418  23.052  23.010  1.00  0.00    -0.356 N 
ATOM      4  C   UNL A   1      33.283  22.451  23.463  1.00  0.00     0.223 C 
ATOM      5  O   UNL A   1      32.242  22.642  22.827  1.00  0.00    -0.275 OA
ATOM      6  H   UNL A   1      34.412  23.317  22.062  1.00  0.00     0.163 HD
BRANCH   4   7
ATOM      7  C   UNL A   1      33.268  21.556  24.705  1.00  0.00     0.085 C 
BRANCH   7   8
ATOM      8  C   UNL A   1      33.077  22.378  25.996  1.00  0.00     0.045 C 
BRANCH   8   9
ATOM      9  C   UNL A   1      31.635  22.697  26.391  1.00  0.00     0.112 C 
ATOM     10  C   UNL A   1      31.302  24.135  26.006  1.00  0.00     0.038 C 
BRANCH   9  11
ATOM     11  O   UNL A   1      31.458  22.562  27.796  1.00  0.00    -0.393 OA
ATOM     12  H   UNL A   1      31.501  23.438  28.212  1.00  0.00     0.210 HD
ENDBRANCH   9  11
ENDBRANCH   8   9
ENDBRANCH   7   8
BRANCH   7  13
ATOM     13  C   UNL A   1      32.475  20.239  24.517  1.00  0.00     0.049 C 
BRANCH  13  14
ATOM     14  C   UNL A   1      33.209  18.920  24.567  1.00  0.00    -0.046 A 
ATOM     15  C   UNL A   1      34.596  18.855  24.363  1.00  0.00     0.004 A 
ATOM     16  C   UNL A   1      32.521  17.736  24.880  1.00  0.00     0.019 A 
ATOM     17  C   UNL A   1      35.289  17.656  24.551  1.00  0.00     0.001 A 
ATOM     18  C   UNL A   1      33.222  16.543  25.080  1.00  0.00     0.018 A 
ATOM     19  C   UNL A   1      34.606  16.502  24.933  1.00  0.00     0.016 A 
ATOM     20  Br  UNL A   1      32.296  15.001  25.663  1.00  0.00    -0.051 Br
ENDBRANCH  13  14
ENDBRANCH   7  13
ENDBRANCH   4   7
ENDBRANCH   2   3
ENDBRANCH   1   2
BRANCH   1  21
ATOM     21  C   UNL A   1      37.005  22.327  25.575  1.00  0.00     0.118 C 
BRANCH  21  22
ATOM     22  N   UNL A   1      38.014  21.317  25.908  1.00  0.00    -0.352 N 
ATOM     23  C   UNL A   1      39.302  21.451  26.356  1.00  0.00     0.251 C 
ATOM     24  H   UNL A   1      37.716  20.387  25.790  1.00  0.00     0.163 HD
ATOM     25  O   UNL A   1      40.050  20.472  26.369  1.00  0.00    -0.269 OA
BRANCH  23  26
ATOM     26  C   UNL A   1      39.794  22.763  26.814  1.00  0.00     0.039 A 
ATOM     27  C   UNL A   1      40.804  22.826  27.775  1.00  0.00     0.014 A 
ATOM     28  C   UNL A   1      39.251  23.936  26.288  1.00  0.00     0.014 A 
ATOM     29  C   UNL A   1      41.311  24.069  28.155  1.00  0.00     0.010 A 
ATOM     30  C   UNL A   1      39.855  25.151  26.553  1.00  0.00     0.010 A 
ATOM     31  C   UNL A   1      40.865  25.237  27.519  1.00  0.00    -0.014 A 
BRANCH  31  32
ATOM     32  C   UNL A   1      41.399  26.574  27.867  1.00  0.00     0.031 A 
ATOM     33  C   UNL A   1      42.831  26.910  27.537  1.00  0.00     0.074 A 
ATOM     34  C   UNL A   1      40.633  27.436  28.563  1.00  0.00     0.049 A 
ATOM     35  N   UNL A   1      43.515  27.984  27.831  1.00  0.00    -0.248 NA
ATOM     36  C   UNL A   1      43.614  25.884  26.823  1.00  0.00     0.031 C 
ATOM     37  C   UNL A   1      39.266  27.175  29.023  1.00  0.00     0.029 A 
ATOM     38  N   UNL A   1      40.902  28.697  29.024  1.00  0.00    -0.354 N 
ATOM     39  C   UNL A   1      44.810  27.740  27.389  1.00  0.00     0.074 A 
ATOM     40  C   UNL A   1      44.834  26.398  26.857  1.00  0.00     0.031 C 
ATOM     41  C   UNL A   1      38.810  28.252  29.682  1.00  0.00     0.029 A 
ATOM     42  C   UNL A   1      39.860  29.263  29.721  1.00  0.00     0.049 A 
ATOM     43  H   UNL A   1      41.759  29.156  28.871  1.00  0.00     0.167 HD
ATOM     44  C   UNL A   1      45.877  28.574  27.386  1.00  0.00     0.034 A 
ATOM     45  C   UNL A   1      39.766  30.465  30.321  1.00  0.00     0.034 A 
ATOM     46  C   UNL A   1      45.820  29.929  27.860  1.00  0.00     0.049 A 
ATOM     47  C   UNL A   1      40.937  31.405  30.230  1.00  0.00     0.074 A 
ATOM     48  C   UNL A   1      46.807  30.896  27.822  1.00  0.00     0.029 A 
ATOM     49  N   UNL A   1      44.711  30.508  28.457  1.00  0.00    -0.354 N 
ATOM     50  N   UNL A   1      42.109  31.211  29.673  1.00  0.00    -0.248 NA
ATOM     51  C   UNL A   1      40.759  32.742  30.809  1.00  0.00     0.031 C 
ATOM     52  C   UNL A   1      46.299  32.057  28.417  1.00  0.00     0.029 A 
ATOM     53  C   UNL A   1      44.985  31.821  28.792  1.00  0.00     0.049 A 
ATOM     54  H   UNL A   1      43.854  30.051  28.618  1.00  0.00     0.167 HD
ATOM     55  C   UNL A   1      42.793  32.415  29.796  1.00  0.00     0.074 A 
ATOM     56  C   UNL A   1      41.892  33.336  30.462  1.00  0.00     0.031 C 
ATOM     57  C   UNL A   1      44.053  32.730  29.409  1.00  0.00     0.034 A 
BRANCH  44  58
ATOM     58  C   UNL A   1      47.168  28.058  26.804  1.00  0.00     0.023 A 
ATOM     59  C   UNL A   1      48.207  27.638  27.661  1.00  0.00     0.012 A 
ATOM     60  C   UNL A   1      47.343  27.956  25.410  1.00  0.00     0.148 A 
ATOM     61  C   UNL A   1      49.413  27.169  27.143  1.00  0.00     0.002 A 
ATOM     62  C   UNL A   1      48.529  27.437  24.901  1.00  0.00     0.091 A 
ATOM     63  F   UNL A   1      46.356  28.380  24.608  1.00  0.00    -0.205 F 
ATOM     64  C   UNL A   1      49.569  27.057  25.765  1.00  0.00     0.022 A 
BRANCH  62  65
ATOM     65  S   UNL A   1      48.799  27.172  23.146  1.00  0.00     0.127 S 
ATOM     66  O   UNL A   1      48.149  25.878  22.939  1.00  0.00    -0.237 OA
ATOM     67  O   UNL A   1      48.094  28.309  22.553  1.00  0.00    -0.237 OA
ATOM     68  O   UNL A   1      50.242  27.182  22.953  1.00  0.00    -0.744 OA
ENDBRANCH  62  65
ENDBRANCH  44  58
BRANCH  45  69
ATOM     69  C   UNL A   1      38.494  30.875  30.980  1.00  0.00     0.023 A 
ATOM     70  C   UNL A   1      38.324  30.644  32.359  1.00  0.00     0.012 A 
ATOM     71  C   UNL A   1      37.469  31.520  30.262  1.00  0.00     0.148 A 
ATOM     72  C   UNL A   1      37.142  31.010  33.004  1.00  0.00     0.002 A 
ATOM     73  C   UNL A   1      36.317  31.936  30.921  1.00  0.00     0.091 A 
ATOM     74  F   UNL A   1      37.648  31.729  28.949  1.00  0.00    -0.205 F 
ATOM     75  C   UNL A   1      36.143  31.664  32.287  1.00  0.00     0.022 A 
BRANCH  73  76
ATOM     76  S   UNL A   1      35.040  32.904  30.111  1.00  0.00     0.127 S 
ATOM     77  O   UNL A   1      34.132  33.188  31.219  1.00  0.00    -0.237 OA
ATOM     78  O   UNL A   1      35.799  34.057  29.624  1.00  0.00    -0.237 OA
ATOM     79  O   UNL A   1      34.508  32.050  29.058  1.00  0.00    -0.744 OA
ENDBRANCH  73  76
ENDBRANCH  45  69
BRANCH  57  80
ATOM     80  C   UNL A   1      44.515  34.142  29.647  1.00  0.00     0.023 A 
ATOM     81  C   UNL A   1      45.097  34.497  30.880  1.00  0.00     0.012 A 
ATOM     82  C   UNL A   1      44.421  35.105  28.624  1.00  0.00     0.148 A 
ATOM     83  C   UNL A   1      45.534  35.801  31.107  1.00  0.00     0.002 A 
ATOM     84  C   UNL A   1      44.908  36.387  28.838  1.00  0.00     0.091 A 
ATOM     85  F   UNL A   1      43.848  34.752  27.463  1.00  0.00    -0.205 F 
ATOM     86  C   UNL A   1      45.450  36.741  30.083  1.00  0.00     0.022 A 
BRANCH  84  87
ATOM     87  S   UNL A   1      44.936  37.628  27.539  1.00  0.00     0.127 S 
ATOM     88  O   UNL A   1      45.490  38.783  28.243  1.00  0.00    -0.237 OA
ATOM     89  O   UNL A   1      45.833  37.026  26.553  1.00  0.00    -0.237 OA
ATOM     90  O   UNL A   1      43.557  37.767  27.092  1.00  0.00    -0.744 OA
ENDBRANCH  84  87
ENDBRANCH  57  80
ENDBRANCH  31  32
ENDBRANCH  23  26
ENDBRANCH  21  22
ENDBRANCH   1  21
TORSDOF 18
ENDMDL
