MODEL 1
REMARK VINA RESULT:     -11.7      0.000      0.000
REMARK SMILES O=C(NCCCNC(=O)c1ccc(-c2ccncc2)cn1)c1ccc(-c2c3nc(c(-c4cccc(S(=O)(=O)[O-])c4F)c4ccc([nH]4)c(-c4cccc(S(=O)(=O)[O-])c4F)c4nc(c(-c5cccc(S(=O)(=O)[O-])c5F)c5ccc2[nH]5)C=C4)C=C3)cc1
REMARK SMILES IDX 4 1 3 2 1 3 2 4 22 6 23 7 84 8 24 9 83 10 25 11 26 12 27 13
REMARK SMILES IDX 77 14 28 15 82 16 76 17 78 18 29 19 81 20 75 21 74 22 30 24
REMARK SMILES IDX 62 25 42 26 61 27 43 28 46 29 60 30 79 31 44 32 45 33 59 35
REMARK SMILES IDX 80 36 47 37 31 38 32 39 40 40 33 41 35 42 41 43 34 44 36 45
REMARK SMILES IDX 37 46 38 47 39 48 63 49 64 50 72 51 65 52 67 53 73 54 66 55
REMARK SMILES IDX 68 56 69 57 70 58 71 59 48 60 49 61 57 62 50 63 52 64 58 65
REMARK SMILES IDX 51 66 53 67 54 68 55 69 56 70 5 71 6 72 7 73 8 74 9 76 10 77
REMARK SMILES IDX 11 78 21 79 12 80 20 81 13 82 14 83 15 84 19 85 16 86 18 87
REMARK SMILES IDX 17 88
REMARK H PARENT 3 5 78 23 46 34 7 75
REMARK Flexibility Score: inf
ROOT
ATOM      1  C   UNL A   1      38.973  20.159  26.024  1.00  0.00     0.118 C 
ENDROOT
BRANCH   1   2
ATOM      2  N   UNL A   1      40.132  19.280  25.958  1.00  0.00    -0.352 N 
ATOM      3  O   UNL A   1      42.289  18.701  25.732  1.00  0.00    -0.269 OA
ATOM      4  C   UNL A   1      41.471  19.574  26.021  1.00  0.00     0.251 C 
ATOM      5  H   UNL A   1      39.921  18.324  25.853  1.00  0.00     0.163 HD
BRANCH   4   6
ATOM      6  C   UNL A   1      41.927  20.928  26.404  1.00  0.00     0.039 A 
ATOM      7  C   UNL A   1      42.243  21.232  27.730  1.00  0.00     0.014 A 
ATOM      8  C   UNL A   1      42.069  21.902  25.413  1.00  0.00     0.014 A 
ATOM      9  C   UNL A   1      42.550  22.539  28.092  1.00  0.00     0.010 A 
ATOM     10  C   UNL A   1      42.469  23.192  25.764  1.00  0.00     0.010 A 
ATOM     11  C   UNL A   1      42.683  23.530  27.109  1.00  0.00    -0.014 A 
BRANCH  11  12
ATOM     12  C   UNL A   1      43.110  24.901  27.485  1.00  0.00     0.031 A 
ATOM     13  C   UNL A   1      42.149  25.859  28.127  1.00  0.00     0.074 A 
ATOM     14  C   UNL A   1      44.362  25.297  27.185  1.00  0.00     0.049 A 
ATOM     15  N   UNL A   1      42.323  27.119  28.431  1.00  0.00    -0.248 NA
ATOM     16  C   UNL A   1      40.812  25.341  28.456  1.00  0.00     0.031 C 
ATOM     17  C   UNL A   1      45.372  24.464  26.530  1.00  0.00     0.029 A 
ATOM     18  N   UNL A   1      44.986  26.507  27.355  1.00  0.00    -0.354 N 
ATOM     19  C   UNL A   1      41.107  27.559  28.941  1.00  0.00     0.074 A 
ATOM     20  C   UNL A   1      40.202  26.430  28.902  1.00  0.00     0.031 C 
ATOM     21  C   UNL A   1      46.482  25.189  26.337  1.00  0.00     0.029 A 
ATOM     22  C   UNL A   1      46.241  26.552  26.796  1.00  0.00     0.049 A 
ATOM     23  H   UNL A   1      44.577  27.266  27.828  1.00  0.00     0.167 HD
ATOM     24  C   UNL A   1      40.779  28.791  29.402  1.00  0.00     0.034 A 
ATOM     25  C   UNL A   1      47.091  27.583  26.624  1.00  0.00     0.034 A 
ATOM     26  C   UNL A   1      41.694  29.901  29.451  1.00  0.00     0.049 A 
ATOM     27  C   UNL A   1      46.708  28.938  27.140  1.00  0.00     0.074 A 
ATOM     28  C   UNL A   1      41.484  31.165  29.972  1.00  0.00     0.029 A 
ATOM     29  N   UNL A   1      42.982  29.889  28.937  1.00  0.00    -0.354 N 
ATOM     30  N   UNL A   1      45.600  29.306  27.736  1.00  0.00    -0.248 NA
ATOM     31  C   UNL A   1      47.698  30.013  26.990  1.00  0.00     0.031 C 
ATOM     32  C   UNL A   1      42.630  31.931  29.734  1.00  0.00     0.029 A 
ATOM     33  C   UNL A   1      43.573  31.129  29.108  1.00  0.00     0.049 A 
ATOM     34  H   UNL A   1      43.415  29.112  28.512  1.00  0.00     0.167 HD
ATOM     35  C   UNL A   1      45.770  30.644  28.065  1.00  0.00     0.074 A 
ATOM     36  C   UNL A   1      47.092  31.021  27.606  1.00  0.00     0.031 C 
ATOM     37  C   UNL A   1      44.907  31.481  28.690  1.00  0.00     0.034 A 
BRANCH  24  38
ATOM     38  C   UNL A   1      39.369  29.001  29.893  1.00  0.00     0.023 A 
ATOM     39  C   UNL A   1      39.024  28.661  31.217  1.00  0.00     0.012 A 
ATOM     40  C   UNL A   1      38.391  29.567  29.050  1.00  0.00     0.148 A 
ATOM     41  C   UNL A   1      37.719  28.833  31.678  1.00  0.00     0.002 A 
ATOM     42  C   UNL A   1      37.105  29.780  29.532  1.00  0.00     0.091 A 
ATOM     43  F   UNL A   1      38.729  29.867  27.788  1.00  0.00    -0.205 F 
ATOM     44  C   UNL A   1      36.763  29.399  30.839  1.00  0.00     0.022 A 
BRANCH  42  45
ATOM     45  S   UNL A   1      35.830  30.578  28.551  1.00  0.00     0.127 S 
ATOM     46  O   UNL A   1      35.166  29.429  27.939  1.00  0.00    -0.237 OA
ATOM     47  O   UNL A   1      35.037  31.265  29.572  1.00  0.00    -0.237 OA
ATOM     48  O   UNL A   1      36.530  31.465  27.633  1.00  0.00    -0.744 OA
ENDBRANCH  42  45
ENDBRANCH  24  38
BRANCH  25  49
ATOM     49  C   UNL A   1      48.388  27.339  25.937  1.00  0.00     0.023 A 
ATOM     50  C   UNL A   1      49.472  26.809  26.661  1.00  0.00     0.012 A 
ATOM     51  C   UNL A   1      48.518  27.543  24.548  1.00  0.00     0.148 A 
ATOM     52  C   UNL A   1      50.669  26.498  26.015  1.00  0.00     0.002 A 
ATOM     53  C   UNL A   1      49.691  27.176  23.903  1.00  0.00     0.091 A 
ATOM     54  F   UNL A   1      47.470  28.050  23.883  1.00  0.00    -0.205 F 
ATOM     55  C   UNL A   1      50.773  26.667  24.637  1.00  0.00     0.022 A 
BRANCH  53  56
ATOM     56  S   UNL A   1      49.866  27.222  22.115  1.00  0.00     0.127 S 
ATOM     57  O   UNL A   1      48.814  26.304  21.689  1.00  0.00    -0.237 OA
ATOM     58  O   UNL A   1      49.607  28.633  21.828  1.00  0.00    -0.237 OA
ATOM     59  O   UNL A   1      51.228  26.789  21.838  1.00  0.00    -0.744 OA
ENDBRANCH  53  56
ENDBRANCH  25  49
BRANCH  37  60
ATOM     60  C   UNL A   1      45.367  32.886  28.975  1.00  0.00     0.023 A 
ATOM     61  C   UNL A   1      46.125  33.164  30.129  1.00  0.00     0.012 A 
ATOM     62  C   UNL A   1      45.143  33.907  28.029  1.00  0.00     0.148 A 
ATOM     63  C   UNL A   1      46.644  34.441  30.342  1.00  0.00     0.002 A 
ATOM     64  C   UNL A   1      45.706  35.161  28.223  1.00  0.00     0.091 A 
ATOM     65  F   UNL A   1      44.402  33.623  26.949  1.00  0.00    -0.205 F 
ATOM     66  C   UNL A   1      46.449  35.434  29.383  1.00  0.00     0.022 A 
BRANCH  64  67
ATOM     67  S   UNL A   1      45.597  36.469  26.996  1.00  0.00     0.127 S 
ATOM     68  O   UNL A   1      46.276  35.862  25.853  1.00  0.00    -0.237 OA
ATOM     69  O   UNL A   1      44.150  36.620  26.837  1.00  0.00    -0.237 OA
ATOM     70  O   UNL A   1      46.269  37.625  27.574  1.00  0.00    -0.744 OA
ENDBRANCH  64  67
ENDBRANCH  37  60
ENDBRANCH  11  12
ENDBRANCH   4   6
ENDBRANCH   1   2
BRANCH   1  71
ATOM     71  C   UNL A   1      37.908  19.802  24.997  1.00  0.00     0.042 C 
BRANCH  71  72
ATOM     72  C   UNL A   1      36.750  20.786  24.932  1.00  0.00     0.118 C 
BRANCH  72  73
ATOM     73  N   UNL A   1      35.453  20.134  25.046  1.00  0.00    -0.351 N 
ATOM     74  C   UNL A   1      34.192  20.689  25.051  1.00  0.00     0.269 C 
ATOM     75  H   UNL A   1      35.482  19.155  25.131  1.00  0.00     0.163 HD
ATOM     76  O   UNL A   1      33.220  19.972  25.277  1.00  0.00    -0.268 OA
BRANCH  74  77
ATOM     77  C   UNL A   1      34.018  22.136  24.747  1.00  0.00     0.128 A 
ATOM     78  C   UNL A   1      34.098  22.580  23.433  1.00  0.00     0.035 A 
ATOM     79  N   UNL A   1      33.780  22.955  25.800  1.00  0.00    -0.250 NA
ATOM     80  C   UNL A   1      33.998  23.946  23.191  1.00  0.00     0.013 A 
ATOM     81  C   UNL A   1      33.657  24.274  25.524  1.00  0.00     0.120 A 
ATOM     82  C   UNL A   1      33.773  24.835  24.251  1.00  0.00     0.000 A 
BRANCH  82  83
ATOM     83  C   UNL A   1      33.670  26.278  24.016  1.00  0.00    -0.014 A 
ATOM     84  C   UNL A   1      33.553  26.787  22.717  1.00  0.00     0.029 A 
ATOM     85  C   UNL A   1      33.717  27.194  25.073  1.00  0.00     0.029 A 
ATOM     86  C   UNL A   1      33.497  28.159  22.533  1.00  0.00     0.111 A 
ATOM     87  C   UNL A   1      33.657  28.550  24.789  1.00  0.00     0.111 A 
ATOM     88  N   UNL A   1      33.545  29.052  23.542  1.00  0.00    -0.265 NA
ENDBRANCH  82  83
ENDBRANCH  74  77
ENDBRANCH  72  73
ENDBRANCH  71  72
ENDBRANCH   1  71
TORSDOF 14
ENDMDL
MODEL 2
REMARK VINA RESULT:     -11.7      5.544      8.771
REMARK SMILES O=C(NCCCNC(=O)c1ccc(-c2ccncc2)cn1)c1ccc(-c2c3nc(c(-c4cccc(S(=O)(=O)[O-])c4F)c4ccc([nH]4)c(-c4cccc(S(=O)(=O)[O-])c4F)c4nc(c(-c5cccc(S(=O)(=O)[O-])c5F)c5ccc2[nH]5)C=C4)C=C3)cc1
REMARK SMILES IDX 4 1 3 2 1 3 2 4 22 6 23 7 84 8 24 9 83 10 25 11 26 12 27 13
REMARK SMILES IDX 77 14 28 15 82 16 76 17 78 18 29 19 81 20 75 21 74 22 30 24
REMARK SMILES IDX 62 25 42 26 61 27 43 28 46 29 60 30 79 31 44 32 45 33 59 35
REMARK SMILES IDX 80 36 47 37 31 38 32 39 40 40 33 41 35 42 41 43 34 44 36 45
REMARK SMILES IDX 37 46 38 47 39 48 63 49 64 50 72 51 65 52 67 53 73 54 66 55
REMARK SMILES IDX 68 56 69 57 70 58 71 59 48 60 49 61 57 62 50 63 52 64 58 65
REMARK SMILES IDX 51 66 53 67 54 68 55 69 56 70 5 71 6 72 7 73 8 74 9 76 10 77
REMARK SMILES IDX 11 78 21 79 12 80 20 81 13 82 14 83 15 84 19 85 16 86 18 87
REMARK SMILES IDX 17 88
REMARK H PARENT 3 5 78 23 46 34 7 75
REMARK Flexibility Score: inf
ROOT
ATOM      1  C   UNL A   1      33.499  28.329  27.241  1.00  0.00     0.118 C 
ENDROOT
BRANCH   1   2
ATOM      2  N   UNL A   1      33.533  29.783  27.177  1.00  0.00    -0.352 N 
ATOM      3  O   UNL A   1      34.190  31.869  27.684  1.00  0.00    -0.269 OA
ATOM      4  C   UNL A   1      34.463  30.669  27.661  1.00  0.00     0.251 C 
ATOM      5  H   UNL A   1      32.768  30.195  26.714  1.00  0.00     0.163 HD
BRANCH   4   6
ATOM      6  C   UNL A   1      35.765  30.189  28.172  1.00  0.00     0.039 A 
ATOM      7  C   UNL A   1      36.918  30.265  27.387  1.00  0.00     0.014 A 
ATOM      8  C   UNL A   1      35.838  29.681  29.471  1.00  0.00     0.014 A 
ATOM      9  C   UNL A   1      38.105  29.697  27.836  1.00  0.00     0.010 A 
ATOM     10  C   UNL A   1      37.053  29.196  29.957  1.00  0.00     0.010 A 
ATOM     11  C   UNL A   1      38.190  29.171  29.133  1.00  0.00    -0.014 A 
BRANCH  11  12
ATOM     12  C   UNL A   1      39.484  28.658  29.647  1.00  0.00     0.031 A 
ATOM     13  C   UNL A   1      40.217  29.377  30.743  1.00  0.00     0.074 A 
ATOM     14  C   UNL A   1      40.026  27.567  29.074  1.00  0.00     0.049 A 
ATOM     15  N   UNL A   1      41.398  29.127  31.245  1.00  0.00    -0.248 NA
ATOM     16  C   UNL A   1      39.543  30.539  31.344  1.00  0.00     0.031 C 
ATOM     17  C   UNL A   1      39.422  26.807  27.978  1.00  0.00     0.029 A 
ATOM     18  N   UNL A   1      41.220  26.931  29.303  1.00  0.00    -0.354 N 
ATOM     19  C   UNL A   1      41.633  30.125  32.184  1.00  0.00     0.074 A 
ATOM     20  C   UNL A   1      40.470  30.987  32.179  1.00  0.00     0.031 C 
ATOM     21  C   UNL A   1      40.253  25.819  27.618  1.00  0.00     0.029 A 
ATOM     22  C   UNL A   1      41.472  25.916  28.412  1.00  0.00     0.049 A 
ATOM     23  H   UNL A   1      41.834  27.178  30.031  1.00  0.00     0.167 HD
ATOM     24  C   UNL A   1      42.716  30.301  32.978  1.00  0.00     0.034 A 
ATOM     25  C   UNL A   1      42.578  25.171  28.216  1.00  0.00     0.034 A 
ATOM     26  C   UNL A   1      43.859  29.427  32.985  1.00  0.00     0.049 A 
ATOM     27  C   UNL A   1      43.767  25.384  29.105  1.00  0.00     0.074 A 
ATOM     28  C   UNL A   1      44.971  29.472  33.806  1.00  0.00     0.029 A 
ATOM     29  N   UNL A   1      44.049  28.365  32.113  1.00  0.00    -0.354 N 
ATOM     30  N   UNL A   1      43.922  26.251  30.075  1.00  0.00    -0.248 NA
ATOM     31  C   UNL A   1      44.922  24.500  28.897  1.00  0.00     0.031 C 
ATOM     32  C   UNL A   1      45.855  28.466  33.402  1.00  0.00     0.029 A 
ATOM     33  C   UNL A   1      45.270  27.761  32.361  1.00  0.00     0.049 A 
ATOM     34  H   UNL A   1      43.410  28.081  31.419  1.00  0.00     0.167 HD
ATOM     35  C   UNL A   1      45.174  25.998  30.618  1.00  0.00     0.074 A 
ATOM     36  C   UNL A   1      45.735  24.890  29.871  1.00  0.00     0.031 C 
ATOM     37  C   UNL A   1      45.799  26.628  31.642  1.00  0.00     0.034 A 
BRANCH  24  38
ATOM     38  C   UNL A   1      42.715  31.489  33.909  1.00  0.00     0.023 A 
ATOM     39  C   UNL A   1      43.249  32.722  33.481  1.00  0.00     0.012 A 
ATOM     40  C   UNL A   1      42.152  31.392  35.196  1.00  0.00     0.148 A 
ATOM     41  C   UNL A   1      43.271  33.822  34.336  1.00  0.00     0.002 A 
ATOM     42  C   UNL A   1      42.133  32.507  36.027  1.00  0.00     0.091 A 
ATOM     43  F   UNL A   1      41.664  30.209  35.596  1.00  0.00    -0.205 F 
ATOM     44  C   UNL A   1      42.706  33.718  35.605  1.00  0.00     0.022 A 
BRANCH  42  45
ATOM     45  S   UNL A   1      41.354  32.490  37.644  1.00  0.00     0.127 S 
ATOM     46  O   UNL A   1      40.015  32.001  37.322  1.00  0.00    -0.237 OA
ATOM     47  O   UNL A   1      42.188  31.538  38.380  1.00  0.00    -0.237 OA
ATOM     48  O   UNL A   1      41.425  33.859  38.135  1.00  0.00    -0.744 OA
ENDBRANCH  42  45
ENDBRANCH  24  38
BRANCH  25  49
ATOM     49  C   UNL A   1      42.578  24.153  27.132  1.00  0.00     0.023 A 
ATOM     50  C   UNL A   1      43.251  24.419  25.925  1.00  0.00     0.012 A 
ATOM     51  C   UNL A   1      41.993  22.886  27.332  1.00  0.00     0.148 A 
ATOM     52  C   UNL A   1      43.331  23.444  24.930  1.00  0.00     0.002 A 
ATOM     53  C   UNL A   1      42.128  21.901  26.363  1.00  0.00     0.091 A 
ATOM     54  F   UNL A   1      41.358  22.660  28.491  1.00  0.00    -0.205 F 
ATOM     55  C   UNL A   1      42.783  22.183  25.155  1.00  0.00     0.022 A 
BRANCH  53  56
ATOM     56  S   UNL A   1      41.583  20.209  26.621  1.00  0.00     0.127 S 
ATOM     57  O   UNL A   1      42.330  19.835  27.818  1.00  0.00    -0.237 OA
ATOM     58  O   UNL A   1      40.144  20.388  26.823  1.00  0.00    -0.237 OA
ATOM     59  O   UNL A   1      41.938  19.488  25.407  1.00  0.00    -0.744 OA
ENDBRANCH  53  56
ENDBRANCH  25  49
BRANCH  37  60
ATOM     60  C   UNL A   1      47.148  26.113  32.071  1.00  0.00     0.023 A 
ATOM     61  C   UNL A   1      48.323  26.648  31.509  1.00  0.00     0.012 A 
ATOM     62  C   UNL A   1      47.243  25.178  33.122  1.00  0.00     0.148 A 
ATOM     63  C   UNL A   1      49.574  26.251  31.980  1.00  0.00     0.002 A 
ATOM     64  C   UNL A   1      48.491  24.827  33.620  1.00  0.00     0.091 A 
ATOM     65  F   UNL A   1      46.110  24.669  33.626  1.00  0.00    -0.205 F 
ATOM     66  C   UNL A   1      49.658  25.354  33.044  1.00  0.00     0.022 A 
BRANCH  64  67
ATOM     67  S   UNL A   1      48.693  23.762  35.052  1.00  0.00     0.127 S 
ATOM     68  O   UNL A   1      50.148  23.703  35.176  1.00  0.00    -0.237 OA
ATOM     69  O   UNL A   1      48.021  24.530  36.102  1.00  0.00    -0.237 OA
ATOM     70  O   UNL A   1      48.047  22.501  34.714  1.00  0.00    -0.744 OA
ENDBRANCH  64  67
ENDBRANCH  37  60
ENDBRANCH  11  12
ENDBRANCH   4   6
ENDBRANCH   1   2
BRANCH   1  71
ATOM     71  C   UNL A   1      33.110  27.693  25.914  1.00  0.00     0.042 C 
BRANCH  71  72
ATOM     72  C   UNL A   1      31.975  26.686  26.015  1.00  0.00     0.118 C 
BRANCH  72  73
ATOM     73  N   UNL A   1      31.931  25.773  24.882  1.00  0.00    -0.351 N 
ATOM     74  C   UNL A   1      31.292  25.912  23.669  1.00  0.00     0.269 C 
ATOM     75  H   UNL A   1      32.432  24.935  24.999  1.00  0.00     0.163 HD
ATOM     76  O   UNL A   1      31.280  24.968  22.883  1.00  0.00    -0.268 OA
BRANCH  74  77
ATOM     77  C   UNL A   1      30.657  27.211  23.311  1.00  0.00     0.128 A 
ATOM     78  C   UNL A   1      29.288  27.379  23.477  1.00  0.00     0.035 A 
ATOM     79  N   UNL A   1      31.478  28.179  22.837  1.00  0.00    -0.250 NA
ATOM     80  C   UNL A   1      28.718  28.580  23.069  1.00  0.00     0.013 A 
ATOM     81  C   UNL A   1      30.893  29.346  22.479  1.00  0.00     0.120 A 
ATOM     82  C   UNL A   1      29.523  29.605  22.553  1.00  0.00     0.000 A 
BRANCH  82  83
ATOM     83  C   UNL A   1      28.939  30.875  22.113  1.00  0.00    -0.014 A 
ATOM     84  C   UNL A   1      28.912  31.985  22.967  1.00  0.00     0.029 A 
ATOM     85  C   UNL A   1      28.362  31.013  20.846  1.00  0.00     0.029 A 
ATOM     86  C   UNL A   1      28.317  33.157  22.529  1.00  0.00     0.111 A 
ATOM     87  C   UNL A   1      27.787  32.226  20.499  1.00  0.00     0.111 A 
ATOM     88  N   UNL A   1      27.755  33.302  21.312  1.00  0.00    -0.265 NA
ENDBRANCH  82  83
ENDBRANCH  74  77
ENDBRANCH  72  73
ENDBRANCH  71  72
ENDBRANCH   1  71
TORSDOF 14
ENDMDL
MODEL 3
REMARK VINA RESULT:     -11.7      6.370     11.695
REMARK SMILES O=C(NCCCNC(=O)c1ccc(-c2ccncc2)cn1)c1ccc(-c2c3nc(c(-c4cccc(S(=O)(=O)[O-])c4F)c4ccc([nH]4)c(-c4cccc(S(=O)(=O)[O-])c4F)c4nc(c(-c5cccc(S(=O)(=O)[O-])c5F)c5ccc2[nH]5)C=C4)C=C3)cc1
REMARK SMILES IDX 4 1 3 2 1 3 2 4 22 6 23 7 84 8 24 9 83 10 25 11 26 12 27 13
REMARK SMILES IDX 77 14 28 15 82 16 76 17 78 18 29 19 81 20 75 21 74 22 30 24
REMARK SMILES IDX 62 25 42 26 61 27 43 28 46 29 60 30 79 31 44 32 45 33 59 35
REMARK SMILES IDX 80 36 47 37 31 38 32 39 40 40 33 41 35 42 41 43 34 44 36 45
REMARK SMILES IDX 37 46 38 47 39 48 63 49 64 50 72 51 65 52 67 53 73 54 66 55
REMARK SMILES IDX 68 56 69 57 70 58 71 59 48 60 49 61 57 62 50 63 52 64 58 65
REMARK SMILES IDX 51 66 53 67 54 68 55 69 56 70 5 71 6 72 7 73 8 74 9 76 10 77
REMARK SMILES IDX 11 78 21 79 12 80 20 81 13 82 14 83 15 84 19 85 16 86 18 87
REMARK SMILES IDX 17 88
REMARK H PARENT 3 5 78 23 46 34 7 75
REMARK Flexibility Score: inf
ROOT
ATOM      1  C   UNL A   1      32.756  32.526  27.098  1.00  0.00     0.118 C 
ENDROOT
BRANCH   1   2
ATOM      2  N   UNL A   1      32.576  33.868  27.635  1.00  0.00    -0.352 N 
ATOM      3  O   UNL A   1      32.753  35.559  29.101  1.00  0.00    -0.269 OA
ATOM      4  C   UNL A   1      33.208  34.496  28.679  1.00  0.00     0.251 C 
ATOM      5  H   UNL A   1      31.893  34.410  27.176  1.00  0.00     0.163 HD
BRANCH   4   6
ATOM      6  C   UNL A   1      34.403  33.892  29.307  1.00  0.00     0.039 A 
ATOM      7  C   UNL A   1      34.279  32.898  30.280  1.00  0.00     0.014 A 
ATOM      8  C   UNL A   1      35.670  34.308  28.893  1.00  0.00     0.014 A 
ATOM      9  C   UNL A   1      35.407  32.431  30.947  1.00  0.00     0.010 A 
ATOM     10  C   UNL A   1      36.807  33.769  29.498  1.00  0.00     0.010 A 
ATOM     11  C   UNL A   1      36.685  32.850  30.551  1.00  0.00    -0.014 A 
BRANCH  11  12
ATOM     12  C   UNL A   1      37.892  32.274  31.195  1.00  0.00     0.031 A 
ATOM     13  C   UNL A   1      38.633  31.133  30.559  1.00  0.00     0.074 A 
ATOM     14  C   UNL A   1      38.280  32.750  32.393  1.00  0.00     0.049 A 
ATOM     15  N   UNL A   1      39.644  30.447  31.026  1.00  0.00    -0.248 NA
ATOM     16  C   UNL A   1      38.170  30.695  29.234  1.00  0.00     0.031 C 
ATOM     17  C   UNL A   1      37.616  33.832  33.123  1.00  0.00     0.029 A 
ATOM     18  N   UNL A   1      39.299  32.362  33.226  1.00  0.00    -0.354 N 
ATOM     19  C   UNL A   1      39.908  29.465  30.078  1.00  0.00     0.074 A 
ATOM     20  C   UNL A   1      38.948  29.644  29.010  1.00  0.00     0.031 C 
ATOM     21  C   UNL A   1      38.231  34.011  34.299  1.00  0.00     0.029 A 
ATOM     22  C   UNL A   1      39.290  33.018  34.434  1.00  0.00     0.049 A 
ATOM     23  H   UNL A   1      39.969  31.684  32.983  1.00  0.00     0.167 HD
ATOM     24  C   UNL A   1      40.867  28.508  30.097  1.00  0.00     0.034 A 
ATOM     25  C   UNL A   1      40.017  32.816  35.550  1.00  0.00     0.034 A 
ATOM     26  C   UNL A   1      41.826  28.352  31.158  1.00  0.00     0.049 A 
ATOM     27  C   UNL A   1      41.071  31.749  35.550  1.00  0.00     0.074 A 
ATOM     28  C   UNL A   1      42.885  27.465  31.236  1.00  0.00     0.029 A 
ATOM     29  N   UNL A   1      41.829  29.081  32.338  1.00  0.00    -0.354 N 
ATOM     30  N   UNL A   1      41.392  30.912  34.595  1.00  0.00    -0.248 NA
ATOM     31  C   UNL A   1      41.884  31.615  36.767  1.00  0.00     0.031 C 
ATOM     32  C   UNL A   1      43.501  27.627  32.481  1.00  0.00     0.029 A 
ATOM     33  C   UNL A   1      42.857  28.650  33.160  1.00  0.00     0.049 A 
ATOM     34  H   UNL A   1      41.193  29.800  32.560  1.00  0.00     0.167 HD
ATOM     35  C   UNL A   1      42.466  30.176  35.077  1.00  0.00     0.074 A 
ATOM     36  C   UNL A   1      42.745  30.670  36.410  1.00  0.00     0.031 C 
ATOM     37  C   UNL A   1      43.155  29.180  34.467  1.00  0.00     0.034 A 
BRANCH  24  38
ATOM     38  C   UNL A   1      40.923  27.552  28.932  1.00  0.00     0.023 A 
ATOM     39  C   UNL A   1      40.047  26.448  28.880  1.00  0.00     0.012 A 
ATOM     40  C   UNL A   1      41.821  27.768  27.868  1.00  0.00     0.148 A 
ATOM     41  C   UNL A   1      40.101  25.547  27.818  1.00  0.00     0.002 A 
ATOM     42  C   UNL A   1      41.835  26.893  26.788  1.00  0.00     0.091 A 
ATOM     43  F   UNL A   1      42.660  28.811  27.938  1.00  0.00    -0.205 F 
ATOM     44  C   UNL A   1      40.987  25.774  26.768  1.00  0.00     0.022 A 
BRANCH  42  45
ATOM     45  S   UNL A   1      42.885  27.150  25.354  1.00  0.00     0.127 S 
ATOM     46  O   UNL A   1      44.191  27.354  25.978  1.00  0.00    -0.237 OA
ATOM     47  O   UNL A   1      42.745  25.882  24.636  1.00  0.00    -0.237 OA
ATOM     48  O   UNL A   1      42.333  28.302  24.657  1.00  0.00    -0.744 OA
ENDBRANCH  42  45
ENDBRANCH  24  38
BRANCH  25  49
ATOM     49  C   UNL A   1      39.758  33.668  36.742  1.00  0.00     0.023 A 
ATOM     50  C   UNL A   1      40.104  35.031  36.713  1.00  0.00     0.012 A 
ATOM     51  C   UNL A   1      39.083  33.149  37.865  1.00  0.00     0.148 A 
ATOM     52  C   UNL A   1      39.793  35.862  37.790  1.00  0.00     0.002 A 
ATOM     53  C   UNL A   1      38.725  33.994  38.907  1.00  0.00     0.091 A 
ATOM     54  F   UNL A   1      38.766  31.847  37.867  1.00  0.00    -0.205 F 
ATOM     55  C   UNL A   1      39.092  35.347  38.878  1.00  0.00     0.022 A 
BRANCH  53  56
ATOM     56  S   UNL A   1      37.699  33.455  40.280  1.00  0.00     0.127 S 
ATOM     57  O   UNL A   1      38.492  32.360  40.833  1.00  0.00    -0.237 OA
ATOM     58  O   UNL A   1      37.651  34.661  41.107  1.00  0.00    -0.237 OA
ATOM     59  O   UNL A   1      36.422  33.072  39.695  1.00  0.00    -0.744 OA
ENDBRANCH  53  56
ENDBRANCH  25  49
BRANCH  37  60
ATOM     60  C   UNL A   1      44.324  28.578  35.201  1.00  0.00     0.023 A 
ATOM     61  C   UNL A   1      45.618  29.107  35.029  1.00  0.00     0.012 A 
ATOM     62  C   UNL A   1      44.110  27.561  36.153  1.00  0.00     0.148 A 
ATOM     63  C   UNL A   1      46.684  28.623  35.787  1.00  0.00     0.002 A 
ATOM     64  C   UNL A   1      45.166  27.121  36.939  1.00  0.00     0.091 A 
ATOM     65  F   UNL A   1      42.873  27.060  36.283  1.00  0.00    -0.205 F 
ATOM     66  C   UNL A   1      46.456  27.643  36.751  1.00  0.00     0.022 A 
BRANCH  64  67
ATOM     67  S   UNL A   1      44.948  25.939  38.275  1.00  0.00     0.127 S 
ATOM     68  O   UNL A   1      43.802  26.502  38.986  1.00  0.00    -0.237 OA
ATOM     69  O   UNL A   1      44.667  24.701  37.547  1.00  0.00    -0.237 OA
ATOM     70  O   UNL A   1      46.199  25.935  39.021  1.00  0.00    -0.744 OA
ENDBRANCH  64  67
ENDBRANCH  37  60
ENDBRANCH  11  12
ENDBRANCH   4   6
ENDBRANCH   1   2
BRANCH   1  71
ATOM     71  C   UNL A   1      31.467  31.942  26.537  1.00  0.00     0.042 C 
BRANCH  71  72
ATOM     72  C   UNL A   1      31.586  30.498  26.077  1.00  0.00     0.118 C 
BRANCH  72  73
ATOM     73  N   UNL A   1      31.049  30.287  24.741  1.00  0.00    -0.351 N 
ATOM     74  C   UNL A   1      31.104  29.167  23.941  1.00  0.00     0.269 C 
ATOM     75  H   UNL A   1      30.577  31.059  24.352  1.00  0.00     0.163 HD
ATOM     76  O   UNL A   1      30.687  29.231  22.786  1.00  0.00    -0.268 OA
BRANCH  74  77
ATOM     77  C   UNL A   1      31.631  27.888  24.492  1.00  0.00     0.128 A 
ATOM     78  C   UNL A   1      30.771  27.010  25.140  1.00  0.00     0.035 A 
ATOM     79  N   UNL A   1      32.953  27.650  24.318  1.00  0.00    -0.250 NA
ATOM     80  C   UNL A   1      31.309  25.857  25.702  1.00  0.00     0.013 A 
ATOM     81  C   UNL A   1      33.436  26.503  24.851  1.00  0.00     0.120 A 
ATOM     82  C   UNL A   1      32.676  25.576  25.567  1.00  0.00     0.000 A 
BRANCH  82  83
ATOM     83  C   UNL A   1      33.261  24.369  26.157  1.00  0.00    -0.014 A 
ATOM     84  C   UNL A   1      34.593  24.021  25.904  1.00  0.00     0.029 A 
ATOM     85  C   UNL A   1      32.504  23.510  26.961  1.00  0.00     0.029 A 
ATOM     86  C   UNL A   1      35.099  22.853  26.449  1.00  0.00     0.111 A 
ATOM     87  C   UNL A   1      33.098  22.360  27.459  1.00  0.00     0.111 A 
ATOM     88  N   UNL A   1      34.380  22.014  27.223  1.00  0.00    -0.265 NA
ENDBRANCH  82  83
ENDBRANCH  74  77
ENDBRANCH  72  73
ENDBRANCH  71  72
ENDBRANCH   1  71
TORSDOF 14
ENDMDL
