MODEL 1
REMARK VINA RESULT:     -13.6      0.000      0.000
REMARK SMILES C[C@]1(O)CC[C@@H]2[C@H]3CCC4=C/C(=N/OCC(=O)NCCCNC(=O)c5ccc(-c6c7nc(c(-c8cccc(S(=O)(=O)[O-])c8F)c8ccc([nH]8)c(-c8cccc(S(=O)(=O)[O-])c8F)c8nc(c(-c9cccc(S(=O)(=O)[O-])c9F)c9ccc6[nH]9)C=C8)C=C7)cc5)CC[C@@]4(C)[C@@H]3CC[C@]21C
REMARK SMILES IDX 20 1 19 2 18 3 16 4 17 5 15 7 14 8 13 9 1 10 2 11 4 12 95 13
REMARK SMILES IDX 5 14 6 15 94 16 96 17 7 18 93 19 8 20 92 21 9 22 90 23 10 24
REMARK SMILES IDX 89 25 91 26 11 27 88 28 12 29 3 30 21 32 22 33 23 34 24 36
REMARK SMILES IDX 25 37 26 38 87 39 27 40 86 41 28 42 29 43 30 44 80 45 31 46
REMARK SMILES IDX 85 47 79 48 81 49 32 50 84 51 78 52 77 53 33 55 65 56 45 57
REMARK SMILES IDX 64 58 46 59 49 60 63 61 82 62 47 63 48 64 62 66 83 67 50 68
REMARK SMILES IDX 34 69 35 70 43 71 36 72 38 73 44 74 37 75 39 76 40 77 41 78
REMARK SMILES IDX 42 79 66 80 67 81 75 82 68 83 70 84 76 85 69 86 71 87 72 88
REMARK SMILES IDX 73 89 74 90 51 91 52 92 60 93 53 94 55 95 61 96 54 97 56 98
REMARK SMILES IDX 57 99 58 100 59 101
REMARK H PARENT 18 6 3 31 22 35 81 54 49 65
REMARK Flexibility Score: inf
ROOT
ATOM      1  C   UNL A   1      31.570  31.944  26.493  1.00  0.00     0.042 C 
ENDROOT
BRANCH   1   2
ATOM      2  C   UNL A   1      31.866  30.562  25.918  1.00  0.00     0.117 C 
BRANCH   2   3
ATOM      3  N   UNL A   1      30.949  30.179  24.863  1.00  0.00    -0.353 N 
ATOM      4  C   UNL A   1      31.193  29.393  23.772  1.00  0.00     0.260 C 
ATOM      5  O   UNL A   1      30.255  29.151  23.006  1.00  0.00    -0.271 OA
ATOM      6  H   UNL A   1      30.032  30.529  24.943  1.00  0.00     0.163 HD
BRANCH   4   7
ATOM      7  C   UNL A   1      32.569  28.740  23.587  1.00  0.00     0.363 C 
BRANCH   7   8
ATOM      8  O   UNL A   1      32.653  27.400  23.137  1.00  0.00    -0.385 OA
BRANCH   8   9
ATOM      9  N   UNL A   1      33.662  26.739  23.839  1.00  0.00    -0.091 NA
ATOM     10  C   UNL A   1      34.144  16.077  25.284  1.00  0.00     0.042 C 
ATOM     11  C   UNL A   1      34.164  17.178  24.200  1.00  0.00     0.068 C 
ATOM     12  C   UNL A   1      35.643  17.580  24.023  1.00  0.00     0.036 C 
ATOM     13  C   UNL A   1      33.422  18.531  24.559  1.00  0.00    -0.001 C 
ATOM     14  C   UNL A   1      35.826  18.706  25.041  1.00  0.00     0.007 C 
ATOM     15  C   UNL A   1      34.605  19.531  24.701  1.00  0.00     0.001 C 
ATOM     16  C   UNL A   1      32.538  19.217  23.485  1.00  0.00     0.010 C 
ATOM     17  C   UNL A   1      32.528  18.324  25.808  1.00  0.00     0.015 C 
ATOM     18  C   UNL A   1      34.208  20.779  25.467  1.00  0.00    -0.003 C 
ATOM     19  C   UNL A   1      32.089  20.647  23.934  1.00  0.00     0.005 C 
ATOM     20  C   UNL A   1      35.414  21.656  25.819  1.00  0.00     0.008 C 
ATOM     21  C   UNL A   1      33.208  21.556  24.548  1.00  0.00     0.002 C 
ATOM     22  C   UNL A   1      34.973  22.942  26.505  1.00  0.00     0.032 C 
ATOM     23  C   UNL A   1      32.711  22.890  25.221  1.00  0.00    -0.008 C 
ATOM     24  C   UNL A   1      33.957  23.682  25.665  1.00  0.00    -0.062 C 
ATOM     25  C   UNL A   1      31.874  23.699  24.183  1.00  0.00     0.018 C 
ATOM     26  C   UNL A   1      31.826  22.631  26.461  1.00  0.00     0.016 C 
ATOM     27  C   UNL A   1      34.202  24.956  25.314  1.00  0.00     0.027 C 
ATOM     28  C   UNL A   1      31.807  25.189  24.500  1.00  0.00     0.061 C 
ATOM     29  C   UNL A   1      33.224  25.709  24.500  1.00  0.00     0.080 C 
BRANCH  11  30
ATOM     30  O   UNL A   1      33.660  16.608  23.000  1.00  0.00    -0.390 OA
ATOM     31  H   UNL A   1      33.974  15.693  22.919  1.00  0.00     0.211 HD
ENDBRANCH  11  30
ENDBRANCH   8   9
ENDBRANCH   7   8
ENDBRANCH   4   7
ENDBRANCH   2   3
ENDBRANCH   1   2
BRANCH   1  32
ATOM     32  C   UNL A   1      32.728  32.572  27.262  1.00  0.00     0.118 C 
BRANCH  32  33
ATOM     33  N   UNL A   1      32.478  33.961  27.632  1.00  0.00    -0.352 N 
ATOM     34  C   UNL A   1      33.059  34.736  28.604  1.00  0.00     0.251 C 
ATOM     35  H   UNL A   1      31.783  34.412  27.102  1.00  0.00     0.163 HD
ATOM     36  O   UNL A   1      32.575  35.839  28.864  1.00  0.00    -0.269 OA
BRANCH  34  37
ATOM     37  C   UNL A   1      34.240  34.257  29.353  1.00  0.00     0.039 A 
ATOM     38  C   UNL A   1      34.057  33.724  30.634  1.00  0.00     0.014 A 
ATOM     39  C   UNL A   1      35.527  34.347  28.816  1.00  0.00     0.014 A 
ATOM     40  C   UNL A   1      35.151  33.218  31.341  1.00  0.00     0.010 A 
ATOM     41  C   UNL A   1      36.604  33.771  29.488  1.00  0.00     0.010 A 
ATOM     42  C   UNL A   1      36.429  33.201  30.759  1.00  0.00    -0.014 A 
BRANCH  42  43
ATOM     43  C   UNL A   1      37.586  32.571  31.449  1.00  0.00     0.031 A 
ATOM     44  C   UNL A   1      38.317  31.416  30.817  1.00  0.00     0.074 A 
ATOM     45  C   UNL A   1      37.926  32.983  32.687  1.00  0.00     0.049 A 
ATOM     46  N   UNL A   1      39.303  30.703  31.297  1.00  0.00    -0.248 NA
ATOM     47  C   UNL A   1      37.868  30.992  29.480  1.00  0.00     0.031 C 
ATOM     48  C   UNL A   1      37.252  34.045  33.439  1.00  0.00     0.029 A 
ATOM     49  N   UNL A   1      38.904  32.542  33.544  1.00  0.00    -0.354 N 
ATOM     50  C   UNL A   1      39.569  29.728  30.343  1.00  0.00     0.074 A 
ATOM     51  C   UNL A   1      38.619  29.920  29.269  1.00  0.00     0.031 C 
ATOM     52  C   UNL A   1      37.840  34.176  34.638  1.00  0.00     0.029 A 
ATOM     53  C   UNL A   1      38.904  33.184  34.760  1.00  0.00     0.049 A 
ATOM     54  H   UNL A   1      39.544  31.831  33.309  1.00  0.00     0.167 HD
ATOM     55  C   UNL A   1      40.533  28.776  30.346  1.00  0.00     0.034 A 
ATOM     56  C   UNL A   1      39.664  32.990  35.856  1.00  0.00     0.034 A 
ATOM     57  C   UNL A   1      41.496  28.606  31.401  1.00  0.00     0.049 A 
ATOM     58  C   UNL A   1      40.737  31.935  35.827  1.00  0.00     0.074 A 
ATOM     59  C   UNL A   1      42.560  27.721  31.458  1.00  0.00     0.029 A 
ATOM     60  N   UNL A   1      41.508  29.323  32.587  1.00  0.00    -0.354 N 
ATOM     61  N   UNL A   1      41.068  31.122  34.853  1.00  0.00    -0.248 NA
ATOM     62  C   UNL A   1      41.564  31.794  37.034  1.00  0.00     0.031 C 
ATOM     63  C   UNL A   1      43.194  27.881  32.695  1.00  0.00     0.029 A 
ATOM     64  C   UNL A   1      42.552  28.892  33.390  1.00  0.00     0.049 A 
ATOM     65  H   UNL A   1      40.870  30.033  32.823  1.00  0.00     0.167 HD
ATOM     66  C   UNL A   1      42.164  30.401  35.315  1.00  0.00     0.074 A 
ATOM     67  C   UNL A   1      42.452  30.888  36.649  1.00  0.00     0.031 C 
ATOM     68  C   UNL A   1      42.861  29.417  34.695  1.00  0.00     0.034 A 
BRANCH  55  69
ATOM     69  C   UNL A   1      40.623  27.866  29.147  1.00  0.00     0.023 A 
ATOM     70  C   UNL A   1      39.760  26.754  29.049  1.00  0.00     0.012 A 
ATOM     71  C   UNL A   1      41.512  28.143  28.091  1.00  0.00     0.148 A 
ATOM     72  C   UNL A   1      39.806  25.913  27.938  1.00  0.00     0.002 A 
ATOM     73  C   UNL A   1      41.519  27.327  26.964  1.00  0.00     0.091 A 
ATOM     74  F   UNL A   1      42.337  29.193  28.207  1.00  0.00    -0.205 F 
ATOM     75  C   UNL A   1      40.678  26.205  26.893  1.00  0.00     0.022 A 
BRANCH  73  76
ATOM     76  S   UNL A   1      42.544  27.664  25.528  1.00  0.00     0.127 S 
ATOM     77  O   UNL A   1      42.255  26.507  24.683  1.00  0.00    -0.237 OA
ATOM     78  O   UNL A   1      41.986  28.928  25.044  1.00  0.00    -0.237 OA
ATOM     79  O   UNL A   1      43.912  27.751  26.019  1.00  0.00    -0.744 OA
ENDBRANCH  73  76
ENDBRANCH  55  69
BRANCH  56  80
ATOM     80  C   UNL A   1      39.474  33.852  37.058  1.00  0.00     0.023 A 
ATOM     81  C   UNL A   1      39.940  35.181  37.037  1.00  0.00     0.012 A 
ATOM     82  C   UNL A   1      38.821  33.370  38.209  1.00  0.00     0.148 A 
ATOM     83  C   UNL A   1      39.791  36.004  38.154  1.00  0.00     0.002 A 
ATOM     84  C   UNL A   1      38.627  34.213  39.298  1.00  0.00     0.091 A 
ATOM     85  F   UNL A   1      38.394  32.100  38.213  1.00  0.00    -0.205 F 
ATOM     86  C   UNL A   1      39.127  35.524  39.279  1.00  0.00     0.022 A 
BRANCH  84  87
ATOM     87  S   UNL A   1      37.672  33.723  40.738  1.00  0.00     0.127 S 
ATOM     88  O   UNL A   1      38.591  32.805  41.408  1.00  0.00    -0.237 OA
ATOM     89  O   UNL A   1      37.476  35.004  41.419  1.00  0.00    -0.237 OA
ATOM     90  O   UNL A   1      36.450  33.125  40.219  1.00  0.00    -0.744 OA
ENDBRANCH  84  87
ENDBRANCH  56  80
BRANCH  68  91
ATOM     91  C   UNL A   1      44.037  28.823  35.427  1.00  0.00     0.023 A 
ATOM     92  C   UNL A   1      45.324  29.371  35.259  1.00  0.00     0.012 A 
ATOM     93  C   UNL A   1      43.850  27.766  36.341  1.00  0.00     0.148 A 
ATOM     94  C   UNL A   1      46.411  28.855  35.964  1.00  0.00     0.002 A 
ATOM     95  C   UNL A   1      44.929  27.292  37.077  1.00  0.00     0.091 A 
ATOM     96  F   UNL A   1      42.621  27.246  36.474  1.00  0.00    -0.205 F 
ATOM     97  C   UNL A   1      46.212  27.826  36.879  1.00  0.00     0.022 A 
BRANCH  95  98
ATOM     98  S   UNL A   1      44.751  26.037  38.351  1.00  0.00     0.127 S 
ATOM     99  O   UNL A   1      44.022  26.767  39.387  1.00  0.00    -0.237 OA
ATOM    100  O   UNL A   1      43.970  25.009  37.663  1.00  0.00    -0.237 OA
ATOM    101  O   UNL A   1      46.104  25.632  38.710  1.00  0.00    -0.744 OA
ENDBRANCH  95  98
ENDBRANCH  68  91
ENDBRANCH  42  43
ENDBRANCH  34  37
ENDBRANCH  32  33
ENDBRANCH   1  32
TORSDOF 16
ENDMDL
MODEL 2
REMARK VINA RESULT:     -13.5      3.267      8.287
REMARK SMILES C[C@]1(O)CC[C@@H]2[C@H]3CCC4=C/C(=N/OCC(=O)NCCCNC(=O)c5ccc(-c6c7nc(c(-c8cccc(S(=O)(=O)[O-])c8F)c8ccc([nH]8)c(-c8cccc(S(=O)(=O)[O-])c8F)c8nc(c(-c9cccc(S(=O)(=O)[O-])c9F)c9ccc6[nH]9)C=C8)C=C7)cc5)CC[C@@]4(C)[C@@H]3CC[C@]21C
REMARK SMILES IDX 20 1 19 2 18 3 16 4 17 5 15 7 14 8 13 9 1 10 2 11 4 12 95 13
REMARK SMILES IDX 5 14 6 15 94 16 96 17 7 18 93 19 8 20 92 21 9 22 90 23 10 24
REMARK SMILES IDX 89 25 91 26 11 27 88 28 12 29 3 30 21 32 22 33 23 34 24 36
REMARK SMILES IDX 25 37 26 38 87 39 27 40 86 41 28 42 29 43 30 44 80 45 31 46
REMARK SMILES IDX 85 47 79 48 81 49 32 50 84 51 78 52 77 53 33 55 65 56 45 57
REMARK SMILES IDX 64 58 46 59 49 60 63 61 82 62 47 63 48 64 62 66 83 67 50 68
REMARK SMILES IDX 34 69 35 70 43 71 36 72 38 73 44 74 37 75 39 76 40 77 41 78
REMARK SMILES IDX 42 79 66 80 67 81 75 82 68 83 70 84 76 85 69 86 71 87 72 88
REMARK SMILES IDX 73 89 74 90 51 91 52 92 60 93 53 94 55 95 61 96 54 97 56 98
REMARK SMILES IDX 57 99 58 100 59 101
REMARK H PARENT 18 6 3 31 22 35 81 54 49 65
REMARK Flexibility Score: inf
ROOT
ATOM      1  C   UNL A   1      33.196  28.267  25.902  1.00  0.00     0.042 C 
ENDROOT
BRANCH   1   2
ATOM      2  C   UNL A   1      33.149  29.382  24.861  1.00  0.00     0.117 C 
BRANCH   2   3
ATOM      3  N   UNL A   1      32.022  29.266  23.958  1.00  0.00    -0.353 N 
ATOM      4  C   UNL A   1      32.005  28.772  22.683  1.00  0.00     0.260 C 
ATOM      5  O   UNL A   1      30.922  28.722  22.092  1.00  0.00    -0.271 OA
ATOM      6  H   UNL A   1      31.158  29.582  24.307  1.00  0.00     0.163 HD
BRANCH   4   7
ATOM      7  C   UNL A   1      33.284  28.190  22.066  1.00  0.00     0.363 C 
BRANCH   7   8
ATOM      8  O   UNL A   1      33.317  26.829  21.679  1.00  0.00    -0.385 OA
BRANCH   8   9
ATOM      9  N   UNL A   1      34.312  26.167  22.400  1.00  0.00    -0.091 NA
ATOM     10  C   UNL A   1      33.724  15.917  25.655  1.00  0.00     0.042 C 
ATOM     11  C   UNL A   1      33.757  16.813  24.397  1.00  0.00     0.068 C 
ATOM     12  C   UNL A   1      35.245  16.984  24.030  1.00  0.00     0.036 C 
ATOM     13  C   UNL A   1      33.215  18.292  24.573  1.00  0.00    -0.001 C 
ATOM     14  C   UNL A   1      35.661  18.230  24.816  1.00  0.00     0.007 C 
ATOM     15  C   UNL A   1      34.512  19.139  24.437  1.00  0.00     0.001 C 
ATOM     16  C   UNL A   1      32.308  18.900  23.471  1.00  0.00     0.010 C 
ATOM     17  C   UNL A   1      32.437  18.411  25.908  1.00  0.00     0.015 C 
ATOM     18  C   UNL A   1      34.342  20.537  25.001  1.00  0.00    -0.003 C 
ATOM     19  C   UNL A   1      32.074  20.431  23.696  1.00  0.00     0.005 C 
ATOM     20  C   UNL A   1      35.670  21.295  25.093  1.00  0.00     0.008 C 
ATOM     21  C   UNL A   1      33.347  21.276  24.047  1.00  0.00     0.002 C 
ATOM     22  C   UNL A   1      35.451  22.723  25.576  1.00  0.00     0.032 C 
ATOM     23  C   UNL A   1      33.078  22.755  24.512  1.00  0.00    -0.008 C 
ATOM     24  C   UNL A   1      34.445  23.441  24.706  1.00  0.00    -0.062 C 
ATOM     25  C   UNL A   1      32.235  23.483  23.421  1.00  0.00     0.018 C 
ATOM     26  C   UNL A   1      32.302  22.821  25.847  1.00  0.00     0.016 C 
ATOM     27  C   UNL A   1      34.795  24.596  24.117  1.00  0.00     0.027 C 
ATOM     28  C   UNL A   1      32.372  25.002  23.475  1.00  0.00     0.061 C 
ATOM     29  C   UNL A   1      33.830  25.326  23.266  1.00  0.00     0.080 C 
BRANCH  11  30
ATOM     30  O   UNL A   1      33.070  16.123  23.362  1.00  0.00    -0.390 OA
ATOM     31  H   UNL A   1      32.121  16.317  23.417  1.00  0.00     0.211 HD
ENDBRANCH  11  30
ENDBRANCH   8   9
ENDBRANCH   7   8
ENDBRANCH   4   7
ENDBRANCH   2   3
ENDBRANCH   1   2
BRANCH   1  32
ATOM     32  C   UNL A   1      33.264  28.751  27.348  1.00  0.00     0.118 C 
BRANCH  32  33
ATOM     33  N   UNL A   1      33.420  30.198  27.455  1.00  0.00    -0.352 N 
ATOM     34  C   UNL A   1      34.449  30.941  27.976  1.00  0.00     0.251 C 
ATOM     35  H   UNL A   1      32.669  30.723  27.098  1.00  0.00     0.163 HD
ATOM     36  O   UNL A   1      34.300  32.155  28.124  1.00  0.00    -0.269 OA
BRANCH  34  37
ATOM     37  C   UNL A   1      35.720  30.302  28.380  1.00  0.00     0.039 A 
ATOM     38  C   UNL A   1      36.812  30.361  27.508  1.00  0.00     0.014 A 
ATOM     39  C   UNL A   1      35.840  29.628  29.598  1.00  0.00     0.014 A 
ATOM     40  C   UNL A   1      38.039  29.809  27.889  1.00  0.00     0.010 A 
ATOM     41  C   UNL A   1      37.081  29.148  30.009  1.00  0.00     0.010 A 
ATOM     42  C   UNL A   1      38.195  29.232  29.159  1.00  0.00    -0.014 A 
BRANCH  42  43
ATOM     43  C   UNL A   1      39.517  28.736  29.627  1.00  0.00     0.031 A 
ATOM     44  C   UNL A   1      40.262  29.455  30.719  1.00  0.00     0.074 A 
ATOM     45  C   UNL A   1      40.088  27.683  29.006  1.00  0.00     0.049 A 
ATOM     46  N   UNL A   1      41.449  29.207  31.210  1.00  0.00    -0.248 NA
ATOM     47  C   UNL A   1      39.596  30.620  31.326  1.00  0.00     0.031 C 
ATOM     48  C   UNL A   1      39.503  26.942  27.887  1.00  0.00     0.029 A 
ATOM     49  N   UNL A   1      41.301  27.071  29.209  1.00  0.00    -0.354 N 
ATOM     50  C   UNL A   1      41.687  30.198  32.153  1.00  0.00     0.074 A 
ATOM     51  C   UNL A   1      40.535  31.073  32.145  1.00  0.00     0.031 C 
ATOM     52  C   UNL A   1      40.351  25.974  27.507  1.00  0.00     0.029 A 
ATOM     53  C   UNL A   1      41.557  26.048  28.326  1.00  0.00     0.049 A 
ATOM     54  H   UNL A   1      41.927  27.340  29.919  1.00  0.00     0.167 HD
ATOM     55  C   UNL A   1      42.756  30.354  32.972  1.00  0.00     0.034 A 
ATOM     56  C   UNL A   1      42.645  25.266  28.180  1.00  0.00     0.034 A 
ATOM     57  C   UNL A   1      43.886  29.466  33.001  1.00  0.00     0.049 A 
ATOM     58  C   UNL A   1      43.811  25.450  29.113  1.00  0.00     0.074 A 
ATOM     59  C   UNL A   1      44.980  29.494  33.850  1.00  0.00     0.029 A 
ATOM     60  N   UNL A   1      44.079  28.398  32.138  1.00  0.00    -0.354 N 
ATOM     61  N   UNL A   1      43.953  26.302  30.098  1.00  0.00    -0.248 NA
ATOM     62  C   UNL A   1      44.954  24.542  28.936  1.00  0.00     0.031 C 
ATOM     63  C   UNL A   1      45.850  28.464  33.476  1.00  0.00     0.029 A 
ATOM     64  C   UNL A   1      45.279  27.768  32.424  1.00  0.00     0.049 A 
ATOM     65  H   UNL A   1      43.454  28.127  31.429  1.00  0.00     0.167 HD
ATOM     66  C   UNL A   1      45.180  26.009  30.683  1.00  0.00     0.074 A 
ATOM     67  C   UNL A   1      45.733  24.888  29.952  1.00  0.00     0.031 C 
ATOM     68  C   UNL A   1      45.798  26.622  31.722  1.00  0.00     0.034 A 
BRANCH  55  69
ATOM     69  C   UNL A   1      42.734  31.509  33.941  1.00  0.00     0.023 A 
ATOM     70  C   UNL A   1      43.315  32.740  33.572  1.00  0.00     0.012 A 
ATOM     71  C   UNL A   1      42.085  31.400  35.187  1.00  0.00     0.148 A 
ATOM     72  C   UNL A   1      43.284  33.830  34.440  1.00  0.00     0.002 A 
ATOM     73  C   UNL A   1      42.017  32.505  36.028  1.00  0.00     0.091 A 
ATOM     74  F   UNL A   1      41.553  30.218  35.529  1.00  0.00    -0.205 F 
ATOM     75  C   UNL A   1      42.628  33.716  35.662  1.00  0.00     0.022 A 
BRANCH  73  76
ATOM     76  S   UNL A   1      41.123  32.487  37.585  1.00  0.00     0.127 S 
ATOM     77  O   UNL A   1      41.002  33.915  37.872  1.00  0.00    -0.237 OA
ATOM     78  O   UNL A   1      39.869  31.832  37.211  1.00  0.00    -0.237 OA
ATOM     79  O   UNL A   1      41.950  31.732  38.516  1.00  0.00    -0.744 OA
ENDBRANCH  73  76
ENDBRANCH  55  69
BRANCH  56  80
ATOM     80  C   UNL A   1      42.661  24.196  27.140  1.00  0.00     0.023 A 
ATOM     81  C   UNL A   1      43.317  24.432  25.916  1.00  0.00     0.012 A 
ATOM     82  C   UNL A   1      42.049  22.948  27.363  1.00  0.00     0.148 A 
ATOM     83  C   UNL A   1      43.332  23.457  24.918  1.00  0.00     0.002 A 
ATOM     84  C   UNL A   1      42.116  21.961  26.387  1.00  0.00     0.091 A 
ATOM     85  F   UNL A   1      41.421  22.747  28.530  1.00  0.00    -0.205 F 
ATOM     86  C   UNL A   1      42.741  22.219  25.157  1.00  0.00     0.022 A 
BRANCH  84  87
ATOM     87  S   UNL A   1      41.495  20.296  26.654  1.00  0.00     0.127 S 
ATOM     88  O   UNL A   1      42.203  19.904  27.869  1.00  0.00    -0.237 OA
ATOM     89  O   UNL A   1      40.060  20.535  26.825  1.00  0.00    -0.237 OA
ATOM     90  O   UNL A   1      41.840  19.547  25.453  1.00  0.00    -0.744 OA
ENDBRANCH  84  87
ENDBRANCH  56  80
BRANCH  68  91
ATOM     91  C   UNL A   1      47.127  26.070  32.172  1.00  0.00     0.023 A 
ATOM     92  C   UNL A   1      48.320  26.538  31.587  1.00  0.00     0.012 A 
ATOM     93  C   UNL A   1      47.194  25.141  33.230  1.00  0.00     0.148 A 
ATOM     94  C   UNL A   1      49.556  26.064  32.025  1.00  0.00     0.002 A 
ATOM     95  C   UNL A   1      48.431  24.714  33.695  1.00  0.00     0.091 A 
ATOM     96  F   UNL A   1      46.046  24.695  33.762  1.00  0.00    -0.205 F 
ATOM     97  C   UNL A   1      49.612  25.164  33.085  1.00  0.00     0.022 A 
BRANCH  95  98
ATOM     98  S   UNL A   1      48.606  23.632  35.119  1.00  0.00     0.127 S 
ATOM     99  O   UNL A   1      47.779  24.314  36.113  1.00  0.00    -0.237 OA
ATOM    100  O   UNL A   1      48.049  22.375  34.621  1.00  0.00    -0.237 OA
ATOM    101  O   UNL A   1      50.031  23.586  35.420  1.00  0.00    -0.744 OA
ENDBRANCH  95  98
ENDBRANCH  68  91
ENDBRANCH  42  43
ENDBRANCH  34  37
ENDBRANCH  32  33
ENDBRANCH   1  32
TORSDOF 16
ENDMDL
MODEL 3
REMARK VINA RESULT:     -13.4      1.753      2.492
REMARK SMILES C[C@]1(O)CC[C@@H]2[C@H]3CCC4=C/C(=N/OCC(=O)NCCCNC(=O)c5ccc(-c6c7nc(c(-c8cccc(S(=O)(=O)[O-])c8F)c8ccc([nH]8)c(-c8cccc(S(=O)(=O)[O-])c8F)c8nc(c(-c9cccc(S(=O)(=O)[O-])c9F)c9ccc6[nH]9)C=C8)C=C7)cc5)CC[C@@]4(C)[C@@H]3CC[C@]21C
REMARK SMILES IDX 20 1 19 2 18 3 16 4 17 5 15 7 14 8 13 9 1 10 2 11 4 12 95 13
REMARK SMILES IDX 5 14 6 15 94 16 96 17 7 18 93 19 8 20 92 21 9 22 90 23 10 24
REMARK SMILES IDX 89 25 91 26 11 27 88 28 12 29 3 30 21 32 22 33 23 34 24 36
REMARK SMILES IDX 25 37 26 38 87 39 27 40 86 41 28 42 29 43 30 44 80 45 31 46
REMARK SMILES IDX 85 47 79 48 81 49 32 50 84 51 78 52 77 53 33 55 65 56 45 57
REMARK SMILES IDX 64 58 46 59 49 60 63 61 82 62 47 63 48 64 62 66 83 67 50 68
REMARK SMILES IDX 34 69 35 70 43 71 36 72 38 73 44 74 37 75 39 76 40 77 41 78
REMARK SMILES IDX 42 79 66 80 67 81 75 82 68 83 70 84 76 85 69 86 71 87 72 88
REMARK SMILES IDX 73 89 74 90 51 91 52 92 60 93 53 94 55 95 61 96 54 97 56 98
REMARK SMILES IDX 57 99 58 100 59 101
REMARK H PARENT 18 6 3 31 22 35 81 54 49 65
REMARK Flexibility Score: inf
ROOT
ATOM      1  C   UNL A   1      31.065  31.951  26.613  1.00  0.00     0.042 C 
ENDROOT
BRANCH   1   2
ATOM      2  C   UNL A   1      30.898  31.209  25.291  1.00  0.00     0.117 C 
BRANCH   2   3
ATOM      3  N   UNL A   1      29.641  31.502  24.631  1.00  0.00    -0.353 N 
ATOM      4  C   UNL A   1      29.118  30.925  23.508  1.00  0.00     0.260 C 
ATOM      5  O   UNL A   1      28.002  31.293  23.129  1.00  0.00    -0.271 OA
ATOM      6  H   UNL A   1      29.092  32.206  25.047  1.00  0.00     0.163 HD
BRANCH   4   7
ATOM      7  C   UNL A   1      29.859  29.771  22.820  1.00  0.00     0.363 C 
BRANCH   7   8
ATOM      8  O   UNL A   1      30.000  28.532  23.491  1.00  0.00    -0.385 OA
BRANCH   8   9
ATOM      9  N   UNL A   1      30.281  27.531  22.559  1.00  0.00    -0.091 NA
ATOM     10  C   UNL A   1      34.351  17.861  24.994  1.00  0.00     0.042 C 
ATOM     11  C   UNL A   1      33.127  18.778  25.218  1.00  0.00     0.068 C 
ATOM     12  C   UNL A   1      32.145  18.471  24.068  1.00  0.00     0.036 C 
ATOM     13  C   UNL A   1      33.388  20.337  25.115  1.00  0.00    -0.001 C 
ATOM     14  C   UNL A   1      32.566  19.453  22.973  1.00  0.00     0.007 C 
ATOM     15  C   UNL A   1      32.638  20.714  23.806  1.00  0.00     0.001 C 
ATOM     16  C   UNL A   1      32.732  21.284  26.154  1.00  0.00     0.010 C 
ATOM     17  C   UNL A   1      34.912  20.618  25.154  1.00  0.00     0.015 C 
ATOM     18  C   UNL A   1      33.097  22.049  23.249  1.00  0.00    -0.003 C 
ATOM     19  C   UNL A   1      32.902  22.787  25.754  1.00  0.00     0.005 C 
ATOM     20  C   UNL A   1      32.546  22.317  21.846  1.00  0.00     0.008 C 
ATOM     21  C   UNL A   1      32.600  23.137  24.257  1.00  0.00     0.002 C 
ATOM     22  C   UNL A   1      32.950  23.701  21.355  1.00  0.00     0.032 C 
ATOM     23  C   UNL A   1      33.005  24.587  23.799  1.00  0.00    -0.008 C 
ATOM     24  C   UNL A   1      32.535  24.768  22.343  1.00  0.00    -0.062 C 
ATOM     25  C   UNL A   1      32.321  25.625  24.741  1.00  0.00     0.018 C 
ATOM     26  C   UNL A   1      34.533  24.818  23.854  1.00  0.00     0.016 C 
ATOM     27  C   UNL A   1      31.755  25.778  21.925  1.00  0.00     0.027 C 
ATOM     28  C   UNL A   1      32.180  27.006  24.107  1.00  0.00     0.061 C 
ATOM     29  C   UNL A   1      31.339  26.842  22.865  1.00  0.00     0.080 C 
BRANCH  11  30
ATOM     30  O   UNL A   1      32.549  18.425  26.467  1.00  0.00    -0.390 OA
ATOM     31  H   UNL A   1      32.228  19.225  26.913  1.00  0.00     0.211 HD
ENDBRANCH  11  30
ENDBRANCH   8   9
ENDBRANCH   7   8
ENDBRANCH   4   7
ENDBRANCH   2   3
ENDBRANCH   1   2
BRANCH   1  32
ATOM     32  C   UNL A   1      32.468  32.495  26.862  1.00  0.00     0.118 C 
BRANCH  32  33
ATOM     33  N   UNL A   1      32.464  33.837  27.434  1.00  0.00    -0.352 N 
ATOM     34  C   UNL A   1      33.254  34.384  28.414  1.00  0.00     0.251 C 
ATOM     35  H   UNL A   1      31.790  34.447  27.057  1.00  0.00     0.163 HD
ATOM     36  O   UNL A   1      32.967  35.492  28.870  1.00  0.00    -0.269 OA
BRANCH  34  37
ATOM     37  C   UNL A   1      34.426  33.653  28.942  1.00  0.00     0.039 A 
ATOM     38  C   UNL A   1      35.700  34.205  28.770  1.00  0.00     0.014 A 
ATOM     39  C   UNL A   1      34.284  32.421  29.587  1.00  0.00     0.014 A 
ATOM     40  C   UNL A   1      36.817  33.558  29.305  1.00  0.00     0.010 A 
ATOM     41  C   UNL A   1      35.387  31.818  30.188  1.00  0.00     0.010 A 
ATOM     42  C   UNL A   1      36.667  32.379  30.053  1.00  0.00    -0.014 A 
BRANCH  42  43
ATOM     43  C   UNL A   1      37.828  31.733  30.722  1.00  0.00     0.031 A 
ATOM     44  C   UNL A   1      38.622  30.667  30.016  1.00  0.00     0.074 A 
ATOM     45  C   UNL A   1      38.116  32.047  32.001  1.00  0.00     0.049 A 
ATOM     46  N   UNL A   1      39.621  29.950  30.463  1.00  0.00    -0.248 NA
ATOM     47  C   UNL A   1      38.228  30.346  28.634  1.00  0.00     0.031 C 
ATOM     48  C   UNL A   1      37.380  33.012  32.821  1.00  0.00     0.029 A 
ATOM     49  N   UNL A   1      39.086  31.568  32.847  1.00  0.00    -0.354 N 
ATOM     50  C   UNL A   1      39.952  29.074  29.436  1.00  0.00     0.074 A 
ATOM     51  C   UNL A   1      39.026  29.325  28.354  1.00  0.00     0.031 C 
ATOM     52  C   UNL A   1      37.928  33.059  34.045  1.00  0.00     0.029 A 
ATOM     53  C   UNL A   1      39.026  32.100  34.114  1.00  0.00     0.049 A 
ATOM     54  H   UNL A   1      39.760  30.905  32.572  1.00  0.00     0.167 HD
ATOM     55  C   UNL A   1      40.952  28.161  29.387  1.00  0.00     0.034 A 
ATOM     56  C   UNL A   1      39.762  31.838  35.212  1.00  0.00     0.034 A 
ATOM     57  C   UNL A   1      41.891  27.934  30.453  1.00  0.00     0.049 A 
ATOM     58  C   UNL A   1      40.876  30.830  35.126  1.00  0.00     0.074 A 
ATOM     59  C   UNL A   1      42.987  27.088  30.467  1.00  0.00     0.029 A 
ATOM     60  N   UNL A   1      41.842  28.544  31.697  1.00  0.00    -0.354 N 
ATOM     61  N   UNL A   1      41.267  30.119  34.096  1.00  0.00    -0.248 NA
ATOM     62  C   UNL A   1      41.673  30.614  36.342  1.00  0.00     0.031 C 
ATOM     63  C   UNL A   1      43.579  27.161  31.733  1.00  0.00     0.029 A 
ATOM     64  C   UNL A   1      42.878  28.083  32.492  1.00  0.00     0.049 A 
ATOM     65  H   UNL A   1      41.170  29.207  31.974  1.00  0.00     0.167 HD
ATOM     66  C   UNL A   1      42.377  29.401  34.528  1.00  0.00     0.074 A 
ATOM     67  C   UNL A   1      42.607  29.778  35.908  1.00  0.00     0.031 C 
ATOM     68  C   UNL A   1      43.129  28.502  33.848  1.00  0.00     0.034 A 
BRANCH  55  69
ATOM     69  C   UNL A   1      41.112  27.364  28.117  1.00  0.00     0.023 A 
ATOM     70  C   UNL A   1      41.737  27.953  26.998  1.00  0.00     0.012 A 
ATOM     71  C   UNL A   1      40.704  26.018  28.049  1.00  0.00     0.148 A 
ATOM     72  C   UNL A   1      41.919  27.228  25.821  1.00  0.00     0.002 A 
ATOM     73  C   UNL A   1      40.932  25.286  26.888  1.00  0.00     0.091 A 
ATOM     74  F   UNL A   1      40.097  25.479  29.116  1.00  0.00    -0.205 F 
ATOM     75  C   UNL A   1      41.526  25.894  25.770  1.00  0.00     0.022 A 
BRANCH  73  76
ATOM     76  S   UNL A   1      40.540  23.539  26.749  1.00  0.00     0.127 S 
ATOM     77  O   UNL A   1      39.137  23.584  26.342  1.00  0.00    -0.237 OA
ATOM     78  O   UNL A   1      41.465  23.100  25.703  1.00  0.00    -0.237 OA
ATOM     79  O   UNL A   1      40.790  22.963  28.063  1.00  0.00    -0.744 OA
ENDBRANCH  73  76
ENDBRANCH  55  69
BRANCH  56  80
ATOM     80  C   UNL A   1      39.503  32.583  36.479  1.00  0.00     0.023 A 
ATOM     81  C   UNL A   1      40.200  33.781  36.730  1.00  0.00     0.012 A 
ATOM     82  C   UNL A   1      38.564  32.122  37.421  1.00  0.00     0.148 A 
ATOM     83  C   UNL A   1      39.991  34.489  37.914  1.00  0.00     0.002 A 
ATOM     84  C   UNL A   1      38.321  32.862  38.573  1.00  0.00     0.091 A 
ATOM     85  F   UNL A   1      37.919  30.975  37.168  1.00  0.00    -0.205 F 
ATOM     86  C   UNL A   1      39.046  34.035  38.830  1.00  0.00     0.022 A 
BRANCH  84  87
ATOM     87  S   UNL A   1      37.033  32.423  39.746  1.00  0.00     0.127 S 
ATOM     88  O   UNL A   1      35.854  32.356  38.886  1.00  0.00    -0.237 OA
ATOM     89  O   UNL A   1      37.507  31.131  40.244  1.00  0.00    -0.237 OA
ATOM     90  O   UNL A   1      37.027  33.485  40.743  1.00  0.00    -0.744 OA
ENDBRANCH  84  87
ENDBRANCH  56  80
BRANCH  68  91
ATOM     91  C   UNL A   1      44.306  27.889  34.562  1.00  0.00     0.023 A 
ATOM     92  C   UNL A   1      45.551  28.548  34.564  1.00  0.00     0.012 A 
ATOM     93  C   UNL A   1      44.155  26.694  35.294  1.00  0.00     0.148 A 
ATOM     94  C   UNL A   1      46.636  28.009  35.257  1.00  0.00     0.002 A 
ATOM     95  C   UNL A   1      45.225  26.192  36.024  1.00  0.00     0.091 A 
ATOM     96  F   UNL A   1      42.966  26.073  35.265  1.00  0.00    -0.205 F 
ATOM     97  C   UNL A   1      46.470  26.841  35.995  1.00  0.00     0.022 A 
BRANCH  95  98
ATOM     98  S   UNL A   1      45.079  24.748  37.083  1.00  0.00     0.127 S 
ATOM     99  O   UNL A   1      44.116  25.210  38.083  1.00  0.00    -0.237 OA
ATOM    100  O   UNL A   1      44.562  23.739  36.159  1.00  0.00    -0.237 OA
ATOM    101  O   UNL A   1      46.419  24.479  37.587  1.00  0.00    -0.744 OA
ENDBRANCH  95  98
ENDBRANCH  68  91
ENDBRANCH  42  43
ENDBRANCH  34  37
ENDBRANCH  32  33
ENDBRANCH   1  32
TORSDOF 16
ENDMDL
