MODEL 1
REMARK VINA RESULT:     -13.5      0.000      0.000
REMARK SMILES O=C(NCCCNC(=O)[C@H]1[C@H]2CC[C@H](C2)[C@@H]1C(=O)Nc1sc2c(c1C(=O)NC1CCCCC1)CCCC2)c1ccc(-c2c3nc(c(-c4cccc(S(=O)(=O)[O-])c4F)c4ccc([nH]4)c(-c4cccc(S(=O)(=O)[O-])c4F)c4nc(c(-c5cccc(S(=O)(=O)[O-])c5F)c5ccc2[nH]5)C=C4)C=C3)cc1
REMARK SMILES IDX 5 1 4 2 3 3 1 4 2 5 38 7 39 8 100 9 40 10 99 11 41 12 42 13
REMARK SMILES IDX 43 14 93 15 44 16 98 17 92 18 94 19 45 20 97 21 91 22 90 23
REMARK SMILES IDX 46 25 78 26 58 27 77 28 59 29 62 30 76 31 95 32 60 33 61 34
REMARK SMILES IDX 75 36 96 37 63 38 47 39 48 40 56 41 49 42 51 43 57 44 50 45
REMARK SMILES IDX 52 46 53 47 54 48 55 49 79 50 80 51 88 52 81 53 83 54 89 55
REMARK SMILES IDX 82 56 84 57 85 58 86 59 87 60 64 61 65 62 73 63 66 64 68 65
REMARK SMILES IDX 74 66 67 67 69 68 70 69 71 70 72 71 6 72 7 73 8 74 9 76
REMARK SMILES IDX 10 77 11 78 16 79 12 80 15 81 14 82 13 83 17 84 18 85 19 86
REMARK SMILES IDX 20 88 21 89 24 90 22 91 23 92 37 93 34 94 36 95 35 96 25 97
REMARK SMILES IDX 26 98 27 99 28 101 29 102 33 103 30 104 32 105 31 106
REMARK H PARENT 3 6 94 24 62 35 7 75 19 87 27 100
REMARK Flexibility Score: inf
ROOT
ATOM      1  C   UNL A   1      36.051  21.396  25.570  1.00  0.00     0.042 C 
ENDROOT
BRANCH   1   2
ATOM      2  C   UNL A   1      37.457  21.464  24.995  1.00  0.00     0.118 C 
BRANCH   2   3
ATOM      3  N   UNL A   1      38.319  20.427  25.540  1.00  0.00    -0.352 N 
ATOM      4  O   UNL A   1      40.249  19.569  26.316  1.00  0.00    -0.269 OA
ATOM      5  C   UNL A   1      39.532  20.562  26.159  1.00  0.00     0.251 C 
ATOM      6  H   UNL A   1      37.985  19.505  25.452  1.00  0.00     0.163 HD
BRANCH   5   7
ATOM      7  C   UNL A   1      39.969  21.889  26.633  1.00  0.00     0.039 A 
ATOM      8  C   UNL A   1      41.008  21.990  27.565  1.00  0.00     0.014 A 
ATOM      9  C   UNL A   1      39.371  23.041  26.119  1.00  0.00     0.014 A 
ATOM     10  C   UNL A   1      41.369  23.232  28.067  1.00  0.00     0.010 A 
ATOM     11  C   UNL A   1      39.809  24.297  26.549  1.00  0.00     0.010 A 
ATOM     12  C   UNL A   1      40.809  24.400  27.527  1.00  0.00    -0.014 A 
BRANCH  12  13
ATOM     13  C   UNL A   1      41.413  25.706  27.879  1.00  0.00     0.031 A 
ATOM     14  C   UNL A   1      40.651  26.748  28.642  1.00  0.00     0.074 A 
ATOM     15  C   UNL A   1      42.676  25.941  27.466  1.00  0.00     0.049 A 
ATOM     16  N   UNL A   1      41.048  27.937  29.015  1.00  0.00    -0.248 NA
ATOM     17  C   UNL A   1      39.269  26.427  29.035  1.00  0.00     0.031 C 
ATOM     18  C   UNL A   1      43.485  25.011  26.670  1.00  0.00     0.029 A 
ATOM     19  N   UNL A   1      43.496  27.025  27.637  1.00  0.00    -0.354 N 
ATOM     20  C   UNL A   1      39.958  28.525  29.643  1.00  0.00     0.074 A 
ATOM     21  C   UNL A   1      38.882  27.558  29.613  1.00  0.00     0.031 C 
ATOM     22  C   UNL A   1      44.685  25.556  26.435  1.00  0.00     0.029 A 
ATOM     23  C   UNL A   1      44.708  26.899  26.999  1.00  0.00     0.049 A 
ATOM     24  H   UNL A   1      43.243  27.816  28.165  1.00  0.00     0.167 HD
ATOM     25  C   UNL A   1      39.874  29.759  30.194  1.00  0.00     0.034 A 
ATOM     26  C   UNL A   1      45.712  27.780  26.844  1.00  0.00     0.034 A 
ATOM     27  C   UNL A   1      40.965  30.698  30.240  1.00  0.00     0.049 A 
ATOM     28  C   UNL A   1      45.581  29.133  27.476  1.00  0.00     0.074 A 
ATOM     29  C   UNL A   1      41.006  31.935  30.861  1.00  0.00     0.029 A 
ATOM     30  N   UNL A   1      42.194  30.522  29.624  1.00  0.00    -0.354 N 
ATOM     31  N   UNL A   1      44.605  29.608  28.211  1.00  0.00    -0.248 NA
ATOM     32  C   UNL A   1      46.698  30.067  27.279  1.00  0.00     0.031 C 
ATOM     33  C   UNL A   1      42.241  32.525  30.582  1.00  0.00     0.029 A 
ATOM     34  C   UNL A   1      42.987  31.640  29.820  1.00  0.00     0.049 A 
ATOM     35  H   UNL A   1      42.463  29.719  29.119  1.00  0.00     0.167 HD
ATOM     36  C   UNL A   1      44.996  30.888  28.578  1.00  0.00     0.074 A 
ATOM     37  C   UNL A   1      46.316  31.098  28.020  1.00  0.00     0.031 C 
ATOM     38  C   UNL A   1      44.314  31.817  29.291  1.00  0.00     0.034 A 
BRANCH  25  39
ATOM     39  C   UNL A   1      38.570  30.183  30.815  1.00  0.00     0.023 A 
ATOM     40  C   UNL A   1      38.333  29.940  32.183  1.00  0.00     0.012 A 
ATOM     41  C   UNL A   1      37.638  30.937  30.074  1.00  0.00     0.148 A 
ATOM     42  C   UNL A   1      37.183  30.433  32.801  1.00  0.00     0.002 A 
ATOM     43  C   UNL A   1      36.515  31.459  30.705  1.00  0.00     0.091 A 
ATOM     44  F   UNL A   1      37.876  31.141  28.771  1.00  0.00    -0.205 F 
ATOM     45  C   UNL A   1      36.283  31.202  32.066  1.00  0.00     0.022 A 
BRANCH  43  46
ATOM     46  S   UNL A   1      35.340  32.532  29.872  1.00  0.00     0.127 S 
ATOM     47  O   UNL A   1      34.362  32.777  30.932  1.00  0.00    -0.237 OA
ATOM     48  O   UNL A   1      36.170  33.686  29.530  1.00  0.00    -0.237 OA
ATOM     49  O   UNL A   1      34.840  31.777  28.732  1.00  0.00    -0.744 OA
ENDBRANCH  43  46
ENDBRANCH  25  39
BRANCH  26  50
ATOM     50  C   UNL A   1      46.918  27.410  26.051  1.00  0.00     0.023 A 
ATOM     51  C   UNL A   1      46.962  27.688  24.673  1.00  0.00     0.012 A 
ATOM     52  C   UNL A   1      48.026  26.789  26.662  1.00  0.00     0.148 A 
ATOM     53  C   UNL A   1      48.069  27.317  23.909  1.00  0.00     0.002 A 
ATOM     54  C   UNL A   1      49.151  26.482  25.909  1.00  0.00     0.091 A 
ATOM     55  F   UNL A   1      47.961  26.518  27.974  1.00  0.00    -0.205 F 
ATOM     56  C   UNL A   1      49.166  26.724  24.528  1.00  0.00     0.022 A 
BRANCH  54  57
ATOM     57  S   UNL A   1      50.657  25.851  26.658  1.00  0.00     0.127 S 
ATOM     58  O   UNL A   1      50.208  24.569  27.195  1.00  0.00    -0.237 OA
ATOM     59  O   UNL A   1      51.554  25.757  25.506  1.00  0.00    -0.237 OA
ATOM     60  O   UNL A   1      51.050  26.852  27.640  1.00  0.00    -0.744 OA
ENDBRANCH  54  57
ENDBRANCH  26  50
BRANCH  38  61
ATOM     61  C   UNL A   1      44.994  33.140  29.523  1.00  0.00     0.023 A 
ATOM     62  C   UNL A   1      45.783  33.327  30.675  1.00  0.00     0.012 A 
ATOM     63  C   UNL A   1      44.896  34.175  28.573  1.00  0.00     0.148 A 
ATOM     64  C   UNL A   1      46.434  34.539  30.899  1.00  0.00     0.002 A 
ATOM     65  C   UNL A   1      45.590  35.361  28.777  1.00  0.00     0.091 A 
ATOM     66  F   UNL A   1      44.127  33.982  27.493  1.00  0.00    -0.205 F 
ATOM     67  C   UNL A   1      46.347  35.550  29.945  1.00  0.00     0.022 A 
BRANCH  65  68
ATOM     68  S   UNL A   1      45.618  36.683  27.562  1.00  0.00     0.127 S 
ATOM     69  O   UNL A   1      44.235  37.157  27.606  1.00  0.00    -0.237 OA
ATOM     70  O   UNL A   1      46.598  37.607  28.133  1.00  0.00    -0.237 OA
ATOM     71  O   UNL A   1      46.024  36.069  26.305  1.00  0.00    -0.744 OA
ENDBRANCH  65  68
ENDBRANCH  38  61
ENDBRANCH  12  13
ENDBRANCH   5   7
ENDBRANCH   2   3
ENDBRANCH   1   2
BRANCH   1  72
ATOM     72  C   UNL A   1      34.969  21.634  24.524  1.00  0.00     0.117 C 
BRANCH  72  73
ATOM     73  N   UNL A   1      33.879  20.702  24.670  1.00  0.00    -0.356 N 
ATOM     74  C   UNL A   1      32.556  20.883  24.847  1.00  0.00     0.224 C 
ATOM     75  H   UNL A   1      34.152  19.756  24.634  1.00  0.00     0.163 HD
ATOM     76  O   UNL A   1      31.895  19.840  24.943  1.00  0.00    -0.275 OA
BRANCH  74  77
ATOM     77  C   UNL A   1      31.849  22.241  24.801  1.00  0.00     0.094 C 
ATOM     78  C   UNL A   1      31.334  22.505  26.261  1.00  0.00     0.002 C 
ATOM     79  C   UNL A   1      32.565  23.580  24.481  1.00  0.00     0.094 C 
ATOM     80  C   UNL A   1      32.493  22.702  27.262  1.00  0.00     0.005 C 
ATOM     81  C   UNL A   1      30.832  23.924  26.142  1.00  0.00     0.009 C 
ATOM     82  C   UNL A   1      32.182  24.475  25.679  1.00  0.00     0.002 C 
ATOM     83  C   UNL A   1      33.067  24.070  26.874  1.00  0.00     0.005 C 
BRANCH  79  84
ATOM     84  C   UNL A   1      32.371  24.160  23.052  1.00  0.00     0.229 C 
ATOM     85  O   UNL A   1      32.514  23.392  22.089  1.00  0.00    -0.274 OA
ATOM     86  N   UNL A   1      31.873  25.395  22.775  1.00  0.00    -0.317 N 
ATOM     87  H   UNL A   1      31.310  25.448  21.968  1.00  0.00     0.170 HD
BRANCH  86  88
ATOM     88  C   UNL A   1      32.036  26.578  23.452  1.00  0.00     0.108 A 
ATOM     89  S   UNL A   1      33.594  27.255  23.410  1.00  0.00    -0.122 S 
ATOM     90  C   UNL A   1      31.066  27.470  23.942  1.00  0.00     0.078 A 
ATOM     91  C   UNL A   1      33.174  28.222  24.724  1.00  0.00     0.011 A 
ATOM     92  C   UNL A   1      31.797  28.412  24.806  1.00  0.00    -0.019 A 
ATOM     93  C   UNL A   1      34.212  28.730  25.675  1.00  0.00     0.047 C 
ATOM     94  C   UNL A   1      31.298  29.402  25.806  1.00  0.00     0.037 C 
ATOM     95  C   UNL A   1      33.536  29.093  27.000  1.00  0.00     0.006 C 
ATOM     96  C   UNL A   1      32.368  30.029  26.721  1.00  0.00     0.005 C 
BRANCH  90  97
ATOM     97  C   UNL A   1      29.657  27.163  23.575  1.00  0.00     0.254 C 
ATOM     98  O   UNL A   1      29.241  26.002  23.740  1.00  0.00    -0.269 OA
ATOM     99  N   UNL A   1      28.662  27.926  23.041  1.00  0.00    -0.349 N 
ATOM    100  H   UNL A   1      27.893  27.338  22.863  1.00  0.00     0.164 HD
BRANCH  99 101
ATOM    101  C   UNL A   1      28.296  29.280  22.630  1.00  0.00     0.082 C 
ATOM    102  C   UNL A   1      27.511  30.013  23.715  1.00  0.00     0.025 C 
ATOM    103  C   UNL A   1      29.383  30.019  21.864  1.00  0.00     0.025 C 
ATOM    104  C   UNL A   1      27.324  31.489  23.402  1.00  0.00     0.002 C 
ATOM    105  C   UNL A   1      29.399  31.547  21.987  1.00  0.00     0.002 C 
ATOM    106  C   UNL A   1      28.672  32.149  23.186  1.00  0.00     0.000 C 
ENDBRANCH  99 101
ENDBRANCH  90  97
ENDBRANCH  86  88
ENDBRANCH  79  84
ENDBRANCH  74  77
ENDBRANCH  72  73
ENDBRANCH   1  72
TORSDOF 17
ENDMDL
MODEL 2
REMARK VINA RESULT:     -13.5      2.070      7.579
REMARK SMILES O=C(NCCCNC(=O)[C@H]1[C@H]2CC[C@H](C2)[C@@H]1C(=O)Nc1sc2c(c1C(=O)NC1CCCCC1)CCCC2)c1ccc(-c2c3nc(c(-c4cccc(S(=O)(=O)[O-])c4F)c4ccc([nH]4)c(-c4cccc(S(=O)(=O)[O-])c4F)c4nc(c(-c5cccc(S(=O)(=O)[O-])c5F)c5ccc2[nH]5)C=C4)C=C3)cc1
REMARK SMILES IDX 5 1 4 2 3 3 1 4 2 5 38 7 39 8 100 9 40 10 99 11 41 12 42 13
REMARK SMILES IDX 43 14 93 15 44 16 98 17 92 18 94 19 45 20 97 21 91 22 90 23
REMARK SMILES IDX 46 25 78 26 58 27 77 28 59 29 62 30 76 31 95 32 60 33 61 34
REMARK SMILES IDX 75 36 96 37 63 38 47 39 48 40 56 41 49 42 51 43 57 44 50 45
REMARK SMILES IDX 52 46 53 47 54 48 55 49 79 50 80 51 88 52 81 53 83 54 89 55
REMARK SMILES IDX 82 56 84 57 85 58 86 59 87 60 64 61 65 62 73 63 66 64 68 65
REMARK SMILES IDX 74 66 67 67 69 68 70 69 71 70 72 71 6 72 7 73 8 74 9 76
REMARK SMILES IDX 10 77 11 78 16 79 12 80 15 81 14 82 13 83 17 84 18 85 19 86
REMARK SMILES IDX 20 88 21 89 24 90 22 91 23 92 37 93 34 94 36 95 35 96 25 97
REMARK SMILES IDX 26 98 27 99 28 101 29 102 33 103 30 104 32 105 31 106
REMARK H PARENT 3 6 94 24 62 35 7 75 19 87 27 100
REMARK Flexibility Score: inf
ROOT
ATOM      1  C   UNL A   1      35.431  22.765  25.982  1.00  0.00     0.042 C 
ENDROOT
BRANCH   1   2
ATOM      2  C   UNL A   1      36.778  23.456  25.834  1.00  0.00     0.118 C 
BRANCH   2   3
ATOM      3  N   UNL A   1      37.886  22.543  26.063  1.00  0.00    -0.352 N 
ATOM      4  O   UNL A   1      40.050  21.968  26.293  1.00  0.00    -0.269 OA
ATOM      5  C   UNL A   1      39.179  22.836  26.404  1.00  0.00     0.251 C 
ATOM      6  H   UNL A   1      37.679  21.586  25.959  1.00  0.00     0.163 HD
BRANCH   5   7
ATOM      7  C   UNL A   1      39.518  24.185  26.900  1.00  0.00     0.039 A 
ATOM      8  C   UNL A   1      39.311  24.506  28.245  1.00  0.00     0.014 A 
ATOM      9  C   UNL A   1      40.082  25.121  26.032  1.00  0.00     0.014 A 
ATOM     10  C   UNL A   1      39.558  25.794  28.696  1.00  0.00     0.010 A 
ATOM     11  C   UNL A   1      40.429  26.387  26.513  1.00  0.00     0.010 A 
ATOM     12  C   UNL A   1      40.167  26.731  27.847  1.00  0.00    -0.014 A 
BRANCH  12  13
ATOM     13  C   UNL A   1      40.674  27.995  28.432  1.00  0.00     0.031 A 
ATOM     14  C   UNL A   1      42.141  28.252  28.606  1.00  0.00     0.074 A 
ATOM     15  C   UNL A   1      39.763  28.907  28.830  1.00  0.00     0.049 A 
ATOM     16  N   UNL A   1      42.729  29.307  29.107  1.00  0.00    -0.248 NA
ATOM     17  C   UNL A   1      43.071  27.197  28.172  1.00  0.00     0.031 C 
ATOM     18  C   UNL A   1      38.308  28.729  28.754  1.00  0.00     0.029 A 
ATOM     19  N   UNL A   1      39.912  30.149  29.388  1.00  0.00    -0.354 N 
ATOM     20  C   UNL A   1      44.089  29.030  29.094  1.00  0.00     0.074 A 
ATOM     21  C   UNL A   1      44.245  27.710  28.523  1.00  0.00     0.031 C 
ATOM     22  C   UNL A   1      37.702  29.823  29.231  1.00  0.00     0.029 A 
ATOM     23  C   UNL A   1      38.717  30.749  29.713  1.00  0.00     0.049 A 
ATOM     24  H   UNL A   1      40.788  30.571  29.542  1.00  0.00     0.167 HD
ATOM     25  C   UNL A   1      45.108  29.815  29.518  1.00  0.00     0.034 A 
ATOM     26  C   UNL A   1      38.462  31.896  30.367  1.00  0.00     0.034 A 
ATOM     27  C   UNL A   1      44.936  31.139  30.057  1.00  0.00     0.049 A 
ATOM     28  C   UNL A   1      39.620  32.738  30.814  1.00  0.00     0.074 A 
ATOM     29  C   UNL A   1      45.914  32.048  30.426  1.00  0.00     0.029 A 
ATOM     30  N   UNL A   1      43.715  31.734  30.332  1.00  0.00    -0.354 N 
ATOM     31  N   UNL A   1      40.903  32.534  30.640  1.00  0.00    -0.248 NA
ATOM     32  C   UNL A   1      39.298  33.981  31.529  1.00  0.00     0.031 C 
ATOM     33  C   UNL A   1      45.285  33.173  30.965  1.00  0.00     0.029 A 
ATOM     34  C   UNL A   1      43.914  32.984  30.896  1.00  0.00     0.049 A 
ATOM     35  H   UNL A   1      42.835  31.328  30.153  1.00  0.00     0.167 HD
ATOM     36  C   UNL A   1      41.540  33.628  31.206  1.00  0.00     0.074 A 
ATOM     37  C   UNL A   1      40.501  34.513  31.692  1.00  0.00     0.031 C 
ATOM     38  C   UNL A   1      42.868  33.869  31.338  1.00  0.00     0.034 A 
BRANCH  25  39
ATOM     39  C   UNL A   1      46.515  29.288  29.410  1.00  0.00     0.023 A 
ATOM     40  C   UNL A   1      47.058  28.519  30.459  1.00  0.00     0.012 A 
ATOM     41  C   UNL A   1      47.246  29.445  28.215  1.00  0.00     0.148 A 
ATOM     42  C   UNL A   1      48.313  27.923  30.323  1.00  0.00     0.002 A 
ATOM     43  C   UNL A   1      48.476  28.815  28.072  1.00  0.00     0.091 A 
ATOM     44  F   UNL A   1      46.716  30.194  27.238  1.00  0.00    -0.205 F 
ATOM     45  C   UNL A   1      49.014  28.060  29.127  1.00  0.00     0.022 A 
BRANCH  43  46
ATOM     46  S   UNL A   1      49.420  28.858  26.544  1.00  0.00     0.127 S 
ATOM     47  O   UNL A   1      49.813  30.266  26.480  1.00  0.00    -0.237 OA
ATOM     48  O   UNL A   1      50.514  27.932  26.835  1.00  0.00    -0.237 OA
ATOM     49  O   UNL A   1      48.511  28.422  25.494  1.00  0.00    -0.744 OA
ENDBRANCH  43  46
ENDBRANCH  25  39
BRANCH  26  50
ATOM     50  C   UNL A   1      37.057  32.305  30.643  1.00  0.00     0.023 A 
ATOM     51  C   UNL A   1      36.496  32.070  31.912  1.00  0.00     0.012 A 
ATOM     52  C   UNL A   1      36.275  32.933  29.652  1.00  0.00     0.148 A 
ATOM     53  C   UNL A   1      35.170  32.415  32.176  1.00  0.00     0.002 A 
ATOM     54  C   UNL A   1      34.978  33.333  29.942  1.00  0.00     0.091 A 
ATOM     55  F   UNL A   1      36.821  33.135  28.444  1.00  0.00    -0.205 F 
ATOM     56  C   UNL A   1      34.415  33.055  31.196  1.00  0.00     0.022 A 
BRANCH  54  57
ATOM     57  S   UNL A   1      33.993  34.289  28.784  1.00  0.00     0.127 S 
ATOM     58  O   UNL A   1      32.842  34.657  29.603  1.00  0.00    -0.237 OA
ATOM     59  O   UNL A   1      34.896  35.393  28.457  1.00  0.00    -0.237 OA
ATOM     60  O   UNL A   1      33.724  33.389  27.670  1.00  0.00    -0.744 OA
ENDBRANCH  54  57
ENDBRANCH  26  50
BRANCH  38  61
ATOM     61  C   UNL A   1      43.270  35.149  32.018  1.00  0.00     0.023 A 
ATOM     62  C   UNL A   1      43.439  35.173  33.417  1.00  0.00     0.012 A 
ATOM     63  C   UNL A   1      43.534  36.311  31.268  1.00  0.00     0.148 A 
ATOM     64  C   UNL A   1      43.828  36.345  34.063  1.00  0.00     0.002 A 
ATOM     65  C   UNL A   1      43.972  37.460  31.913  1.00  0.00     0.091 A 
ATOM     66  F   UNL A   1      43.350  36.270  29.941  1.00  0.00    -0.205 F 
ATOM     67  C   UNL A   1      44.105  37.484  33.311  1.00  0.00     0.022 A 
BRANCH  65  68
ATOM     68  S   UNL A   1      44.445  38.946  31.022  1.00  0.00     0.127 S 
ATOM     69  O   UNL A   1      44.514  39.931  32.100  1.00  0.00    -0.237 OA
ATOM     70  O   UNL A   1      45.741  38.568  30.458  1.00  0.00    -0.237 OA
ATOM     71  O   UNL A   1      43.399  39.176  30.036  1.00  0.00    -0.744 OA
ENDBRANCH  65  68
ENDBRANCH  38  61
ENDBRANCH  12  13
ENDBRANCH   5   7
ENDBRANCH   2   3
ENDBRANCH   1   2
BRANCH   1  72
ATOM     72  C   UNL A   1      34.837  22.329  24.649  1.00  0.00     0.117 C 
BRANCH  72  73
ATOM     73  N   UNL A   1      33.861  21.281  24.823  1.00  0.00    -0.356 N 
ATOM     74  C   UNL A   1      32.521  21.310  24.950  1.00  0.00     0.224 C 
ATOM     75  H   UNL A   1      34.247  20.375  24.855  1.00  0.00     0.163 HD
ATOM     76  O   UNL A   1      31.986  20.202  25.093  1.00  0.00    -0.275 OA
BRANCH  74  77
ATOM     77  C   UNL A   1      31.658  22.566  24.799  1.00  0.00     0.094 C 
ATOM     78  C   UNL A   1      31.008  22.812  26.206  1.00  0.00     0.002 C 
ATOM     79  C   UNL A   1      32.227  23.973  24.473  1.00  0.00     0.094 C 
ATOM     80  C   UNL A   1      32.056  23.186  27.276  1.00  0.00     0.005 C 
ATOM     81  C   UNL A   1      30.346  24.152  25.994  1.00  0.00     0.009 C 
ATOM     82  C   UNL A   1      31.650  24.852  25.603  1.00  0.00     0.002 C 
ATOM     83  C   UNL A   1      32.486  24.601  26.872  1.00  0.00     0.005 C 
BRANCH  79  84
ATOM     84  C   UNL A   1      32.070  24.477  23.011  1.00  0.00     0.229 C 
ATOM     85  O   UNL A   1      32.219  23.655  22.094  1.00  0.00    -0.274 OA
ATOM     86  N   UNL A   1      31.597  25.702  22.657  1.00  0.00    -0.317 N 
ATOM     87  H   UNL A   1      31.051  25.719  21.837  1.00  0.00     0.170 HD
BRANCH  86  88
ATOM     88  C   UNL A   1      31.766  26.918  23.271  1.00  0.00     0.108 A 
ATOM     89  S   UNL A   1      33.318  27.601  23.165  1.00  0.00    -0.122 S 
ATOM     90  C   UNL A   1      30.800  27.827  23.737  1.00  0.00     0.078 A 
ATOM     91  C   UNL A   1      32.919  28.628  24.438  1.00  0.00     0.011 A 
ATOM     92  C   UNL A   1      31.543  28.815  24.538  1.00  0.00    -0.019 A 
ATOM     93  C   UNL A   1      33.973  29.188  25.341  1.00  0.00     0.047 C 
ATOM     94  C   UNL A   1      31.058  29.851  25.498  1.00  0.00     0.037 C 
ATOM     95  C   UNL A   1      33.322  29.613  26.660  1.00  0.00     0.006 C 
ATOM     96  C   UNL A   1      32.142  30.527  26.360  1.00  0.00     0.005 C 
BRANCH  90  97
ATOM     97  C   UNL A   1      29.386  27.495  23.415  1.00  0.00     0.254 C 
ATOM     98  O   UNL A   1      29.003  26.322  23.569  1.00  0.00    -0.269 OA
ATOM     99  N   UNL A   1      28.356  28.245  22.933  1.00  0.00    -0.349 N 
ATOM    100  H   UNL A   1      27.594  27.643  22.770  1.00  0.00     0.164 HD
BRANCH  99 101
ATOM    101  C   UNL A   1      27.944  29.598  22.565  1.00  0.00     0.082 C 
ATOM    102  C   UNL A   1      27.814  30.507  23.784  1.00  0.00     0.025 C 
ATOM    103  C   UNL A   1      28.601  30.131  21.300  1.00  0.00     0.025 C 
ATOM    104  C   UNL A   1      27.616  31.966  23.405  1.00  0.00     0.002 C 
ATOM    105  C   UNL A   1      28.789  31.651  21.206  1.00  0.00     0.002 C 
ATOM    106  C   UNL A   1      28.753  32.431  22.516  1.00  0.00     0.000 C 
ENDBRANCH  99 101
ENDBRANCH  90  97
ENDBRANCH  86  88
ENDBRANCH  79  84
ENDBRANCH  74  77
ENDBRANCH  72  73
ENDBRANCH   1  72
TORSDOF 17
ENDMDL
MODEL 3
REMARK VINA RESULT:     -13.2      0.628      7.340
REMARK SMILES O=C(NCCCNC(=O)[C@H]1[C@H]2CC[C@H](C2)[C@@H]1C(=O)Nc1sc2c(c1C(=O)NC1CCCCC1)CCCC2)c1ccc(-c2c3nc(c(-c4cccc(S(=O)(=O)[O-])c4F)c4ccc([nH]4)c(-c4cccc(S(=O)(=O)[O-])c4F)c4nc(c(-c5cccc(S(=O)(=O)[O-])c5F)c5ccc2[nH]5)C=C4)C=C3)cc1
REMARK SMILES IDX 5 1 4 2 3 3 1 4 2 5 38 7 39 8 100 9 40 10 99 11 41 12 42 13
REMARK SMILES IDX 43 14 93 15 44 16 98 17 92 18 94 19 45 20 97 21 91 22 90 23
REMARK SMILES IDX 46 25 78 26 58 27 77 28 59 29 62 30 76 31 95 32 60 33 61 34
REMARK SMILES IDX 75 36 96 37 63 38 47 39 48 40 56 41 49 42 51 43 57 44 50 45
REMARK SMILES IDX 52 46 53 47 54 48 55 49 79 50 80 51 88 52 81 53 83 54 89 55
REMARK SMILES IDX 82 56 84 57 85 58 86 59 87 60 64 61 65 62 73 63 66 64 68 65
REMARK SMILES IDX 74 66 67 67 69 68 70 69 71 70 72 71 6 72 7 73 8 74 9 76
REMARK SMILES IDX 10 77 11 78 16 79 12 80 15 81 14 82 13 83 17 84 18 85 19 86
REMARK SMILES IDX 20 88 21 89 24 90 22 91 23 92 37 93 34 94 36 95 35 96 25 97
REMARK SMILES IDX 26 98 27 99 28 101 29 102 33 103 30 104 32 105 31 106
REMARK H PARENT 3 6 94 24 62 35 7 75 19 87 27 100
REMARK Flexibility Score: inf
ROOT
ATOM      1  C   UNL A   1      36.254  22.100  24.206  1.00  0.00     0.042 C 
ENDROOT
BRANCH   1   2
ATOM      2  C   UNL A   1      36.567  21.902  25.681  1.00  0.00     0.118 C 
BRANCH   2   3
ATOM      3  N   UNL A   1      37.576  20.878  25.892  1.00  0.00    -0.352 N 
ATOM      4  O   UNL A   1      39.670  20.062  26.012  1.00  0.00    -0.269 OA
ATOM      5  C   UNL A   1      38.916  21.032  26.126  1.00  0.00     0.251 C 
ATOM      6  H   UNL A   1      37.253  19.948  25.863  1.00  0.00     0.163 HD
BRANCH   5   7
ATOM      7  C   UNL A   1      39.444  22.356  26.512  1.00  0.00     0.039 A 
ATOM      8  C   UNL A   1      40.566  22.444  27.342  1.00  0.00     0.014 A 
ATOM      9  C   UNL A   1      38.845  23.514  26.014  1.00  0.00     0.014 A 
ATOM     10  C   UNL A   1      41.018  23.685  27.766  1.00  0.00     0.010 A 
ATOM     11  C   UNL A   1      39.366  24.764  26.358  1.00  0.00     0.010 A 
ATOM     12  C   UNL A   1      40.455  24.857  27.238  1.00  0.00    -0.014 A 
BRANCH  12  13
ATOM     13  C   UNL A   1      41.137  26.148  27.489  1.00  0.00     0.031 A 
ATOM     14  C   UNL A   1      42.539  26.404  27.021  1.00  0.00     0.074 A 
ATOM     15  C   UNL A   1      40.459  27.087  28.181  1.00  0.00     0.049 A 
ATOM     16  N   UNL A   1      43.263  27.482  27.173  1.00  0.00    -0.248 NA
ATOM     17  C   UNL A   1      43.221  25.321  26.296  1.00  0.00     0.031 C 
ATOM     18  C   UNL A   1      39.108  26.915  28.727  1.00  0.00     0.029 A 
ATOM     19  N   UNL A   1      40.806  28.358  28.557  1.00  0.00    -0.354 N 
ATOM     20  C   UNL A   1      44.499  27.196  26.609  1.00  0.00     0.074 A 
ATOM     21  C   UNL A   1      44.426  25.844  26.097  1.00  0.00     0.031 C 
ATOM     22  C   UNL A   1      38.737  28.039  29.354  1.00  0.00     0.029 A 
ATOM     23  C   UNL A   1      39.845  28.983  29.318  1.00  0.00     0.049 A 
ATOM     24  H   UNL A   1      41.659  28.782  28.308  1.00  0.00     0.167 HD
ATOM     25  C   UNL A   1      45.589  27.996  26.526  1.00  0.00     0.034 A 
ATOM     26  C   UNL A   1      39.866  30.167  29.955  1.00  0.00     0.034 A 
ATOM     27  C   UNL A   1      45.634  29.349  27.015  1.00  0.00     0.049 A 
ATOM     28  C   UNL A   1      41.089  31.025  29.832  1.00  0.00     0.074 A 
ATOM     29  C   UNL A   1      46.660  30.271  26.893  1.00  0.00     0.029 A 
ATOM     30  N   UNL A   1      44.628  29.968  27.741  1.00  0.00    -0.354 N 
ATOM     31  N   UNL A   1      42.186  30.803  29.150  1.00  0.00    -0.248 NA
ATOM     32  C   UNL A   1      41.073  32.309  30.547  1.00  0.00     0.031 C 
ATOM     33  C   UNL A   1      46.293  31.430  27.583  1.00  0.00     0.029 A 
ATOM     34  C   UNL A   1      45.022  31.246  28.102  1.00  0.00     0.049 A 
ATOM     35  H   UNL A   1      43.761  29.558  27.968  1.00  0.00     0.167 HD
ATOM     36  C   UNL A   1      42.983  31.923  29.339  1.00  0.00     0.074 A 
ATOM     37  C   UNL A   1      42.226  32.841  30.165  1.00  0.00     0.031 C 
ATOM     38  C   UNL A   1      44.240  32.161  28.891  1.00  0.00     0.034 A 
BRANCH  25  39
ATOM     39  C   UNL A   1      46.831  27.455  25.870  1.00  0.00     0.023 A 
ATOM     40  C   UNL A   1      47.096  27.751  24.518  1.00  0.00     0.012 A 
ATOM     41  C   UNL A   1      47.797  26.765  26.631  1.00  0.00     0.148 A 
ATOM     42  C   UNL A   1      48.300  27.360  23.930  1.00  0.00     0.002 A 
ATOM     43  C   UNL A   1      49.011  26.415  26.050  1.00  0.00     0.091 A 
ATOM     44  F   UNL A   1      47.516  26.481  27.910  1.00  0.00    -0.205 F 
ATOM     45  C   UNL A   1      49.260  26.706  24.699  1.00  0.00     0.022 A 
BRANCH  43  46
ATOM     46  S   UNL A   1      50.346  25.646  26.973  1.00  0.00     0.127 S 
ATOM     47  O   UNL A   1      51.328  25.397  25.918  1.00  0.00    -0.237 OA
ATOM     48  O   UNL A   1      50.716  26.704  27.912  1.00  0.00    -0.237 OA
ATOM     49  O   UNL A   1      49.780  24.453  27.586  1.00  0.00    -0.744 OA
ENDBRANCH  43  46
ENDBRANCH  25  39
BRANCH  26  50
ATOM     50  C   UNL A   1      38.696  30.600  30.769  1.00  0.00     0.023 A 
ATOM     51  C   UNL A   1      38.668  30.335  32.151  1.00  0.00     0.012 A 
ATOM     52  C   UNL A   1      37.613  31.283  30.179  1.00  0.00     0.148 A 
ATOM     53  C   UNL A   1      37.565  30.703  32.921  1.00  0.00     0.002 A 
ATOM     54  C   UNL A   1      36.548  31.703  30.964  1.00  0.00     0.091 A 
ATOM     55  F   UNL A   1      37.649  31.513  28.858  1.00  0.00    -0.205 F 
ATOM     56  C   UNL A   1      36.511  31.396  32.331  1.00  0.00     0.022 A 
BRANCH  54  57
ATOM     57  S   UNL A   1      35.224  32.724  30.306  1.00  0.00     0.127 S 
ATOM     58  O   UNL A   1      34.398  32.940  31.491  1.00  0.00    -0.237 OA
ATOM     59  O   UNL A   1      35.953  33.904  29.839  1.00  0.00    -0.237 OA
ATOM     60  O   UNL A   1      34.620  31.935  29.241  1.00  0.00    -0.744 OA
ENDBRANCH  54  57
ENDBRANCH  26  50
BRANCH  38  61
ATOM     61  C   UNL A   1      44.866  33.476  29.272  1.00  0.00     0.023 A 
ATOM     62  C   UNL A   1      45.752  33.536  30.367  1.00  0.00     0.012 A 
ATOM     63  C   UNL A   1      44.623  34.636  28.512  1.00  0.00     0.148 A 
ATOM     64  C   UNL A   1      46.355  34.741  30.724  1.00  0.00     0.002 A 
ATOM     65  C   UNL A   1      45.269  35.820  28.841  1.00  0.00     0.091 A 
ATOM     66  F   UNL A   1      43.765  34.559  27.485  1.00  0.00    -0.205 F 
ATOM     67  C   UNL A   1      46.124  35.878  29.955  1.00  0.00     0.022 A 
BRANCH  65  68
ATOM     68  S   UNL A   1      45.109  37.313  27.855  1.00  0.00     0.127 S 
ATOM     69  O   UNL A   1      45.428  38.352  28.834  1.00  0.00    -0.237 OA
ATOM     70  O   UNL A   1      46.128  37.113  26.825  1.00  0.00    -0.237 OA
ATOM     71  O   UNL A   1      43.740  37.325  27.359  1.00  0.00    -0.744 OA
ENDBRANCH  65  68
ENDBRANCH  38  61
ENDBRANCH  12  13
ENDBRANCH   5   7
ENDBRANCH   2   3
ENDBRANCH   1   2
BRANCH   1  72
ATOM     72  C   UNL A   1      34.778  22.367  23.941  1.00  0.00     0.117 C 
BRANCH  72  73
ATOM     73  N   UNL A   1      33.949  21.299  24.446  1.00  0.00    -0.356 N 
ATOM     74  C   UNL A   1      32.676  21.277  24.882  1.00  0.00     0.224 C 
ATOM     75  H   UNL A   1      34.399  20.424  24.477  1.00  0.00     0.163 HD
ATOM     76  O   UNL A   1      32.273  20.168  25.259  1.00  0.00    -0.275 OA
BRANCH  74  77
ATOM     77  C   UNL A   1      31.709  22.463  24.813  1.00  0.00     0.094 C 
ATOM     78  C   UNL A   1      31.166  22.660  26.272  1.00  0.00     0.002 C 
ATOM     79  C   UNL A   1      32.139  23.910  24.447  1.00  0.00     0.094 C 
ATOM     80  C   UNL A   1      32.271  23.114  27.250  1.00  0.00     0.005 C 
ATOM     81  C   UNL A   1      30.388  23.945  26.125  1.00  0.00     0.009 C 
ATOM     82  C   UNL A   1      31.596  24.743  25.627  1.00  0.00     0.002 C 
ATOM     83  C   UNL A   1      32.555  24.558  26.818  1.00  0.00     0.005 C 
BRANCH  79  84
ATOM     84  C   UNL A   1      31.819  24.397  23.007  1.00  0.00     0.229 C 
ATOM     85  O   UNL A   1      31.860  23.566  22.088  1.00  0.00    -0.274 OA
ATOM     86  N   UNL A   1      31.311  25.620  22.695  1.00  0.00    -0.317 N 
ATOM     87  H   UNL A   1      30.675  25.630  21.942  1.00  0.00     0.170 HD
BRANCH  86  88
ATOM     88  C   UNL A   1      31.551  26.842  23.272  1.00  0.00     0.108 A 
ATOM     89  S   UNL A   1      33.121  27.464  23.083  1.00  0.00    -0.122 S 
ATOM     90  C   UNL A   1      30.641  27.797  23.757  1.00  0.00     0.078 A 
ATOM     91  C   UNL A   1      32.816  28.534  24.348  1.00  0.00     0.011 A 
ATOM     92  C   UNL A   1      31.453  28.774  24.503  1.00  0.00    -0.019 A 
ATOM     93  C   UNL A   1      33.928  29.073  25.192  1.00  0.00     0.047 C 
ATOM     94  C   UNL A   1      31.048  29.848  25.458  1.00  0.00     0.037 C 
ATOM     95  C   UNL A   1      33.351  29.551  26.527  1.00  0.00     0.006 C 
ATOM     96  C   UNL A   1      32.193  30.502  26.256  1.00  0.00     0.005 C 
BRANCH  90  97
ATOM     97  C   UNL A   1      29.202  27.511  23.504  1.00  0.00     0.254 C 
ATOM     98  O   UNL A   1      28.780  26.361  23.719  1.00  0.00    -0.269 OA
ATOM     99  N   UNL A   1      28.184  28.284  23.035  1.00  0.00    -0.349 N 
ATOM    100  H   UNL A   1      27.393  27.709  22.925  1.00  0.00     0.164 HD
BRANCH  99 101
ATOM    101  C   UNL A   1      27.811  29.638  22.630  1.00  0.00     0.082 C 
ATOM    102  C   UNL A   1      27.812  30.607  23.809  1.00  0.00     0.025 C 
ATOM    103  C   UNL A   1      28.400  30.080  21.299  1.00  0.00     0.025 C 
ATOM    104  C   UNL A   1      27.656  32.056  23.374  1.00  0.00     0.002 C 
ATOM    105  C   UNL A   1      28.653  31.582  21.117  1.00  0.00     0.002 C 
ATOM    106  C   UNL A   1      28.747  32.422  22.387  1.00  0.00     0.000 C 
ENDBRANCH  99 101
ENDBRANCH  90  97
ENDBRANCH  86  88
ENDBRANCH  79  84
ENDBRANCH  74  77
ENDBRANCH  72  73
ENDBRANCH   1  72
TORSDOF 17
ENDMDL
