MODEL 1
REMARK VINA RESULT:     -12.0      0.000      0.000
REMARK SMILES Cc1nc(SCc2cccc(Cl)c2)[nH]c(=O)c1CC(=O)NCCCNC(=O)c1ccc(-c2c3nc(c(-c4cccc(S(=O)(=O)[O-])c4F)c4ccc([nH]4)c(-c4cccc(S(=O)(=O)[O-])c4F)c4nc(c(-c5cccc(S(=O)(=O)[O-])c5F)c5ccc2[nH]5)C=C4)C=C3)cc1
REMARK SMILES IDX 22 1 21 2 19 3 20 4 18 6 17 7 1 8 2 9 3 10 4 11 15 12 14 13
REMARK SMILES IDX 16 14 5 16 6 17 7 18 8 19 13 20 9 21 11 22 10 23 12 24 23 25
REMARK SMILES IDX 24 26 25 27 26 28 27 30 28 31 29 32 90 33 30 34 89 35 31 36
REMARK SMILES IDX 32 37 33 38 83 39 34 40 88 41 82 42 84 43 35 44 87 45 81 46
REMARK SMILES IDX 80 47 36 49 68 50 48 51 67 52 49 53 52 54 66 55 85 56 50 57
REMARK SMILES IDX 51 58 65 60 86 61 53 62 37 63 38 64 46 65 39 66 41 67 47 68
REMARK SMILES IDX 40 69 42 70 43 71 44 72 45 73 69 74 70 75 78 76 71 77 73 78
REMARK SMILES IDX 79 79 72 80 74 81 75 82 76 83 77 84 54 85 55 86 63 87 56 88
REMARK SMILES IDX 58 89 64 90 57 91 59 92 60 93 61 94 62 95
REMARK H PARENT 21 5 14 15 25 29 84 48 52 59
REMARK Flexibility Score: inf
ROOT
ATOM      1  C   UNL A   1      31.425  29.612  25.077  1.00  0.00     0.117 C 
ENDROOT
BRANCH   1   2
ATOM      2  N   UNL A   1      32.685  29.510  24.367  1.00  0.00    -0.356 N 
ATOM      3  C   UNL A   1      33.182  28.505  23.593  1.00  0.00     0.224 C 
ATOM      4  O   UNL A   1      34.262  28.699  23.029  1.00  0.00    -0.275 OA
ATOM      5  H   UNL A   1      33.277  30.292  24.461  1.00  0.00     0.163 HD
BRANCH   3   6
ATOM      6  C   UNL A   1      32.367  27.241  23.320  1.00  0.00     0.143 C 
BRANCH   6   7
ATOM      7  C   UNL A   1      32.993  25.955  23.777  1.00  0.00     0.048 A 
ATOM      8  C   UNL A   1      32.303  26.183  26.182  1.00  0.00     0.067 C 
ATOM      9  C   UNL A   1      32.979  25.470  25.035  1.00  0.00     0.049 A 
ATOM     10  N   UNL A   1      33.652  24.337  25.423  1.00  0.00    -0.229 NA
ATOM     11  C   UNL A   1      34.415  23.765  24.556  1.00  0.00     0.168 A 
ATOM     12  C   UNL A   1      33.712  25.144  22.758  1.00  0.00     0.255 A 
ATOM     13  N   UNL A   1      34.470  24.126  23.251  1.00  0.00    -0.301 N 
ATOM     14  O   UNL A   1      33.634  25.383  21.563  1.00  0.00    -0.269 OA
ATOM     15  H   UNL A   1      35.073  23.641  22.644  1.00  0.00     0.172 HD
BRANCH  11  16
ATOM     16  S   UNL A   1      35.481  22.458  24.930  1.00  0.00    -0.083 SA
BRANCH  16  17
ATOM     17  C   UNL A   1      34.360  21.224  25.641  1.00  0.00     0.113 C 
BRANCH  17  18
ATOM     18  C   UNL A   1      33.739  20.262  24.649  1.00  0.00    -0.036 A 
ATOM     19  C   UNL A   1      32.709  20.685  23.795  1.00  0.00     0.005 A 
ATOM     20  C   UNL A   1      34.128  18.914  24.592  1.00  0.00     0.025 A 
ATOM     21  C   UNL A   1      32.091  19.785  22.918  1.00  0.00     0.002 A 
ATOM     22  C   UNL A   1      33.525  18.025  23.703  1.00  0.00     0.041 A 
ATOM     23  C   UNL A   1      32.504  18.454  22.866  1.00  0.00     0.020 A 
ATOM     24  Cl  UNL A   1      34.038  16.380  23.671  1.00  0.00    -0.084 Cl
ENDBRANCH  17  18
ENDBRANCH  16  17
ENDBRANCH  11  16
ENDBRANCH   6   7
ENDBRANCH   3   6
ENDBRANCH   1   2
BRANCH   1  25
ATOM     25  C   UNL A   1      31.221  30.998  25.674  1.00  0.00     0.042 C 
BRANCH  25  26
ATOM     26  C   UNL A   1      32.205  31.333  26.788  1.00  0.00     0.118 C 
BRANCH  26  27
ATOM     27  N   UNL A   1      32.405  32.770  26.959  1.00  0.00    -0.352 N 
ATOM     28  C   UNL A   1      33.386  33.452  27.637  1.00  0.00     0.251 C 
ATOM     29  H   UNL A   1      31.731  33.337  26.520  1.00  0.00     0.163 HD
ATOM     30  O   UNL A   1      33.284  34.667  27.795  1.00  0.00    -0.269 OA
BRANCH  28  31
ATOM     31  C   UNL A   1      34.551  32.729  28.188  1.00  0.00     0.039 A 
ATOM     32  C   UNL A   1      35.812  33.330  28.143  1.00  0.00     0.014 A 
ATOM     33  C   UNL A   1      34.401  31.460  28.748  1.00  0.00     0.014 A 
ATOM     34  C   UNL A   1      36.907  32.689  28.731  1.00  0.00     0.010 A 
ATOM     35  C   UNL A   1      35.466  30.872  29.419  1.00  0.00     0.010 A 
ATOM     36  C   UNL A   1      36.733  31.473  29.411  1.00  0.00    -0.014 A 
BRANCH  36  37
ATOM     37  C   UNL A   1      37.854  30.789  30.109  1.00  0.00     0.031 A 
ATOM     38  C   UNL A   1      38.230  31.217  31.504  1.00  0.00     0.074 A 
ATOM     39  C   UNL A   1      38.595  29.872  29.456  1.00  0.00     0.049 A 
ATOM     40  N   UNL A   1      39.262  30.866  32.226  1.00  0.00    -0.248 NA
ATOM     41  C   UNL A   1      37.346  32.197  32.162  1.00  0.00     0.031 C 
ATOM     42  C   UNL A   1      38.369  29.416  28.082  1.00  0.00     0.029 A 
ATOM     43  N   UNL A   1      39.716  29.182  29.852  1.00  0.00    -0.354 N 
ATOM     44  C   UNL A   1      39.174  31.607  33.399  1.00  0.00     0.074 A 
ATOM     45  C   UNL A   1      38.012  32.459  33.277  1.00  0.00     0.031 C 
ATOM     46  C   UNL A   1      39.318  28.523  27.753  1.00  0.00     0.029 A 
ATOM     47  C   UNL A   1      40.245  28.378  28.869  1.00  0.00     0.049 A 
ATOM     48  H   UNL A   1      40.103  29.256  30.754  1.00  0.00     0.167 HD
ATOM     49  C   UNL A   1      39.968  31.562  34.494  1.00  0.00     0.034 A 
ATOM     50  C   UNL A   1      41.364  27.624  28.863  1.00  0.00     0.034 A 
ATOM     51  C   UNL A   1      41.095  30.680  34.630  1.00  0.00     0.049 A 
ATOM     52  C   UNL A   1      42.222  27.584  30.102  1.00  0.00     0.074 A 
ATOM     53  C   UNL A   1      41.929  30.515  35.722  1.00  0.00     0.029 A 
ATOM     54  N   UNL A   1      41.543  29.814  33.646  1.00  0.00    -0.354 N 
ATOM     55  N   UNL A   1      42.053  28.204  31.244  1.00  0.00    -0.248 NA
ATOM     56  C   UNL A   1      43.407  26.715  30.063  1.00  0.00     0.031 C 
ATOM     57  C   UNL A   1      42.895  29.561  35.390  1.00  0.00     0.029 A 
ATOM     58  C   UNL A   1      42.638  29.107  34.106  1.00  0.00     0.049 A 
ATOM     59  H   UNL A   1      41.141  29.717  32.753  1.00  0.00     0.167 HD
ATOM     60  C   UNL A   1      43.074  27.755  32.076  1.00  0.00     0.074 A 
ATOM     61  C   UNL A   1      43.851  26.804  31.309  1.00  0.00     0.031 C 
ATOM     62  C   UNL A   1      43.350  28.105  33.356  1.00  0.00     0.034 A 
BRANCH  49  63
ATOM     63  C   UNL A   1      39.612  32.446  35.661  1.00  0.00     0.023 A 
ATOM     64  C   UNL A   1      38.950  31.891  36.775  1.00  0.00     0.012 A 
ATOM     65  C   UNL A   1      39.996  33.801  35.691  1.00  0.00     0.148 A 
ATOM     66  C   UNL A   1      38.647  32.676  37.886  1.00  0.00     0.002 A 
ATOM     67  C   UNL A   1      39.735  34.565  36.822  1.00  0.00     0.091 A 
ATOM     68  F   UNL A   1      40.612  34.314  34.616  1.00  0.00    -0.205 F 
ATOM     69  C   UNL A   1      39.050  34.007  37.915  1.00  0.00     0.022 A 
BRANCH  67  70
ATOM     70  S   UNL A   1      40.285  36.266  36.996  1.00  0.00     0.127 S 
ATOM     71  O   UNL A   1      39.859  36.844  35.722  1.00  0.00    -0.237 OA
ATOM     72  O   UNL A   1      39.520  36.717  38.158  1.00  0.00    -0.237 OA
ATOM     73  O   UNL A   1      41.725  36.206  37.198  1.00  0.00    -0.744 OA
ENDBRANCH  67  70
ENDBRANCH  49  63
BRANCH  50  74
ATOM     74  C   UNL A   1      41.721  26.804  27.669  1.00  0.00     0.023 A 
ATOM     75  C   UNL A   1      42.309  27.433  26.552  1.00  0.00     0.012 A 
ATOM     76  C   UNL A   1      41.473  25.420  27.621  1.00  0.00     0.148 A 
ATOM     77  C   UNL A   1      42.590  26.710  25.392  1.00  0.00     0.002 A 
ATOM     78  C   UNL A   1      41.814  24.693  26.486  1.00  0.00     0.091 A 
ATOM     79  F   UNL A   1      40.905  24.837  28.687  1.00  0.00    -0.205 F 
ATOM     80  C   UNL A   1      42.349  25.340  25.361  1.00  0.00     0.022 A 
BRANCH  78  81
ATOM     81  S   UNL A   1      41.674  22.903  26.412  1.00  0.00     0.127 S 
ATOM     82  O   UNL A   1      40.228  22.719  26.325  1.00  0.00    -0.237 OA
ATOM     83  O   UNL A   1      42.414  22.592  25.188  1.00  0.00    -0.237 OA
ATOM     84  O   UNL A   1      42.307  22.411  27.628  1.00  0.00    -0.744 OA
ENDBRANCH  78  81
ENDBRANCH  50  74
BRANCH  62  85
ATOM     85  C   UNL A   1      44.485  27.401  34.051  1.00  0.00     0.023 A 
ATOM     86  C   UNL A   1      45.778  27.957  34.042  1.00  0.00     0.012 A 
ATOM     87  C   UNL A   1      44.237  26.231  34.797  1.00  0.00     0.148 A 
ATOM     88  C   UNL A   1      46.816  27.341  34.740  1.00  0.00     0.002 A 
ATOM     89  C   UNL A   1      45.263  25.654  35.533  1.00  0.00     0.091 A 
ATOM     90  F   UNL A   1      43.001  25.710  34.778  1.00  0.00    -0.205 F 
ATOM     91  C   UNL A   1      46.557  26.199  35.496  1.00  0.00     0.022 A 
BRANCH  89  92
ATOM     92  S   UNL A   1      44.997  24.246  36.617  1.00  0.00     0.127 S 
ATOM     93  O   UNL A   1      46.354  23.978  37.093  1.00  0.00    -0.237 OA
ATOM     94  O   UNL A   1      44.095  24.800  37.626  1.00  0.00    -0.237 OA
ATOM     95  O   UNL A   1      44.412  23.202  35.788  1.00  0.00    -0.744 OA
ENDBRANCH  89  92
ENDBRANCH  62  85
ENDBRANCH  36  37
ENDBRANCH  28  31
ENDBRANCH  26  27
ENDBRANCH  25  26
ENDBRANCH   1  25
TORSDOF 17
ENDMDL
MODEL 2
REMARK VINA RESULT:     -12.0      2.290      7.827
REMARK SMILES Cc1nc(SCc2cccc(Cl)c2)[nH]c(=O)c1CC(=O)NCCCNC(=O)c1ccc(-c2c3nc(c(-c4cccc(S(=O)(=O)[O-])c4F)c4ccc([nH]4)c(-c4cccc(S(=O)(=O)[O-])c4F)c4nc(c(-c5cccc(S(=O)(=O)[O-])c5F)c5ccc2[nH]5)C=C4)C=C3)cc1
REMARK SMILES IDX 22 1 21 2 19 3 20 4 18 6 17 7 1 8 2 9 3 10 4 11 15 12 14 13
REMARK SMILES IDX 16 14 5 16 6 17 7 18 8 19 13 20 9 21 11 22 10 23 12 24 23 25
REMARK SMILES IDX 24 26 25 27 26 28 27 30 28 31 29 32 90 33 30 34 89 35 31 36
REMARK SMILES IDX 32 37 33 38 83 39 34 40 88 41 82 42 84 43 35 44 87 45 81 46
REMARK SMILES IDX 80 47 36 49 68 50 48 51 67 52 49 53 52 54 66 55 85 56 50 57
REMARK SMILES IDX 51 58 65 60 86 61 53 62 37 63 38 64 46 65 39 66 41 67 47 68
REMARK SMILES IDX 40 69 42 70 43 71 44 72 45 73 69 74 70 75 78 76 71 77 73 78
REMARK SMILES IDX 79 79 72 80 74 81 75 82 76 83 77 84 54 85 55 86 63 87 56 88
REMARK SMILES IDX 58 89 64 90 57 91 59 92 60 93 61 94 62 95
REMARK H PARENT 21 5 14 15 25 29 84 48 52 59
REMARK Flexibility Score: inf
ROOT
ATOM      1  C   UNL A   1      32.053  29.969  26.210  1.00  0.00     0.117 C 
ENDROOT
BRANCH   1   2
ATOM      2  N   UNL A   1      32.367  29.752  24.811  1.00  0.00    -0.356 N 
ATOM      3  C   UNL A   1      31.854  28.858  23.920  1.00  0.00     0.224 C 
ATOM      4  O   UNL A   1      32.240  28.931  22.751  1.00  0.00    -0.275 OA
ATOM      5  H   UNL A   1      33.063  30.347  24.447  1.00  0.00     0.163 HD
BRANCH   3   6
ATOM      6  C   UNL A   1      30.739  27.893  24.322  1.00  0.00     0.143 C 
BRANCH   6   7
ATOM      7  C   UNL A   1      31.172  26.483  24.604  1.00  0.00     0.048 A 
ATOM      8  C   UNL A   1      31.513  25.841  22.199  1.00  0.00     0.067 C 
ATOM      9  C   UNL A   1      31.515  25.560  23.683  1.00  0.00     0.049 A 
ATOM     10  N   UNL A   1      31.808  24.252  23.986  1.00  0.00    -0.229 NA
ATOM     11  C   UNL A   1      31.650  23.869  25.206  1.00  0.00     0.168 A 
ATOM     12  C   UNL A   1      31.211  26.051  26.027  1.00  0.00     0.255 A 
ATOM     13  N   UNL A   1      31.362  24.713  26.226  1.00  0.00    -0.301 N 
ATOM     14  O   UNL A   1      31.103  26.843  26.951  1.00  0.00    -0.269 OA
ATOM     15  H   UNL A   1      31.260  24.350  27.135  1.00  0.00     0.172 HD
BRANCH  11  16
ATOM     16  S   UNL A   1      31.777  22.225  25.719  1.00  0.00    -0.083 SA
BRANCH  16  17
ATOM     17  C   UNL A   1      33.298  21.671  24.901  1.00  0.00     0.113 C 
BRANCH  17  18
ATOM     18  C   UNL A   1      33.232  20.297  24.267  1.00  0.00    -0.036 A 
ATOM     19  C   UNL A   1      32.332  20.037  23.222  1.00  0.00     0.005 A 
ATOM     20  C   UNL A   1      34.019  19.234  24.737  1.00  0.00     0.025 A 
ATOM     21  C   UNL A   1      32.225  18.753  22.673  1.00  0.00     0.002 A 
ATOM     22  C   UNL A   1      33.925  17.961  24.174  1.00  0.00     0.041 A 
ATOM     23  C   UNL A   1      33.028  17.714  23.144  1.00  0.00     0.020 A 
ATOM     24  Cl  UNL A   1      34.913  16.688  24.787  1.00  0.00    -0.084 Cl
ENDBRANCH  17  18
ENDBRANCH  16  17
ENDBRANCH  11  16
ENDBRANCH   6   7
ENDBRANCH   3   6
ENDBRANCH   1   2
BRANCH   1  25
ATOM     25  C   UNL A   1      31.760  31.433  26.506  1.00  0.00     0.042 C 
BRANCH  25  26
ATOM     26  C   UNL A   1      32.886  32.143  27.246  1.00  0.00     0.118 C 
BRANCH  26  27
ATOM     27  N   UNL A   1      32.581  33.541  27.540  1.00  0.00    -0.352 N 
ATOM     28  C   UNL A   1      33.113  34.382  28.488  1.00  0.00     0.251 C 
ATOM     29  H   UNL A   1      31.887  33.943  26.971  1.00  0.00     0.163 HD
ATOM     30  O   UNL A   1      32.603  35.484  28.679  1.00  0.00    -0.269 OA
BRANCH  28  31
ATOM     31  C   UNL A   1      34.283  33.960  29.287  1.00  0.00     0.039 A 
ATOM     32  C   UNL A   1      34.087  33.169  30.422  1.00  0.00     0.014 A 
ATOM     33  C   UNL A   1      35.572  34.345  28.917  1.00  0.00     0.014 A 
ATOM     34  C   UNL A   1      35.191  32.700  31.139  1.00  0.00     0.010 A 
ATOM     35  C   UNL A   1      36.670  33.797  29.569  1.00  0.00     0.010 A 
ATOM     36  C   UNL A   1      36.494  32.976  30.693  1.00  0.00    -0.014 A 
BRANCH  36  37
ATOM     37  C   UNL A   1      37.697  32.442  31.383  1.00  0.00     0.031 A 
ATOM     38  C   UNL A   1      38.457  31.295  30.769  1.00  0.00     0.074 A 
ATOM     39  C   UNL A   1      38.037  32.907  32.602  1.00  0.00     0.049 A 
ATOM     40  N   UNL A   1      39.430  30.583  31.275  1.00  0.00    -0.248 NA
ATOM     41  C   UNL A   1      38.046  30.871  29.418  1.00  0.00     0.031 C 
ATOM     42  C   UNL A   1      37.345  33.974  33.330  1.00  0.00     0.029 A 
ATOM     43  N   UNL A   1      39.035  32.516  33.462  1.00  0.00    -0.354 N 
ATOM     44  C   UNL A   1      39.718  29.607  30.328  1.00  0.00     0.074 A 
ATOM     45  C   UNL A   1      38.791  29.790  29.234  1.00  0.00     0.031 C 
ATOM     46  C   UNL A   1      37.939  34.151  34.522  1.00  0.00     0.029 A 
ATOM     47  C   UNL A   1      39.021  33.185  34.665  1.00  0.00     0.049 A 
ATOM     48  H   UNL A   1      39.697  31.822  33.239  1.00  0.00     0.167 HD
ATOM     49  C   UNL A   1      40.687  28.662  30.349  1.00  0.00     0.034 A 
ATOM     50  C   UNL A   1      39.783  33.020  35.766  1.00  0.00     0.034 A 
ATOM     51  C   UNL A   1      41.637  28.513  31.417  1.00  0.00     0.049 A 
ATOM     52  C   UNL A   1      40.862  31.969  35.755  1.00  0.00     0.074 A 
ATOM     53  C   UNL A   1      42.695  27.626  31.508  1.00  0.00     0.029 A 
ATOM     54  N   UNL A   1      41.646  29.271  32.576  1.00  0.00    -0.354 N 
ATOM     55  N   UNL A   1      41.194  31.135  34.800  1.00  0.00    -0.248 NA
ATOM     56  C   UNL A   1      41.696  31.857  36.962  1.00  0.00     0.031 C 
ATOM     57  C   UNL A   1      43.333  27.835  32.734  1.00  0.00     0.029 A 
ATOM     58  C   UNL A   1      42.695  28.877  33.387  1.00  0.00     0.049 A 
ATOM     59  H   UNL A   1      41.003  29.984  32.791  1.00  0.00     0.167 HD
ATOM     60  C   UNL A   1      42.307  30.443  35.267  1.00  0.00     0.074 A 
ATOM     61  C   UNL A   1      42.599  30.962  36.586  1.00  0.00     0.031 C 
ATOM     62  C   UNL A   1      43.018  29.461  34.663  1.00  0.00     0.034 A 
BRANCH  49  63
ATOM     63  C   UNL A   1      40.813  27.754  29.154  1.00  0.00     0.023 A 
ATOM     64  C   UNL A   1      39.995  26.609  29.063  1.00  0.00     0.012 A 
ATOM     65  C   UNL A   1      41.678  28.070  28.088  1.00  0.00     0.148 A 
ATOM     66  C   UNL A   1      40.060  25.775  27.948  1.00  0.00     0.002 A 
ATOM     67  C   UNL A   1      41.701  27.262  26.957  1.00  0.00     0.091 A 
ATOM     68  F   UNL A   1      42.458  29.155  28.198  1.00  0.00    -0.205 F 
ATOM     69  C   UNL A   1      40.902  26.107  26.892  1.00  0.00     0.022 A 
BRANCH  67  70
ATOM     70  S   UNL A   1      42.687  27.645  25.505  1.00  0.00     0.127 S 
ATOM     71  O   UNL A   1      42.036  28.863  25.022  1.00  0.00    -0.237 OA
ATOM     72  O   UNL A   1      44.014  27.850  26.083  1.00  0.00    -0.237 OA
ATOM     73  O   UNL A   1      42.574  26.492  24.624  1.00  0.00    -0.744 OA
ENDBRANCH  67  70
ENDBRANCH  49  63
BRANCH  50  74
ATOM     74  C   UNL A   1      39.595  33.899  36.957  1.00  0.00     0.023 A 
ATOM     75  C   UNL A   1      40.054  35.231  36.911  1.00  0.00     0.012 A 
ATOM     76  C   UNL A   1      38.983  33.428  38.134  1.00  0.00     0.148 A 
ATOM     77  C   UNL A   1      39.959  36.059  38.030  1.00  0.00     0.002 A 
ATOM     78  C   UNL A   1      38.833  34.277  39.225  1.00  0.00     0.091 A 
ATOM     79  F   UNL A   1      38.559  32.157  38.167  1.00  0.00    -0.205 F 
ATOM     80  C   UNL A   1      39.343  35.584  39.185  1.00  0.00     0.022 A 
BRANCH  78  81
ATOM     81  S   UNL A   1      37.924  33.798  40.699  1.00  0.00     0.127 S 
ATOM     82  O   UNL A   1      37.812  35.069  41.408  1.00  0.00    -0.237 OA
ATOM     83  O   UNL A   1      36.673  33.292  40.132  1.00  0.00    -0.237 OA
ATOM     84  O   UNL A   1      38.737  32.777  41.345  1.00  0.00    -0.744 OA
ENDBRANCH  78  81
ENDBRANCH  50  74
BRANCH  62  85
ATOM     85  C   UNL A   1      44.236  28.932  35.372  1.00  0.00     0.023 A 
ATOM     86  C   UNL A   1      45.489  29.550  35.192  1.00  0.00     0.012 A 
ATOM     87  C   UNL A   1      44.111  27.875  36.296  1.00  0.00     0.148 A 
ATOM     88  C   UNL A   1      46.605  29.103  35.898  1.00  0.00     0.002 A 
ATOM     89  C   UNL A   1      45.215  27.471  37.035  1.00  0.00     0.091 A 
ATOM     90  F   UNL A   1      42.912  27.291  36.439  1.00  0.00    -0.205 F 
ATOM     91  C   UNL A   1      46.466  28.075  36.828  1.00  0.00     0.022 A 
BRANCH  89  92
ATOM     92  S   UNL A   1      45.107  26.229  38.328  1.00  0.00     0.127 S 
ATOM     93  O   UNL A   1      44.114  26.819  39.224  1.00  0.00    -0.237 OA
ATOM     94  O   UNL A   1      44.641  25.055  37.589  1.00  0.00    -0.237 OA
ATOM     95  O   UNL A   1      46.448  26.104  38.882  1.00  0.00    -0.744 OA
ENDBRANCH  89  92
ENDBRANCH  62  85
ENDBRANCH  36  37
ENDBRANCH  28  31
ENDBRANCH  26  27
ENDBRANCH  25  26
ENDBRANCH   1  25
TORSDOF 17
ENDMDL
MODEL 3
REMARK VINA RESULT:     -12.0      5.514     10.706
REMARK SMILES Cc1nc(SCc2cccc(Cl)c2)[nH]c(=O)c1CC(=O)NCCCNC(=O)c1ccc(-c2c3nc(c(-c4cccc(S(=O)(=O)[O-])c4F)c4ccc([nH]4)c(-c4cccc(S(=O)(=O)[O-])c4F)c4nc(c(-c5cccc(S(=O)(=O)[O-])c5F)c5ccc2[nH]5)C=C4)C=C3)cc1
REMARK SMILES IDX 22 1 21 2 19 3 20 4 18 6 17 7 1 8 2 9 3 10 4 11 15 12 14 13
REMARK SMILES IDX 16 14 5 16 6 17 7 18 8 19 13 20 9 21 11 22 10 23 12 24 23 25
REMARK SMILES IDX 24 26 25 27 26 28 27 30 28 31 29 32 90 33 30 34 89 35 31 36
REMARK SMILES IDX 32 37 33 38 83 39 34 40 88 41 82 42 84 43 35 44 87 45 81 46
REMARK SMILES IDX 80 47 36 49 68 50 48 51 67 52 49 53 52 54 66 55 85 56 50 57
REMARK SMILES IDX 51 58 65 60 86 61 53 62 37 63 38 64 46 65 39 66 41 67 47 68
REMARK SMILES IDX 40 69 42 70 43 71 44 72 45 73 69 74 70 75 78 76 71 77 73 78
REMARK SMILES IDX 79 79 72 80 74 81 75 82 76 83 77 84 54 85 55 86 63 87 56 88
REMARK SMILES IDX 58 89 64 90 57 91 59 92 60 93 61 94 62 95
REMARK H PARENT 21 5 14 15 25 29 84 48 52 59
REMARK Flexibility Score: inf
ROOT
ATOM      1  C   UNL A   1      35.297  21.600  24.678  1.00  0.00     0.117 C 
ENDROOT
BRANCH   1   2
ATOM      2  N   UNL A   1      34.938  22.190  25.953  1.00  0.00    -0.356 N 
ATOM      3  C   UNL A   1      33.715  22.385  26.521  1.00  0.00     0.224 C 
ATOM      4  O   UNL A   1      33.683  22.844  27.666  1.00  0.00    -0.275 OA
ATOM      5  H   UNL A   1      35.700  22.499  26.495  1.00  0.00     0.163 HD
BRANCH   3   6
ATOM      6  C   UNL A   1      32.436  21.924  25.823  1.00  0.00     0.143 C 
BRANCH   6   7
ATOM      7  C   UNL A   1      31.617  23.010  25.186  1.00  0.00     0.048 A 
ATOM      8  C   UNL A   1      32.398  22.567  22.839  1.00  0.00     0.067 C 
ATOM      9  C   UNL A   1      31.587  23.312  23.872  1.00  0.00     0.049 A 
ATOM     10  N   UNL A   1      30.897  24.381  23.351  1.00  0.00    -0.229 NA
ATOM     11  C   UNL A   1      30.330  25.189  24.178  1.00  0.00     0.168 A 
ATOM     12  C   UNL A   1      30.773  23.845  26.082  1.00  0.00     0.255 A 
ATOM     13  N   UNL A   1      30.246  24.963  25.511  1.00  0.00    -0.301 N 
ATOM     14  O   UNL A   1      30.576  23.551  27.251  1.00  0.00    -0.269 OA
ATOM     15  H   UNL A   1      29.794  25.624  26.082  1.00  0.00     0.172 HD
BRANCH  11  16
ATOM     16  S   UNL A   1      29.597  26.682  23.710  1.00  0.00    -0.083 SA
BRANCH  16  17
ATOM     17  C   UNL A   1      31.032  27.737  23.367  1.00  0.00     0.113 C 
BRANCH  17  18
ATOM     18  C   UNL A   1      31.671  28.380  24.581  1.00  0.00    -0.036 A 
ATOM     19  C   UNL A   1      32.602  27.671  25.355  1.00  0.00     0.005 A 
ATOM     20  C   UNL A   1      31.313  29.671  25.001  1.00  0.00     0.025 A 
ATOM     21  C   UNL A   1      33.151  28.239  26.512  1.00  0.00     0.002 A 
ATOM     22  C   UNL A   1      31.877  30.242  26.141  1.00  0.00     0.041 A 
ATOM     23  C   UNL A   1      32.794  29.530  26.902  1.00  0.00     0.020 A 
ATOM     24  Cl  UNL A   1      31.406  31.830  26.616  1.00  0.00    -0.084 Cl
ENDBRANCH  17  18
ENDBRANCH  16  17
ENDBRANCH  11  16
ENDBRANCH   6   7
ENDBRANCH   3   6
ENDBRANCH   1   2
BRANCH   1  25
ATOM     25  C   UNL A   1      36.471  20.640  24.809  1.00  0.00     0.042 C 
BRANCH  25  26
ATOM     26  C   UNL A   1      37.778  21.323  25.191  1.00  0.00     0.118 C 
BRANCH  26  27
ATOM     27  N   UNL A   1      38.755  20.402  25.767  1.00  0.00    -0.352 N 
ATOM     28  C   UNL A   1      39.933  20.660  26.426  1.00  0.00     0.251 C 
ATOM     29  H   UNL A   1      38.534  19.448  25.669  1.00  0.00     0.163 HD
ATOM     30  O   UNL A   1      40.695  19.734  26.695  1.00  0.00    -0.269 OA
BRANCH  28  31
ATOM     31  C   UNL A   1      40.291  22.045  26.798  1.00  0.00     0.039 A 
ATOM     32  C   UNL A   1      41.207  22.261  27.831  1.00  0.00     0.014 A 
ATOM     33  C   UNL A   1      39.725  23.130  26.127  1.00  0.00     0.014 A 
ATOM     34  C   UNL A   1      41.611  23.563  28.138  1.00  0.00     0.010 A 
ATOM     35  C   UNL A   1      40.202  24.413  26.364  1.00  0.00     0.010 A 
ATOM     36  C   UNL A   1      41.143  24.647  27.378  1.00  0.00    -0.014 A 
BRANCH  36  37
ATOM     37  C   UNL A   1      41.598  26.041  27.623  1.00  0.00     0.031 A 
ATOM     38  C   UNL A   1      42.991  26.449  27.219  1.00  0.00     0.074 A 
ATOM     39  C   UNL A   1      40.809  26.898  28.302  1.00  0.00     0.049 A 
ATOM     40  N   UNL A   1      43.636  27.556  27.478  1.00  0.00    -0.248 NA
ATOM     41  C   UNL A   1      43.775  25.468  26.447  1.00  0.00     0.031 C 
ATOM     42  C   UNL A   1      39.463  26.604  28.801  1.00  0.00     0.029 A 
ATOM     43  N   UNL A   1      41.041  28.186  28.722  1.00  0.00    -0.354 N 
ATOM     44  C   UNL A   1      44.907  27.389  26.941  1.00  0.00     0.074 A 
ATOM     45  C   UNL A   1      44.959  26.059  26.377  1.00  0.00     0.031 C 
ATOM     46  C   UNL A   1      38.991  27.678  29.456  1.00  0.00     0.029 A 
ATOM     47  C   UNL A   1      40.012  28.718  29.465  1.00  0.00     0.049 A 
ATOM     48  H   UNL A   1      41.866  28.681  28.511  1.00  0.00     0.167 HD
ATOM     49  C   UNL A   1      45.931  28.274  26.892  1.00  0.00     0.034 A 
ATOM     50  C   UNL A   1      39.914  29.904  30.100  1.00  0.00     0.034 A 
ATOM     51  C   UNL A   1      45.861  29.611  27.412  1.00  0.00     0.049 A 
ATOM     52  C   UNL A   1      41.066  30.873  30.016  1.00  0.00     0.074 A 
ATOM     53  C   UNL A   1      46.822  30.604  27.360  1.00  0.00     0.029 A 
ATOM     54  N   UNL A   1      44.768  30.143  28.077  1.00  0.00    -0.354 N 
ATOM     55  N   UNL A   1      42.215  30.739  29.401  1.00  0.00    -0.248 NA
ATOM     56  C   UNL A   1      40.896  32.170  30.687  1.00  0.00     0.031 C 
ATOM     57  C   UNL A   1      46.316  31.733  28.012  1.00  0.00     0.029 A 
ATOM     58  C   UNL A   1      45.027  31.452  28.435  1.00  0.00     0.049 A 
ATOM     59  H   UNL A   1      43.931  29.660  28.265  1.00  0.00     0.167 HD
ATOM     60  C   UNL A   1      42.877  31.952  29.560  1.00  0.00     0.074 A 
ATOM     61  C   UNL A   1      41.997  32.812  30.323  1.00  0.00     0.031 C 
ATOM     62  C   UNL A   1      44.106  32.319  29.124  1.00  0.00     0.034 A 
BRANCH  49  63
ATOM     63  C   UNL A   1      47.197  27.847  26.196  1.00  0.00     0.023 A 
ATOM     64  C   UNL A   1      48.240  27.268  26.947  1.00  0.00     0.012 A 
ATOM     65  C   UNL A   1      47.327  27.947  24.796  1.00  0.00     0.148 A 
ATOM     66  C   UNL A   1      49.405  26.825  26.322  1.00  0.00     0.002 A 
ATOM     67  C   UNL A   1      48.470  27.457  24.175  1.00  0.00     0.091 A 
ATOM     68  F   UNL A   1      46.331  28.513  24.101  1.00  0.00    -0.205 F 
ATOM     69  C   UNL A   1      49.515  26.908  24.938  1.00  0.00     0.022 A 
BRANCH  67  70
ATOM     70  S   UNL A   1      48.677  27.439  22.391  1.00  0.00     0.127 S 
ATOM     71  O   UNL A   1      49.986  28.073  22.240  1.00  0.00    -0.237 OA
ATOM     72  O   UNL A   1      48.654  26.007  22.096  1.00  0.00    -0.237 OA
ATOM     73  O   UNL A   1      47.557  28.193  21.847  1.00  0.00    -0.744 OA
ENDBRANCH  67  70
ENDBRANCH  49  63
BRANCH  50  74
ATOM     74  C   UNL A   1      38.667  30.274  30.831  1.00  0.00     0.023 A 
ATOM     75  C   UNL A   1      38.477  29.808  32.148  1.00  0.00     0.012 A 
ATOM     76  C   UNL A   1      37.667  31.064  30.235  1.00  0.00     0.148 A 
ATOM     77  C   UNL A   1      37.292  30.074  32.836  1.00  0.00     0.002 A 
ATOM     78  C   UNL A   1      36.516  31.380  30.948  1.00  0.00     0.091 A 
ATOM     79  F   UNL A   1      37.857  31.492  28.979  1.00  0.00    -0.205 F 
ATOM     80  C   UNL A   1      36.314  30.865  32.238  1.00  0.00     0.022 A 
BRANCH  78  81
ATOM     81  S   UNL A   1      35.271  32.510  30.314  1.00  0.00     0.127 S 
ATOM     82  O   UNL A   1      36.068  33.696  30.016  1.00  0.00    -0.237 OA
ATOM     83  O   UNL A   1      34.774  31.787  29.143  1.00  0.00    -0.237 OA
ATOM     84  O   UNL A   1      34.292  32.652  31.383  1.00  0.00    -0.744 OA
ENDBRANCH  78  81
ENDBRANCH  50  74
BRANCH  62  85
ATOM     85  C   UNL A   1      44.552  33.735  29.376  1.00  0.00     0.023 A 
ATOM     86  C   UNL A   1      45.263  34.059  30.546  1.00  0.00     0.012 A 
ATOM     87  C   UNL A   1      44.341  34.725  28.395  1.00  0.00     0.148 A 
ATOM     88  C   UNL A   1      45.734  35.356  30.751  1.00  0.00     0.002 A 
ATOM     89  C   UNL A   1      44.859  36.000  28.581  1.00  0.00     0.091 A 
ATOM     90  F   UNL A   1      43.646  34.398  27.296  1.00  0.00    -0.205 F 
ATOM     91  C   UNL A   1      45.544  36.321  29.764  1.00  0.00     0.022 A 
BRANCH  89  92
ATOM     92  S   UNL A   1      44.755  37.276  27.321  1.00  0.00     0.127 S 
ATOM     93  O   UNL A   1      43.371  37.134  26.868  1.00  0.00    -0.237 OA
ATOM     94  O   UNL A   1      45.024  38.491  28.090  1.00  0.00    -0.237 OA
ATOM     95  O   UNL A   1      45.770  36.949  26.330  1.00  0.00    -0.744 OA
ENDBRANCH  89  92
ENDBRANCH  62  85
ENDBRANCH  36  37
ENDBRANCH  28  31
ENDBRANCH  26  27
ENDBRANCH  25  26
ENDBRANCH   1  25
TORSDOF 17
ENDMDL
