MODEL 1
REMARK VINA RESULT:     -13.0      0.000      0.000
REMARK SMILES Cc1ccc(-c2[nH]c3ccccc3c2[C@@H]2c3ccccc3C(=O)N2[C@H](C)C(=O)NCCCNC(=O)c2ccc(-c3c4nc(c(-c5cccc(S(=O)(=O)[O-])c5F)c5ccc([nH]5)c(-c5cccc(S(=O)(=O)[O-])c5F)c5nc(c(-c6cccc(S(=O)(=O)[O-])c6F)c6ccc3[nH]6)C=C5)C=C4)cc2)cc1
REMARK SMILES IDX 31 1 30 2 29 3 27 4 28 5 25 7 26 8 24 9 15 10 16 11 17 12
REMARK SMILES IDX 21 13 22 14 18 15 20 16 23 17 19 18 14 19 6 20 7 21 8 22
REMARK SMILES IDX 13 24 9 25 12 26 10 27 11 28 5 29 1 30 2 31 3 32 100 33 4 34
REMARK SMILES IDX 99 35 32 36 33 37 34 38 35 40 36 41 37 42 98 43 38 44 97 45
REMARK SMILES IDX 39 46 40 47 41 48 91 49 42 50 96 51 90 52 92 53 43 54 95 55
REMARK SMILES IDX 89 56 88 57 44 59 76 60 56 61 75 62 57 63 60 64 74 65 93 66
REMARK SMILES IDX 58 67 59 68 73 70 94 71 61 72 45 73 46 74 54 75 47 76 49 77
REMARK SMILES IDX 55 78 48 79 50 80 51 81 52 82 53 83 77 84 78 85 86 86 79 87
REMARK SMILES IDX 81 88 87 89 80 90 82 91 83 92 84 93 85 94 62 95 63 96 71 97
REMARK SMILES IDX 64 98 66 99 72 100 65 101 67 102 68 103 69 104 70 105
REMARK H PARENT 29 6 7 23 33 39 92 58 60 69
REMARK Flexibility Score: inf
ROOT
ATOM      1  C   UNL A   1      38.991  20.991  25.775  1.00  0.00     0.042 C 
ENDROOT
BRANCH   1   2
ATOM      2  C   UNL A   1      37.622  21.040  25.142  1.00  0.00     0.117 C 
BRANCH   2   3
ATOM      3  N   UNL A   1      36.554  21.061  26.100  1.00  0.00    -0.354 N 
ATOM      4  C   UNL A   1      35.472  21.862  26.230  1.00  0.00     0.242 C 
ATOM      5  O   UNL A   1      34.625  21.436  27.033  1.00  0.00    -0.273 OA
ATOM      6  H   UNL A   1      36.622  20.363  26.791  1.00  0.00     0.163 HD
BRANCH   4   7
ATOM      7  C   UNL A   1      35.319  23.325  25.700  1.00  0.00     0.172 C 
ATOM      8  C   UNL A   1      36.763  23.840  25.492  1.00  0.00     0.042 C 
BRANCH   7   9
ATOM      9  N   UNL A   1      34.395  23.994  24.749  1.00  0.00    -0.316 N 
ATOM     10  C   UNL A   1      33.857  25.370  24.722  1.00  0.00     0.151 C 
ATOM     11  C   UNL A   1      33.508  25.537  23.256  1.00  0.00    -0.008 A 
ATOM     12  C   UNL A   1      33.285  26.652  22.465  1.00  0.00     0.007 A 
ATOM     13  C   UNL A   1      33.523  24.297  22.628  1.00  0.00     0.045 A 
ATOM     14  C   UNL A   1      34.155  23.348  23.528  1.00  0.00     0.255 C 
ATOM     15  C   UNL A   1      32.958  26.476  21.107  1.00  0.00     0.000 A 
ATOM     16  C   UNL A   1      33.175  24.079  21.306  1.00  0.00     0.014 A 
ATOM     17  O   UNL A   1      34.478  22.231  23.172  1.00  0.00    -0.269 OA
ATOM     18  C   UNL A   1      32.863  25.195  20.541  1.00  0.00     0.001 A 
BRANCH  10  19
ATOM     19  C   UNL A   1      32.522  25.509  25.466  1.00  0.00     0.013 A 
ATOM     20  C   UNL A   1      32.094  26.601  26.244  1.00  0.00     0.052 A 
ATOM     21  N   UNL A   1      30.933  26.229  26.891  1.00  0.00    -0.354 N 
ATOM     22  C   UNL A   1      30.605  24.930  26.614  1.00  0.00     0.046 A 
ATOM     23  H   UNL A   1      30.409  26.822  27.477  1.00  0.00     0.167 HD
ATOM     24  C   UNL A   1      31.486  24.490  25.625  1.00  0.00     0.006 A 
ATOM     25  C   UNL A   1      29.639  24.109  27.211  1.00  0.00     0.027 A 
ATOM     26  C   UNL A   1      31.263  23.192  25.115  1.00  0.00     0.011 A 
ATOM     27  C   UNL A   1      29.521  22.798  26.749  1.00  0.00     0.002 A 
ATOM     28  C   UNL A   1      30.298  22.355  25.689  1.00  0.00     0.001 A 
BRANCH  20  29
ATOM     29  C   UNL A   1      32.662  27.916  26.545  1.00  0.00    -0.002 A 
ATOM     30  C   UNL A   1      34.320  31.758  27.638  1.00  0.00     0.044 C 
ATOM     31  C   UNL A   1      33.757  30.419  27.266  1.00  0.00    -0.051 A 
ATOM     32  C   UNL A   1      32.371  30.241  27.188  1.00  0.00     0.004 A 
ATOM     33  C   UNL A   1      34.592  29.327  27.018  1.00  0.00     0.004 A 
ATOM     34  C   UNL A   1      31.833  28.994  26.852  1.00  0.00     0.010 A 
ATOM     35  C   UNL A   1      34.048  28.088  26.662  1.00  0.00     0.010 A 
ENDBRANCH  20  29
ENDBRANCH  10  19
ENDBRANCH   7   9
ENDBRANCH   4   7
ENDBRANCH   2   3
ENDBRANCH   1   2
BRANCH   1  36
ATOM     36  C   UNL A   1      39.761  22.299  25.730  1.00  0.00     0.118 C 
BRANCH  36  37
ATOM     37  N   UNL A   1      40.582  22.406  26.948  1.00  0.00    -0.352 N 
ATOM     38  C   UNL A   1      41.043  23.519  27.627  1.00  0.00     0.251 C 
ATOM     39  H   UNL A   1      40.844  21.545  27.345  1.00  0.00     0.163 HD
ATOM     40  O   UNL A   1      41.966  23.425  28.428  1.00  0.00    -0.269 OA
BRANCH  38  41
ATOM     41  C   UNL A   1      40.270  24.765  27.476  1.00  0.00     0.039 A 
ATOM     42  C   UNL A   1      40.962  25.780  26.805  1.00  0.00     0.014 A 
ATOM     43  C   UNL A   1      39.293  25.044  28.424  1.00  0.00     0.014 A 
ATOM     44  C   UNL A   1      40.943  27.062  27.331  1.00  0.00     0.010 A 
ATOM     45  C   UNL A   1      39.321  26.306  28.983  1.00  0.00     0.010 A 
ATOM     46  C   UNL A   1      40.233  27.267  28.506  1.00  0.00    -0.014 A 
BRANCH  46  47
ATOM     47  C   UNL A   1      40.440  28.407  29.385  1.00  0.00     0.031 A 
ATOM     48  C   UNL A   1      39.524  29.555  29.279  1.00  0.00     0.074 A 
ATOM     49  C   UNL A   1      41.334  28.326  30.398  1.00  0.00     0.049 A 
ATOM     50  N   UNL A   1      39.674  30.670  29.903  1.00  0.00    -0.248 NA
ATOM     51  C   UNL A   1      38.382  29.544  28.372  1.00  0.00     0.031 C 
ATOM     52  C   UNL A   1      41.341  29.121  31.622  1.00  0.00     0.029 A 
ATOM     53  N   UNL A   1      42.569  27.662  30.414  1.00  0.00    -0.354 N 
ATOM     54  C   UNL A   1      38.525  31.405  29.712  1.00  0.00     0.074 A 
ATOM     55  C   UNL A   1      37.818  30.716  28.664  1.00  0.00     0.031 C 
ATOM     56  C   UNL A   1      42.583  29.131  32.125  1.00  0.00     0.029 A 
ATOM     57  C   UNL A   1      43.441  28.492  31.144  1.00  0.00     0.049 A 
ATOM     58  H   UNL A   1      42.781  26.795  30.000  1.00  0.00     0.167 HD
ATOM     59  C   UNL A   1      38.259  32.425  30.574  1.00  0.00     0.034 A 
ATOM     60  C   UNL A   1      44.591  29.033  30.646  1.00  0.00     0.034 A 
ATOM     61  C   UNL A   1      39.456  32.755  31.363  1.00  0.00     0.049 A 
ATOM     62  C   UNL A   1      44.639  30.548  30.738  1.00  0.00     0.074 A 
ATOM     63  C   UNL A   1      39.869  32.457  32.650  1.00  0.00     0.029 A 
ATOM     64  N   UNL A   1      40.567  33.274  30.706  1.00  0.00    -0.354 N 
ATOM     65  N   UNL A   1      43.620  31.297  31.063  1.00  0.00    -0.248 NA
ATOM     66  C   UNL A   1      45.830  31.342  30.448  1.00  0.00     0.031 C 
ATOM     67  C   UNL A   1      41.268  32.708  32.728  1.00  0.00     0.029 A 
ATOM     68  C   UNL A   1      41.696  33.192  31.503  1.00  0.00     0.049 A 
ATOM     69  H   UNL A   1      40.553  33.650  29.795  1.00  0.00     0.167 HD
ATOM     70  C   UNL A   1      43.943  32.621  30.909  1.00  0.00     0.074 A 
ATOM     71  C   UNL A   1      45.362  32.594  30.599  1.00  0.00     0.031 C 
ATOM     72  C   UNL A   1      42.997  33.611  30.986  1.00  0.00     0.034 A 
BRANCH  59  73
ATOM     73  C   UNL A   1      36.875  32.976  30.897  1.00  0.00     0.023 A 
ATOM     74  C   UNL A   1      36.246  32.481  32.064  1.00  0.00     0.012 A 
ATOM     75  C   UNL A   1      36.083  33.841  30.102  1.00  0.00     0.148 A 
ATOM     76  C   UNL A   1      34.913  32.770  32.386  1.00  0.00     0.002 A 
ATOM     77  C   UNL A   1      34.752  34.129  30.418  1.00  0.00     0.091 A 
ATOM     78  F   UNL A   1      36.590  34.413  29.016  1.00  0.00    -0.205 F 
ATOM     79  C   UNL A   1      34.159  33.585  31.555  1.00  0.00     0.022 A 
BRANCH  77  80
ATOM     80  S   UNL A   1      33.711  35.166  29.367  1.00  0.00     0.127 S 
ATOM     81  O   UNL A   1      32.644  34.240  28.984  1.00  0.00    -0.237 OA
ATOM     82  O   UNL A   1      33.298  36.225  30.287  1.00  0.00    -0.237 OA
ATOM     83  O   UNL A   1      34.548  35.613  28.259  1.00  0.00    -0.744 OA
ENDBRANCH  77  80
ENDBRANCH  59  73
BRANCH  60  84
ATOM     84  C   UNL A   1      45.247  28.202  29.598  1.00  0.00     0.023 A 
ATOM     85  C   UNL A   1      45.812  26.976  30.025  1.00  0.00     0.012 A 
ATOM     86  C   UNL A   1      44.975  28.388  28.232  1.00  0.00     0.148 A 
ATOM     87  C   UNL A   1      45.984  25.917  29.133  1.00  0.00     0.002 A 
ATOM     88  C   UNL A   1      45.143  27.321  27.350  1.00  0.00     0.091 A 
ATOM     89  F   UNL A   1      44.472  29.563  27.836  1.00  0.00    -0.205 F 
ATOM     90  C   UNL A   1      45.615  26.078  27.804  1.00  0.00     0.022 A 
BRANCH  88  91
ATOM     91  S   UNL A   1      44.618  27.409  25.632  1.00  0.00     0.127 S 
ATOM     92  O   UNL A   1      43.563  28.416  25.699  1.00  0.00    -0.237 OA
ATOM     93  O   UNL A   1      45.844  27.844  24.960  1.00  0.00    -0.237 OA
ATOM     94  O   UNL A   1      44.201  26.057  25.294  1.00  0.00    -0.744 OA
ENDBRANCH  88  91
ENDBRANCH  60  84
BRANCH  72  95
ATOM     95  C   UNL A   1      43.194  35.062  30.560  1.00  0.00     0.023 A 
ATOM     96  C   UNL A   1      43.671  36.051  31.442  1.00  0.00     0.012 A 
ATOM     97  C   UNL A   1      43.048  35.451  29.201  1.00  0.00     0.148 A 
ATOM     98  C   UNL A   1      43.933  37.362  31.024  1.00  0.00     0.002 A 
ATOM     99  C   UNL A   1      43.418  36.724  28.768  1.00  0.00     0.091 A 
ATOM    100  F   UNL A   1      42.533  34.593  28.309  1.00  0.00    -0.205 F 
ATOM    101  C   UNL A   1      43.830  37.695  29.681  1.00  0.00     0.022 A 
BRANCH  99 102
ATOM    102  S   UNL A   1      43.534  37.101  27.011  1.00  0.00     0.127 S 
ATOM    103  O   UNL A   1      44.183  38.409  27.020  1.00  0.00    -0.237 OA
ATOM    104  O   UNL A   1      44.370  36.011  26.505  1.00  0.00    -0.237 OA
ATOM    105  O   UNL A   1      42.157  37.062  26.535  1.00  0.00    -0.744 OA
ENDBRANCH  99 102
ENDBRANCH  72  95
ENDBRANCH  46  47
ENDBRANCH  38  41
ENDBRANCH  36  37
ENDBRANCH   1  36
TORSDOF 16
ENDMDL
MODEL 2
REMARK VINA RESULT:     -12.8      1.696      2.082
REMARK SMILES Cc1ccc(-c2[nH]c3ccccc3c2[C@@H]2c3ccccc3C(=O)N2[C@H](C)C(=O)NCCCNC(=O)c2ccc(-c3c4nc(c(-c5cccc(S(=O)(=O)[O-])c5F)c5ccc([nH]5)c(-c5cccc(S(=O)(=O)[O-])c5F)c5nc(c(-c6cccc(S(=O)(=O)[O-])c6F)c6ccc3[nH]6)C=C5)C=C4)cc2)cc1
REMARK SMILES IDX 31 1 30 2 29 3 27 4 28 5 25 7 26 8 24 9 15 10 16 11 17 12
REMARK SMILES IDX 21 13 22 14 18 15 20 16 23 17 19 18 14 19 6 20 7 21 8 22
REMARK SMILES IDX 13 24 9 25 12 26 10 27 11 28 5 29 1 30 2 31 3 32 100 33 4 34
REMARK SMILES IDX 99 35 32 36 33 37 34 38 35 40 36 41 37 42 98 43 38 44 97 45
REMARK SMILES IDX 39 46 40 47 41 48 91 49 42 50 96 51 90 52 92 53 43 54 95 55
REMARK SMILES IDX 89 56 88 57 44 59 76 60 56 61 75 62 57 63 60 64 74 65 93 66
REMARK SMILES IDX 58 67 59 68 73 70 94 71 61 72 45 73 46 74 54 75 47 76 49 77
REMARK SMILES IDX 55 78 48 79 50 80 51 81 52 82 53 83 77 84 78 85 86 86 79 87
REMARK SMILES IDX 81 88 87 89 80 90 82 91 83 92 84 93 85 94 62 95 63 96 71 97
REMARK SMILES IDX 64 98 66 99 72 100 65 101 67 102 68 103 69 104 70 105
REMARK H PARENT 29 6 7 23 33 39 92 58 60 69
REMARK Flexibility Score: inf
ROOT
ATOM      1  C   UNL A   1      39.861  21.238  26.079  1.00  0.00     0.042 C 
ENDROOT
BRANCH   1   2
ATOM      2  C   UNL A   1      38.473  21.640  25.642  1.00  0.00     0.117 C 
BRANCH   2   3
ATOM      3  N   UNL A   1      38.219  23.045  25.784  1.00  0.00    -0.354 N 
ATOM      4  C   UNL A   1      37.069  23.750  25.875  1.00  0.00     0.242 C 
ATOM      5  O   UNL A   1      37.229  24.928  26.238  1.00  0.00    -0.273 OA
ATOM      6  H   UNL A   1      39.033  23.598  25.821  1.00  0.00     0.163 HD
BRANCH   4   7
ATOM      7  C   UNL A   1      35.664  23.327  25.335  1.00  0.00     0.172 C 
ATOM      8  C   UNL A   1      34.979  22.586  26.507  1.00  0.00     0.042 C 
BRANCH   7   9
ATOM      9  N   UNL A   1      34.643  23.976  24.474  1.00  0.00    -0.316 N 
ATOM     10  C   UNL A   1      34.014  25.311  24.551  1.00  0.00     0.151 C 
ATOM     11  C   UNL A   1      33.570  25.526  23.117  1.00  0.00    -0.008 A 
ATOM     12  C   UNL A   1      33.227  26.662  22.401  1.00  0.00     0.007 A 
ATOM     13  C   UNL A   1      33.631  24.324  22.423  1.00  0.00     0.045 A 
ATOM     14  C   UNL A   1      34.377  23.377  23.235  1.00  0.00     0.255 C 
ATOM     15  C   UNL A   1      32.834  26.532  21.055  1.00  0.00     0.000 A 
ATOM     16  C   UNL A   1      33.222  24.149  21.113  1.00  0.00     0.014 A 
ATOM     17  O   UNL A   1      34.752  22.305  22.802  1.00  0.00    -0.269 OA
ATOM     18  C   UNL A   1      32.792  25.277  20.427  1.00  0.00     0.001 A 
BRANCH  10  19
ATOM     19  C   UNL A   1      32.718  25.319  25.373  1.00  0.00     0.013 A 
ATOM     20  C   UNL A   1      32.282  26.322  26.259  1.00  0.00     0.052 A 
ATOM     21  N   UNL A   1      31.180  25.838  26.934  1.00  0.00    -0.354 N 
ATOM     22  C   UNL A   1      30.900  24.550  26.569  1.00  0.00     0.046 A 
ATOM     23  H   UNL A   1      30.662  26.354  27.594  1.00  0.00     0.167 HD
ATOM     24  C   UNL A   1      31.744  24.238  25.502  1.00  0.00     0.006 A 
ATOM     25  C   UNL A   1      30.010  23.634  27.147  1.00  0.00     0.027 A 
ATOM     26  C   UNL A   1      31.556  22.974  24.899  1.00  0.00     0.011 A 
ATOM     27  C   UNL A   1      29.931  22.360  26.585  1.00  0.00     0.002 A 
ATOM     28  C   UNL A   1      30.667  22.044  25.453  1.00  0.00     0.001 A 
BRANCH  20  29
ATOM     29  C   UNL A   1      32.802  27.638  26.638  1.00  0.00    -0.002 A 
ATOM     30  C   UNL A   1      34.343  31.573  27.552  1.00  0.00     0.044 C 
ATOM     31  C   UNL A   1      33.797  30.215  27.229  1.00  0.00    -0.051 A 
ATOM     32  C   UNL A   1      34.668  29.172  26.892  1.00  0.00     0.004 A 
ATOM     33  C   UNL A   1      32.421  29.970  27.232  1.00  0.00     0.004 A 
ATOM     34  C   UNL A   1      34.170  27.904  26.578  1.00  0.00     0.010 A 
ATOM     35  C   UNL A   1      31.931  28.692  26.937  1.00  0.00     0.010 A 
ENDBRANCH  20  29
ENDBRANCH  10  19
ENDBRANCH   7   9
ENDBRANCH   4   7
ENDBRANCH   2   3
ENDBRANCH   1   2
BRANCH   1  36
ATOM     36  C   UNL A   1      40.316  21.845  27.395  1.00  0.00     0.118 C 
BRANCH  36  37
ATOM     37  N   UNL A   1      41.570  22.582  27.167  1.00  0.00    -0.352 N 
ATOM     38  C   UNL A   1      41.786  23.879  26.739  1.00  0.00     0.251 C 
ATOM     39  H   UNL A   1      42.389  22.068  27.352  1.00  0.00     0.163 HD
ATOM     40  O   UNL A   1      42.880  24.221  26.306  1.00  0.00    -0.269 OA
BRANCH  38  41
ATOM     41  C   UNL A   1      40.710  24.855  26.989  1.00  0.00     0.039 A 
ATOM     42  C   UNL A   1      40.757  25.974  26.147  1.00  0.00     0.014 A 
ATOM     43  C   UNL A   1      40.175  24.922  28.269  1.00  0.00     0.014 A 
ATOM     44  C   UNL A   1      40.606  27.234  26.702  1.00  0.00     0.010 A 
ATOM     45  C   UNL A   1      40.084  26.179  28.834  1.00  0.00     0.010 A 
ATOM     46  C   UNL A   1      40.417  27.317  28.075  1.00  0.00    -0.014 A 
BRANCH  46  47
ATOM     47  C   UNL A   1      40.646  28.526  28.849  1.00  0.00     0.031 A 
ATOM     48  C   UNL A   1      39.617  29.579  28.835  1.00  0.00     0.074 A 
ATOM     49  C   UNL A   1      41.691  28.592  29.706  1.00  0.00     0.049 A 
ATOM     50  N   UNL A   1      39.753  30.742  29.368  1.00  0.00    -0.248 NA
ATOM     51  C   UNL A   1      38.354  29.407  28.127  1.00  0.00     0.031 C 
ATOM     52  C   UNL A   1      41.813  29.462  30.871  1.00  0.00     0.029 A 
ATOM     53  N   UNL A   1      42.973  28.042  29.556  1.00  0.00    -0.354 N 
ATOM     54  C   UNL A   1      38.522  31.358  29.329  1.00  0.00     0.074 A 
ATOM     55  C   UNL A   1      37.731  30.541  28.446  1.00  0.00     0.031 C 
ATOM     56  C   UNL A   1      43.111  29.616  31.165  1.00  0.00     0.029 A 
ATOM     57  C   UNL A   1      43.863  28.992  30.091  1.00  0.00     0.049 A 
ATOM     58  H   UNL A   1      43.202  27.171  29.158  1.00  0.00     0.167 HD
ATOM     59  C   UNL A   1      38.296  32.405  30.169  1.00  0.00     0.034 A 
ATOM     60  C   UNL A   1      44.863  29.598  29.387  1.00  0.00     0.034 A 
ATOM     61  C   UNL A   1      39.564  32.891  30.736  1.00  0.00     0.049 A 
ATOM     62  C   UNL A   1      44.776  31.114  29.393  1.00  0.00     0.074 A 
ATOM     63  C   UNL A   1      40.200  32.716  31.953  1.00  0.00     0.029 A 
ATOM     64  N   UNL A   1      40.502  33.461  29.882  1.00  0.00    -0.354 N 
ATOM     65  N   UNL A   1      43.752  31.790  29.840  1.00  0.00    -0.248 NA
ATOM     66  C   UNL A   1      45.823  31.990  28.873  1.00  0.00     0.031 C 
ATOM     67  C   UNL A   1      41.563  33.094  31.790  1.00  0.00     0.029 A 
ATOM     68  C   UNL A   1      41.745  33.532  30.489  1.00  0.00     0.049 A 
ATOM     69  H   UNL A   1      40.309  33.774  28.968  1.00  0.00     0.167 HD
ATOM     70  C   UNL A   1      43.915  33.124  29.568  1.00  0.00     0.074 A 
ATOM     71  C   UNL A   1      45.265  33.203  29.034  1.00  0.00     0.031 C 
ATOM     72  C   UNL A   1      42.902  34.030  29.747  1.00  0.00     0.034 A 
BRANCH  59  73
ATOM     73  C   UNL A   1      36.932  32.851  30.685  1.00  0.00     0.023 A 
ATOM     74  C   UNL A   1      36.478  32.260  31.887  1.00  0.00     0.012 A 
ATOM     75  C   UNL A   1      36.003  33.705  30.040  1.00  0.00     0.148 A 
ATOM     76  C   UNL A   1      35.179  32.449  32.379  1.00  0.00     0.002 A 
ATOM     77  C   UNL A   1      34.706  33.894  30.525  1.00  0.00     0.091 A 
ATOM     78  F   UNL A   1      36.343  34.362  28.936  1.00  0.00    -0.205 F 
ATOM     79  C   UNL A   1      34.286  33.256  31.691  1.00  0.00     0.022 A 
BRANCH  77  80
ATOM     80  S   UNL A   1      33.490  34.916  29.666  1.00  0.00     0.127 S 
ATOM     81  O   UNL A   1      32.825  33.939  28.803  1.00  0.00    -0.237 OA
ATOM     82  O   UNL A   1      32.669  35.414  30.768  1.00  0.00    -0.237 OA
ATOM     83  O   UNL A   1      34.238  35.942  28.949  1.00  0.00    -0.744 OA
ENDBRANCH  77  80
ENDBRANCH  59  73
BRANCH  60  84
ATOM     84  C   UNL A   1      45.424  28.761  28.290  1.00  0.00     0.023 A 
ATOM     85  C   UNL A   1      44.994  29.067  26.977  1.00  0.00     0.012 A 
ATOM     86  C   UNL A   1      46.598  28.008  28.465  1.00  0.00     0.148 A 
ATOM     87  C   UNL A   1      45.779  28.741  25.871  1.00  0.00     0.002 A 
ATOM     88  C   UNL A   1      47.381  27.694  27.355  1.00  0.00     0.091 A 
ATOM     89  F   UNL A   1      46.977  27.697  29.710  1.00  0.00    -0.205 F 
ATOM     90  C   UNL A   1      46.990  28.086  26.063  1.00  0.00     0.022 A 
BRANCH  88  91
ATOM     91  S   UNL A   1      48.998  26.923  27.511  1.00  0.00     0.127 S 
ATOM     92  O   UNL A   1      49.369  26.732  26.113  1.00  0.00    -0.237 OA
ATOM     93  O   UNL A   1      49.761  27.954  28.217  1.00  0.00    -0.237 OA
ATOM     94  O   UNL A   1      48.768  25.716  28.290  1.00  0.00    -0.744 OA
ENDBRANCH  88  91
ENDBRANCH  60  84
BRANCH  72  95
ATOM     95  C   UNL A   1      42.886  35.461  29.222  1.00  0.00     0.023 A 
ATOM     96  C   UNL A   1      42.044  35.871  28.169  1.00  0.00     0.012 A 
ATOM     97  C   UNL A   1      43.615  36.490  29.877  1.00  0.00     0.148 A 
ATOM     98  C   UNL A   1      41.969  37.205  27.748  1.00  0.00     0.002 A 
ATOM     99  C   UNL A   1      43.451  37.830  29.529  1.00  0.00     0.091 A 
ATOM    100  F   UNL A   1      44.493  36.179  30.842  1.00  0.00    -0.205 F 
ATOM    101  C   UNL A   1      42.654  38.191  28.444  1.00  0.00     0.022 A 
BRANCH  99 102
ATOM    102  S   UNL A   1      44.125  39.139  30.566  1.00  0.00     0.127 S 
ATOM    103  O   UNL A   1      43.696  38.727  31.899  1.00  0.00    -0.237 OA
ATOM    104  O   UNL A   1      45.565  39.026  30.329  1.00  0.00    -0.237 OA
ATOM    105  O   UNL A   1      43.533  40.364  30.042  1.00  0.00    -0.744 OA
ENDBRANCH  99 102
ENDBRANCH  72  95
ENDBRANCH  46  47
ENDBRANCH  38  41
ENDBRANCH  36  37
ENDBRANCH   1  36
TORSDOF 16
ENDMDL
MODEL 3
REMARK VINA RESULT:     -12.8      4.984      9.048
REMARK SMILES Cc1ccc(-c2[nH]c3ccccc3c2[C@@H]2c3ccccc3C(=O)N2[C@H](C)C(=O)NCCCNC(=O)c2ccc(-c3c4nc(c(-c5cccc(S(=O)(=O)[O-])c5F)c5ccc([nH]5)c(-c5cccc(S(=O)(=O)[O-])c5F)c5nc(c(-c6cccc(S(=O)(=O)[O-])c6F)c6ccc3[nH]6)C=C5)C=C4)cc2)cc1
REMARK SMILES IDX 31 1 30 2 29 3 27 4 28 5 25 7 26 8 24 9 15 10 16 11 17 12
REMARK SMILES IDX 21 13 22 14 18 15 20 16 23 17 19 18 14 19 6 20 7 21 8 22
REMARK SMILES IDX 13 24 9 25 12 26 10 27 11 28 5 29 1 30 2 31 3 32 100 33 4 34
REMARK SMILES IDX 99 35 32 36 33 37 34 38 35 40 36 41 37 42 98 43 38 44 97 45
REMARK SMILES IDX 39 46 40 47 41 48 91 49 42 50 96 51 90 52 92 53 43 54 95 55
REMARK SMILES IDX 89 56 88 57 44 59 76 60 56 61 75 62 57 63 60 64 74 65 93 66
REMARK SMILES IDX 58 67 59 68 73 70 94 71 61 72 45 73 46 74 54 75 47 76 49 77
REMARK SMILES IDX 55 78 48 79 50 80 51 81 52 82 53 83 77 84 78 85 86 86 79 87
REMARK SMILES IDX 81 88 87 89 80 90 82 91 83 92 84 93 85 94 62 95 63 96 71 97
REMARK SMILES IDX 64 98 66 99 72 100 65 101 67 102 68 103 69 104 70 105
REMARK H PARENT 29 6 7 23 33 39 92 58 60 69
REMARK Flexibility Score: inf
ROOT
ATOM      1  C   UNL A   1      42.505  29.313  28.889  1.00  0.00     0.042 C 
ENDROOT
BRANCH   1   2
ATOM      2  C   UNL A   1      43.432  29.916  27.862  1.00  0.00     0.117 C 
BRANCH   2   3
ATOM      3  N   UNL A   1      43.064  29.601  26.511  1.00  0.00    -0.354 N 
ATOM      4  C   UNL A   1      42.482  28.510  25.964  1.00  0.00     0.242 C 
ATOM      5  O   UNL A   1      42.086  28.682  24.799  1.00  0.00    -0.273 OA
ATOM      6  H   UNL A   1      43.275  30.311  25.863  1.00  0.00     0.163 HD
BRANCH   4   7
ATOM      7  C   UNL A   1      42.502  27.053  26.531  1.00  0.00     0.172 C 
ATOM      8  C   UNL A   1      41.017  26.638  26.653  1.00  0.00     0.042 C 
BRANCH   7   9
ATOM      9  N   UNL A   1      43.350  25.857  26.292  1.00  0.00    -0.316 N 
ATOM     10  C   UNL A   1      42.996  24.432  26.127  1.00  0.00     0.151 C 
ATOM     11  C   UNL A   1      44.190  23.904  25.356  1.00  0.00    -0.008 A 
ATOM     12  C   UNL A   1      44.382  22.769  24.584  1.00  0.00     0.007 A 
ATOM     13  C   UNL A   1      45.222  24.833  25.398  1.00  0.00     0.045 A 
ATOM     14  C   UNL A   1      44.679  26.082  25.904  1.00  0.00     0.255 C 
ATOM     15  C   UNL A   1      45.640  22.546  23.994  1.00  0.00     0.000 A 
ATOM     16  C   UNL A   1      46.482  24.636  24.861  1.00  0.00     0.014 A 
ATOM     17  O   UNL A   1      45.304  27.123  25.871  1.00  0.00    -0.269 OA
ATOM     18  C   UNL A   1      46.696  23.454  24.165  1.00  0.00     0.001 A 
BRANCH  10  19
ATOM     19  C   UNL A   1      43.003  23.654  27.449  1.00  0.00     0.013 A 
ATOM     20  C   UNL A   1      42.138  22.608  27.823  1.00  0.00     0.052 A 
ATOM     21  N   UNL A   1      42.358  22.335  29.158  1.00  0.00    -0.354 N 
ATOM     22  C   UNL A   1      43.289  23.183  29.691  1.00  0.00     0.046 A 
ATOM     23  H   UNL A   1      41.902  21.622  29.662  1.00  0.00     0.167 HD
ATOM     24  C   UNL A   1      43.816  23.924  28.633  1.00  0.00     0.006 A 
ATOM     25  C   UNL A   1      43.649  23.381  31.031  1.00  0.00     0.027 A 
ATOM     26  C   UNL A   1      44.876  24.805  28.947  1.00  0.00     0.011 A 
ATOM     27  C   UNL A   1      44.627  24.336  31.309  1.00  0.00     0.002 A 
ATOM     28  C   UNL A   1      45.260  25.014  30.278  1.00  0.00     0.001 A 
BRANCH  20  29
ATOM     29  C   UNL A   1      41.066  21.884  27.136  1.00  0.00    -0.002 A 
ATOM     30  C   UNL A   1      37.977  19.816  24.927  1.00  0.00     0.044 C 
ATOM     31  C   UNL A   1      39.058  20.525  25.686  1.00  0.00    -0.051 A 
ATOM     32  C   UNL A   1      38.905  21.874  26.028  1.00  0.00     0.004 A 
ATOM     33  C   UNL A   1      40.240  19.869  26.043  1.00  0.00     0.004 A 
ATOM     34  C   UNL A   1      39.911  22.548  26.726  1.00  0.00     0.010 A 
ATOM     35  C   UNL A   1      41.234  20.545  26.760  1.00  0.00     0.010 A 
ENDBRANCH  20  29
ENDBRANCH  10  19
ENDBRANCH   7   9
ENDBRANCH   4   7
ENDBRANCH   2   3
ENDBRANCH   1   2
BRANCH   1  36
ATOM     36  C   UNL A   1      41.295  30.165  29.233  1.00  0.00     0.118 C 
BRANCH  36  37
ATOM     37  N   UNL A   1      40.143  29.688  28.450  1.00  0.00    -0.352 N 
ATOM     38  C   UNL A   1      38.793  29.679  28.750  1.00  0.00     0.251 C 
ATOM     39  H   UNL A   1      40.371  29.316  27.568  1.00  0.00     0.163 HD
ATOM     40  O   UNL A   1      38.019  28.963  28.126  1.00  0.00    -0.269 OA
BRANCH  38  41
ATOM     41  C   UNL A   1      38.315  30.682  29.719  1.00  0.00     0.039 A 
ATOM     42  C   UNL A   1      38.412  32.001  29.259  1.00  0.00     0.014 A 
ATOM     43  C   UNL A   1      38.385  30.368  31.071  1.00  0.00     0.014 A 
ATOM     44  C   UNL A   1      38.940  32.965  30.103  1.00  0.00     0.010 A 
ATOM     45  C   UNL A   1      38.967  31.313  31.893  1.00  0.00     0.010 A 
ATOM     46  C   UNL A   1      39.347  32.563  31.368  1.00  0.00    -0.014 A 
BRANCH  46  47
ATOM     47  C   UNL A   1      40.267  33.324  32.199  1.00  0.00     0.031 A 
ATOM     48  C   UNL A   1      39.724  34.093  33.331  1.00  0.00     0.074 A 
ATOM     49  C   UNL A   1      41.602  33.169  32.045  1.00  0.00     0.049 A 
ATOM     50  N   UNL A   1      40.408  34.905  34.058  1.00  0.00    -0.248 NA
ATOM     51  C   UNL A   1      38.308  34.053  33.676  1.00  0.00     0.031 C 
ATOM     52  C   UNL A   1      42.635  33.440  33.040  1.00  0.00     0.029 A 
ATOM     53  N   UNL A   1      42.320  32.956  30.859  1.00  0.00    -0.354 N 
ATOM     54  C   UNL A   1      39.614  35.268  35.124  1.00  0.00     0.074 A 
ATOM     55  C   UNL A   1      38.295  34.812  34.772  1.00  0.00     0.031 C 
ATOM     56  C   UNL A   1      43.798  33.654  32.412  1.00  0.00     0.029 A 
ATOM     57  C   UNL A   1      43.508  33.700  30.990  1.00  0.00     0.049 A 
ATOM     58  H   UNL A   1      42.048  32.401  30.092  1.00  0.00     0.167 HD
ATOM     59  C   UNL A   1      40.216  35.783  36.231  1.00  0.00     0.034 A 
ATOM     60  C   UNL A   1      43.887  34.707  30.151  1.00  0.00     0.034 A 
ATOM     61  C   UNL A   1      41.605  36.163  35.931  1.00  0.00     0.049 A 
ATOM     62  C   UNL A   1      44.132  36.028  30.859  1.00  0.00     0.074 A 
ATOM     63  C   UNL A   1      42.834  35.572  36.166  1.00  0.00     0.029 A 
ATOM     64  N   UNL A   1      41.834  37.196  35.026  1.00  0.00    -0.354 N 
ATOM     65  N   UNL A   1      43.822  36.261  32.106  1.00  0.00    -0.248 NA
ATOM     66  C   UNL A   1      44.721  37.198  30.214  1.00  0.00     0.031 C 
ATOM     67  C   UNL A   1      43.788  36.196  35.314  1.00  0.00     0.029 A 
ATOM     68  C   UNL A   1      43.148  37.189  34.590  1.00  0.00     0.049 A 
ATOM     69  H   UNL A   1      41.152  37.845  34.736  1.00  0.00     0.167 HD
ATOM     70  C   UNL A   1      44.028  37.585  32.401  1.00  0.00     0.074 A 
ATOM     71  C   UNL A   1      44.667  38.107  31.204  1.00  0.00     0.031 C 
ATOM     72  C   UNL A   1      43.594  38.142  33.576  1.00  0.00     0.034 A 
BRANCH  59  73
ATOM     73  C   UNL A   1      39.659  35.729  37.650  1.00  0.00     0.023 A 
ATOM     74  C   UNL A   1      39.753  36.913  38.419  1.00  0.00     0.012 A 
ATOM     75  C   UNL A   1      39.162  34.596  38.339  1.00  0.00     0.148 A 
ATOM     76  C   UNL A   1      39.439  36.955  39.785  1.00  0.00     0.002 A 
ATOM     77  C   UNL A   1      38.851  34.632  39.701  1.00  0.00     0.091 A 
ATOM     78  F   UNL A   1      38.974  33.446  37.701  1.00  0.00    -0.205 F 
ATOM     79  C   UNL A   1      39.000  35.809  40.432  1.00  0.00     0.022 A 
BRANCH  77  80
ATOM     80  S   UNL A   1      38.294  33.172  40.607  1.00  0.00     0.127 S 
ATOM     81  O   UNL A   1      39.425  32.258  40.439  1.00  0.00    -0.237 OA
ATOM     82  O   UNL A   1      38.126  33.692  41.962  1.00  0.00    -0.237 OA
ATOM     83  O   UNL A   1      37.061  32.728  39.966  1.00  0.00    -0.744 OA
ENDBRANCH  77  80
ENDBRANCH  59  73
BRANCH  60  84
ATOM     84  C   UNL A   1      43.402  34.545  28.752  1.00  0.00     0.023 A 
ATOM     85  C   UNL A   1      42.399  35.446  28.322  1.00  0.00     0.012 A 
ATOM     86  C   UNL A   1      44.149  33.847  27.788  1.00  0.00     0.148 A 
ATOM     87  C   UNL A   1      42.231  35.739  26.968  1.00  0.00     0.002 A 
ATOM     88  C   UNL A   1      43.981  34.152  26.438  1.00  0.00     0.091 A 
ATOM     89  F   UNL A   1      45.072  32.972  28.207  1.00  0.00    -0.205 F 
ATOM     90  C   UNL A   1      43.047  35.119  26.030  1.00  0.00     0.022 A 
BRANCH  88  91
ATOM     91  S   UNL A   1      45.043  33.463  25.161  1.00  0.00     0.127 S 
ATOM     92  O   UNL A   1      46.336  34.039  25.514  1.00  0.00    -0.237 OA
ATOM     93  O   UNL A   1      44.921  32.025  25.406  1.00  0.00    -0.237 OA
ATOM     94  O   UNL A   1      44.459  33.905  23.904  1.00  0.00    -0.744 OA
ENDBRANCH  88  91
ENDBRANCH  60  84
BRANCH  72  95
ATOM     95  C   UNL A   1      43.522  39.634  33.878  1.00  0.00     0.023 A 
ATOM     96  C   UNL A   1      44.064  40.196  35.051  1.00  0.00     0.012 A 
ATOM     97  C   UNL A   1      43.036  40.555  32.910  1.00  0.00     0.148 A 
ATOM     98  C   UNL A   1      44.074  41.577  35.284  1.00  0.00     0.002 A 
ATOM     99  C   UNL A   1      43.151  41.932  33.097  1.00  0.00     0.091 A 
ATOM    100  F   UNL A   1      42.440  40.104  31.797  1.00  0.00    -0.205 F 
ATOM    101  C   UNL A   1      43.640  42.449  34.296  1.00  0.00     0.022 A 
BRANCH  99 102
ATOM    102  S   UNL A   1      42.833  43.074  31.742  1.00  0.00     0.127 S 
ATOM    103  O   UNL A   1      41.832  42.353  30.961  1.00  0.00    -0.237 OA
ATOM    104  O   UNL A   1      42.324  44.259  32.435  1.00  0.00    -0.237 OA
ATOM    105  O   UNL A   1      44.132  43.268  31.112  1.00  0.00    -0.744 OA
ENDBRANCH  99 102
ENDBRANCH  72  95
ENDBRANCH  46  47
ENDBRANCH  38  41
ENDBRANCH  36  37
ENDBRANCH   1  36
TORSDOF 16
ENDMDL
