MODEL 1
REMARK VINA RESULT:     -10.9      0.000      0.000
REMARK SMILES C[C@H](Cc1ccc(N)cc1)C(=O)NCCCNC(=O)c1ccc(-c2c3nc(c(-c4cccc(S(=O)(=O)[O-])c4F)c4ccc([nH]4)c(-c4cccc(S(=O)(=O)[O-])c4F)c4nc(c(-c5cccc(S(=O)(=O)[O-])c5F)c5ccc2[nH]5)C=C4)C=C3)cc1
REMARK SMILES IDX 15 1 14 2 13 3 11 4 12 5 2 7 1 8 3 9 4 10 5 11 10 12 6 13
REMARK SMILES IDX 9 14 7 15 8 16 16 19 17 20 18 21 19 23 20 24 21 25 82 26
REMARK SMILES IDX 22 27 81 28 23 29 24 30 25 31 75 32 26 33 80 34 74 35 76 36
REMARK SMILES IDX 27 37 79 38 73 39 72 40 28 42 60 43 40 44 59 45 41 46 44 47
REMARK SMILES IDX 58 48 77 49 42 50 43 51 57 53 78 54 45 55 29 56 30 57 38 58
REMARK SMILES IDX 31 59 33 60 39 61 32 62 34 63 35 64 36 65 37 66 61 67 62 68
REMARK SMILES IDX 70 69 63 70 65 71 71 72 64 73 66 74 67 75 68 76 69 77 46 78
REMARK SMILES IDX 47 79 55 80 48 81 50 82 56 83 49 84 51 85 52 86 53 87 54 88
REMARK H PARENT 13 6 8 17 8 18 17 22 76 41 44 52
REMARK Flexibility Score: inf
ROOT
ATOM      1  C   UNL A   1      34.358  34.660  28.022  1.00  0.00     0.042 C 
ENDROOT
BRANCH   1   2
ATOM      2  C   UNL A   1      33.207  34.847  29.003  1.00  0.00     0.117 C 
BRANCH   2   3
ATOM      3  N   UNL A   1      33.161  36.197  29.530  1.00  0.00    -0.356 N 
ATOM      4  C   UNL A   1      33.002  36.652  30.800  1.00  0.00     0.223 C 
ATOM      5  O   UNL A   1      32.958  37.875  30.959  1.00  0.00    -0.275 OA
ATOM      6  H   UNL A   1      33.261  36.904  28.852  1.00  0.00     0.163 HD
BRANCH   4   7
ATOM      7  C   UNL A   1      32.917  35.718  32.005  1.00  0.00     0.079 C 
ATOM      8  C   UNL A   1      31.557  35.842  32.696  1.00  0.00     0.018 C 
BRANCH   7   9
ATOM      9  C   UNL A   1      34.199  35.737  32.871  1.00  0.00     0.048 C 
BRANCH   9  10
ATOM     10  C   UNL A   1      35.023  34.471  32.910  1.00  0.00    -0.047 A 
ATOM     11  C   UNL A   1      35.777  34.144  34.040  1.00  0.00     0.006 A 
ATOM     12  C   UNL A   1      35.022  33.577  31.834  1.00  0.00     0.006 A 
ATOM     13  C   UNL A   1      36.415  32.905  34.144  1.00  0.00     0.026 A 
ATOM     14  C   UNL A   1      35.679  32.346  31.933  1.00  0.00     0.026 A 
ATOM     15  C   UNL A   1      36.377  31.996  33.090  1.00  0.00     0.031 A 
BRANCH  15  16
ATOM     16  N   UNL A   1      36.903  30.724  33.244  1.00  0.00    -0.399 N 
ATOM     17  H   UNL A   1      37.878  30.590  33.237  1.00  0.00     0.156 HD
ATOM     18  H   UNL A   1      36.301  29.953  33.362  1.00  0.00     0.156 HD
ENDBRANCH  15  16
ENDBRANCH   9  10
ENDBRANCH   7   9
ENDBRANCH   4   7
ENDBRANCH   2   3
ENDBRANCH   1   2
BRANCH   1  19
ATOM     19  C   UNL A   1      35.085  33.332  28.157  1.00  0.00     0.118 C 
BRANCH  19  20
ATOM     20  N   UNL A   1      34.208  32.203  27.885  1.00  0.00    -0.352 N 
ATOM     21  C   UNL A   1      34.487  30.867  27.735  1.00  0.00     0.251 C 
ATOM     22  H   UNL A   1      33.256  32.435  27.793  1.00  0.00     0.163 HD
ATOM     23  O   UNL A   1      33.617  30.138  27.261  1.00  0.00    -0.269 OA
BRANCH  21  24
ATOM     24  C   UNL A   1      35.795  30.291  28.131  1.00  0.00     0.039 A 
ATOM     25  C   UNL A   1      35.924  29.742  29.413  1.00  0.00     0.014 A 
ATOM     26  C   UNL A   1      36.917  30.359  27.301  1.00  0.00     0.014 A 
ATOM     27  C   UNL A   1      37.160  29.255  29.847  1.00  0.00     0.010 A 
ATOM     28  C   UNL A   1      38.122  29.780  27.695  1.00  0.00     0.010 A 
ATOM     29  C   UNL A   1      38.271  29.261  28.988  1.00  0.00    -0.014 A 
BRANCH  29  30
ATOM     30  C   UNL A   1      39.602  28.785  29.448  1.00  0.00     0.031 A 
ATOM     31  C   UNL A   1      40.316  29.497  30.572  1.00  0.00     0.074 A 
ATOM     32  C   UNL A   1      40.196  27.747  28.827  1.00  0.00     0.049 A 
ATOM     33  N   UNL A   1      41.480  29.233  31.109  1.00  0.00    -0.248 NA
ATOM     34  C   UNL A   1      39.652  30.679  31.148  1.00  0.00     0.031 C 
ATOM     35  C   UNL A   1      39.654  27.030  27.671  1.00  0.00     0.029 A 
ATOM     36  N   UNL A   1      41.394  27.124  29.072  1.00  0.00    -0.354 N 
ATOM     37  C   UNL A   1      41.703  30.233  32.049  1.00  0.00     0.074 A 
ATOM     38  C   UNL A   1      40.576  31.135  31.980  1.00  0.00     0.031 C 
ATOM     39  C   UNL A   1      40.509  26.055  27.317  1.00  0.00     0.029 A 
ATOM     40  C   UNL A   1      41.665  26.089  28.208  1.00  0.00     0.049 A 
ATOM     41  H   UNL A   1      42.002  27.392  29.798  1.00  0.00     0.167 HD
ATOM     42  C   UNL A   1      42.730  30.372  32.920  1.00  0.00     0.034 A 
ATOM     43  C   UNL A   1      42.721  25.254  28.146  1.00  0.00     0.034 A 
ATOM     44  C   UNL A   1      43.820  29.440  33.031  1.00  0.00     0.049 A 
ATOM     45  C   UNL A   1      43.806  25.374  29.183  1.00  0.00     0.074 A 
ATOM     46  C   UNL A   1      44.867  29.439  33.935  1.00  0.00     0.029 A 
ATOM     47  N   UNL A   1      43.999  28.337  32.210  1.00  0.00    -0.354 N 
ATOM     48  N   UNL A   1      43.916  26.232  30.168  1.00  0.00    -0.248 NA
ATOM     49  C   UNL A   1      44.885  24.378  29.132  1.00  0.00     0.031 C 
ATOM     50  C   UNL A   1      45.686  28.340  33.655  1.00  0.00     0.029 A 
ATOM     51  C   UNL A   1      45.135  27.644  32.591  1.00  0.00     0.049 A 
ATOM     52  H   UNL A   1      43.405  28.083  31.468  1.00  0.00     0.167 HD
ATOM     53  C   UNL A   1      45.051  25.855  30.878  1.00  0.00     0.074 A 
ATOM     54  C   UNL A   1      45.579  24.676  30.221  1.00  0.00     0.031 C 
ATOM     55  C   UNL A   1      45.613  26.437  31.966  1.00  0.00     0.034 A 
BRANCH  42  56
ATOM     56  C   UNL A   1      42.690  31.542  33.871  1.00  0.00     0.023 A 
ATOM     57  C   UNL A   1      43.236  32.780  33.473  1.00  0.00     0.012 A 
ATOM     58  C   UNL A   1      42.071  31.437  35.132  1.00  0.00     0.148 A 
ATOM     59  C   UNL A   1      43.207  33.881  34.329  1.00  0.00     0.002 A 
ATOM     60  C   UNL A   1      42.003  32.551  35.960  1.00  0.00     0.091 A 
ATOM     61  F   UNL A   1      41.574  30.248  35.504  1.00  0.00    -0.205 F 
ATOM     62  C   UNL A   1      42.581  33.769  35.567  1.00  0.00     0.022 A 
BRANCH  60  63
ATOM     63  S   UNL A   1      41.148  32.533  37.541  1.00  0.00     0.127 S 
ATOM     64  O   UNL A   1      39.845  31.985  37.167  1.00  0.00    -0.237 OA
ATOM     65  O   UNL A   1      41.983  31.631  38.334  1.00  0.00    -0.237 OA
ATOM     66  O   UNL A   1      41.137  33.913  38.006  1.00  0.00    -0.744 OA
ENDBRANCH  60  63
ENDBRANCH  42  56
BRANCH  43  67
ATOM     67  C   UNL A   1      42.751  24.167  27.128  1.00  0.00     0.023 A 
ATOM     68  C   UNL A   1      43.485  24.355  25.939  1.00  0.00     0.012 A 
ATOM     69  C   UNL A   1      42.088  22.944  27.337  1.00  0.00     0.148 A 
ATOM     70  C   UNL A   1      43.527  23.359  24.963  1.00  0.00     0.002 A 
ATOM     71  C   UNL A   1      42.179  21.934  26.385  1.00  0.00     0.091 A 
ATOM     72  F   UNL A   1      41.387  22.787  28.469  1.00  0.00    -0.205 F 
ATOM     73  C   UNL A   1      42.883  22.147  25.190  1.00  0.00     0.022 A 
BRANCH  71  74
ATOM     74  S   UNL A   1      41.495  20.296  26.654  1.00  0.00     0.127 S 
ATOM     75  O   UNL A   1      41.907  19.597  25.438  1.00  0.00    -0.237 OA
ATOM     76  O   UNL A   1      42.190  19.873  27.872  1.00  0.00    -0.237 OA
ATOM     77  O   UNL A   1      40.064  20.491  26.821  1.00  0.00    -0.744 OA
ENDBRANCH  71  74
ENDBRANCH  43  67
BRANCH  55  78
ATOM     78  C   UNL A   1      46.837  25.784  32.550  1.00  0.00     0.023 A 
ATOM     79  C   UNL A   1      46.715  24.926  33.661  1.00  0.00     0.012 A 
ATOM     80  C   UNL A   1      48.103  25.978  31.963  1.00  0.00     0.148 A 
ATOM     81  C   UNL A   1      47.839  24.306  34.205  1.00  0.00     0.002 A 
ATOM     82  C   UNL A   1      49.211  25.317  32.480  1.00  0.00     0.091 A 
ATOM     83  F   UNL A   1      48.206  26.815  30.920  1.00  0.00    -0.205 F 
ATOM     84  C   UNL A   1      49.083  24.492  33.609  1.00  0.00     0.022 A 
BRANCH  82  85
ATOM     85  S   UNL A   1      50.829  25.428  31.708  1.00  0.00     0.127 S 
ATOM     86  O   UNL A   1      51.631  24.559  32.567  1.00  0.00    -0.237 OA
ATOM     87  O   UNL A   1      50.577  24.895  30.367  1.00  0.00    -0.237 OA
ATOM     88  O   UNL A   1      51.181  26.842  31.733  1.00  0.00    -0.744 OA
ENDBRANCH  82  85
ENDBRANCH  55  78
ENDBRANCH  29  30
ENDBRANCH  21  24
ENDBRANCH  19  20
ENDBRANCH   1  19
TORSDOF 16
ENDMDL
MODEL 2
REMARK VINA RESULT:     -10.8      1.900      2.595
REMARK SMILES C[C@H](Cc1ccc(N)cc1)C(=O)NCCCNC(=O)c1ccc(-c2c3nc(c(-c4cccc(S(=O)(=O)[O-])c4F)c4ccc([nH]4)c(-c4cccc(S(=O)(=O)[O-])c4F)c4nc(c(-c5cccc(S(=O)(=O)[O-])c5F)c5ccc2[nH]5)C=C4)C=C3)cc1
REMARK SMILES IDX 15 1 14 2 13 3 11 4 12 5 2 7 1 8 3 9 4 10 5 11 10 12 6 13
REMARK SMILES IDX 9 14 7 15 8 16 16 19 17 20 18 21 19 23 20 24 21 25 82 26
REMARK SMILES IDX 22 27 81 28 23 29 24 30 25 31 75 32 26 33 80 34 74 35 76 36
REMARK SMILES IDX 27 37 79 38 73 39 72 40 28 42 60 43 40 44 59 45 41 46 44 47
REMARK SMILES IDX 58 48 77 49 42 50 43 51 57 53 78 54 45 55 29 56 30 57 38 58
REMARK SMILES IDX 31 59 33 60 39 61 32 62 34 63 35 64 36 65 37 66 61 67 62 68
REMARK SMILES IDX 70 69 63 70 65 71 71 72 64 73 66 74 67 75 68 76 69 77 46 78
REMARK SMILES IDX 47 79 55 80 48 81 50 82 56 83 49 84 51 85 52 86 53 87 54 88
REMARK H PARENT 13 6 8 17 8 18 17 22 76 41 44 52
REMARK Flexibility Score: inf
ROOT
ATOM      1  C   UNL A   1      33.701  34.022  28.555  1.00  0.00     0.042 C 
ENDROOT
BRANCH   1   2
ATOM      2  C   UNL A   1      34.160  34.843  29.753  1.00  0.00     0.117 C 
BRANCH   2   3
ATOM      3  N   UNL A   1      33.737  34.251  31.007  1.00  0.00    -0.356 N 
ATOM      4  C   UNL A   1      34.416  33.491  31.906  1.00  0.00     0.223 C 
ATOM      5  O   UNL A   1      33.787  33.079  32.885  1.00  0.00    -0.275 OA
ATOM      6  H   UNL A   1      32.800  34.430  31.249  1.00  0.00     0.163 HD
BRANCH   4   7
ATOM      7  C   UNL A   1      35.902  33.173  31.760  1.00  0.00     0.079 C 
ATOM      8  C   UNL A   1      36.198  31.736  32.197  1.00  0.00     0.018 C 
BRANCH   7   9
ATOM      9  C   UNL A   1      36.814  34.313  32.275  1.00  0.00     0.048 C 
BRANCH   9  10
ATOM     10  C   UNL A   1      38.203  34.402  31.687  1.00  0.00    -0.047 A 
ATOM     11  C   UNL A   1      39.322  34.514  32.516  1.00  0.00     0.006 A 
ATOM     12  C   UNL A   1      38.407  34.337  30.305  1.00  0.00     0.006 A 
ATOM     13  C   UNL A   1      40.615  34.440  31.991  1.00  0.00     0.026 A 
ATOM     14  C   UNL A   1      39.702  34.284  29.780  1.00  0.00     0.026 A 
ATOM     15  C   UNL A   1      40.818  34.330  30.617  1.00  0.00     0.031 A 
BRANCH  15  16
ATOM     16  N   UNL A   1      42.093  34.132  30.113  1.00  0.00    -0.399 N 
ATOM     17  H   UNL A   1      42.853  34.638  30.482  1.00  0.00     0.156 HD
ATOM     18  H   UNL A   1      42.240  33.487  29.384  1.00  0.00     0.156 HD
ENDBRANCH  15  16
ENDBRANCH   9  10
ENDBRANCH   7   9
ENDBRANCH   4   7
ENDBRANCH   2   3
ENDBRANCH   1   2
BRANCH   1  19
ATOM     19  C   UNL A   1      34.689  32.954  28.114  1.00  0.00     0.118 C 
BRANCH  19  20
ATOM     20  N   UNL A   1      34.021  31.721  27.730  1.00  0.00    -0.352 N 
ATOM     21  C   UNL A   1      34.505  30.443  27.595  1.00  0.00     0.251 C 
ATOM     22  H   UNL A   1      33.061  31.818  27.533  1.00  0.00     0.163 HD
ATOM     23  O   UNL A   1      33.807  29.611  27.016  1.00  0.00    -0.269 OA
BRANCH  21  24
ATOM     24  C   UNL A   1      35.830  30.047  28.130  1.00  0.00     0.039 A 
ATOM     25  C   UNL A   1      36.959  30.224  27.321  1.00  0.00     0.014 A 
ATOM     26  C   UNL A   1      35.972  29.425  29.374  1.00  0.00     0.014 A 
ATOM     27  C   UNL A   1      38.214  29.797  27.764  1.00  0.00     0.010 A 
ATOM     28  C   UNL A   1      37.236  29.094  29.856  1.00  0.00     0.010 A 
ATOM     29  C   UNL A   1      38.367  29.235  29.041  1.00  0.00    -0.014 A 
BRANCH  29  30
ATOM     30  C   UNL A   1      39.687  28.737  29.510  1.00  0.00     0.031 A 
ATOM     31  C   UNL A   1      40.402  29.433  30.642  1.00  0.00     0.074 A 
ATOM     32  C   UNL A   1      40.270  27.693  28.888  1.00  0.00     0.049 A 
ATOM     33  N   UNL A   1      41.558  29.150  31.187  1.00  0.00    -0.248 NA
ATOM     34  C   UNL A   1      39.752  30.622  31.218  1.00  0.00     0.031 C 
ATOM     35  C   UNL A   1      39.727  26.989  27.725  1.00  0.00     0.029 A 
ATOM     36  N   UNL A   1      41.457  27.051  29.141  1.00  0.00    -0.354 N 
ATOM     37  C   UNL A   1      41.788  30.142  32.133  1.00  0.00     0.074 A 
ATOM     38  C   UNL A   1      40.675  31.061  32.060  1.00  0.00     0.031 C 
ATOM     39  C   UNL A   1      40.569  26.003  27.374  1.00  0.00     0.029 A 
ATOM     40  C   UNL A   1      41.719  26.015  28.273  1.00  0.00     0.049 A 
ATOM     41  H   UNL A   1      42.063  27.307  29.872  1.00  0.00     0.167 HD
ATOM     42  C   UNL A   1      42.811  30.262  33.013  1.00  0.00     0.034 A 
ATOM     43  C   UNL A   1      42.763  25.165  28.217  1.00  0.00     0.034 A 
ATOM     44  C   UNL A   1      43.885  29.313  33.128  1.00  0.00     0.049 A 
ATOM     45  C   UNL A   1      43.841  25.264  29.262  1.00  0.00     0.074 A 
ATOM     46  C   UNL A   1      44.925  29.293  34.041  1.00  0.00     0.029 A 
ATOM     47  N   UNL A   1      44.055  28.210  32.304  1.00  0.00    -0.354 N 
ATOM     48  N   UNL A   1      43.956  26.116  30.252  1.00  0.00    -0.248 NA
ATOM     49  C   UNL A   1      44.906  24.252  29.215  1.00  0.00     0.031 C 
ATOM     50  C   UNL A   1      45.730  28.182  33.762  1.00  0.00     0.029 A 
ATOM     51  C   UNL A   1      45.177  27.499  32.691  1.00  0.00     0.049 A 
ATOM     52  H   UNL A   1      43.463  27.969  31.556  1.00  0.00     0.167 HD
ATOM     53  C   UNL A   1      45.079  25.719  30.969  1.00  0.00     0.074 A 
ATOM     54  C   UNL A   1      45.595  24.535  30.311  1.00  0.00     0.031 C 
ATOM     55  C   UNL A   1      45.641  26.288  32.064  1.00  0.00     0.034 A 
BRANCH  42  56
ATOM     56  C   UNL A   1      42.780  31.428  33.968  1.00  0.00     0.023 A 
ATOM     57  C   UNL A   1      43.413  32.636  33.610  1.00  0.00     0.012 A 
ATOM     58  C   UNL A   1      42.089  31.350  35.193  1.00  0.00     0.148 A 
ATOM     59  C   UNL A   1      43.395  33.734  34.471  1.00  0.00     0.002 A 
ATOM     60  C   UNL A   1      42.035  32.463  36.025  1.00  0.00     0.091 A 
ATOM     61  F   UNL A   1      41.510  30.188  35.529  1.00  0.00    -0.205 F 
ATOM     62  C   UNL A   1      42.697  33.650  35.672  1.00  0.00     0.022 A 
BRANCH  60  63
ATOM     63  S   UNL A   1      41.095  32.484  37.556  1.00  0.00     0.127 S 
ATOM     64  O   UNL A   1      41.899  31.611  38.410  1.00  0.00    -0.237 OA
ATOM     65  O   UNL A   1      41.135  33.900  37.924  1.00  0.00    -0.237 OA
ATOM     66  O   UNL A   1      39.770  31.983  37.220  1.00  0.00    -0.744 OA
ENDBRANCH  60  63
ENDBRANCH  42  56
BRANCH  43  67
ATOM     67  C   UNL A   1      42.785  24.082  27.193  1.00  0.00     0.023 A 
ATOM     68  C   UNL A   1      43.536  24.261  26.015  1.00  0.00     0.012 A 
ATOM     69  C   UNL A   1      42.096  22.871  27.389  1.00  0.00     0.148 A 
ATOM     70  C   UNL A   1      43.571  23.269  25.034  1.00  0.00     0.002 A 
ATOM     71  C   UNL A   1      42.180  21.864  26.434  1.00  0.00     0.091 A 
ATOM     72  F   UNL A   1      41.379  22.722  28.512  1.00  0.00    -0.205 F 
ATOM     73  C   UNL A   1      42.902  22.068  25.248  1.00  0.00     0.022 A 
BRANCH  71  74
ATOM     74  S   UNL A   1      41.462  20.237  26.687  1.00  0.00     0.127 S 
ATOM     75  O   UNL A   1      40.039  20.553  26.794  1.00  0.00    -0.237 OA
ATOM     76  O   UNL A   1      41.847  19.541  25.458  1.00  0.00    -0.237 OA
ATOM     77  O   UNL A   1      42.089  19.715  27.891  1.00  0.00    -0.744 OA
ENDBRANCH  71  74
ENDBRANCH  43  67
BRANCH  55  78
ATOM     78  C   UNL A   1      46.851  25.614  32.655  1.00  0.00     0.023 A 
ATOM     79  C   UNL A   1      48.140  25.954  32.199  1.00  0.00     0.012 A 
ATOM     80  C   UNL A   1      46.712  24.681  33.702  1.00  0.00     0.148 A 
ATOM     81  C   UNL A   1      49.268  25.345  32.747  1.00  0.00     0.002 A 
ATOM     82  C   UNL A   1      47.844  24.116  34.277  1.00  0.00     0.091 A 
ATOM     83  F   UNL A   1      45.477  24.351  34.110  1.00  0.00    -0.205 F 
ATOM     84  C   UNL A   1      49.122  24.436  33.791  1.00  0.00     0.022 A 
BRANCH  82  85
ATOM     85  S   UNL A   1      47.743  23.012  35.690  1.00  0.00     0.127 S 
ATOM     86  O   UNL A   1      49.153  22.733  35.955  1.00  0.00    -0.237 OA
ATOM     87  O   UNL A   1      47.088  23.849  36.698  1.00  0.00    -0.237 OA
ATOM     88  O   UNL A   1      46.945  21.876  35.246  1.00  0.00    -0.744 OA
ENDBRANCH  82  85
ENDBRANCH  55  78
ENDBRANCH  29  30
ENDBRANCH  21  24
ENDBRANCH  19  20
ENDBRANCH   1  19
TORSDOF 16
ENDMDL
MODEL 3
REMARK VINA RESULT:     -10.7      3.782      6.254
REMARK SMILES C[C@H](Cc1ccc(N)cc1)C(=O)NCCCNC(=O)c1ccc(-c2c3nc(c(-c4cccc(S(=O)(=O)[O-])c4F)c4ccc([nH]4)c(-c4cccc(S(=O)(=O)[O-])c4F)c4nc(c(-c5cccc(S(=O)(=O)[O-])c5F)c5ccc2[nH]5)C=C4)C=C3)cc1
REMARK SMILES IDX 15 1 14 2 13 3 11 4 12 5 2 7 1 8 3 9 4 10 5 11 10 12 6 13
REMARK SMILES IDX 9 14 7 15 8 16 16 19 17 20 18 21 19 23 20 24 21 25 82 26
REMARK SMILES IDX 22 27 81 28 23 29 24 30 25 31 75 32 26 33 80 34 74 35 76 36
REMARK SMILES IDX 27 37 79 38 73 39 72 40 28 42 60 43 40 44 59 45 41 46 44 47
REMARK SMILES IDX 58 48 77 49 42 50 43 51 57 53 78 54 45 55 29 56 30 57 38 58
REMARK SMILES IDX 31 59 33 60 39 61 32 62 34 63 35 64 36 65 37 66 61 67 62 68
REMARK SMILES IDX 70 69 63 70 65 71 71 72 64 73 66 74 67 75 68 76 69 77 46 78
REMARK SMILES IDX 47 79 55 80 48 81 50 82 56 83 49 84 51 85 52 86 53 87 54 88
REMARK H PARENT 13 6 8 17 8 18 17 22 76 41 44 52
REMARK Flexibility Score: inf
ROOT
ATOM      1  C   UNL A   1      31.890  28.717  26.563  1.00  0.00     0.042 C 
ENDROOT
BRANCH   1   2
ATOM      2  C   UNL A   1      32.219  27.250  26.320  1.00  0.00     0.117 C 
BRANCH   2   3
ATOM      3  N   UNL A   1      31.104  26.384  26.651  1.00  0.00    -0.356 N 
ATOM      4  C   UNL A   1      30.895  25.066  26.396  1.00  0.00     0.223 C 
ATOM      5  O   UNL A   1      29.818  24.585  26.763  1.00  0.00    -0.275 OA
ATOM      6  H   UNL A   1      30.375  26.826  27.143  1.00  0.00     0.163 HD
BRANCH   4   7
ATOM      7  C   UNL A   1      31.940  24.181  25.721  1.00  0.00     0.079 C 
ATOM      8  C   UNL A   1      31.287  23.250  24.697  1.00  0.00     0.018 C 
BRANCH   7   9
ATOM      9  C   UNL A   1      32.963  23.591  26.721  1.00  0.00     0.048 C 
BRANCH   9  10
ATOM     10  C   UNL A   1      34.301  23.163  26.166  1.00  0.00    -0.047 A 
ATOM     11  C   UNL A   1      35.248  24.112  25.772  1.00  0.00     0.006 A 
ATOM     12  C   UNL A   1      34.642  21.810  26.068  1.00  0.00     0.006 A 
ATOM     13  C   UNL A   1      36.540  23.729  25.405  1.00  0.00     0.026 A 
ATOM     14  C   UNL A   1      35.930  21.428  25.680  1.00  0.00     0.026 A 
ATOM     15  C   UNL A   1      36.893  22.383  25.350  1.00  0.00     0.031 A 
BRANCH  15  16
ATOM     16  N   UNL A   1      38.206  22.013  25.108  1.00  0.00    -0.399 N 
ATOM     17  H   UNL A   1      38.442  21.555  24.269  1.00  0.00     0.156 HD
ATOM     18  H   UNL A   1      38.903  22.208  25.775  1.00  0.00     0.156 HD
ENDBRANCH  15  16
ENDBRANCH   9  10
ENDBRANCH   7   9
ENDBRANCH   4   7
ENDBRANCH   2   3
ENDBRANCH   1   2
BRANCH   1  19
ATOM     19  C   UNL A   1      32.768  29.691  25.794  1.00  0.00     0.118 C 
BRANCH  19  20
ATOM     20  N   UNL A   1      32.565  31.064  26.227  1.00  0.00    -0.352 N 
ATOM     21  C   UNL A   1      33.203  31.804  27.191  1.00  0.00     0.251 C 
ATOM     22  H   UNL A   1      31.850  31.544  25.750  1.00  0.00     0.163 HD
ATOM     23  O   UNL A   1      32.691  32.863  27.551  1.00  0.00    -0.269 OA
BRANCH  21  24
ATOM     24  C   UNL A   1      34.484  31.364  27.797  1.00  0.00     0.039 A 
ATOM     25  C   UNL A   1      34.583  30.052  28.274  1.00  0.00     0.014 A 
ATOM     26  C   UNL A   1      35.556  32.242  27.983  1.00  0.00     0.014 A 
ATOM     27  C   UNL A   1      35.749  29.624  28.914  1.00  0.00     0.010 A 
ATOM     28  C   UNL A   1      36.754  31.785  28.528  1.00  0.00     0.010 A 
ATOM     29  C   UNL A   1      36.851  30.485  29.040  1.00  0.00    -0.014 A 
BRANCH  29  30
ATOM     30  C   UNL A   1      38.082  30.059  29.756  1.00  0.00     0.031 A 
ATOM     31  C   UNL A   1      38.350  30.543  31.160  1.00  0.00     0.074 A 
ATOM     32  C   UNL A   1      38.987  29.279  29.131  1.00  0.00     0.049 A 
ATOM     33  N   UNL A   1      39.367  30.283  31.944  1.00  0.00    -0.248 NA
ATOM     34  C   UNL A   1      37.366  31.464  31.753  1.00  0.00     0.031 C 
ATOM     35  C   UNL A   1      38.892  28.818  27.745  1.00  0.00     0.029 A 
ATOM     36  N   UNL A   1      40.172  28.751  29.577  1.00  0.00    -0.354 N 
ATOM     37  C   UNL A   1      39.164  31.036  33.095  1.00  0.00     0.074 A 
ATOM     38  C   UNL A   1      37.952  31.797  32.893  1.00  0.00     0.031 C 
ATOM     39  C   UNL A   1      39.965  28.061  27.458  1.00  0.00     0.029 A 
ATOM     40  C   UNL A   1      40.831  27.999  28.631  1.00  0.00     0.049 A 
ATOM     41  H   UNL A   1      40.518  28.895  30.486  1.00  0.00     0.167 HD
ATOM     42  C   UNL A   1      39.894  31.066  34.235  1.00  0.00     0.034 A 
ATOM     43  C   UNL A   1      41.997  27.327  28.705  1.00  0.00     0.034 A 
ATOM     44  C   UNL A   1      41.065  30.261  34.459  1.00  0.00     0.049 A 
ATOM     45  C   UNL A   1      42.743  27.304  30.012  1.00  0.00     0.074 A 
ATOM     46  C   UNL A   1      41.830  30.150  35.607  1.00  0.00     0.029 A 
ATOM     47  N   UNL A   1      41.637  29.423  33.514  1.00  0.00    -0.354 N 
ATOM     48  N   UNL A   1      42.447  27.897  31.143  1.00  0.00    -0.248 NA
ATOM     49  C   UNL A   1      43.957  26.476  30.069  1.00  0.00     0.031 C 
ATOM     50  C   UNL A   1      42.872  29.252  35.352  1.00  0.00     0.029 A 
ATOM     51  C   UNL A   1      42.741  28.786  34.054  1.00  0.00     0.049 A 
ATOM     52  H   UNL A   1      41.306  29.298  32.595  1.00  0.00     0.167 HD
ATOM     53  C   UNL A   1      43.410  27.482  32.056  1.00  0.00     0.074 A 
ATOM     54  C   UNL A   1      44.286  26.568  31.349  1.00  0.00     0.031 C 
ATOM     55  C   UNL A   1      43.566  27.833  33.356  1.00  0.00     0.034 A 
BRANCH  42  56
ATOM     56  C   UNL A   1      39.409  31.951  35.355  1.00  0.00     0.023 A 
ATOM     57  C   UNL A   1      38.519  31.429  36.317  1.00  0.00     0.012 A 
ATOM     58  C   UNL A   1      39.866  33.277  35.489  1.00  0.00     0.148 A 
ATOM     59  C   UNL A   1      38.058  32.222  37.367  1.00  0.00     0.002 A 
ATOM     60  C   UNL A   1      39.440  34.046  36.565  1.00  0.00     0.091 A 
ATOM     61  F   UNL A   1      40.696  33.764  34.556  1.00  0.00    -0.205 F 
ATOM     62  C   UNL A   1      38.527  33.526  37.498  1.00  0.00     0.022 A 
BRANCH  60  63
ATOM     63  S   UNL A   1      40.048  35.710  36.868  1.00  0.00     0.127 S 
ATOM     64  O   UNL A   1      39.345  36.063  38.101  1.00  0.00    -0.237 OA
ATOM     65  O   UNL A   1      41.485  35.489  37.030  1.00  0.00    -0.237 OA
ATOM     66  O   UNL A   1      39.684  36.490  35.694  1.00  0.00    -0.744 OA
ENDBRANCH  60  63
ENDBRANCH  42  56
BRANCH  43  67
ATOM     67  C   UNL A   1      42.475  26.538  27.535  1.00  0.00     0.023 A 
ATOM     68  C   UNL A   1      43.307  27.155  26.580  1.00  0.00     0.012 A 
ATOM     69  C   UNL A   1      42.140  25.180  27.377  1.00  0.00     0.148 A 
ATOM     70  C   UNL A   1      43.766  26.445  25.470  1.00  0.00     0.002 A 
ATOM     71  C   UNL A   1      42.645  24.463  26.298  1.00  0.00     0.091 A 
ATOM     72  F   UNL A   1      41.339  24.613  28.290  1.00  0.00    -0.205 F 
ATOM     73  C   UNL A   1      43.444  25.098  25.334  1.00  0.00     0.022 A 
BRANCH  71  74
ATOM     74  S   UNL A   1      42.392  22.694  26.117  1.00  0.00     0.127 S 
ATOM     75  O   UNL A   1      40.933  22.601  26.106  1.00  0.00    -0.237 OA
ATOM     76  O   UNL A   1      43.035  22.426  24.829  1.00  0.00    -0.237 OA
ATOM     77  O   UNL A   1      43.059  22.085  27.256  1.00  0.00    -0.744 OA
ENDBRANCH  71  74
ENDBRANCH  43  67
BRANCH  55  78
ATOM     78  C   UNL A   1      44.695  27.193  34.120  1.00  0.00     0.023 A 
ATOM     79  C   UNL A   1      45.953  27.824  34.176  1.00  0.00     0.012 A 
ATOM     80  C   UNL A   1      44.492  25.992  34.828  1.00  0.00     0.148 A 
ATOM     81  C   UNL A   1      47.003  27.248  34.889  1.00  0.00     0.002 A 
ATOM     82  C   UNL A   1      45.529  25.450  35.577  1.00  0.00     0.091 A 
ATOM     83  F   UNL A   1      43.294  25.393  34.746  1.00  0.00    -0.205 F 
ATOM     84  C   UNL A   1      46.789  26.068  35.598  1.00  0.00     0.022 A 
BRANCH  82  85
ATOM     85  S   UNL A   1      45.302  23.988  36.596  1.00  0.00     0.127 S 
ATOM     86  O   UNL A   1      46.683  23.601  36.877  1.00  0.00    -0.237 OA
ATOM     87  O   UNL A   1      44.570  24.517  37.749  1.00  0.00    -0.237 OA
ATOM     88  O   UNL A   1      44.536  23.054  35.779  1.00  0.00    -0.744 OA
ENDBRANCH  82  85
ENDBRANCH  55  78
ENDBRANCH  29  30
ENDBRANCH  21  24
ENDBRANCH  19  20
ENDBRANCH   1  19
TORSDOF 16
ENDMDL
