MODEL 1
REMARK VINA RESULT:     -15.5      0.000      0.000
REMARK SMILES Cc1ccc(C2=NN(C(=O)CCC(=O)NCCCNC(=O)c3ccc(-c4c5nc(c(-c6cccc(S(=O)(=O)[O-])c6F)c6ccc([nH]6)c(-c6cccc(S(=O)(=O)[O-])c6F)c6nc(c(-c7cccc(S(=O)(=O)[O-])c7F)c7ccc4[nH]7)C=C6)C=C5)cc3)[C@H](C[C@@H]3C=c4cccc(C)c4=NC3=O)C2)cc1
REMARK SMILES IDX 16 1 15 2 13 3 14 4 12 6 11 7 9 8 10 9 8 10 6 11 7 12 99 13
REMARK SMILES IDX 85 14 5 15 1 16 2 17 3 18 101 19 4 20 100 21 86 22 87 23
REMARK SMILES IDX 88 24 97 25 89 26 96 27 98 28 90 29 95 30 91 31 93 32 92 33
REMARK SMILES IDX 94 34 17 35 18 36 19 37 20 38 21 40 22 41 23 42 84 43 24 44
REMARK SMILES IDX 83 45 25 46 26 47 27 48 77 49 28 50 82 51 76 52 78 53 29 54
REMARK SMILES IDX 81 55 75 56 74 57 30 59 62 60 42 61 61 62 43 63 46 64 60 65
REMARK SMILES IDX 79 66 44 67 45 68 59 70 80 71 47 72 31 73 32 74 40 75 33 76
REMARK SMILES IDX 35 77 41 78 34 79 36 80 37 81 38 82 39 83 63 84 64 85 72 86
REMARK SMILES IDX 65 87 67 88 73 89 66 90 68 91 69 92 70 93 71 94 48 95 49 96
REMARK SMILES IDX 57 97 50 98 52 99 58 100 51 101 53 102 54 103 55 104 56 105
REMARK H PARENT 15 5 19 39 78 58 46 69
REMARK Flexibility Score: inf
ROOT
ATOM      1  C   UNL A   1      49.875  23.914  33.726  1.00  0.00     0.117 C 
ENDROOT
BRANCH   1   2
ATOM      2  N   UNL A   1      50.735  22.822  32.886  1.00  0.00    -0.356 N 
ATOM      3  C   UNL A   1      51.155  21.555  33.079  1.00  0.00     0.220 C 
ATOM      4  O   UNL A   1      52.068  21.153  32.356  1.00  0.00    -0.275 OA
ATOM      5  H   UNL A   1      51.024  23.175  32.013  1.00  0.00     0.163 HD
BRANCH   3   6
ATOM      6  C   UNL A   1      50.517  20.676  34.107  1.00  0.00     0.110 C 
BRANCH   6   7
ATOM      7  C   UNL A   1      51.236  20.521  35.435  1.00  0.00     0.112 C 
BRANCH   7   8
ATOM      8  C   UNL A   1      50.859  21.534  36.511  1.00  0.00     0.243 C 
ATOM      9  O   UNL A   1      51.736  22.229  37.026  1.00  0.00    -0.273 OA
BRANCH   8  10
ATOM     10  N   UNL A   1      49.499  21.501  36.962  1.00  0.00    -0.230 N 
ATOM     11  C   UNL A   1      47.724  23.527  37.494  1.00  0.00     0.070 C 
ATOM     12  N   UNL A   1      48.547  22.899  36.406  1.00  0.00    -0.174 NA
ATOM     13  C   UNL A   1      48.051  22.551  39.414  1.00  0.00     0.086 C 
ATOM     14  C   UNL A   1      49.035  20.913  38.631  1.00  0.00     0.118 C 
BRANCH  11  15
ATOM     15  C   UNL A   1      46.005  23.761  36.752  1.00  0.00    -0.002 A 
ATOM     16  C   UNL A   1      43.745  23.332  32.160  1.00  0.00     0.044 C 
ATOM     17  C   UNL A   1      44.494  23.409  33.465  1.00  0.00    -0.051 A 
ATOM     18  C   UNL A   1      44.640  22.042  34.578  1.00  0.00     0.004 A 
ATOM     19  C   UNL A   1      45.038  25.019  33.911  1.00  0.00     0.004 A 
ATOM     20  C   UNL A   1      45.423  22.168  36.165  1.00  0.00     0.010 A 
ATOM     21  C   UNL A   1      45.620  25.288  35.601  1.00  0.00     0.010 A 
ENDBRANCH  11  15
BRANCH  14  22
ATOM     22  C   UNL A   1      48.381  19.363  38.243  1.00  0.00     0.045 C 
BRANCH  22  23
ATOM     23  C   UNL A   1      47.284  18.845  39.251  1.00  0.00     0.106 C 
ATOM     24  C   UNL A   1      47.791  17.794  40.212  1.00  0.00    -0.003 C 
ATOM     25  C   UNL A   1      45.904  18.349  38.784  1.00  0.00     0.253 C 
ATOM     26  C   UNL A   1      47.015  17.429  41.231  1.00  0.00    -0.003 A 
ATOM     27  N   UNL A   1      45.062  17.797  39.760  1.00  0.00    -0.212 NA
ATOM     28  O   UNL A   1      45.513  18.564  37.642  1.00  0.00    -0.272 OA
ATOM     29  C   UNL A   1      47.497  17.093  42.547  1.00  0.00     0.010 A 
ATOM     30  C   UNL A   1      45.568  17.379  40.884  1.00  0.00     0.077 A 
ATOM     31  C   UNL A   1      46.637  16.719  43.500  1.00  0.00     0.001 A 
ATOM     32  C   UNL A   1      44.751  16.657  41.932  1.00  0.00    -0.025 A 
ATOM     33  C   UNL A   1      45.272  16.406  43.151  1.00  0.00     0.005 A 
ATOM     34  C   UNL A   1      43.459  16.054  41.490  1.00  0.00     0.047 C 
ENDBRANCH  22  23
ENDBRANCH  14  22
ENDBRANCH   8  10
ENDBRANCH   7   8
ENDBRANCH   6   7
ENDBRANCH   3   6
ENDBRANCH   1   2
BRANCH   1  35
ATOM     35  C   UNL A   1      49.038  25.809  32.906  1.00  0.00     0.042 C 
BRANCH  35  36
ATOM     36  C   UNL A   1      50.744  26.894  32.777  1.00  0.00     0.118 C 
BRANCH  36  37
ATOM     37  N   UNL A   1      50.743  28.262  31.493  1.00  0.00    -0.352 N 
ATOM     38  C   UNL A   1      50.504  27.877  29.740  1.00  0.00     0.251 C 
ATOM     39  H   UNL A   1      50.874  29.196  31.775  1.00  0.00     0.163 HD
ATOM     40  O   UNL A   1      50.839  28.953  29.190  1.00  0.00    -0.269 OA
BRANCH  38  41
ATOM     41  C   UNL A   1      49.845  25.875  29.241  1.00  0.00     0.039 A 
ATOM     42  C   UNL A   1      49.696  25.247  27.892  1.00  0.00     0.014 A 
ATOM     43  C   UNL A   1      48.676  25.144  29.801  1.00  0.00     0.014 A 
ATOM     44  C   UNL A   1      48.475  25.376  27.146  1.00  0.00     0.010 A 
ATOM     45  C   UNL A   1      47.394  25.233  29.175  1.00  0.00     0.010 A 
ATOM     46  C   UNL A   1      47.332  25.685  27.857  1.00  0.00    -0.014 A 
BRANCH  46  47
ATOM     47  C   UNL A   1      46.073  26.232  27.307  1.00  0.00     0.031 A 
ATOM     48  C   UNL A   1      45.817  27.600  27.803  1.00  0.00     0.074 A 
ATOM     49  C   UNL A   1      45.142  25.675  26.458  1.00  0.00     0.049 A 
ATOM     50  N   UNL A   1      44.665  28.167  27.875  1.00  0.00    -0.248 NA
ATOM     51  C   UNL A   1      46.898  28.385  28.399  1.00  0.00     0.031 C 
ATOM     52  C   UNL A   1      44.280  26.465  25.563  1.00  0.00     0.029 A 
ATOM     53  N   UNL A   1      44.701  24.358  26.185  1.00  0.00    -0.354 N 
ATOM     54  C   UNL A   1      44.908  29.472  28.243  1.00  0.00     0.074 A 
ATOM     55  C   UNL A   1      46.258  29.498  28.735  1.00  0.00     0.031 C 
ATOM     56  C   UNL A   1      43.352  25.688  24.982  1.00  0.00     0.029 A 
ATOM     57  C   UNL A   1      43.414  24.377  25.591  1.00  0.00     0.049 A 
ATOM     58  H   UNL A   1      45.216  23.543  26.379  1.00  0.00     0.167 HD
ATOM     59  C   UNL A   1      44.039  30.447  27.873  1.00  0.00     0.034 A 
ATOM     60  C   UNL A   1      42.330  23.596  25.913  1.00  0.00     0.034 A 
ATOM     61  C   UNL A   1      42.903  29.872  27.145  1.00  0.00     0.049 A 
ATOM     62  C   UNL A   1      41.145  24.451  26.379  1.00  0.00     0.074 A 
ATOM     63  C   UNL A   1      42.618  29.685  25.800  1.00  0.00     0.029 A 
ATOM     64  N   UNL A   1      42.027  29.049  27.830  1.00  0.00    -0.354 N 
ATOM     65  N   UNL A   1      41.102  25.750  26.294  1.00  0.00    -0.248 NA
ATOM     66  C   UNL A   1      40.033  23.915  27.172  1.00  0.00     0.031 C 
ATOM     67  C   UNL A   1      41.534  28.765  25.698  1.00  0.00     0.029 A 
ATOM     68  C   UNL A   1      41.133  28.421  26.977  1.00  0.00     0.049 A 
ATOM     69  H   UNL A   1      42.038  28.924  28.807  1.00  0.00     0.167 HD
ATOM     70  C   UNL A   1      40.206  26.227  27.222  1.00  0.00     0.074 A 
ATOM     71  C   UNL A   1      39.580  25.032  27.758  1.00  0.00     0.031 C 
ATOM     72  C   UNL A   1      40.114  27.553  27.557  1.00  0.00     0.034 A 
BRANCH  59  73
ATOM     73  C   UNL A   1      44.436  31.910  27.844  1.00  0.00     0.023 A 
ATOM     74  C   UNL A   1      43.843  32.751  28.807  1.00  0.00     0.012 A 
ATOM     75  C   UNL A   1      45.290  32.543  26.906  1.00  0.00     0.148 A 
ATOM     76  C   UNL A   1      43.993  34.140  28.780  1.00  0.00     0.002 A 
ATOM     77  C   UNL A   1      45.369  33.935  26.823  1.00  0.00     0.091 A 
ATOM     78  F   UNL A   1      46.102  31.804  26.139  1.00  0.00    -0.205 F 
ATOM     79  C   UNL A   1      44.721  34.737  27.763  1.00  0.00     0.022 A 
BRANCH  77  80
ATOM     80  S   UNL A   1      46.198  34.780  25.460  1.00  0.00     0.127 S 
ATOM     81  O   UNL A   1      46.026  36.191  25.814  1.00  0.00    -0.237 OA
ATOM     82  O   UNL A   1      47.570  34.291  25.571  1.00  0.00    -0.237 OA
ATOM     83  O   UNL A   1      45.478  34.387  24.254  1.00  0.00    -0.744 OA
ENDBRANCH  77  80
ENDBRANCH  59  73
BRANCH  60  84
ATOM     84  C   UNL A   1      42.676  22.287  26.556  1.00  0.00     0.023 A 
ATOM     85  C   UNL A   1      41.679  21.613  27.293  1.00  0.00     0.012 A 
ATOM     86  C   UNL A   1      43.713  21.543  25.991  1.00  0.00     0.148 A 
ATOM     87  C   UNL A   1      41.582  20.221  27.210  1.00  0.00     0.002 A 
ATOM     88  C   UNL A   1      43.552  20.187  25.811  1.00  0.00     0.091 A 
ATOM     89  F   UNL A   1      44.779  22.161  25.481  1.00  0.00    -0.205 F 
ATOM     90  C   UNL A   1      42.474  19.515  26.397  1.00  0.00     0.022 A 
BRANCH  88  91
ATOM     91  S   UNL A   1      44.555  19.430  24.526  1.00  0.00     0.127 S 
ATOM     92  O   UNL A   1      45.871  19.361  25.155  1.00  0.00    -0.237 OA
ATOM     93  O   UNL A   1      43.870  18.149  24.373  1.00  0.00    -0.237 OA
ATOM     94  O   UNL A   1      44.468  20.345  23.398  1.00  0.00    -0.744 OA
ENDBRANCH  88  91
ENDBRANCH  60  84
BRANCH  72  95
ATOM     95  C   UNL A   1      39.076  28.125  28.519  1.00  0.00     0.023 A 
ATOM     96  C   UNL A   1      37.960  28.847  28.054  1.00  0.00     0.012 A 
ATOM     97  C   UNL A   1      39.224  28.070  29.930  1.00  0.00     0.148 A 
ATOM     98  C   UNL A   1      36.969  29.333  28.911  1.00  0.00     0.002 A 
ATOM     99  C   UNL A   1      38.264  28.594  30.788  1.00  0.00     0.091 A 
ATOM    100  F   UNL A   1      40.330  27.558  30.474  1.00  0.00    -0.205 F 
ATOM    101  C   UNL A   1      37.112  29.191  30.282  1.00  0.00     0.022 A 
BRANCH  99 102
ATOM    102  S   UNL A   1      38.482  28.616  32.573  1.00  0.00     0.127 S 
ATOM    103  O   UNL A   1      39.920  28.863  32.684  1.00  0.00    -0.237 OA
ATOM    104  O   UNL A   1      37.637  29.744  32.965  1.00  0.00    -0.237 OA
ATOM    105  O   UNL A   1      38.041  27.319  33.062  1.00  0.00    -0.744 OA
ENDBRANCH  99 102
ENDBRANCH  72  95
ENDBRANCH  46  47
ENDBRANCH  38  41
ENDBRANCH  36  37
ENDBRANCH  35  36
ENDBRANCH   1  35
TORSDOF 19
ENDMDL
MODEL 2
REMARK VINA RESULT:     -15.5      1.850      5.105
REMARK SMILES Cc1ccc(C2=NN(C(=O)CCC(=O)NCCCNC(=O)c3ccc(-c4c5nc(c(-c6cccc(S(=O)(=O)[O-])c6F)c6ccc([nH]6)c(-c6cccc(S(=O)(=O)[O-])c6F)c6nc(c(-c7cccc(S(=O)(=O)[O-])c7F)c7ccc4[nH]7)C=C6)C=C5)cc3)[C@H](C[C@@H]3C=c4cccc(C)c4=NC3=O)C2)cc1
REMARK SMILES IDX 16 1 15 2 13 3 14 4 12 6 11 7 9 8 10 9 8 10 6 11 7 12 99 13
REMARK SMILES IDX 85 14 5 15 1 16 2 17 3 18 101 19 4 20 100 21 86 22 87 23
REMARK SMILES IDX 88 24 97 25 89 26 96 27 98 28 90 29 95 30 91 31 93 32 92 33
REMARK SMILES IDX 94 34 17 35 18 36 19 37 20 38 21 40 22 41 23 42 84 43 24 44
REMARK SMILES IDX 83 45 25 46 26 47 27 48 77 49 28 50 82 51 76 52 78 53 29 54
REMARK SMILES IDX 81 55 75 56 74 57 30 59 62 60 42 61 61 62 43 63 46 64 60 65
REMARK SMILES IDX 79 66 44 67 45 68 59 70 80 71 47 72 31 73 32 74 40 75 33 76
REMARK SMILES IDX 35 77 41 78 34 79 36 80 37 81 38 82 39 83 63 84 64 85 72 86
REMARK SMILES IDX 65 87 67 88 73 89 66 90 68 91 69 92 70 93 71 94 48 95 49 96
REMARK SMILES IDX 57 97 50 98 52 99 58 100 51 101 53 102 54 103 55 104 56 105
REMARK H PARENT 15 5 19 39 78 58 46 69
REMARK Flexibility Score: inf
ROOT
ATOM      1  C   UNL A   1      52.203  26.346  33.664  1.00  0.00     0.117 C 
ENDROOT
BRANCH   1   2
ATOM      2  N   UNL A   1      51.644  25.140  32.730  1.00  0.00    -0.356 N 
ATOM      3  C   UNL A   1      51.135  23.908  32.931  1.00  0.00     0.220 C 
ATOM      4  O   UNL A   1      51.120  23.144  31.964  1.00  0.00    -0.275 OA
ATOM      5  H   UNL A   1      51.689  25.366  31.772  1.00  0.00     0.163 HD
BRANCH   3   6
ATOM      6  C   UNL A   1      50.592  23.503  34.264  1.00  0.00     0.110 C 
BRANCH   6   7
ATOM      7  C   UNL A   1      49.107  23.196  34.349  1.00  0.00     0.112 C 
BRANCH   7   8
ATOM      8  C   UNL A   1      48.750  21.750  34.677  1.00  0.00     0.243 C 
ATOM      9  O   UNL A   1      49.179  20.841  33.964  1.00  0.00    -0.273 OA
BRANCH   8  10
ATOM     10  N   UNL A   1      47.797  21.557  35.729  1.00  0.00    -0.230 N 
ATOM     11  C   UNL A   1      47.559  19.567  37.605  1.00  0.00     0.070 C 
ATOM     12  N   UNL A   1      48.464  20.661  37.116  1.00  0.00    -0.174 NA
ATOM     13  C   UNL A   1      45.764  19.399  36.381  1.00  0.00     0.086 C 
ATOM     14  C   UNL A   1      46.034  21.197  35.400  1.00  0.00     0.118 C 
BRANCH  11  15
ATOM     15  C   UNL A   1      47.495  19.769  39.480  1.00  0.00    -0.002 A 
ATOM     16  C   UNL A   1      44.409  18.412  43.356  1.00  0.00     0.044 C 
ATOM     17  C   UNL A   1      45.257  18.744  42.156  1.00  0.00    -0.051 A 
ATOM     18  C   UNL A   1      46.554  17.695  41.568  1.00  0.00     0.004 A 
ATOM     19  C   UNL A   1      45.011  20.356  41.500  1.00  0.00     0.004 A 
ATOM     20  C   UNL A   1      47.626  18.141  40.227  1.00  0.00     0.010 A 
ATOM     21  C   UNL A   1      46.212  20.986  40.305  1.00  0.00     0.010 A 
ENDBRANCH  11  15
BRANCH  14  22
ATOM     22  C   UNL A   1      45.329  22.728  35.770  1.00  0.00     0.045 C 
BRANCH  22  23
ATOM     23  C   UNL A   1      45.248  23.724  34.550  1.00  0.00     0.106 C 
ATOM     24  C   UNL A   1      45.401  25.176  34.941  1.00  0.00    -0.003 C 
ATOM     25  C   UNL A   1      44.095  23.687  33.531  1.00  0.00     0.253 C 
ATOM     26  C   UNL A   1      45.547  26.087  33.980  1.00  0.00    -0.003 A 
ATOM     27  N   UNL A   1      44.068  24.702  32.564  1.00  0.00    -0.212 NA
ATOM     28  O   UNL A   1      43.327  22.732  33.486  1.00  0.00    -0.272 OA
ATOM     29  C   UNL A   1      46.386  27.254  34.081  1.00  0.00     0.010 A 
ATOM     30  C   UNL A   1      44.736  25.800  32.766  1.00  0.00     0.077 A 
ATOM     31  C   UNL A   1      46.451  28.121  33.065  1.00  0.00     0.001 A 
ATOM     32  C   UNL A   1      44.656  26.990  31.835  1.00  0.00    -0.025 A 
ATOM     33  C   UNL A   1      45.501  28.031  31.983  1.00  0.00     0.005 A 
ATOM     34  C   UNL A   1      43.484  27.054  30.912  1.00  0.00     0.047 C 
ENDBRANCH  22  23
ENDBRANCH  14  22
ENDBRANCH   8  10
ENDBRANCH   7   8
ENDBRANCH   6   7
ENDBRANCH   3   6
ENDBRANCH   1   2
BRANCH   1  35
ATOM     35  C   UNL A   1      51.287  28.368  33.849  1.00  0.00     0.042 C 
BRANCH  35  36
ATOM     36  C   UNL A   1      49.964  28.272  32.319  1.00  0.00     0.118 C 
BRANCH  36  37
ATOM     37  N   UNL A   1      50.542  29.012  30.695  1.00  0.00    -0.352 N 
ATOM     38  C   UNL A   1      50.688  27.977  29.215  1.00  0.00     0.251 C 
ATOM     39  H   UNL A   1      50.767  29.969  30.646  1.00  0.00     0.163 HD
ATOM     40  O   UNL A   1      51.345  28.718  28.445  1.00  0.00    -0.269 OA
BRANCH  38  41
ATOM     41  C   UNL A   1      49.821  25.995  29.295  1.00  0.00     0.039 A 
ATOM     42  C   UNL A   1      49.514  25.060  28.169  1.00  0.00     0.014 A 
ATOM     43  C   UNL A   1      48.639  25.558  30.088  1.00  0.00     0.014 A 
ATOM     44  C   UNL A   1      48.255  25.120  27.480  1.00  0.00     0.010 A 
ATOM     45  C   UNL A   1      47.325  25.617  29.527  1.00  0.00     0.010 A 
ATOM     46  C   UNL A   1      47.202  25.719  28.142  1.00  0.00    -0.014 A 
BRANCH  46  47
ATOM     47  C   UNL A   1      45.956  26.235  27.533  1.00  0.00     0.031 A 
ATOM     48  C   UNL A   1      45.685  27.625  27.955  1.00  0.00     0.074 A 
ATOM     49  C   UNL A   1      45.049  25.634  26.688  1.00  0.00     0.049 A 
ATOM     50  N   UNL A   1      44.531  28.191  27.969  1.00  0.00    -0.248 NA
ATOM     51  C   UNL A   1      46.749  28.441  28.540  1.00  0.00     0.031 C 
ATOM     52  C   UNL A   1      44.210  26.377  25.733  1.00  0.00     0.029 A 
ATOM     53  N   UNL A   1      44.618  24.304  26.468  1.00  0.00    -0.354 N 
ATOM     54  C   UNL A   1      44.762  29.513  28.279  1.00  0.00     0.074 A 
ATOM     55  C   UNL A   1      46.098  29.567  28.804  1.00  0.00     0.031 C 
ATOM     56  C   UNL A   1      43.299  25.570  25.167  1.00  0.00     0.029 A 
ATOM     57  C   UNL A   1      43.347  24.291  25.840  1.00  0.00     0.049 A 
ATOM     58  H   UNL A   1      45.129  23.501  26.716  1.00  0.00     0.167 HD
ATOM     59  C   UNL A   1      43.902  30.467  27.840  1.00  0.00     0.034 A 
ATOM     60  C   UNL A   1      42.256  23.523  26.171  1.00  0.00     0.034 A 
ATOM     61  C   UNL A   1      42.785  29.853  27.110  1.00  0.00     0.049 A 
ATOM     62  C   UNL A   1      41.058  24.396  26.563  1.00  0.00     0.074 A 
ATOM     63  C   UNL A   1      42.537  29.600  25.769  1.00  0.00     0.029 A 
ATOM     64  N   UNL A   1      41.893  29.061  27.812  1.00  0.00    -0.354 N 
ATOM     65  N   UNL A   1      41.015  25.689  26.414  1.00  0.00    -0.248 NA
ATOM     66  C   UNL A   1      39.926  23.896  27.352  1.00  0.00     0.031 C 
ATOM     67  C   UNL A   1      41.457  28.673  25.684  1.00  0.00     0.029 A 
ATOM     68  C   UNL A   1      41.023  28.390  26.967  1.00  0.00     0.049 A 
ATOM     69  H   UNL A   1      41.878  28.984  28.793  1.00  0.00     0.167 HD
ATOM     70  C   UNL A   1      40.094  26.208  27.294  1.00  0.00     0.074 A 
ATOM     71  C   UNL A   1      39.456  25.039  27.871  1.00  0.00     0.031 C 
ATOM     72  C   UNL A   1      39.991  27.548  27.561  1.00  0.00     0.034 A 
BRANCH  59  73
ATOM     73  C   UNL A   1      44.296  31.927  27.750  1.00  0.00     0.023 A 
ATOM     74  C   UNL A   1      45.123  32.300  26.672  1.00  0.00     0.012 A 
ATOM     75  C   UNL A   1      43.978  32.953  28.676  1.00  0.00     0.148 A 
ATOM     76  C   UNL A   1      45.691  33.573  26.571  1.00  0.00     0.002 A 
ATOM     77  C   UNL A   1      44.616  34.196  28.626  1.00  0.00     0.091 A 
ATOM     78  F   UNL A   1      42.993  32.769  29.564  1.00  0.00    -0.205 F 
ATOM     79  C   UNL A   1      45.473  34.509  27.570  1.00  0.00     0.022 A 
BRANCH  77  80
ATOM     80  S   UNL A   1      44.472  35.414  29.950  1.00  0.00     0.127 S 
ATOM     81  O   UNL A   1      45.626  36.281  29.706  1.00  0.00    -0.237 OA
ATOM     82  O   UNL A   1      43.179  36.035  29.673  1.00  0.00    -0.237 OA
ATOM     83  O   UNL A   1      44.561  34.658  31.195  1.00  0.00    -0.744 OA
ENDBRANCH  77  80
ENDBRANCH  59  73
BRANCH  60  84
ATOM     84  C   UNL A   1      42.587  22.248  26.886  1.00  0.00     0.023 A 
ATOM     85  C   UNL A   1      41.603  21.662  27.711  1.00  0.00     0.012 A 
ATOM     86  C   UNL A   1      43.571  21.430  26.328  1.00  0.00     0.148 A 
ATOM     87  C   UNL A   1      41.456  20.272  27.727  1.00  0.00     0.002 A 
ATOM     88  C   UNL A   1      43.356  20.072  26.248  1.00  0.00     0.091 A 
ATOM     89  F   UNL A   1      44.632  21.973  25.730  1.00  0.00    -0.205 F 
ATOM     90  C   UNL A   1      42.284  19.481  26.926  1.00  0.00     0.022 A 
BRANCH  88  91
ATOM     91  S   UNL A   1      44.271  19.194  24.975  1.00  0.00     0.127 S 
ATOM     92  O   UNL A   1      43.474  17.984  24.794  1.00  0.00    -0.237 OA
ATOM     93  O   UNL A   1      44.195  20.158  23.879  1.00  0.00    -0.237 OA
ATOM     94  O   UNL A   1      45.590  18.974  25.547  1.00  0.00    -0.744 OA
ENDBRANCH  88  91
ENDBRANCH  60  84
BRANCH  72  95
ATOM     95  C   UNL A   1      38.927  28.164  28.467  1.00  0.00     0.023 A 
ATOM     96  C   UNL A   1      37.871  28.933  27.943  1.00  0.00     0.012 A 
ATOM     97  C   UNL A   1      38.994  28.100  29.884  1.00  0.00     0.148 A 
ATOM     98  C   UNL A   1      36.855  29.461  28.747  1.00  0.00     0.002 A 
ATOM     99  C   UNL A   1      38.012  28.665  30.689  1.00  0.00     0.091 A 
ATOM    100  F   UNL A   1      40.045  27.541  30.485  1.00  0.00    -0.205 F 
ATOM    101  C   UNL A   1      36.916  29.311  30.122  1.00  0.00     0.022 A 
BRANCH  99 102
ATOM    102  S   UNL A   1      38.131  28.675  32.484  1.00  0.00     0.127 S 
ATOM    103  O   UNL A   1      36.886  29.352  32.850  1.00  0.00    -0.237 OA
ATOM    104  O   UNL A   1      38.161  27.245  32.791  1.00  0.00    -0.237 OA
ATOM    105  O   UNL A   1      39.347  29.401  32.817  1.00  0.00    -0.744 OA
ENDBRANCH  99 102
ENDBRANCH  72  95
ENDBRANCH  46  47
ENDBRANCH  38  41
ENDBRANCH  36  37
ENDBRANCH  35  36
ENDBRANCH   1  35
TORSDOF 19
ENDMDL
MODEL 3
REMARK VINA RESULT:     -15.1      5.218     13.574
REMARK SMILES Cc1ccc(C2=NN(C(=O)CCC(=O)NCCCNC(=O)c3ccc(-c4c5nc(c(-c6cccc(S(=O)(=O)[O-])c6F)c6ccc([nH]6)c(-c6cccc(S(=O)(=O)[O-])c6F)c6nc(c(-c7cccc(S(=O)(=O)[O-])c7F)c7ccc4[nH]7)C=C6)C=C5)cc3)[C@H](C[C@@H]3C=c4cccc(C)c4=NC3=O)C2)cc1
REMARK SMILES IDX 16 1 15 2 13 3 14 4 12 6 11 7 9 8 10 9 8 10 6 11 7 12 99 13
REMARK SMILES IDX 85 14 5 15 1 16 2 17 3 18 101 19 4 20 100 21 86 22 87 23
REMARK SMILES IDX 88 24 97 25 89 26 96 27 98 28 90 29 95 30 91 31 93 32 92 33
REMARK SMILES IDX 94 34 17 35 18 36 19 37 20 38 21 40 22 41 23 42 84 43 24 44
REMARK SMILES IDX 83 45 25 46 26 47 27 48 77 49 28 50 82 51 76 52 78 53 29 54
REMARK SMILES IDX 81 55 75 56 74 57 30 59 62 60 42 61 61 62 43 63 46 64 60 65
REMARK SMILES IDX 79 66 44 67 45 68 59 70 80 71 47 72 31 73 32 74 40 75 33 76
REMARK SMILES IDX 35 77 41 78 34 79 36 80 37 81 38 82 39 83 63 84 64 85 72 86
REMARK SMILES IDX 65 87 67 88 73 89 66 90 68 91 69 92 70 93 71 94 48 95 49 96
REMARK SMILES IDX 57 97 50 98 52 99 58 100 51 101 53 102 54 103 55 104 56 105
REMARK H PARENT 15 5 19 39 78 58 46 69
REMARK Flexibility Score: inf
ROOT
ATOM      1  C   UNL A   1      43.357  30.423  30.660  1.00  0.00     0.117 C 
ENDROOT
BRANCH   1   2
ATOM      2  N   UNL A   1      43.681  31.860  31.347  1.00  0.00    -0.356 N 
ATOM      3  C   UNL A   1      43.389  33.150  31.088  1.00  0.00     0.220 C 
ATOM      4  O   UNL A   1      44.081  34.003  31.648  1.00  0.00    -0.275 OA
ATOM      5  H   UNL A   1      44.231  31.763  32.158  1.00  0.00     0.163 HD
BRANCH   3   6
ATOM      6  C   UNL A   1      42.258  33.522  30.184  1.00  0.00     0.110 C 
BRANCH   6   7
ATOM      7  C   UNL A   1      41.095  32.552  30.084  1.00  0.00     0.112 C 
BRANCH   7   8
ATOM      8  C   UNL A   1      40.271  32.377  31.356  1.00  0.00     0.243 C 
ATOM      9  O   UNL A   1      40.839  32.337  32.448  1.00  0.00    -0.273 OA
BRANCH   8  10
ATOM     10  N   UNL A   1      38.873  32.117  31.173  1.00  0.00    -0.230 N 
ATOM     11  C   UNL A   1      36.859  31.717  32.995  1.00  0.00     0.070 C 
ATOM     12  N   UNL A   1      37.873  32.717  32.518  1.00  0.00    -0.174 NA
ATOM     13  C   UNL A   1      37.025  29.829  31.921  1.00  0.00     0.086 C 
ATOM     14  C   UNL A   1      38.255  30.563  30.432  1.00  0.00     0.118 C 
BRANCH  11  15
ATOM     15  C   UNL A   1      35.236  32.671  33.129  1.00  0.00    -0.002 A 
ATOM     16  C   UNL A   1      33.353  37.215  31.650  1.00  0.00     0.044 C 
ATOM     17  C   UNL A   1      33.990  35.901  32.020  1.00  0.00    -0.051 A 
ATOM     18  C   UNL A   1      33.924  34.468  30.986  1.00  0.00     0.004 A 
ATOM     19  C   UNL A   1      34.628  35.824  33.656  1.00  0.00     0.004 A 
ATOM     20  C   UNL A   1      34.574  32.891  31.475  1.00  0.00     0.010 A 
ATOM     21  C   UNL A   1      35.082  34.206  34.322  1.00  0.00     0.010 A 
ENDBRANCH  11  15
BRANCH  14  22
ATOM     22  C   UNL A   1      37.808  31.123  28.862  1.00  0.00     0.045 C 
BRANCH  22  23
ATOM     23  C   UNL A   1      36.257  31.105  28.578  1.00  0.00     0.106 C 
ATOM     24  C   UNL A   1      35.831  30.025  27.609  1.00  0.00    -0.003 C 
ATOM     25  C   UNL A   1      35.480  32.366  28.162  1.00  0.00     0.253 C 
ATOM     26  C   UNL A   1      34.530  29.786  27.446  1.00  0.00    -0.003 A 
ATOM     27  N   UNL A   1      34.132  32.198  27.816  1.00  0.00    -0.212 NA
ATOM     28  O   UNL A   1      35.984  33.479  28.271  1.00  0.00    -0.272 OA
ATOM     29  C   UNL A   1      33.959  28.481  27.229  1.00  0.00     0.010 A 
ATOM     30  C   UNL A   1      33.693  31.016  27.492  1.00  0.00     0.077 A 
ATOM     31  C   UNL A   1      32.640  28.347  27.058  1.00  0.00     0.001 A 
ATOM     32  C   UNL A   1      32.289  30.774  26.984  1.00  0.00    -0.025 A 
ATOM     33  C   UNL A   1      31.824  29.516  26.836  1.00  0.00     0.005 A 
ATOM     34  C   UNL A   1      31.544  31.955  26.457  1.00  0.00     0.047 C 
ENDBRANCH  22  23
ENDBRANCH  14  22
ENDBRANCH   8  10
ENDBRANCH   7   8
ENDBRANCH   6   7
ENDBRANCH   3   6
ENDBRANCH   1   2
BRANCH   1  35
ATOM     35  C   UNL A   1      41.954  28.892  31.466  1.00  0.00     0.042 C 
BRANCH  35  36
ATOM     36  C   UNL A   1      41.620  27.828  29.775  1.00  0.00     0.118 C 
BRANCH  36  37
ATOM     37  N   UNL A   1      40.612  28.698  28.452  1.00  0.00    -0.352 N 
ATOM     38  C   UNL A   1      40.644  28.110  26.740  1.00  0.00     0.251 C 
ATOM     39  H   UNL A   1      40.063  29.478  28.691  1.00  0.00     0.163 HD
ATOM     40  O   UNL A   1      40.109  29.065  26.128  1.00  0.00    -0.269 OA
BRANCH  38  41
ATOM     41  C   UNL A   1      41.556  26.182  26.364  1.00  0.00     0.039 A 
ATOM     42  C   UNL A   1      41.796  25.057  27.319  1.00  0.00     0.014 A 
ATOM     43  C   UNL A   1      42.804  25.908  25.600  1.00  0.00     0.014 A 
ATOM     44  C   UNL A   1      42.997  24.995  28.105  1.00  0.00     0.010 A 
ATOM     45  C   UNL A   1      44.070  25.870  26.264  1.00  0.00     0.010 A 
ATOM     46  C   UNL A   1      44.085  25.713  27.649  1.00  0.00    -0.014 A 
BRANCH  46  47
ATOM     47  C   UNL A   1      45.269  26.115  28.440  1.00  0.00     0.031 A 
ATOM     48  C   UNL A   1      46.525  25.752  27.750  1.00  0.00     0.074 A 
ATOM     49  C   UNL A   1      45.369  26.728  29.669  1.00  0.00     0.049 A 
ATOM     50  N   UNL A   1      47.663  25.564  28.318  1.00  0.00    -0.248 NA
ATOM     51  C   UNL A   1      46.521  25.438  26.321  1.00  0.00     0.031 C 
ATOM     52  C   UNL A   1      46.514  27.561  30.073  1.00  0.00     0.029 A 
ATOM     53  N   UNL A   1      44.566  26.766  30.835  1.00  0.00    -0.354 N 
ATOM     54  C   UNL A   1      48.573  25.400  27.297  1.00  0.00     0.074 A 
ATOM     55  C   UNL A   1      47.798  25.140  26.116  1.00  0.00     0.031 C 
ATOM     56  C   UNL A   1      46.434  27.887  31.373  1.00  0.00     0.029 A 
ATOM     57  C   UNL A   1      45.341  27.142  31.960  1.00  0.00     0.049 A 
ATOM     58  H   UNL A   1      43.604  26.560  30.859  1.00  0.00     0.167 HD
ATOM     59  C   UNL A   1      49.873  25.740  27.494  1.00  0.00     0.034 A 
ATOM     60  C   UNL A   1      45.352  26.557  33.204  1.00  0.00     0.034 A 
ATOM     61  C   UNL A   1      50.079  26.200  28.872  1.00  0.00     0.049 A 
ATOM     62  C   UNL A   1      46.743  26.013  33.552  1.00  0.00     0.074 A 
ATOM     63  C   UNL A   1      50.093  27.449  29.476  1.00  0.00     0.029 A 
ATOM     64  N   UNL A   1      49.934  25.288  29.903  1.00  0.00    -0.354 N 
ATOM     65  N   UNL A   1      47.816  26.246  32.851  1.00  0.00    -0.248 NA
ATOM     66  C   UNL A   1      46.969  24.992  34.581  1.00  0.00     0.031 C 
ATOM     67  C   UNL A   1      49.992  27.263  30.886  1.00  0.00     0.029 A 
ATOM     68  C   UNL A   1      49.954  25.904  31.144  1.00  0.00     0.049 A 
ATOM     69  H   UNL A   1      49.828  24.318  29.769  1.00  0.00     0.167 HD
ATOM     70  C   UNL A   1      48.732  25.250  33.097  1.00  0.00     0.074 A 
ATOM     71  C   UNL A   1      48.139  24.480  34.175  1.00  0.00     0.031 C 
ATOM     72  C   UNL A   1      49.856  25.066  32.335  1.00  0.00     0.034 A 
BRANCH  59  73
ATOM     73  C   UNL A   1      50.819  26.008  26.341  1.00  0.00     0.023 A 
ATOM     74  C   UNL A   1      51.917  25.137  26.200  1.00  0.00     0.012 A 
ATOM     75  C   UNL A   1      50.757  27.088  25.423  1.00  0.00     0.148 A 
ATOM     76  C   UNL A   1      52.948  25.375  25.287  1.00  0.00     0.002 A 
ATOM     77  C   UNL A   1      51.828  27.377  24.573  1.00  0.00     0.091 A 
ATOM     78  F   UNL A   1      49.627  27.796  25.300  1.00  0.00    -0.205 F 
ATOM     79  C   UNL A   1      52.926  26.519  24.502  1.00  0.00     0.022 A 
BRANCH  77  80
ATOM     80  S   UNL A   1      51.921  28.904  23.615  1.00  0.00     0.127 S 
ATOM     81  O   UNL A   1      53.299  28.878  23.117  1.00  0.00    -0.237 OA
ATOM     82  O   UNL A   1      50.903  28.697  22.588  1.00  0.00    -0.237 OA
ATOM     83  O   UNL A   1      51.661  29.982  24.562  1.00  0.00    -0.744 OA
ENDBRANCH  77  80
ENDBRANCH  59  73
BRANCH  60  84
ATOM     84  C   UNL A   1      44.093  25.826  33.558  1.00  0.00     0.023 A 
ATOM     85  C   UNL A   1      44.093  24.416  33.502  1.00  0.00     0.012 A 
ATOM     86  C   UNL A   1      43.192  26.465  34.412  1.00  0.00     0.148 A 
ATOM     87  C   UNL A   1      43.415  23.687  34.483  1.00  0.00     0.002 A 
ATOM     88  C   UNL A   1      42.621  25.756  35.445  1.00  0.00     0.091 A 
ATOM     89  F   UNL A   1      43.013  27.784  34.329  1.00  0.00    -0.205 F 
ATOM     90  C   UNL A   1      42.746  24.364  35.506  1.00  0.00     0.022 A 
BRANCH  88  91
ATOM     91  S   UNL A   1      42.052  26.719  36.852  1.00  0.00     0.127 S 
ATOM     92  O   UNL A   1      41.012  27.555  36.259  1.00  0.00    -0.237 OA
ATOM     93  O   UNL A   1      41.569  25.653  37.727  1.00  0.00    -0.237 OA
ATOM     94  O   UNL A   1      43.228  27.444  37.309  1.00  0.00    -0.744 OA
ENDBRANCH  88  91
ENDBRANCH  60  84
BRANCH  72  95
ATOM     95  C   UNL A   1      50.934  24.026  32.630  1.00  0.00     0.023 A 
ATOM     96  C   UNL A   1      50.603  22.707  32.995  1.00  0.00     0.012 A 
ATOM     97  C   UNL A   1      52.317  24.343  32.670  1.00  0.00     0.148 A 
ATOM     98  C   UNL A   1      51.571  21.723  33.217  1.00  0.00     0.002 A 
ATOM     99  C   UNL A   1      53.282  23.379  32.938  1.00  0.00     0.091 A 
ATOM    100  F   UNL A   1      52.726  25.603  32.507  1.00  0.00    -0.205 F 
ATOM    101  C   UNL A   1      52.915  22.056  33.171  1.00  0.00     0.022 A 
BRANCH  99 102
ATOM    102  S   UNL A   1      55.028  23.784  33.085  1.00  0.00     0.127 S 
ATOM    103  O   UNL A   1      55.573  22.522  33.589  1.00  0.00    -0.237 OA
ATOM    104  O   UNL A   1      55.383  24.092  31.700  1.00  0.00    -0.237 OA
ATOM    105  O   UNL A   1      55.120  24.905  34.008  1.00  0.00    -0.744 OA
ENDBRANCH  99 102
ENDBRANCH  72  95
ENDBRANCH  46  47
ENDBRANCH  38  41
ENDBRANCH  36  37
ENDBRANCH  35  36
ENDBRANCH   1  35
TORSDOF 19
ENDMDL
