MODEL 1
REMARK VINA RESULT:     -12.7      0.000      0.000
REMARK SMILES O=C(NCCCNC(=O)c1cc(O)ccc1NC(=O)c1ccc(Br)nc1)c1ccc(-c2c3nc(c(-c4cccc(S(=O)(=O)[O-])c4F)c4ccc([nH]4)c(-c4cccc(S(=O)(=O)[O-])c4F)c4nc(c(-c5cccc(S(=O)(=O)[O-])c5F)c5ccc2[nH]5)C=C4)C=C3)cc1
REMARK SMILES IDX 4 1 3 2 1 3 2 4 27 6 28 7 89 8 29 9 88 10 30 11 31 12 32 13
REMARK SMILES IDX 82 14 33 15 87 16 81 17 83 18 34 19 86 20 80 21 79 22 35 24
REMARK SMILES IDX 67 25 47 26 66 27 48 28 51 29 65 30 84 31 49 32 50 33 64 35
REMARK SMILES IDX 85 36 52 37 36 38 37 39 45 40 38 41 40 42 46 43 39 44 41 45
REMARK SMILES IDX 42 46 43 47 44 48 68 49 69 50 77 51 70 52 72 53 78 54 71 55
REMARK SMILES IDX 73 56 74 57 75 58 76 59 53 60 54 61 62 62 55 63 57 64 63 65
REMARK SMILES IDX 56 66 58 67 59 68 60 69 61 70 5 71 6 72 7 73 8 74 9 76 10 77
REMARK SMILES IDX 11 78 16 79 12 80 15 81 14 82 17 83 18 84 19 86 20 87 21 88
REMARK SMILES IDX 26 89 22 90 25 91 23 92 24 93 13 94
REMARK H PARENT 3 5 83 23 51 34 7 75 17 85 13 95
REMARK Flexibility Score: inf
ROOT
ATOM      1  C   UNL A   1      32.968  29.164  25.322  1.00  0.00     0.118 C 
ENDROOT
BRANCH   1   2
ATOM      2  N   UNL A   1      32.582  30.475  25.829  1.00  0.00    -0.352 N 
ATOM      3  O   UNL A   1      32.476  32.232  27.215  1.00  0.00    -0.269 OA
ATOM      4  C   UNL A   1      33.112  31.253  26.832  1.00  0.00     0.251 C 
ATOM      5  H   UNL A   1      31.805  30.873  25.374  1.00  0.00     0.163 HD
BRANCH   4   6
ATOM      6  C   UNL A   1      34.409  30.916  27.462  1.00  0.00     0.039 A 
ATOM      7  C   UNL A   1      34.764  29.594  27.728  1.00  0.00     0.014 A 
ATOM      8  C   UNL A   1      35.310  31.944  27.760  1.00  0.00     0.014 A 
ATOM      9  C   UNL A   1      35.918  29.314  28.453  1.00  0.00     0.010 A 
ATOM     10  C   UNL A   1      36.522  31.651  28.398  1.00  0.00     0.010 A 
ATOM     11  C   UNL A   1      36.814  30.339  28.798  1.00  0.00    -0.014 A 
BRANCH  11  12
ATOM     12  C   UNL A   1      38.053  30.000  29.547  1.00  0.00     0.031 A 
ATOM     13  C   UNL A   1      38.265  30.477  30.959  1.00  0.00     0.074 A 
ATOM     14  C   UNL A   1      38.983  29.224  28.954  1.00  0.00     0.049 A 
ATOM     15  N   UNL A   1      39.248  30.203  31.779  1.00  0.00    -0.248 NA
ATOM     16  C   UNL A   1      37.257  31.386  31.525  1.00  0.00     0.031 C 
ATOM     17  C   UNL A   1      38.919  28.739  27.574  1.00  0.00     0.029 A 
ATOM     18  N   UNL A   1      40.154  28.696  29.437  1.00  0.00    -0.354 N 
ATOM     19  C   UNL A   1      39.005  30.938  32.933  1.00  0.00     0.074 A 
ATOM     20  C   UNL A   1      37.783  31.679  32.707  1.00  0.00     0.031 C 
ATOM     21  C   UNL A   1      39.974  27.947  27.335  1.00  0.00     0.029 A 
ATOM     22  C   UNL A   1      40.812  27.899  28.528  1.00  0.00     0.049 A 
ATOM     23  H   UNL A   1      40.490  28.868  30.346  1.00  0.00     0.167 HD
ATOM     24  C   UNL A   1      39.719  30.977  34.083  1.00  0.00     0.034 A 
ATOM     25  C   UNL A   1      41.959  27.201  28.641  1.00  0.00     0.034 A 
ATOM     26  C   UNL A   1      40.900  30.193  34.331  1.00  0.00     0.049 A 
ATOM     27  C   UNL A   1      42.696  27.216  29.949  1.00  0.00     0.074 A 
ATOM     28  C   UNL A   1      41.647  30.107  35.493  1.00  0.00     0.029 A 
ATOM     29  N   UNL A   1      41.504  29.358  33.404  1.00  0.00    -0.354 N 
ATOM     30  N   UNL A   1      42.370  27.807  31.072  1.00  0.00    -0.248 NA
ATOM     31  C   UNL A   1      43.943  26.441  30.017  1.00  0.00     0.031 C 
ATOM     32  C   UNL A   1      42.710  29.225  35.265  1.00  0.00     0.029 A 
ATOM     33  C   UNL A   1      42.617  28.755  33.965  1.00  0.00     0.049 A 
ATOM     34  H   UNL A   1      41.188  29.215  32.484  1.00  0.00     0.167 HD
ATOM     35  C   UNL A   1      43.352  27.453  31.989  1.00  0.00     0.074 A 
ATOM     36  C   UNL A   1      44.273  26.576  31.294  1.00  0.00     0.031 C 
ATOM     37  C   UNL A   1      43.490  27.836  33.281  1.00  0.00     0.034 A 
BRANCH  24  38
ATOM     38  C   UNL A   1      39.218  31.868  35.190  1.00  0.00     0.023 A 
ATOM     39  C   UNL A   1      38.270  31.369  36.107  1.00  0.00     0.012 A 
ATOM     40  C   UNL A   1      39.726  33.171  35.362  1.00  0.00     0.148 A 
ATOM     41  C   UNL A   1      37.817  32.162  37.161  1.00  0.00     0.002 A 
ATOM     42  C   UNL A   1      39.296  33.941  36.438  1.00  0.00     0.091 A 
ATOM     43  F   UNL A   1      40.607  33.639  34.467  1.00  0.00    -0.205 F 
ATOM     44  C   UNL A   1      38.336  33.442  37.333  1.00  0.00     0.022 A 
BRANCH  42  45
ATOM     45  S   UNL A   1      39.967  35.574  36.774  1.00  0.00     0.127 S 
ATOM     46  O   UNL A   1      39.317  35.906  38.040  1.00  0.00    -0.237 OA
ATOM     47  O   UNL A   1      41.403  35.308  36.878  1.00  0.00    -0.237 OA
ATOM     48  O   UNL A   1      39.590  36.397  35.633  1.00  0.00    -0.744 OA
ENDBRANCH  42  45
ENDBRANCH  24  38
BRANCH  25  49
ATOM     49  C   UNL A   1      42.426  26.363  27.501  1.00  0.00     0.023 A 
ATOM     50  C   UNL A   1      43.309  26.920  26.555  1.00  0.00     0.012 A 
ATOM     51  C   UNL A   1      42.052  25.012  27.380  1.00  0.00     0.148 A 
ATOM     52  C   UNL A   1      43.794  26.151  25.497  1.00  0.00     0.002 A 
ATOM     53  C   UNL A   1      42.584  24.236  26.357  1.00  0.00     0.091 A 
ATOM     54  F   UNL A   1      41.197  24.506  28.280  1.00  0.00    -0.205 F 
ATOM     55  C   UNL A   1      43.443  24.806  25.406  1.00  0.00     0.022 A 
BRANCH  53  56
ATOM     56  S   UNL A   1      42.297  22.465  26.256  1.00  0.00     0.127 S 
ATOM     57  O   UNL A   1      40.842  22.404  26.136  1.00  0.00    -0.237 OA
ATOM     58  O   UNL A   1      43.032  22.104  25.042  1.00  0.00    -0.237 OA
ATOM     59  O   UNL A   1      42.860  21.912  27.480  1.00  0.00    -0.744 OA
ENDBRANCH  53  56
ENDBRANCH  25  49
BRANCH  37  60
ATOM     60  C   UNL A   1      44.665  27.287  34.046  1.00  0.00     0.023 A 
ATOM     61  C   UNL A   1      45.891  27.981  34.029  1.00  0.00     0.012 A 
ATOM     62  C   UNL A   1      44.537  26.126  34.831  1.00  0.00     0.148 A 
ATOM     63  C   UNL A   1      46.982  27.508  34.758  1.00  0.00     0.002 A 
ATOM     64  C   UNL A   1      45.615  25.685  35.589  1.00  0.00     0.091 A 
ATOM     65  F   UNL A   1      43.370  25.464  34.816  1.00  0.00    -0.205 F 
ATOM     66  C   UNL A   1      46.840  26.368  35.547  1.00  0.00     0.022 A 
BRANCH  64  67
ATOM     67  S   UNL A   1      45.481  24.277  36.698  1.00  0.00     0.127 S 
ATOM     68  O   UNL A   1      46.835  24.196  37.243  1.00  0.00    -0.237 OA
ATOM     69  O   UNL A   1      44.465  24.720  37.653  1.00  0.00    -0.237 OA
ATOM     70  O   UNL A   1      45.066  23.159  35.861  1.00  0.00    -0.744 OA
ENDBRANCH  64  67
ENDBRANCH  37  60
ENDBRANCH  11  12
ENDBRANCH   4   6
ENDBRANCH   1   2
BRANCH   1  71
ATOM     71  C   UNL A   1      33.538  29.225  23.911  1.00  0.00     0.042 C 
BRANCH  71  72
ATOM     72  C   UNL A   1      32.570  28.748  22.838  1.00  0.00     0.118 C 
BRANCH  72  73
ATOM     73  N   UNL A   1      33.090  27.622  22.064  1.00  0.00    -0.352 N 
ATOM     74  C   UNL A   1      33.139  26.285  22.387  1.00  0.00     0.253 C 
ATOM     75  H   UNL A   1      33.458  27.854  21.182  1.00  0.00     0.163 HD
ATOM     76  O   UNL A   1      33.780  25.498  21.696  1.00  0.00    -0.269 OA
BRANCH  74  77
ATOM     77  C   UNL A   1      32.459  25.805  23.609  1.00  0.00     0.067 A 
ATOM     78  C   UNL A   1      31.057  25.849  23.639  1.00  0.00     0.062 A 
ATOM     79  C   UNL A   1      33.200  25.354  24.721  1.00  0.00     0.054 A 
ATOM     80  C   UNL A   1      30.399  25.619  24.835  1.00  0.00     0.116 A 
ATOM     81  C   UNL A   1      32.512  25.226  25.930  1.00  0.00     0.031 A 
ATOM     82  C   UNL A   1      31.119  25.350  25.987  1.00  0.00     0.048 A 
BRANCH  79  83
ATOM     83  N   UNL A   1      34.578  25.060  24.567  1.00  0.00    -0.321 N 
ATOM     84  C   UNL A   1      35.286  23.879  24.508  1.00  0.00     0.257 C 
ATOM     85  H   UNL A   1      35.143  25.861  24.488  1.00  0.00     0.170 HD
ATOM     86  O   UNL A   1      36.516  23.887  24.499  1.00  0.00    -0.269 OA
BRANCH  84  87
ATOM     87  C   UNL A   1      34.620  22.576  24.394  1.00  0.00     0.058 A 
ATOM     88  C   UNL A   1      33.483  22.379  23.610  1.00  0.00     0.018 A 
ATOM     89  C   UNL A   1      35.137  21.498  25.096  1.00  0.00     0.126 A 
ATOM     90  C   UNL A   1      32.850  21.138  23.641  1.00  0.00     0.037 A 
ATOM     91  N   UNL A   1      34.543  20.281  25.135  1.00  0.00    -0.249 NA
ATOM     92  C   UNL A   1      33.404  20.131  24.423  1.00  0.00     0.106 A 
ATOM     93  Br  UNL A   1      32.510  18.464  24.534  1.00  0.00    -0.029 Br
ENDBRANCH  84  87
ENDBRANCH  79  83
BRANCH  80  94
ATOM     94  O   UNL A   1      29.044  25.700  24.930  1.00  0.00    -0.508 OA
ATOM     95  H   UNL A   1      28.504  25.105  24.449  1.00  0.00     0.293 HD
ENDBRANCH  80  94
ENDBRANCH  74  77
ENDBRANCH  72  73
ENDBRANCH  71  72
ENDBRANCH   1  71
TORSDOF 16
ENDMDL
MODEL 2
REMARK VINA RESULT:     -12.5      5.252     10.082
REMARK SMILES O=C(NCCCNC(=O)c1cc(O)ccc1NC(=O)c1ccc(Br)nc1)c1ccc(-c2c3nc(c(-c4cccc(S(=O)(=O)[O-])c4F)c4ccc([nH]4)c(-c4cccc(S(=O)(=O)[O-])c4F)c4nc(c(-c5cccc(S(=O)(=O)[O-])c5F)c5ccc2[nH]5)C=C4)C=C3)cc1
REMARK SMILES IDX 4 1 3 2 1 3 2 4 27 6 28 7 89 8 29 9 88 10 30 11 31 12 32 13
REMARK SMILES IDX 82 14 33 15 87 16 81 17 83 18 34 19 86 20 80 21 79 22 35 24
REMARK SMILES IDX 67 25 47 26 66 27 48 28 51 29 65 30 84 31 49 32 50 33 64 35
REMARK SMILES IDX 85 36 52 37 36 38 37 39 45 40 38 41 40 42 46 43 39 44 41 45
REMARK SMILES IDX 42 46 43 47 44 48 68 49 69 50 77 51 70 52 72 53 78 54 71 55
REMARK SMILES IDX 73 56 74 57 75 58 76 59 53 60 54 61 62 62 55 63 57 64 63 65
REMARK SMILES IDX 56 66 58 67 59 68 60 69 61 70 5 71 6 72 7 73 8 74 9 76 10 77
REMARK SMILES IDX 11 78 16 79 12 80 15 81 14 82 17 83 18 84 19 86 20 87 21 88
REMARK SMILES IDX 26 89 22 90 25 91 23 92 24 93 13 94
REMARK H PARENT 3 5 83 23 51 34 7 75 17 85 13 95
REMARK Flexibility Score: inf
ROOT
ATOM      1  C   UNL A   1      35.833  22.181  25.779  1.00  0.00     0.118 C 
ENDROOT
BRANCH   1   2
ATOM      2  N   UNL A   1      36.869  21.164  25.641  1.00  0.00    -0.352 N 
ATOM      3  O   UNL A   1      38.912  20.285  25.374  1.00  0.00    -0.269 OA
ATOM      4  C   UNL A   1      38.238  21.243  25.743  1.00  0.00     0.251 C 
ATOM      5  H   UNL A   1      36.528  20.263  25.438  1.00  0.00     0.163 HD
BRANCH   4   6
ATOM      6  C   UNL A   1      38.901  22.462  26.263  1.00  0.00     0.039 A 
ATOM      7  C   UNL A   1      38.458  23.735  25.908  1.00  0.00     0.014 A 
ATOM      8  C   UNL A   1      39.967  22.328  27.158  1.00  0.00     0.014 A 
ATOM      9  C   UNL A   1      39.187  24.858  26.289  1.00  0.00     0.010 A 
ATOM     10  C   UNL A   1      40.637  23.466  27.626  1.00  0.00     0.010 A 
ATOM     11  C   UNL A   1      40.286  24.739  27.154  1.00  0.00    -0.014 A 
BRANCH  11  12
ATOM     12  C   UNL A   1      41.024  25.964  27.565  1.00  0.00     0.031 A 
ATOM     13  C   UNL A   1      42.425  26.230  27.081  1.00  0.00     0.074 A 
ATOM     14  C   UNL A   1      40.408  26.861  28.360  1.00  0.00     0.049 A 
ATOM     15  N   UNL A   1      43.175  27.284  27.278  1.00  0.00    -0.248 NA
ATOM     16  C   UNL A   1      43.076  25.178  26.284  1.00  0.00     0.031 C 
ATOM     17  C   UNL A   1      39.071  26.698  28.936  1.00  0.00     0.029 A 
ATOM     18  N   UNL A   1      40.813  28.093  28.809  1.00  0.00    -0.354 N 
ATOM     19  C   UNL A   1      44.396  27.006  26.676  1.00  0.00     0.074 A 
ATOM     20  C   UNL A   1      44.292  25.678  26.110  1.00  0.00     0.031 C 
ATOM     21  C   UNL A   1      38.747  27.804  29.621  1.00  0.00     0.029 A 
ATOM     22  C   UNL A   1      39.865  28.739  29.570  1.00  0.00     0.049 A 
ATOM     23  H   UNL A   1      41.696  28.478  28.606  1.00  0.00     0.167 HD
ATOM     24  C   UNL A   1      45.496  27.791  26.581  1.00  0.00     0.034 A 
ATOM     25  C   UNL A   1      39.888  29.952  30.156  1.00  0.00     0.034 A 
ATOM     26  C   UNL A   1      45.578  29.135  27.089  1.00  0.00     0.049 A 
ATOM     27  C   UNL A   1      41.098  30.824  29.981  1.00  0.00     0.074 A 
ATOM     28  C   UNL A   1      46.623  30.036  26.974  1.00  0.00     0.029 A 
ATOM     29  N   UNL A   1      44.578  29.773  27.806  1.00  0.00    -0.354 N 
ATOM     30  N   UNL A   1      42.186  30.595  29.287  1.00  0.00    -0.248 NA
ATOM     31  C   UNL A   1      41.072  32.135  30.644  1.00  0.00     0.031 C 
ATOM     32  C   UNL A   1      46.256  31.217  27.629  1.00  0.00     0.029 A 
ATOM     33  C   UNL A   1      44.980  31.054  28.143  1.00  0.00     0.049 A 
ATOM     34  H   UNL A   1      43.710  29.373  28.040  1.00  0.00     0.167 HD
ATOM     35  C   UNL A   1      42.961  31.742  29.404  1.00  0.00     0.074 A 
ATOM     36  C   UNL A   1      42.205  32.675  30.217  1.00  0.00     0.031 C 
ATOM     37  C   UNL A   1      44.194  31.993  28.901  1.00  0.00     0.034 A 
BRANCH  24  38
ATOM     38  C   UNL A   1      46.695  27.235  25.858  1.00  0.00     0.023 A 
ATOM     39  C   UNL A   1      47.484  26.246  26.480  1.00  0.00     0.012 A 
ATOM     40  C   UNL A   1      47.005  27.641  24.545  1.00  0.00     0.148 A 
ATOM     41  C   UNL A   1      48.577  25.689  25.817  1.00  0.00     0.002 A 
ATOM     42  C   UNL A   1      48.076  27.054  23.878  1.00  0.00     0.091 A 
ATOM     43  F   UNL A   1      46.262  28.601  23.978  1.00  0.00    -0.205 F 
ATOM     44  C   UNL A   1      48.867  26.085  24.515  1.00  0.00     0.022 A 
BRANCH  42  45
ATOM     45  S   UNL A   1      48.474  27.454  22.172  1.00  0.00     0.127 S 
ATOM     46  O   UNL A   1      49.705  28.227  22.329  1.00  0.00    -0.237 OA
ATOM     47  O   UNL A   1      48.658  26.131  21.573  1.00  0.00    -0.237 OA
ATOM     48  O   UNL A   1      47.326  28.190  21.661  1.00  0.00    -0.744 OA
ENDBRANCH  42  45
ENDBRANCH  24  38
BRANCH  25  49
ATOM     49  C   UNL A   1      38.685  30.439  30.887  1.00  0.00     0.023 A 
ATOM     50  C   UNL A   1      38.612  30.263  32.283  1.00  0.00     0.012 A 
ATOM     51  C   UNL A   1      37.647  31.120  30.225  1.00  0.00     0.148 A 
ATOM     52  C   UNL A   1      37.516  30.740  33.003  1.00  0.00     0.002 A 
ATOM     53  C   UNL A   1      36.587  31.643  30.955  1.00  0.00     0.091 A 
ATOM     54  F   UNL A   1      37.726  31.262  28.894  1.00  0.00    -0.205 F 
ATOM     55  C   UNL A   1      36.511  31.442  32.342  1.00  0.00     0.022 A 
BRANCH  53  56
ATOM     56  S   UNL A   1      35.330  32.682  30.201  1.00  0.00     0.127 S 
ATOM     57  O   UNL A   1      34.395  32.872  31.307  1.00  0.00    -0.237 OA
ATOM     58  O   UNL A   1      36.097  33.873  29.830  1.00  0.00    -0.237 OA
ATOM     59  O   UNL A   1      34.829  31.920  29.066  1.00  0.00    -0.744 OA
ENDBRANCH  53  56
ENDBRANCH  25  49
BRANCH  37  60
ATOM     60  C   UNL A   1      44.799  33.342  29.187  1.00  0.00     0.023 A 
ATOM     61  C   UNL A   1      45.481  33.553  30.400  1.00  0.00     0.012 A 
ATOM     62  C   UNL A   1      44.749  34.373  28.230  1.00  0.00     0.148 A 
ATOM     63  C   UNL A   1      46.079  34.784  30.671  1.00  0.00     0.002 A 
ATOM     64  C   UNL A   1      45.383  35.583  28.489  1.00  0.00     0.091 A 
ATOM     65  F   UNL A   1      44.073  34.163  27.091  1.00  0.00    -0.205 F 
ATOM     66  C   UNL A   1      46.041  35.794  29.711  1.00  0.00     0.022 A 
BRANCH  64  67
ATOM     67  S   UNL A   1      45.453  36.896  27.265  1.00  0.00     0.127 S 
ATOM     68  O   UNL A   1      44.036  37.154  27.021  1.00  0.00    -0.237 OA
ATOM     69  O   UNL A   1      46.152  37.963  27.982  1.00  0.00    -0.237 OA
ATOM     70  O   UNL A   1      46.200  36.344  26.142  1.00  0.00    -0.744 OA
ENDBRANCH  64  67
ENDBRANCH  37  60
ENDBRANCH  11  12
ENDBRANCH   4   6
ENDBRANCH   1   2
BRANCH   1  71
ATOM     71  C   UNL A   1      35.039  22.037  27.070  1.00  0.00     0.042 C 
BRANCH  71  72
ATOM     72  C   UNL A   1      33.673  21.392  26.881  1.00  0.00     0.118 C 
BRANCH  72  73
ATOM     73  N   UNL A   1      32.574  22.251  27.316  1.00  0.00    -0.352 N 
ATOM     74  C   UNL A   1      31.967  23.298  26.660  1.00  0.00     0.253 C 
ATOM     75  H   UNL A   1      32.214  22.051  28.210  1.00  0.00     0.163 HD
ATOM     76  O   UNL A   1      31.179  24.032  27.249  1.00  0.00    -0.269 OA
BRANCH  74  77
ATOM     77  C   UNL A   1      32.312  23.570  25.248  1.00  0.00     0.067 A 
ATOM     78  C   UNL A   1      31.813  22.695  24.271  1.00  0.00     0.062 A 
ATOM     79  C   UNL A   1      33.145  24.653  24.902  1.00  0.00     0.054 A 
ATOM     80  C   UNL A   1      32.290  22.787  22.975  1.00  0.00     0.116 A 
ATOM     81  C   UNL A   1      33.679  24.653  23.611  1.00  0.00     0.031 A 
ATOM     82  C   UNL A   1      33.249  23.732  22.649  1.00  0.00     0.048 A 
BRANCH  79  83
ATOM     83  N   UNL A   1      33.403  25.668  25.857  1.00  0.00    -0.321 N 
ATOM     84  C   UNL A   1      32.936  26.956  26.009  1.00  0.00     0.257 C 
ATOM     85  H   UNL A   1      34.045  25.399  26.552  1.00  0.00     0.170 HD
ATOM     86  O   UNL A   1      33.416  27.698  26.863  1.00  0.00    -0.269 OA
BRANCH  84  87
ATOM     87  C   UNL A   1      31.820  27.478  25.212  1.00  0.00     0.058 A 
ATOM     88  C   UNL A   1      30.763  26.677  24.781  1.00  0.00     0.018 A 
ATOM     89  C   UNL A   1      31.816  28.823  24.869  1.00  0.00     0.126 A 
ATOM     90  C   UNL A   1      29.798  27.228  23.939  1.00  0.00     0.037 A 
ATOM     91  N   UNL A   1      30.885  29.381  24.058  1.00  0.00    -0.249 NA
ATOM     92  C   UNL A   1      29.908  28.570  23.596  1.00  0.00     0.106 A 
ATOM     93  Br  UNL A   1      28.648  29.311  22.389  1.00  0.00    -0.029 Br
ENDBRANCH  84  87
ENDBRANCH  79  83
BRANCH  80  94
ATOM     94  O   UNL A   1      31.878  21.930  22.001  1.00  0.00    -0.508 OA
ATOM     95  H   UNL A   1      32.200  22.025  21.126  1.00  0.00     0.293 HD
ENDBRANCH  80  94
ENDBRANCH  74  77
ENDBRANCH  72  73
ENDBRANCH  71  72
ENDBRANCH   1  71
TORSDOF 16
ENDMDL
MODEL 3
REMARK VINA RESULT:     -12.5      4.874      9.954
REMARK SMILES O=C(NCCCNC(=O)c1cc(O)ccc1NC(=O)c1ccc(Br)nc1)c1ccc(-c2c3nc(c(-c4cccc(S(=O)(=O)[O-])c4F)c4ccc([nH]4)c(-c4cccc(S(=O)(=O)[O-])c4F)c4nc(c(-c5cccc(S(=O)(=O)[O-])c5F)c5ccc2[nH]5)C=C4)C=C3)cc1
REMARK SMILES IDX 4 1 3 2 1 3 2 4 27 6 28 7 89 8 29 9 88 10 30 11 31 12 32 13
REMARK SMILES IDX 82 14 33 15 87 16 81 17 83 18 34 19 86 20 80 21 79 22 35 24
REMARK SMILES IDX 67 25 47 26 66 27 48 28 51 29 65 30 84 31 49 32 50 33 64 35
REMARK SMILES IDX 85 36 52 37 36 38 37 39 45 40 38 41 40 42 46 43 39 44 41 45
REMARK SMILES IDX 42 46 43 47 44 48 68 49 69 50 77 51 70 52 72 53 78 54 71 55
REMARK SMILES IDX 73 56 74 57 75 58 76 59 53 60 54 61 62 62 55 63 57 64 63 65
REMARK SMILES IDX 56 66 58 67 59 68 60 69 61 70 5 71 6 72 7 73 8 74 9 76 10 77
REMARK SMILES IDX 11 78 16 79 12 80 15 81 14 82 17 83 18 84 19 86 20 87 21 88
REMARK SMILES IDX 26 89 22 90 25 91 23 92 24 93 13 94
REMARK H PARENT 3 5 83 23 51 34 7 75 17 85 13 95
REMARK Flexibility Score: inf
ROOT
ATOM      1  C   UNL A   1      35.953  22.084  25.552  1.00  0.00     0.118 C 
ENDROOT
BRANCH   1   2
ATOM      2  N   UNL A   1      36.984  21.053  25.533  1.00  0.00    -0.352 N 
ATOM      3  O   UNL A   1      39.030  20.144  25.459  1.00  0.00    -0.269 OA
ATOM      4  C   UNL A   1      38.342  21.123  25.737  1.00  0.00     0.251 C 
ATOM      5  H   UNL A   1      36.649  20.148  25.340  1.00  0.00     0.163 HD
BRANCH   4   6
ATOM      6  C   UNL A   1      38.978  22.355  26.258  1.00  0.00     0.039 A 
ATOM      7  C   UNL A   1      38.511  23.619  25.902  1.00  0.00     0.014 A 
ATOM      8  C   UNL A   1      40.045  22.244  27.156  1.00  0.00     0.014 A 
ATOM      9  C   UNL A   1      39.215  24.756  26.284  1.00  0.00     0.010 A 
ATOM     10  C   UNL A   1      40.690  23.395  27.625  1.00  0.00     0.010 A 
ATOM     11  C   UNL A   1      40.315  24.660  27.152  1.00  0.00    -0.014 A 
BRANCH  11  12
ATOM     12  C   UNL A   1      41.026  25.900  27.565  1.00  0.00     0.031 A 
ATOM     13  C   UNL A   1      42.433  26.181  27.107  1.00  0.00     0.074 A 
ATOM     14  C   UNL A   1      40.380  26.798  28.336  1.00  0.00     0.049 A 
ATOM     15  N   UNL A   1      43.164  27.248  27.307  1.00  0.00    -0.248 NA
ATOM     16  C   UNL A   1      43.116  25.130  26.336  1.00  0.00     0.031 C 
ATOM     17  C   UNL A   1      39.034  26.621  28.886  1.00  0.00     0.029 A 
ATOM     18  N   UNL A   1      40.758  28.039  28.779  1.00  0.00    -0.354 N 
ATOM     19  C   UNL A   1      44.402  26.981  26.735  1.00  0.00     0.074 A 
ATOM     20  C   UNL A   1      44.328  25.645  26.182  1.00  0.00     0.031 C 
ATOM     21  C   UNL A   1      38.680  27.730  29.551  1.00  0.00     0.029 A 
ATOM     22  C   UNL A   1      39.786  28.680  29.512  1.00  0.00     0.049 A 
ATOM     23  H   UNL A   1      41.640  28.435  28.591  1.00  0.00     0.167 HD
ATOM     24  C   UNL A   1      45.492  27.781  26.654  1.00  0.00     0.034 A 
ATOM     25  C   UNL A   1      39.779  29.901  30.084  1.00  0.00     0.034 A 
ATOM     26  C   UNL A   1      45.544  29.131  27.149  1.00  0.00     0.049 A 
ATOM     27  C   UNL A   1      40.980  30.788  29.925  1.00  0.00     0.074 A 
ATOM     28  C   UNL A   1      46.578  30.045  27.045  1.00  0.00     0.029 A 
ATOM     29  N   UNL A   1      44.520  29.762  27.837  1.00  0.00    -0.354 N 
ATOM     30  N   UNL A   1      42.085  30.566  29.257  1.00  0.00    -0.248 NA
ATOM     31  C   UNL A   1      40.921  32.106  30.573  1.00  0.00     0.031 C 
ATOM     32  C   UNL A   1      46.181  31.228  27.679  1.00  0.00     0.029 A 
ATOM     33  C   UNL A   1      44.897  31.053  28.168  1.00  0.00     0.049 A 
ATOM     34  H   UNL A   1      43.653  29.353  28.057  1.00  0.00     0.167 HD
ATOM     35  C   UNL A   1      42.841  31.726  29.377  1.00  0.00     0.074 A 
ATOM     36  C   UNL A   1      42.056  32.657  30.163  1.00  0.00     0.031 C 
ATOM     37  C   UNL A   1      44.081  31.989  28.897  1.00  0.00     0.034 A 
BRANCH  24  38
ATOM     38  C   UNL A   1      46.714  27.233  25.963  1.00  0.00     0.023 A 
ATOM     39  C   UNL A   1      46.830  27.348  24.563  1.00  0.00     0.012 A 
ATOM     40  C   UNL A   1      47.772  26.664  26.700  1.00  0.00     0.148 A 
ATOM     41  C   UNL A   1      47.967  26.882  23.905  1.00  0.00     0.002 A 
ATOM     42  C   UNL A   1      48.918  26.234  26.039  1.00  0.00     0.091 A 
ATOM     43  F   UNL A   1      47.634  26.538  28.027  1.00  0.00    -0.205 F 
ATOM     44  C   UNL A   1      49.014  26.335  24.642  1.00  0.00     0.022 A 
BRANCH  42  45
ATOM     45  S   UNL A   1      50.343  25.584  26.919  1.00  0.00     0.127 S 
ATOM     46  O   UNL A   1      49.761  24.440  27.619  1.00  0.00    -0.237 OA
ATOM     47  O   UNL A   1      51.254  25.232  25.829  1.00  0.00    -0.237 OA
ATOM     48  O   UNL A   1      50.812  26.672  27.767  1.00  0.00    -0.744 OA
ENDBRANCH  42  45
ENDBRANCH  24  38
BRANCH  25  49
ATOM     49  C   UNL A   1      38.554  30.378  30.785  1.00  0.00     0.023 A 
ATOM     50  C   UNL A   1      38.429  30.168  32.172  1.00  0.00     0.012 A 
ATOM     51  C   UNL A   1      37.545  31.084  30.103  1.00  0.00     0.148 A 
ATOM     52  C   UNL A   1      37.312  30.635  32.864  1.00  0.00     0.002 A 
ATOM     53  C   UNL A   1      36.463  31.597  30.809  1.00  0.00     0.091 A 
ATOM     54  F   UNL A   1      37.673  31.258  28.780  1.00  0.00    -0.205 F 
ATOM     55  C   UNL A   1      36.336  31.362  32.186  1.00  0.00     0.022 A 
BRANCH  53  56
ATOM     56  S   UNL A   1      35.241  32.664  30.037  1.00  0.00     0.127 S 
ATOM     57  O   UNL A   1      36.068  33.769  29.558  1.00  0.00    -0.237 OA
ATOM     58  O   UNL A   1      34.697  31.800  28.987  1.00  0.00    -0.237 OA
ATOM     59  O   UNL A   1      34.290  32.989  31.091  1.00  0.00    -0.744 OA
ENDBRANCH  53  56
ENDBRANCH  25  49
BRANCH  37  60
ATOM     60  C   UNL A   1      44.661  33.349  29.180  1.00  0.00     0.023 A 
ATOM     61  C   UNL A   1      45.369  33.567  30.379  1.00  0.00     0.012 A 
ATOM     62  C   UNL A   1      44.562  34.388  28.235  1.00  0.00     0.148 A 
ATOM     63  C   UNL A   1      45.944  34.809  30.646  1.00  0.00     0.002 A 
ATOM     64  C   UNL A   1      45.174  35.610  28.489  1.00  0.00     0.091 A 
ATOM     65  F   UNL A   1      43.864  34.171  27.111  1.00  0.00    -0.205 F 
ATOM     66  C   UNL A   1      45.857  35.826  29.696  1.00  0.00     0.022 A 
BRANCH  64  67
ATOM     67  S   UNL A   1      45.182  36.935  27.276  1.00  0.00     0.127 S 
ATOM     68  O   UNL A   1      45.869  36.306  26.149  1.00  0.00    -0.237 OA
ATOM     69  O   UNL A   1      43.755  37.179  27.061  1.00  0.00    -0.237 OA
ATOM     70  O   UNL A   1      45.887  38.041  27.911  1.00  0.00    -0.744 OA
ENDBRANCH  64  67
ENDBRANCH  37  60
ENDBRANCH  11  12
ENDBRANCH   4   6
ENDBRANCH   1   2
BRANCH   1  71
ATOM     71  C   UNL A   1      35.239  22.176  26.894  1.00  0.00     0.042 C 
BRANCH  71  72
ATOM     72  C   UNL A   1      33.896  21.460  26.924  1.00  0.00     0.118 C 
BRANCH  72  73
ATOM     73  N   UNL A   1      32.798  22.330  27.338  1.00  0.00    -0.352 N 
ATOM     74  C   UNL A   1      32.156  23.326  26.638  1.00  0.00     0.253 C 
ATOM     75  H   UNL A   1      32.468  22.182  28.253  1.00  0.00     0.163 HD
ATOM     76  O   UNL A   1      31.375  24.086  27.205  1.00  0.00    -0.269 OA
BRANCH  74  77
ATOM     77  C   UNL A   1      32.454  23.515  25.202  1.00  0.00     0.067 A 
ATOM     78  C   UNL A   1      31.861  22.630  24.288  1.00  0.00     0.062 A 
ATOM     79  C   UNL A   1      33.335  24.527  24.772  1.00  0.00     0.054 A 
ATOM     80  C   UNL A   1      32.285  22.635  22.970  1.00  0.00     0.116 A 
ATOM     81  C   UNL A   1      33.810  24.438  23.461  1.00  0.00     0.031 A 
ATOM     82  C   UNL A   1      33.284  23.504  22.562  1.00  0.00     0.048 A 
BRANCH  79  83
ATOM     83  N   UNL A   1      33.694  25.565  25.668  1.00  0.00    -0.321 N 
ATOM     84  C   UNL A   1      33.496  26.929  25.654  1.00  0.00     0.257 C 
ATOM     85  H   UNL A   1      34.185  25.248  26.458  1.00  0.00     0.170 HD
ATOM     86  O   UNL A   1      34.025  27.647  26.501  1.00  0.00    -0.269 OA
BRANCH  84  87
ATOM     87  C   UNL A   1      32.609  27.577  24.680  1.00  0.00     0.058 A 
ATOM     88  C   UNL A   1      33.091  28.277  23.573  1.00  0.00     0.018 A 
ATOM     89  C   UNL A   1      31.237  27.496  24.869  1.00  0.00     0.126 A 
ATOM     90  C   UNL A   1      32.185  28.953  22.756  1.00  0.00     0.037 A 
ATOM     91  N   UNL A   1      30.339  28.139  24.083  1.00  0.00    -0.249 NA
ATOM     92  C   UNL A   1      30.831  28.867  23.057  1.00  0.00     0.106 A 
ATOM     93  Br  UNL A   1      29.597  29.845  22.002  1.00  0.00    -0.029 Br
ENDBRANCH  84  87
ENDBRANCH  79  83
BRANCH  80  94
ATOM     94  O   UNL A   1      31.780  21.764  22.055  1.00  0.00    -0.508 OA
ATOM     95  H   UNL A   1      32.289  21.027  21.779  1.00  0.00     0.293 HD
ENDBRANCH  80  94
ENDBRANCH  74  77
ENDBRANCH  72  73
ENDBRANCH  71  72
ENDBRANCH   1  71
TORSDOF 16
ENDMDL
