MODEL 1
REMARK VINA RESULT:     -12.8      0.000      0.000
REMARK SMILES COc1ccc2c(c1)CC[C@@](C)(CCC(=O)NCCCNC(=O)c1ccc(-c3c4nc(c(-c5cccc(S(=O)(=O)[O-])c5F)c5ccc([nH]5)c(-c5cccc(S(=O)(=O)[O-])c5F)c5nc(c(-c6cccc(S(=O)(=O)[O-])c6F)c6ccc3[nH]6)C=C5)C=C4)cc1)C2=O
REMARK SMILES IDX 19 1 18 2 17 3 15 4 16 5 14 7 13 8 11 9 3 10 4 11 8 12 5 13
REMARK SMILES IDX 7 14 6 15 9 16 87 17 10 18 88 19 12 20 2 21 1 22 20 23 21 24
REMARK SMILES IDX 22 25 23 27 24 28 25 29 86 30 26 31 85 32 27 33 28 34 29 35
REMARK SMILES IDX 79 36 30 37 84 38 78 39 80 40 31 41 83 42 77 43 76 44 32 46
REMARK SMILES IDX 64 47 44 48 63 49 45 50 48 51 62 52 81 53 46 54 47 55 61 57
REMARK SMILES IDX 82 58 49 59 33 60 34 61 42 62 35 63 37 64 43 65 36 66 38 67
REMARK SMILES IDX 39 68 40 69 41 70 65 71 66 72 74 73 67 74 69 75 75 76 68 77
REMARK SMILES IDX 70 78 71 79 72 80 73 81 50 82 51 83 59 84 52 85 54 86 60 87
REMARK SMILES IDX 53 88 55 89 56 90 57 91 58 92
REMARK H PARENT 17 6 21 26 80 45 48 56
REMARK Flexibility Score: inf
ROOT
ATOM      1  C   UNL A   1      32.196  28.963  23.524  1.00  0.00     0.042 C 
ENDROOT
BRANCH   1   2
ATOM      2  C   UNL A   1      31.399  27.671  23.302  1.00  0.00     0.117 C 
BRANCH   2   3
ATOM      3  N   UNL A   1      31.890  26.967  22.128  1.00  0.00    -0.356 N 
ATOM      4  C   UNL A   1      32.901  26.062  22.001  1.00  0.00     0.220 C 
ATOM      5  O   UNL A   1      33.279  25.775  20.863  1.00  0.00    -0.275 OA
ATOM      6  H   UNL A   1      31.416  27.177  21.291  1.00  0.00     0.163 HD
BRANCH   4   7
ATOM      7  C   UNL A   1      33.452  25.323  23.210  1.00  0.00     0.101 C 
BRANCH   7   8
ATOM      8  C   UNL A   1      34.030  23.909  23.002  1.00  0.00     0.025 C 
BRANCH   8   9
ATOM      9  C   UNL A   1      33.703  22.766  24.038  1.00  0.00     0.032 C 
ATOM     10  C   UNL A   1      33.625  17.556  23.902  1.00  0.00     0.119 A 
ATOM     11  C   UNL A   1      32.459  17.958  23.264  1.00  0.00     0.047 A 
ATOM     12  C   UNL A   1      34.401  18.497  24.569  1.00  0.00     0.050 A 
ATOM     13  C   UNL A   1      32.155  19.312  23.139  1.00  0.00     0.016 A 
ATOM     14  C   UNL A   1      34.068  19.859  24.508  1.00  0.00    -0.033 A 
ATOM     15  C   UNL A   1      32.995  20.271  23.711  1.00  0.00     0.022 A 
ATOM     16  C   UNL A   1      34.772  20.847  25.388  1.00  0.00     0.037 C 
ATOM     17  C   UNL A   1      32.766  21.716  23.424  1.00  0.00     0.169 C 
ATOM     18  C   UNL A   1      34.983  22.157  24.651  1.00  0.00     0.020 C 
ATOM     19  O   UNL A   1      31.813  22.045  22.717  1.00  0.00    -0.294 OA
ATOM     20  C   UNL A   1      32.829  23.376  25.166  1.00  0.00     0.020 C 
BRANCH  10  21
ATOM     21  O   UNL A   1      33.974  16.240  24.015  1.00  0.00    -0.497 OA
ATOM     22  C   UNL A   1      34.161  15.825  25.370  1.00  0.00     0.278 C 
ENDBRANCH  10  21
ENDBRANCH   8   9
ENDBRANCH   7   8
ENDBRANCH   4   7
ENDBRANCH   2   3
ENDBRANCH   1   2
BRANCH   1  23
ATOM     23  C   UNL A   1      32.888  29.075  24.880  1.00  0.00     0.118 C 
BRANCH  23  24
ATOM     24  N   UNL A   1      32.411  30.172  25.713  1.00  0.00    -0.352 N 
ATOM     25  C   UNL A   1      32.956  31.028  26.640  1.00  0.00     0.251 C 
ATOM     26  H   UNL A   1      31.451  30.344  25.575  1.00  0.00     0.163 HD
ATOM     27  O   UNL A   1      32.225  31.969  26.974  1.00  0.00    -0.269 OA
BRANCH  25  28
ATOM     28  C   UNL A   1      34.277  30.878  27.328  1.00  0.00     0.039 A 
ATOM     29  C   UNL A   1      35.140  31.917  27.658  1.00  0.00     0.014 A 
ATOM     30  C   UNL A   1      34.700  29.559  27.624  1.00  0.00     0.014 A 
ATOM     31  C   UNL A   1      36.411  31.649  28.185  1.00  0.00     0.010 A 
ATOM     32  C   UNL A   1      35.970  29.284  28.162  1.00  0.00     0.010 A 
ATOM     33  C   UNL A   1      36.842  30.334  28.442  1.00  0.00    -0.014 A 
BRANCH  33  34
ATOM     34  C   UNL A   1      38.065  30.146  29.263  1.00  0.00     0.031 A 
ATOM     35  C   UNL A   1      38.229  30.685  30.653  1.00  0.00     0.074 A 
ATOM     36  C   UNL A   1      39.025  29.377  28.714  1.00  0.00     0.049 A 
ATOM     37  N   UNL A   1      39.147  30.380  31.535  1.00  0.00    -0.248 NA
ATOM     38  C   UNL A   1      37.266  31.693  31.118  1.00  0.00     0.031 C 
ATOM     39  C   UNL A   1      38.987  28.866  27.340  1.00  0.00     0.029 A 
ATOM     40  N   UNL A   1      40.180  28.857  29.233  1.00  0.00    -0.354 N 
ATOM     41  C   UNL A   1      38.886  31.158  32.656  1.00  0.00     0.074 A 
ATOM     42  C   UNL A   1      37.722  31.961  32.339  1.00  0.00     0.031 C 
ATOM     43  C   UNL A   1      40.031  28.053  27.146  1.00  0.00     0.029 A 
ATOM     44  C   UNL A   1      40.828  28.010  28.367  1.00  0.00     0.049 A 
ATOM     45  H   UNL A   1      40.513  29.069  30.135  1.00  0.00     0.167 HD
ATOM     46  C   UNL A   1      39.555  31.182  33.834  1.00  0.00     0.034 A 
ATOM     47  C   UNL A   1      41.931  27.258  28.533  1.00  0.00     0.034 A 
ATOM     48  C   UNL A   1      40.702  30.358  34.128  1.00  0.00     0.049 A 
ATOM     49  C   UNL A   1      42.617  27.261  29.862  1.00  0.00     0.074 A 
ATOM     50  C   UNL A   1      41.399  30.255  35.321  1.00  0.00     0.029 A 
ATOM     51  N   UNL A   1      41.330  29.513  33.226  1.00  0.00    -0.354 N 
ATOM     52  N   UNL A   1      42.272  27.898  30.953  1.00  0.00    -0.248 NA
ATOM     53  C   UNL A   1      43.824  26.435  29.996  1.00  0.00     0.031 C 
ATOM     54  C   UNL A   1      42.461  29.369  35.132  1.00  0.00     0.029 A 
ATOM     55  C   UNL A   1      42.412  28.896  33.831  1.00  0.00     0.049 A 
ATOM     56  H   UNL A   1      41.047  29.371  32.294  1.00  0.00     0.167 HD
ATOM     57  C   UNL A   1      43.210  27.543  31.911  1.00  0.00     0.074 A 
ATOM     58  C   UNL A   1      44.133  26.623  31.274  1.00  0.00     0.031 C 
ATOM     59  C   UNL A   1      43.300  27.955  33.196  1.00  0.00     0.034 A 
BRANCH  46  60
ATOM     60  C   UNL A   1      39.056  32.070  34.947  1.00  0.00     0.023 A 
ATOM     61  C   UNL A   1      38.123  31.553  35.868  1.00  0.00     0.012 A 
ATOM     62  C   UNL A   1      39.639  33.332  35.189  1.00  0.00     0.148 A 
ATOM     63  C   UNL A   1      37.777  32.276  37.010  1.00  0.00     0.002 A 
ATOM     64  C   UNL A   1      39.307  34.036  36.342  1.00  0.00     0.091 A 
ATOM     65  F   UNL A   1      40.530  33.802  34.304  1.00  0.00    -0.205 F 
ATOM     66  C   UNL A   1      38.377  33.509  37.253  1.00  0.00     0.022 A 
BRANCH  64  67
ATOM     67  S   UNL A   1      40.059  35.609  36.784  1.00  0.00     0.127 S 
ATOM     68  O   UNL A   1      39.656  36.453  35.661  1.00  0.00    -0.237 OA
ATOM     69  O   UNL A   1      39.401  35.921  38.050  1.00  0.00    -0.237 OA
ATOM     70  O   UNL A   1      41.493  35.358  36.882  1.00  0.00    -0.744 OA
ENDBRANCH  64  67
ENDBRANCH  46  60
BRANCH  47  71
ATOM     71  C   UNL A   1      42.381  26.401  27.406  1.00  0.00     0.023 A 
ATOM     72  C   UNL A   1      43.366  26.875  26.522  1.00  0.00     0.012 A 
ATOM     73  C   UNL A   1      41.941  25.066  27.305  1.00  0.00     0.148 A 
ATOM     74  C   UNL A   1      43.911  26.029  25.555  1.00  0.00     0.002 A 
ATOM     75  C   UNL A   1      42.518  24.219  26.372  1.00  0.00     0.091 A 
ATOM     76  F   UNL A   1      41.007  24.643  28.169  1.00  0.00    -0.205 F 
ATOM     77  C   UNL A   1      43.499  24.699  25.490  1.00  0.00     0.022 A 
BRANCH  75  78
ATOM     78  S   UNL A   1      42.142  22.464  26.301  1.00  0.00     0.127 S 
ATOM     79  O   UNL A   1      42.938  22.038  25.152  1.00  0.00    -0.237 OA
ATOM     80  O   UNL A   1      42.632  21.999  27.599  1.00  0.00    -0.237 OA
ATOM     81  O   UNL A   1      40.698  22.373  26.131  1.00  0.00    -0.744 OA
ENDBRANCH  75  78
ENDBRANCH  47  71
BRANCH  59  82
ATOM     82  C   UNL A   1      44.425  27.420  34.034  1.00  0.00     0.023 A 
ATOM     83  C   UNL A   1      45.636  28.135  34.103  1.00  0.00     0.012 A 
ATOM     84  C   UNL A   1      44.223  26.303  34.867  1.00  0.00     0.148 A 
ATOM     85  C   UNL A   1      46.631  27.747  34.999  1.00  0.00     0.002 A 
ATOM     86  C   UNL A   1      45.205  25.943  35.780  1.00  0.00     0.091 A 
ATOM     87  F   UNL A   1      43.061  25.641  34.774  1.00  0.00    -0.205 F 
ATOM     88  C   UNL A   1      46.410  26.663  35.846  1.00  0.00     0.022 A 
BRANCH  86  89
ATOM     89  S   UNL A   1      44.988  24.607  36.961  1.00  0.00     0.127 S 
ATOM     90  O   UNL A   1      44.916  23.442  36.081  1.00  0.00    -0.237 OA
ATOM     91  O   UNL A   1      46.213  24.698  37.754  1.00  0.00    -0.237 OA
ATOM     92  O   UNL A   1      43.762  24.903  37.689  1.00  0.00    -0.744 OA
ENDBRANCH  86  89
ENDBRANCH  59  82
ENDBRANCH  33  34
ENDBRANCH  25  28
ENDBRANCH  23  24
ENDBRANCH   1  23
TORSDOF 16
ENDMDL
MODEL 2
REMARK VINA RESULT:     -12.6      1.764      2.231
REMARK SMILES COc1ccc2c(c1)CC[C@@](C)(CCC(=O)NCCCNC(=O)c1ccc(-c3c4nc(c(-c5cccc(S(=O)(=O)[O-])c5F)c5ccc([nH]5)c(-c5cccc(S(=O)(=O)[O-])c5F)c5nc(c(-c6cccc(S(=O)(=O)[O-])c6F)c6ccc3[nH]6)C=C5)C=C4)cc1)C2=O
REMARK SMILES IDX 19 1 18 2 17 3 15 4 16 5 14 7 13 8 11 9 3 10 4 11 8 12 5 13
REMARK SMILES IDX 7 14 6 15 9 16 87 17 10 18 88 19 12 20 2 21 1 22 20 23 21 24
REMARK SMILES IDX 22 25 23 27 24 28 25 29 86 30 26 31 85 32 27 33 28 34 29 35
REMARK SMILES IDX 79 36 30 37 84 38 78 39 80 40 31 41 83 42 77 43 76 44 32 46
REMARK SMILES IDX 64 47 44 48 63 49 45 50 48 51 62 52 81 53 46 54 47 55 61 57
REMARK SMILES IDX 82 58 49 59 33 60 34 61 42 62 35 63 37 64 43 65 36 66 38 67
REMARK SMILES IDX 39 68 40 69 41 70 65 71 66 72 74 73 67 74 69 75 75 76 68 77
REMARK SMILES IDX 70 78 71 79 72 80 73 81 50 82 51 83 59 84 52 85 54 86 60 87
REMARK SMILES IDX 53 88 55 89 56 90 57 91 58 92
REMARK H PARENT 17 6 21 26 80 45 48 56
REMARK Flexibility Score: inf
ROOT
ATOM      1  C   UNL A   1      31.743  29.072  26.583  1.00  0.00     0.042 C 
ENDROOT
BRANCH   1   2
ATOM      2  C   UNL A   1      32.178  27.766  27.262  1.00  0.00     0.117 C 
BRANCH   2   3
ATOM      3  N   UNL A   1      31.313  26.670  26.856  1.00  0.00    -0.356 N 
ATOM      4  C   UNL A   1      31.602  25.523  26.178  1.00  0.00     0.220 C 
ATOM      5  O   UNL A   1      30.660  24.852  25.750  1.00  0.00    -0.275 OA
ATOM      6  H   UNL A   1      30.368  26.772  27.110  1.00  0.00     0.163 HD
BRANCH   4   7
ATOM      7  C   UNL A   1      33.029  25.010  26.074  1.00  0.00     0.101 C 
BRANCH   7   8
ATOM      8  C   UNL A   1      33.277  23.499  26.252  1.00  0.00     0.025 C 
BRANCH   8   9
ATOM      9  C   UNL A   1      33.394  22.566  24.986  1.00  0.00     0.032 C 
ATOM     10  C   UNL A   1      33.894  17.439  24.194  1.00  0.00     0.119 A 
ATOM     11  C   UNL A   1      35.157  17.878  24.571  1.00  0.00     0.047 A 
ATOM     12  C   UNL A   1      32.898  18.370  23.922  1.00  0.00     0.050 A 
ATOM     13  C   UNL A   1      35.381  19.226  24.846  1.00  0.00     0.016 A 
ATOM     14  C   UNL A   1      33.132  19.738  24.130  1.00  0.00    -0.033 A 
ATOM     15  C   UNL A   1      34.348  20.152  24.684  1.00  0.00     0.022 A 
ATOM     16  C   UNL A   1      32.144  20.754  23.645  1.00  0.00     0.037 C 
ATOM     17  C   UNL A   1      34.538  21.556  25.148  1.00  0.00     0.169 C 
ATOM     18  C   UNL A   1      32.044  21.907  24.626  1.00  0.00     0.020 C 
ATOM     19  O   UNL A   1      35.620  21.888  25.632  1.00  0.00    -0.294 OA
ATOM     20  C   UNL A   1      33.879  23.435  23.795  1.00  0.00     0.020 C 
BRANCH  10  21
ATOM     21  O   UNL A   1      33.627  16.123  23.949  1.00  0.00    -0.497 OA
ATOM     22  C   UNL A   1      33.108  15.435  25.090  1.00  0.00     0.278 C 
ENDBRANCH  10  21
ENDBRANCH   8   9
ENDBRANCH   7   8
ENDBRANCH   4   7
ENDBRANCH   2   3
ENDBRANCH   1   2
BRANCH   1  23
ATOM     23  C   UNL A   1      32.878  30.031  26.232  1.00  0.00     0.118 C 
BRANCH  23  24
ATOM     24  N   UNL A   1      32.809  31.321  26.907  1.00  0.00    -0.352 N 
ATOM     25  C   UNL A   1      33.677  32.130  27.601  1.00  0.00     0.251 C 
ATOM     26  H   UNL A   1      31.908  31.714  26.851  1.00  0.00     0.163 HD
ATOM     27  O   UNL A   1      33.251  33.265  27.845  1.00  0.00    -0.269 OA
BRANCH  25  28
ATOM     28  C   UNL A   1      35.015  31.742  28.150  1.00  0.00     0.039 A 
ATOM     29  C   UNL A   1      36.132  32.566  28.215  1.00  0.00     0.014 A 
ATOM     30  C   UNL A   1      35.161  30.406  28.598  1.00  0.00     0.014 A 
ATOM     31  C   UNL A   1      37.371  32.057  28.631  1.00  0.00     0.010 A 
ATOM     32  C   UNL A   1      36.399  29.892  29.025  1.00  0.00     0.010 A 
ATOM     33  C   UNL A   1      37.520  30.719  29.039  1.00  0.00    -0.014 A 
BRANCH  33  34
ATOM     34  C   UNL A   1      38.774  30.335  29.736  1.00  0.00     0.031 A 
ATOM     35  C   UNL A   1      39.129  30.781  31.123  1.00  0.00     0.074 A 
ATOM     36  C   UNL A   1      39.572  29.476  29.073  1.00  0.00     0.049 A 
ATOM     37  N   UNL A   1      40.072  30.317  31.904  1.00  0.00    -0.248 NA
ATOM     38  C   UNL A   1      38.352  31.881  31.711  1.00  0.00     0.031 C 
ATOM     39  C   UNL A   1      39.348  29.042  27.690  1.00  0.00     0.029 A 
ATOM     40  N   UNL A   1      40.689  28.788  29.463  1.00  0.00    -0.354 N 
ATOM     41  C   UNL A   1      40.014  31.068  33.072  1.00  0.00     0.074 A 
ATOM     42  C   UNL A   1      38.944  32.029  32.894  1.00  0.00     0.031 C 
ATOM     43  C   UNL A   1      40.254  28.111  27.371  1.00  0.00     0.029 A 
ATOM     44  C   UNL A   1      41.142  27.907  28.511  1.00  0.00     0.049 A 
ATOM     45  H   UNL A   1      41.124  28.911  30.337  1.00  0.00     0.167 HD
ATOM     46  C   UNL A   1      40.780  30.948  34.184  1.00  0.00     0.034 A 
ATOM     47  C   UNL A   1      42.146  27.012  28.546  1.00  0.00     0.034 A 
ATOM     48  C   UNL A   1      41.829  29.971  34.340  1.00  0.00     0.049 A 
ATOM     49  C   UNL A   1      42.939  26.863  29.805  1.00  0.00     0.074 A 
ATOM     50  C   UNL A   1      42.607  29.721  35.459  1.00  0.00     0.029 A 
ATOM     51  N   UNL A   1      42.258  29.096  33.354  1.00  0.00    -0.354 N 
ATOM     52  N   UNL A   1      42.777  27.485  30.946  1.00  0.00    -0.248 NA
ATOM     53  C   UNL A   1      44.032  25.883  29.797  1.00  0.00     0.031 C 
ATOM     54  C   UNL A   1      43.522  28.715  35.141  1.00  0.00     0.029 A 
ATOM     55  C   UNL A   1      43.297  28.316  33.833  1.00  0.00     0.049 A 
ATOM     56  H   UNL A   1      41.879  29.037  32.447  1.00  0.00     0.167 HD
ATOM     57  C   UNL A   1      43.740  26.966  31.799  1.00  0.00     0.074 A 
ATOM     58  C   UNL A   1      44.473  25.967  31.047  1.00  0.00     0.031 C 
ATOM     59  C   UNL A   1      43.994  27.301  33.085  1.00  0.00     0.034 A 
BRANCH  46  60
ATOM     60  C   UNL A   1      40.502  31.838  35.370  1.00  0.00     0.023 A 
ATOM     61  C   UNL A   1      41.317  32.967  35.583  1.00  0.00     0.012 A 
ATOM     62  C   UNL A   1      39.341  31.667  36.154  1.00  0.00     0.148 A 
ATOM     63  C   UNL A   1      40.984  33.911  36.555  1.00  0.00     0.002 A 
ATOM     64  C   UNL A   1      39.002  32.623  37.104  1.00  0.00     0.091 A 
ATOM     65  F   UNL A   1      38.575  30.589  35.930  1.00  0.00    -0.205 F 
ATOM     66  C   UNL A   1      39.823  33.746  37.307  1.00  0.00     0.022 A 
BRANCH  64  67
ATOM     67  S   UNL A   1      37.501  32.541  38.091  1.00  0.00     0.127 S 
ATOM     68  O   UNL A   1      36.531  33.182  37.205  1.00  0.00    -0.237 OA
ATOM     69  O   UNL A   1      37.319  31.101  38.258  1.00  0.00    -0.237 OA
ATOM     70  O   UNL A   1      37.786  33.271  39.322  1.00  0.00    -0.744 OA
ENDBRANCH  64  67
ENDBRANCH  46  60
BRANCH  47  71
ATOM     71  C   UNL A   1      42.378  26.159  27.352  1.00  0.00     0.023 A 
ATOM     72  C   UNL A   1      43.180  26.638  26.301  1.00  0.00     0.012 A 
ATOM     73  C   UNL A   1      41.928  24.824  27.330  1.00  0.00     0.148 A 
ATOM     74  C   UNL A   1      43.536  25.797  25.246  1.00  0.00     0.002 A 
ATOM     75  C   UNL A   1      42.322  23.981  26.302  1.00  0.00     0.091 A 
ATOM     76  F   UNL A   1      41.173  24.397  28.352  1.00  0.00    -0.205 F 
ATOM     77  C   UNL A   1      43.120  24.466  25.254  1.00  0.00     0.022 A 
BRANCH  75  78
ATOM     78  S   UNL A   1      41.942  22.226  26.296  1.00  0.00     0.127 S 
ATOM     79  O   UNL A   1      40.501  22.236  26.058  1.00  0.00    -0.237 OA
ATOM     80  O   UNL A   1      42.750  21.748  25.174  1.00  0.00    -0.237 OA
ATOM     81  O   UNL A   1      42.359  21.724  27.598  1.00  0.00    -0.744 OA
ENDBRANCH  75  78
ENDBRANCH  47  71
BRANCH  59  82
ATOM     82  C   UNL A   1      45.107  26.585  33.795  1.00  0.00     0.023 A 
ATOM     83  C   UNL A   1      46.412  27.112  33.743  1.00  0.00     0.012 A 
ATOM     84  C   UNL A   1      44.827  25.491  34.635  1.00  0.00     0.148 A 
ATOM     85  C   UNL A   1      47.424  26.559  34.526  1.00  0.00     0.002 A 
ATOM     86  C   UNL A   1      45.833  24.968  35.437  1.00  0.00     0.091 A 
ATOM     87  F   UNL A   1      43.576  25.009  34.659  1.00  0.00    -0.205 F 
ATOM     88  C   UNL A   1      47.133  25.500  35.382  1.00  0.00     0.022 A 
BRANCH  86  89
ATOM     89  S   UNL A   1      45.542  23.649  36.622  1.00  0.00     0.127 S 
ATOM     90  O   UNL A   1      46.892  23.393  37.119  1.00  0.00    -0.237 OA
ATOM     91  O   UNL A   1      44.648  24.294  37.583  1.00  0.00    -0.237 OA
ATOM     92  O   UNL A   1      44.947  22.553  35.871  1.00  0.00    -0.744 OA
ENDBRANCH  86  89
ENDBRANCH  59  82
ENDBRANCH  33  34
ENDBRANCH  25  28
ENDBRANCH  23  24
ENDBRANCH   1  23
TORSDOF 16
ENDMDL
MODEL 3
REMARK VINA RESULT:     -12.5      2.845      4.637
REMARK SMILES COc1ccc2c(c1)CC[C@@](C)(CCC(=O)NCCCNC(=O)c1ccc(-c3c4nc(c(-c5cccc(S(=O)(=O)[O-])c5F)c5ccc([nH]5)c(-c5cccc(S(=O)(=O)[O-])c5F)c5nc(c(-c6cccc(S(=O)(=O)[O-])c6F)c6ccc3[nH]6)C=C5)C=C4)cc1)C2=O
REMARK SMILES IDX 19 1 18 2 17 3 15 4 16 5 14 7 13 8 11 9 3 10 4 11 8 12 5 13
REMARK SMILES IDX 7 14 6 15 9 16 87 17 10 18 88 19 12 20 2 21 1 22 20 23 21 24
REMARK SMILES IDX 22 25 23 27 24 28 25 29 86 30 26 31 85 32 27 33 28 34 29 35
REMARK SMILES IDX 79 36 30 37 84 38 78 39 80 40 31 41 83 42 77 43 76 44 32 46
REMARK SMILES IDX 64 47 44 48 63 49 45 50 48 51 62 52 81 53 46 54 47 55 61 57
REMARK SMILES IDX 82 58 49 59 33 60 34 61 42 62 35 63 37 64 43 65 36 66 38 67
REMARK SMILES IDX 39 68 40 69 41 70 65 71 66 72 74 73 67 74 69 75 75 76 68 77
REMARK SMILES IDX 70 78 71 79 72 80 73 81 50 82 51 83 59 84 52 85 54 86 60 87
REMARK SMILES IDX 53 88 55 89 56 90 57 91 58 92
REMARK H PARENT 17 6 21 26 80 45 48 56
REMARK Flexibility Score: inf
ROOT
ATOM      1  C   UNL A   1      31.520  29.235  26.412  1.00  0.00     0.042 C 
ENDROOT
BRANCH   1   2
ATOM      2  C   UNL A   1      32.346  28.482  27.463  1.00  0.00     0.117 C 
BRANCH   2   3
ATOM      3  N   UNL A   1      33.366  27.668  26.820  1.00  0.00    -0.356 N 
ATOM      4  C   UNL A   1      33.255  26.493  26.138  1.00  0.00     0.220 C 
ATOM      5  O   UNL A   1      34.292  25.876  25.880  1.00  0.00    -0.275 OA
ATOM      6  H   UNL A   1      34.282  28.022  26.888  1.00  0.00     0.163 HD
BRANCH   4   7
ATOM      7  C   UNL A   1      31.918  26.026  25.588  1.00  0.00     0.101 C 
BRANCH   7   8
ATOM      8  C   UNL A   1      31.839  25.624  24.101  1.00  0.00     0.025 C 
BRANCH   8   9
ATOM      9  C   UNL A   1      31.310  26.658  23.034  1.00  0.00     0.032 C 
ATOM     10  C   UNL A   1      28.211  30.847  23.158  1.00  0.00     0.119 A 
ATOM     11  C   UNL A   1      27.355  29.755  23.217  1.00  0.00     0.047 A 
ATOM     12  C   UNL A   1      29.561  30.646  22.892  1.00  0.00     0.050 A 
ATOM     13  C   UNL A   1      27.865  28.458  23.187  1.00  0.00     0.016 A 
ATOM     14  C   UNL A   1      30.076  29.345  22.792  1.00  0.00    -0.033 A 
ATOM     15  C   UNL A   1      29.238  28.252  23.035  1.00  0.00     0.022 A 
ATOM     16  C   UNL A   1      31.475  29.124  22.303  1.00  0.00     0.037 C 
ATOM     17  C   UNL A   1      29.797  26.878  23.183  1.00  0.00     0.169 C 
ATOM     18  C   UNL A   1      32.121  27.972  23.049  1.00  0.00     0.020 C 
ATOM     19  O   UNL A   1      29.033  25.938  23.398  1.00  0.00    -0.294 OA
ATOM     20  C   UNL A   1      31.417  25.999  21.634  1.00  0.00     0.020 C 
BRANCH  10  21
ATOM     21  O   UNL A   1      27.752  32.132  23.218  1.00  0.00    -0.497 OA
ATOM     22  C   UNL A   1      28.780  33.104  23.005  1.00  0.00     0.278 C 
ENDBRANCH  10  21
ENDBRANCH   8   9
ENDBRANCH   7   8
ENDBRANCH   4   7
ENDBRANCH   2   3
ENDBRANCH   1   2
BRANCH   1  23
ATOM     23  C   UNL A   1      32.208  30.448  25.792  1.00  0.00     0.118 C 
BRANCH  23  24
ATOM     24  N   UNL A   1      32.019  31.692  26.527  1.00  0.00    -0.352 N 
ATOM     25  C   UNL A   1      32.795  32.517  27.307  1.00  0.00     0.251 C 
ATOM     26  H   UNL A   1      31.097  32.028  26.444  1.00  0.00     0.163 HD
ATOM     27  O   UNL A   1      32.281  33.606  27.586  1.00  0.00    -0.269 OA
BRANCH  25  28
ATOM     28  C   UNL A   1      34.127  32.187  27.905  1.00  0.00     0.039 A 
ATOM     29  C   UNL A   1      35.220  33.044  27.967  1.00  0.00     0.014 A 
ATOM     30  C   UNL A   1      34.297  30.874  28.410  1.00  0.00     0.014 A 
ATOM     31  C   UNL A   1      36.460  32.586  28.435  1.00  0.00     0.010 A 
ATOM     32  C   UNL A   1      35.536  30.412  28.888  1.00  0.00     0.010 A 
ATOM     33  C   UNL A   1      36.634  31.269  28.899  1.00  0.00    -0.014 A 
BRANCH  33  34
ATOM     34  C   UNL A   1      37.878  30.947  29.643  1.00  0.00     0.031 A 
ATOM     35  C   UNL A   1      38.156  31.405  31.043  1.00  0.00     0.074 A 
ATOM     36  C   UNL A   1      38.745  30.133  29.009  1.00  0.00     0.049 A 
ATOM     37  N   UNL A   1      39.091  30.987  31.860  1.00  0.00    -0.248 NA
ATOM     38  C   UNL A   1      37.302  32.461  31.604  1.00  0.00     0.031 C 
ATOM     39  C   UNL A   1      38.596  29.694  27.618  1.00  0.00     0.029 A 
ATOM     40  N   UNL A   1      39.879  29.501  29.441  1.00  0.00    -0.354 N 
ATOM     41  C   UNL A   1      38.950  31.730  33.026  1.00  0.00     0.074 A 
ATOM     42  C   UNL A   1      37.840  32.635  32.809  1.00  0.00     0.031 C 
ATOM     43  C   UNL A   1      39.560  28.812  27.332  1.00  0.00     0.029 A 
ATOM     44  C   UNL A   1      40.413  28.649  28.504  1.00  0.00     0.049 A 
ATOM     45  H   UNL A   1      40.274  29.644  30.331  1.00  0.00     0.167 HD
ATOM     46  C   UNL A   1      39.678  31.644  34.166  1.00  0.00     0.034 A 
ATOM     47  C   UNL A   1      41.459  27.806  28.576  1.00  0.00     0.034 A 
ATOM     48  C   UNL A   1      40.769  30.721  34.361  1.00  0.00     0.049 A 
ATOM     49  C   UNL A   1      42.210  27.693  29.865  1.00  0.00     0.074 A 
ATOM     50  C   UNL A   1      41.515  30.507  35.508  1.00  0.00     0.029 A 
ATOM     51  N   UNL A   1      41.280  29.874  33.390  1.00  0.00    -0.354 N 
ATOM     52  N   UNL A   1      41.973  28.301  31.000  1.00  0.00    -0.248 NA
ATOM     53  C   UNL A   1      43.352  26.770  29.897  1.00  0.00     0.031 C 
ATOM     54  C   UNL A   1      42.493  29.551  35.223  1.00  0.00     0.029 A 
ATOM     55  C   UNL A   1      42.339  29.146  33.907  1.00  0.00     0.049 A 
ATOM     56  H   UNL A   1      40.940  29.799  32.469  1.00  0.00     0.167 HD
ATOM     57  C   UNL A   1      42.928  27.829  31.889  1.00  0.00     0.074 A 
ATOM     58  C   UNL A   1      43.740  26.872  31.163  1.00  0.00     0.031 C 
ATOM     59  C   UNL A   1      43.115  28.171  33.184  1.00  0.00     0.034 A 
BRANCH  46  60
ATOM     60  C   UNL A   1      39.310  32.514  35.342  1.00  0.00     0.023 A 
ATOM     61  C   UNL A   1      38.611  31.942  36.423  1.00  0.00     0.012 A 
ATOM     62  C   UNL A   1      39.807  33.830  35.460  1.00  0.00     0.148 A 
ATOM     63  C   UNL A   1      38.412  32.661  37.602  1.00  0.00     0.002 A 
ATOM     64  C   UNL A   1      39.627  34.532  36.647  1.00  0.00     0.091 A 
ATOM     65  F   UNL A   1      40.476  34.353  34.422  1.00  0.00    -0.205 F 
ATOM     66  C   UNL A   1      38.930  33.949  37.719  1.00  0.00     0.022 A 
BRANCH  64  67
ATOM     67  S   UNL A   1      40.297  36.177  36.928  1.00  0.00     0.127 S 
ATOM     68  O   UNL A   1      39.510  36.624  38.076  1.00  0.00    -0.237 OA
ATOM     69  O   UNL A   1      41.700  35.893  37.222  1.00  0.00    -0.237 OA
ATOM     70  O   UNL A   1      40.067  36.923  35.696  1.00  0.00    -0.744 OA
ENDBRANCH  64  67
ENDBRANCH  46  60
BRANCH  47  71
ATOM     71  C   UNL A   1      41.780  26.972  27.391  1.00  0.00     0.023 A 
ATOM     72  C   UNL A   1      42.499  27.532  26.320  1.00  0.00     0.012 A 
ATOM     73  C   UNL A   1      41.505  25.590  27.395  1.00  0.00     0.148 A 
ATOM     74  C   UNL A   1      42.944  26.726  25.270  1.00  0.00     0.002 A 
ATOM     75  C   UNL A   1      41.988  24.788  26.372  1.00  0.00     0.091 A 
ATOM     76  F   UNL A   1      40.825  25.086  28.435  1.00  0.00    -0.205 F 
ATOM     77  C   UNL A   1      42.702  25.354  25.304  1.00  0.00     0.022 A 
BRANCH  75  78
ATOM     78  S   UNL A   1      41.835  22.999  26.396  1.00  0.00     0.127 S 
ATOM     79  O   UNL A   1      40.385  22.826  26.417  1.00  0.00    -0.237 OA
ATOM     80  O   UNL A   1      42.484  22.625  25.139  1.00  0.00    -0.237 OA
ATOM     81  O   UNL A   1      42.537  22.556  27.593  1.00  0.00    -0.744 OA
ENDBRANCH  75  78
ENDBRANCH  47  71
BRANCH  59  82
ATOM     82  C   UNL A   1      44.235  27.511  33.935  1.00  0.00     0.023 A 
ATOM     83  C   UNL A   1      45.505  28.119  33.959  1.00  0.00     0.012 A 
ATOM     84  C   UNL A   1      43.985  26.382  34.738  1.00  0.00     0.148 A 
ATOM     85  C   UNL A   1      46.511  27.614  34.781  1.00  0.00     0.002 A 
ATOM     86  C   UNL A   1      44.982  25.905  35.579  1.00  0.00     0.091 A 
ATOM     87  F   UNL A   1      42.767  25.823  34.689  1.00  0.00    -0.205 F 
ATOM     88  C   UNL A   1      46.246  26.519  35.600  1.00  0.00     0.022 A 
BRANCH  86  89
ATOM     89  S   UNL A   1      44.718  24.544  36.721  1.00  0.00     0.127 S 
ATOM     90  O   UNL A   1      44.282  23.479  35.820  1.00  0.00    -0.237 OA
ATOM     91  O   UNL A   1      46.052  24.357  37.288  1.00  0.00    -0.237 OA
ATOM     92  O   UNL A   1      43.708  24.998  37.667  1.00  0.00    -0.744 OA
ENDBRANCH  86  89
ENDBRANCH  59  82
ENDBRANCH  33  34
ENDBRANCH  25  28
ENDBRANCH  23  24
ENDBRANCH   1  23
TORSDOF 16
ENDMDL
