MODEL 1
REMARK VINA RESULT:     -11.1      0.000      0.000
REMARK SMILES C[NH2+]C[C@H](C)C(=O)N[C@H](Cc1ccccc1)C(=O)NCCCNC(=O)c1ccc(-c2c3nc(c(-c4cccc(S(=O)(=O)[O-])c4F)c4ccc([nH]4)c(-c4cccc(S(=O)(=O)[O-])c4F)c4nc(c(-c5cccc(S(=O)(=O)[O-])c5F)c5ccc2[nH]5)C=C4)C=C3)cc1
REMARK SMILES IDX 20 1 19 2 17 3 18 4 9 6 8 7 6 8 7 9 4 11 5 12 3 13 2 14 1 15
REMARK SMILES IDX 10 18 11 19 12 20 16 21 13 22 15 23 14 24 21 25 22 26 23 27
REMARK SMILES IDX 24 28 25 30 26 31 27 32 88 33 28 34 87 35 29 36 30 37 31 38
REMARK SMILES IDX 81 39 32 40 86 41 80 42 82 43 33 44 85 45 79 46 78 47 34 49
REMARK SMILES IDX 66 50 46 51 65 52 47 53 50 54 64 55 83 56 48 57 49 58 63 60
REMARK SMILES IDX 84 61 51 62 35 63 36 64 44 65 37 66 39 67 45 68 38 69 40 70
REMARK SMILES IDX 41 71 42 72 43 73 67 74 68 75 76 76 69 77 71 78 77 79 70 80
REMARK SMILES IDX 72 81 73 82 74 83 75 84 52 85 53 86 61 87 54 88 56 89 62 90
REMARK SMILES IDX 55 91 57 92 58 93 59 94 60 95
REMARK H PARENT 19 5 8 10 2 16 2 17 23 29 82 48 50 59
REMARK Flexibility Score: inf
ROOT
ATOM      1  C   UNL A   1      34.863  21.248  25.102  1.00  0.00     0.117 C 
ENDROOT
BRANCH   1   2
ATOM      2  N   UNL A   1      34.948  22.303  24.070  1.00  0.00    -0.354 N 
ATOM      3  C   UNL A   1      34.416  23.557  23.868  1.00  0.00     0.242 C 
ATOM      4  O   UNL A   1      34.674  24.075  22.774  1.00  0.00    -0.273 OA
ATOM      5  H   UNL A   1      35.542  22.039  23.331  1.00  0.00     0.163 HD
BRANCH   3   6
ATOM      6  C   UNL A   1      33.451  24.303  24.875  1.00  0.00     0.175 C 
BRANCH   6   7
ATOM      7  N   UNL A   1      32.176  24.221  24.137  1.00  0.00    -0.344 N 
ATOM      8  C   UNL A   1      31.343  24.911  23.349  1.00  0.00     0.229 C 
ATOM      9  O   UNL A   1      30.237  24.396  23.139  1.00  0.00    -0.275 OA
ATOM     10  H   UNL A   1      31.797  23.323  24.276  1.00  0.00     0.164 HD
BRANCH   8  11
ATOM     11  C   UNL A   1      31.664  26.238  22.754  1.00  0.00     0.130 C 
ATOM     12  C   UNL A   1      32.142  25.942  21.326  1.00  0.00     0.024 C 
BRANCH  11  13
ATOM     13  C   UNL A   1      30.552  27.279  22.968  1.00  0.00     0.273 C 
BRANCH  13  14
ATOM     14  N   UNL A   1      30.352  28.405  22.062  1.00  0.00    -0.348 N 
ATOM     15  C   UNL A   1      29.953  29.662  22.648  1.00  0.00     0.330 C 
ATOM     16  H   UNL A   1      31.232  28.562  21.570  1.00  0.00     0.346 HD
ATOM     17  H   UNL A   1      29.567  28.131  21.472  1.00  0.00     0.346 HD
ENDBRANCH  13  14
ENDBRANCH  11  13
ENDBRANCH   8  11
ENDBRANCH   6   7
BRANCH   6  18
ATOM     18  C   UNL A   1      34.199  25.598  25.357  1.00  0.00     0.070 C 
BRANCH  18  19
ATOM     19  C   UNL A   1      33.583  26.987  25.698  1.00  0.00    -0.045 A 
ATOM     20  C   UNL A   1      32.503  27.208  26.567  1.00  0.00     0.004 A 
ATOM     21  C   UNL A   1      33.918  28.098  24.898  1.00  0.00     0.004 A 
ATOM     22  C   UNL A   1      31.747  28.389  26.600  1.00  0.00     0.000 A 
ATOM     23  C   UNL A   1      33.173  29.297  24.927  1.00  0.00     0.000 A 
ATOM     24  C   UNL A   1      32.070  29.435  25.761  1.00  0.00     0.000 A 
ENDBRANCH  18  19
ENDBRANCH   6  18
ENDBRANCH   3   6
ENDBRANCH   1   2
BRANCH   1  25
ATOM     25  C   UNL A   1      35.992  20.224  25.003  1.00  0.00     0.042 C 
BRANCH  25  26
ATOM     26  C   UNL A   1      37.400  20.822  25.036  1.00  0.00     0.118 C 
BRANCH  26  27
ATOM     27  N   UNL A   1      38.436  19.847  25.375  1.00  0.00    -0.352 N 
ATOM     28  C   UNL A   1      39.688  20.026  25.928  1.00  0.00     0.251 C 
ATOM     29  H   UNL A   1      38.203  18.911  25.176  1.00  0.00     0.163 HD
ATOM     30  O   UNL A   1      40.451  19.064  25.997  1.00  0.00    -0.269 OA
BRANCH  28  31
ATOM     31  C   UNL A   1      40.140  21.354  26.423  1.00  0.00     0.039 A 
ATOM     32  C   UNL A   1      41.008  21.411  27.522  1.00  0.00     0.014 A 
ATOM     33  C   UNL A   1      39.703  22.544  25.839  1.00  0.00     0.014 A 
ATOM     34  C   UNL A   1      41.501  22.646  27.970  1.00  0.00     0.010 A 
ATOM     35  C   UNL A   1      40.256  23.763  26.231  1.00  0.00     0.010 A 
ATOM     36  C   UNL A   1      41.166  23.832  27.298  1.00  0.00    -0.014 A 
BRANCH  36  37
ATOM     37  C   UNL A   1      41.776  25.144  27.657  1.00  0.00     0.031 A 
ATOM     38  C   UNL A   1      40.956  26.204  28.349  1.00  0.00     0.074 A 
ATOM     39  C   UNL A   1      43.029  25.431  27.248  1.00  0.00     0.049 A 
ATOM     40  N   UNL A   1      41.276  27.441  28.632  1.00  0.00    -0.248 NA
ATOM     41  C   UNL A   1      39.589  25.836  28.755  1.00  0.00     0.031 C 
ATOM     42  C   UNL A   1      43.906  24.523  26.504  1.00  0.00     0.029 A 
ATOM     43  N   UNL A   1      43.772  26.583  27.361  1.00  0.00    -0.354 N 
ATOM     44  C   UNL A   1      40.140  28.013  29.194  1.00  0.00     0.074 A 
ATOM     45  C   UNL A   1      39.116  26.991  29.204  1.00  0.00     0.031 C 
ATOM     46  C   UNL A   1      45.061  25.150  26.225  1.00  0.00     0.029 A 
ATOM     47  C   UNL A   1      44.995  26.517  26.731  1.00  0.00     0.049 A 
ATOM     48  H   UNL A   1      43.459  27.379  27.848  1.00  0.00     0.167 HD
ATOM     49  C   UNL A   1      39.970  29.268  29.673  1.00  0.00     0.034 A 
ATOM     50  C   UNL A   1      45.949  27.456  26.557  1.00  0.00     0.034 A 
ATOM     51  C   UNL A   1      41.008  30.262  29.723  1.00  0.00     0.049 A 
ATOM     52  C   UNL A   1      45.736  28.832  27.131  1.00  0.00     0.074 A 
ATOM     53  C   UNL A   1      40.969  31.513  30.315  1.00  0.00     0.029 A 
ATOM     54  N   UNL A   1      42.261  30.130  29.148  1.00  0.00    -0.354 N 
ATOM     55  N   UNL A   1      44.726  29.289  27.829  1.00  0.00    -0.248 NA
ATOM     56  C   UNL A   1      46.808  29.817  26.912  1.00  0.00     0.031 C 
ATOM     57  C   UNL A   1      42.186  32.153  30.065  1.00  0.00     0.029 A 
ATOM     58  C   UNL A   1      42.992  31.290  29.341  1.00  0.00     0.049 A 
ATOM     59  H   UNL A   1      42.582  29.331  28.671  1.00  0.00     0.167 HD
ATOM     60  C   UNL A   1      45.053  30.600  28.158  1.00  0.00     0.074 A 
ATOM     61  C   UNL A   1      46.367  30.856  27.607  1.00  0.00     0.031 C 
ATOM     62  C   UNL A   1      44.321  31.516  28.837  1.00  0.00     0.034 A 
BRANCH  49  63
ATOM     63  C   UNL A   1      38.623  29.644  30.233  1.00  0.00     0.023 A 
ATOM     64  C   UNL A   1      38.297  29.299  31.560  1.00  0.00     0.012 A 
ATOM     65  C   UNL A   1      37.726  30.432  29.483  1.00  0.00     0.148 A 
ATOM     66  C   UNL A   1      37.091  29.713  32.126  1.00  0.00     0.002 A 
ATOM     67  C   UNL A   1      36.546  30.877  30.067  1.00  0.00     0.091 A 
ATOM     68  F   UNL A   1      38.049  30.736  28.218  1.00  0.00    -0.205 F 
ATOM     69  C   UNL A   1      36.224  30.512  31.385  1.00  0.00     0.022 A 
BRANCH  67  70
ATOM     70  S   UNL A   1      35.399  31.973  29.227  1.00  0.00     0.127 S 
ATOM     71  O   UNL A   1      36.281  33.064  28.814  1.00  0.00    -0.237 OA
ATOM     72  O   UNL A   1      34.917  31.132  28.132  1.00  0.00    -0.237 OA
ATOM     73  O   UNL A   1      34.388  32.333  30.211  1.00  0.00    -0.744 OA
ENDBRANCH  67  70
ENDBRANCH  49  63
BRANCH  50  74
ATOM     74  C   UNL A   1      47.215  27.125  25.841  1.00  0.00     0.023 A 
ATOM     75  C   UNL A   1      47.309  27.377  24.458  1.00  0.00     0.012 A 
ATOM     76  C   UNL A   1      48.317  26.560  26.511  1.00  0.00     0.148 A 
ATOM     77  C   UNL A   1      48.462  27.036  23.749  1.00  0.00     0.002 A 
ATOM     78  C   UNL A   1      49.483  26.274  25.809  1.00  0.00     0.091 A 
ATOM     79  F   UNL A   1      48.205  26.308  27.823  1.00  0.00    -0.205 F 
ATOM     80  C   UNL A   1      49.552  26.494  24.424  1.00  0.00     0.022 A 
BRANCH  78  81
ATOM     81  S   UNL A   1      50.974  25.695  26.628  1.00  0.00     0.127 S 
ATOM     82  O   UNL A   1      50.504  24.463  27.265  1.00  0.00    -0.237 OA
ATOM     83  O   UNL A   1      51.883  25.489  25.495  1.00  0.00    -0.237 OA
ATOM     84  O   UNL A   1      51.368  26.765  27.524  1.00  0.00    -0.744 OA
ENDBRANCH  78  81
ENDBRANCH  50  74
BRANCH  62  85
ATOM     85  C   UNL A   1      44.924  32.881  29.052  1.00  0.00     0.023 A 
ATOM     86  C   UNL A   1      45.749  33.108  30.170  1.00  0.00     0.012 A 
ATOM     87  C   UNL A   1      44.745  33.906  28.102  1.00  0.00     0.148 A 
ATOM     88  C   UNL A   1      46.367  34.345  30.354  1.00  0.00     0.002 A 
ATOM     89  C   UNL A   1      45.402  35.119  28.267  1.00  0.00     0.091 A 
ATOM     90  F   UNL A   1      43.943  33.671  27.053  1.00  0.00    -0.205 F 
ATOM     91  C   UNL A   1      46.204  35.344  29.398  1.00  0.00     0.022 A 
BRANCH  89  92
ATOM     92  S   UNL A   1      45.333  36.431  27.042  1.00  0.00     0.127 S 
ATOM     93  O   UNL A   1      46.213  35.911  25.997  1.00  0.00    -0.237 OA
ATOM     94  O   UNL A   1      43.913  36.451  26.691  1.00  0.00    -0.237 OA
ATOM     95  O   UNL A   1      45.808  37.634  27.713  1.00  0.00    -0.744 OA
ENDBRANCH  89  92
ENDBRANCH  62  85
ENDBRANCH  36  37
ENDBRANCH  28  31
ENDBRANCH  26  27
ENDBRANCH  25  26
ENDBRANCH   1  25
TORSDOF 19
ENDMDL
MODEL 2
REMARK VINA RESULT:     -10.9      1.903      3.590
REMARK SMILES C[NH2+]C[C@H](C)C(=O)N[C@H](Cc1ccccc1)C(=O)NCCCNC(=O)c1ccc(-c2c3nc(c(-c4cccc(S(=O)(=O)[O-])c4F)c4ccc([nH]4)c(-c4cccc(S(=O)(=O)[O-])c4F)c4nc(c(-c5cccc(S(=O)(=O)[O-])c5F)c5ccc2[nH]5)C=C4)C=C3)cc1
REMARK SMILES IDX 20 1 19 2 17 3 18 4 9 6 8 7 6 8 7 9 4 11 5 12 3 13 2 14 1 15
REMARK SMILES IDX 10 18 11 19 12 20 16 21 13 22 15 23 14 24 21 25 22 26 23 27
REMARK SMILES IDX 24 28 25 30 26 31 27 32 88 33 28 34 87 35 29 36 30 37 31 38
REMARK SMILES IDX 81 39 32 40 86 41 80 42 82 43 33 44 85 45 79 46 78 47 34 49
REMARK SMILES IDX 66 50 46 51 65 52 47 53 50 54 64 55 83 56 48 57 49 58 63 60
REMARK SMILES IDX 84 61 51 62 35 63 36 64 44 65 37 66 39 67 45 68 38 69 40 70
REMARK SMILES IDX 41 71 42 72 43 73 67 74 68 75 76 76 69 77 71 78 77 79 70 80
REMARK SMILES IDX 72 81 73 82 74 83 75 84 52 85 53 86 61 87 54 88 56 89 62 90
REMARK SMILES IDX 55 91 57 92 58 93 59 94 60 95
REMARK H PARENT 19 5 8 10 2 16 2 17 23 29 82 48 50 59
REMARK Flexibility Score: inf
ROOT
ATOM      1  C   UNL A   1      36.661  21.243  24.530  1.00  0.00     0.117 C 
ENDROOT
BRANCH   1   2
ATOM      2  N   UNL A   1      35.786  21.178  25.720  1.00  0.00    -0.354 N 
ATOM      3  C   UNL A   1      34.438  21.269  25.983  1.00  0.00     0.242 C 
ATOM      4  O   UNL A   1      34.127  21.266  27.181  1.00  0.00    -0.273 OA
ATOM      5  H   UNL A   1      36.306  21.029  26.543  1.00  0.00     0.163 HD
BRANCH   3   6
ATOM      6  C   UNL A   1      33.314  21.471  24.888  1.00  0.00     0.175 C 
BRANCH   6   7
ATOM      7  N   UNL A   1      32.988  22.895  25.094  1.00  0.00    -0.344 N 
ATOM      8  C   UNL A   1      32.532  23.994  24.482  1.00  0.00     0.229 C 
ATOM      9  O   UNL A   1      32.630  25.053  25.115  1.00  0.00    -0.275 OA
ATOM     10  H   UNL A   1      33.175  23.120  26.034  1.00  0.00     0.164 HD
BRANCH   8  11
ATOM     11  C   UNL A   1      31.955  24.006  23.109  1.00  0.00     0.130 C 
ATOM     12  C   UNL A   1      30.434  23.968  23.302  1.00  0.00     0.024 C 
BRANCH  11  13
ATOM     13  C   UNL A   1      32.567  25.093  22.208  1.00  0.00     0.273 C 
BRANCH  13  14
ATOM     14  N   UNL A   1      33.695  25.915  22.632  1.00  0.00    -0.348 N 
ATOM     15  C   UNL A   1      33.504  27.345  22.642  1.00  0.00     0.330 C 
ATOM     16  H   UNL A   1      33.940  25.632  23.581  1.00  0.00     0.346 HD
ATOM     17  H   UNL A   1      34.417  25.751  21.930  1.00  0.00     0.346 HD
ENDBRANCH  13  14
ENDBRANCH  11  13
ENDBRANCH   8  11
ENDBRANCH   6   7
BRANCH   6  18
ATOM     18  C   UNL A   1      32.343  20.239  24.991  1.00  0.00     0.070 C 
BRANCH  18  19
ATOM     19  C   UNL A   1      32.671  18.740  24.730  1.00  0.00    -0.045 A 
ATOM     20  C   UNL A   1      32.625  17.716  25.689  1.00  0.00     0.004 A 
ATOM     21  C   UNL A   1      33.326  18.382  23.534  1.00  0.00     0.004 A 
ATOM     22  C   UNL A   1      33.241  16.465  25.537  1.00  0.00     0.000 A 
ATOM     23  C   UNL A   1      33.943  17.124  23.362  1.00  0.00     0.000 A 
ATOM     24  C   UNL A   1      33.923  16.172  24.374  1.00  0.00     0.000 A 
ENDBRANCH  18  19
ENDBRANCH   6  18
ENDBRANCH   3   6
ENDBRANCH   1   2
BRANCH   1  25
ATOM     25  C   UNL A   1      37.779  20.202  24.553  1.00  0.00     0.042 C 
BRANCH  25  26
ATOM     26  C   UNL A   1      38.400  19.964  25.931  1.00  0.00     0.118 C 
BRANCH  26  27
ATOM     27  N   UNL A   1      39.651  19.209  25.879  1.00  0.00    -0.352 N 
ATOM     28  C   UNL A   1      40.956  19.625  26.062  1.00  0.00     0.251 C 
ATOM     29  H   UNL A   1      39.547  18.251  25.681  1.00  0.00     0.163 HD
ATOM     30  O   UNL A   1      41.869  18.834  25.831  1.00  0.00    -0.269 OA
BRANCH  28  31
ATOM     31  C   UNL A   1      41.280  21.005  26.511  1.00  0.00     0.039 A 
ATOM     32  C   UNL A   1      41.890  21.189  27.759  1.00  0.00     0.014 A 
ATOM     33  C   UNL A   1      40.969  22.122  25.734  1.00  0.00     0.014 A 
ATOM     34  C   UNL A   1      42.265  22.473  28.180  1.00  0.00     0.010 A 
ATOM     35  C   UNL A   1      41.414  23.388  26.116  1.00  0.00     0.010 A 
ATOM     36  C   UNL A   1      42.073  23.582  27.340  1.00  0.00    -0.014 A 
BRANCH  36  37
ATOM     37  C   UNL A   1      42.581  24.938  27.693  1.00  0.00     0.031 A 
ATOM     38  C   UNL A   1      41.664  25.958  28.321  1.00  0.00     0.074 A 
ATOM     39  C   UNL A   1      43.830  25.297  27.333  1.00  0.00     0.049 A 
ATOM     40  N   UNL A   1      41.891  27.219  28.585  1.00  0.00    -0.248 NA
ATOM     41  C   UNL A   1      40.305  25.512  28.673  1.00  0.00     0.031 C 
ATOM     42  C   UNL A   1      44.797  24.431  26.654  1.00  0.00     0.029 A 
ATOM     43  N   UNL A   1      44.493  26.497  27.451  1.00  0.00    -0.354 N 
ATOM     44  C   UNL A   1      40.695  27.729  29.081  1.00  0.00     0.074 A 
ATOM     45  C   UNL A   1      39.739  26.643  29.072  1.00  0.00     0.031 C 
ATOM     46  C   UNL A   1      45.921  25.125  26.410  1.00  0.00     0.029 A 
ATOM     47  C   UNL A   1      45.745  26.496  26.878  1.00  0.00     0.049 A 
ATOM     48  H   UNL A   1      44.107  27.282  27.902  1.00  0.00     0.167 HD
ATOM     49  C   UNL A   1      40.423  28.982  29.520  1.00  0.00     0.034 A 
ATOM     50  C   UNL A   1      46.644  27.490  26.723  1.00  0.00     0.034 A 
ATOM     51  C   UNL A   1      41.392  30.041  29.591  1.00  0.00     0.049 A 
ATOM     52  C   UNL A   1      46.318  28.863  27.251  1.00  0.00     0.074 A 
ATOM     53  C   UNL A   1      41.246  31.300  30.149  1.00  0.00     0.029 A 
ATOM     54  N   UNL A   1      42.676  29.978  29.076  1.00  0.00    -0.354 N 
ATOM     55  N   UNL A   1      45.249  29.269  27.891  1.00  0.00    -0.248 NA
ATOM     56  C   UNL A   1      47.333  29.910  27.056  1.00  0.00     0.031 C 
ATOM     57  C   UNL A   1      42.430  32.012  29.937  1.00  0.00     0.029 A 
ATOM     58  C   UNL A   1      43.323  31.187  29.272  1.00  0.00     0.049 A 
ATOM     59  H   UNL A   1      43.070  29.191  28.635  1.00  0.00     0.167 HD
ATOM     60  C   UNL A   1      45.476  30.606  28.201  1.00  0.00     0.074 A 
ATOM     61  C   UNL A   1      46.795  30.934  27.704  1.00  0.00     0.031 C 
ATOM     62  C   UNL A   1      44.657  31.488  28.823  1.00  0.00     0.034 A 
BRANCH  49  63
ATOM     63  C   UNL A   1      39.030  29.281  30.009  1.00  0.00     0.023 A 
ATOM     64  C   UNL A   1      38.652  28.906  31.314  1.00  0.00     0.012 A 
ATOM     65  C   UNL A   1      38.136  30.029  29.217  1.00  0.00     0.148 A 
ATOM     66  C   UNL A   1      37.398  29.253  31.817  1.00  0.00     0.002 A 
ATOM     67  C   UNL A   1      36.905  30.407  29.740  1.00  0.00     0.091 A 
ATOM     68  F   UNL A   1      38.509  30.362  27.974  1.00  0.00    -0.205 F 
ATOM     69  C   UNL A   1      36.531  30.013  31.035  1.00  0.00     0.022 A 
BRANCH  67  70
ATOM     70  S   UNL A   1      35.748  31.451  28.847  1.00  0.00     0.127 S 
ATOM     71  O   UNL A   1      35.217  30.520  27.852  1.00  0.00    -0.237 OA
ATOM     72  O   UNL A   1      34.800  31.826  29.896  1.00  0.00    -0.237 OA
ATOM     73  O   UNL A   1      36.531  32.554  28.308  1.00  0.00    -0.744 OA
ENDBRANCH  67  70
ENDBRANCH  49  63
BRANCH  50  74
ATOM     74  C   UNL A   1      47.960  27.226  26.073  1.00  0.00     0.023 A 
ATOM     75  C   UNL A   1      49.044  26.796  26.864  1.00  0.00     0.012 A 
ATOM     76  C   UNL A   1      48.150  27.403  24.689  1.00  0.00     0.148 A 
ATOM     77  C   UNL A   1      50.302  26.585  26.296  1.00  0.00     0.002 A 
ATOM     78  C   UNL A   1      49.391  27.137  24.120  1.00  0.00     0.091 A 
ATOM     79  F   UNL A   1      47.114  27.831  23.953  1.00  0.00    -0.205 F 
ATOM     80  C   UNL A   1      50.473  26.746  24.924  1.00  0.00     0.022 A 
BRANCH  78  81
ATOM     81  S   UNL A   1      49.660  27.196  22.345  1.00  0.00     0.127 S 
ATOM     82  O   UNL A   1      48.731  26.169  21.868  1.00  0.00    -0.237 OA
ATOM     83  O   UNL A   1      49.268  28.572  22.023  1.00  0.00    -0.237 OA
ATOM     84  O   UNL A   1      51.071  26.916  22.154  1.00  0.00    -0.744 OA
ENDBRANCH  78  81
ENDBRANCH  50  74
BRANCH  62  85
ATOM     85  C   UNL A   1      45.160  32.893  29.029  1.00  0.00     0.023 A 
ATOM     86  C   UNL A   1      45.898  33.204  30.189  1.00  0.00     0.012 A 
ATOM     87  C   UNL A   1      44.979  33.877  28.038  1.00  0.00     0.148 A 
ATOM     88  C   UNL A   1      46.426  34.481  30.370  1.00  0.00     0.002 A 
ATOM     89  C   UNL A   1      45.550  35.133  28.203  1.00  0.00     0.091 A 
ATOM     90  F   UNL A   1      44.262  33.562  26.949  1.00  0.00    -0.205 F 
ATOM     91  C   UNL A   1      46.264  35.440  29.373  1.00  0.00     0.022 A 
BRANCH  89  92
ATOM     92  S   UNL A   1      45.479  36.402  26.934  1.00  0.00     0.127 S 
ATOM     93  O   UNL A   1      44.039  36.634  26.824  1.00  0.00    -0.237 OA
ATOM     94  O   UNL A   1      46.228  37.497  27.550  1.00  0.00    -0.237 OA
ATOM     95  O   UNL A   1      46.108  35.827  25.752  1.00  0.00    -0.744 OA
ENDBRANCH  89  92
ENDBRANCH  62  85
ENDBRANCH  36  37
ENDBRANCH  28  31
ENDBRANCH  26  27
ENDBRANCH  25  26
ENDBRANCH   1  25
TORSDOF 19
ENDMDL
MODEL 3
REMARK VINA RESULT:     -10.9      2.259      3.779
REMARK SMILES C[NH2+]C[C@H](C)C(=O)N[C@H](Cc1ccccc1)C(=O)NCCCNC(=O)c1ccc(-c2c3nc(c(-c4cccc(S(=O)(=O)[O-])c4F)c4ccc([nH]4)c(-c4cccc(S(=O)(=O)[O-])c4F)c4nc(c(-c5cccc(S(=O)(=O)[O-])c5F)c5ccc2[nH]5)C=C4)C=C3)cc1
REMARK SMILES IDX 20 1 19 2 17 3 18 4 9 6 8 7 6 8 7 9 4 11 5 12 3 13 2 14 1 15
REMARK SMILES IDX 10 18 11 19 12 20 16 21 13 22 15 23 14 24 21 25 22 26 23 27
REMARK SMILES IDX 24 28 25 30 26 31 27 32 88 33 28 34 87 35 29 36 30 37 31 38
REMARK SMILES IDX 81 39 32 40 86 41 80 42 82 43 33 44 85 45 79 46 78 47 34 49
REMARK SMILES IDX 66 50 46 51 65 52 47 53 50 54 64 55 83 56 48 57 49 58 63 60
REMARK SMILES IDX 84 61 51 62 35 63 36 64 44 65 37 66 39 67 45 68 38 69 40 70
REMARK SMILES IDX 41 71 42 72 43 73 67 74 68 75 76 76 69 77 71 78 77 79 70 80
REMARK SMILES IDX 72 81 73 82 74 83 75 84 52 85 53 86 61 87 54 88 56 89 62 90
REMARK SMILES IDX 55 91 57 92 58 93 59 94 60 95
REMARK H PARENT 19 5 8 10 2 16 2 17 23 29 82 48 50 59
REMARK Flexibility Score: inf
ROOT
ATOM      1  C   UNL A   1      35.718  22.739  23.937  1.00  0.00     0.117 C 
ENDROOT
BRANCH   1   2
ATOM      2  N   UNL A   1      34.767  22.693  25.067  1.00  0.00    -0.354 N 
ATOM      3  C   UNL A   1      33.586  22.048  25.363  1.00  0.00     0.242 C 
ATOM      4  O   UNL A   1      33.042  22.391  26.420  1.00  0.00    -0.273 OA
ATOM      5  H   UNL A   1      35.052  23.281  25.804  1.00  0.00     0.163 HD
BRANCH   3   6
ATOM      6  C   UNL A   1      32.865  21.005  24.417  1.00  0.00     0.175 C 
BRANCH   6   7
ATOM      7  N   UNL A   1      33.864  19.920  24.399  1.00  0.00    -0.344 N 
ATOM      8  C   UNL A   1      34.013  18.597  24.258  1.00  0.00     0.229 C 
ATOM      9  O   UNL A   1      35.131  18.142  24.531  1.00  0.00    -0.275 OA
ATOM     10  H   UNL A   1      34.752  20.317  24.546  1.00  0.00     0.164 HD
BRANCH   8  11
ATOM     11  C   UNL A   1      32.926  17.676  23.826  1.00  0.00     0.130 C 
ATOM     12  C   UNL A   1      32.527  18.143  22.419  1.00  0.00     0.024 C 
BRANCH  11  13
ATOM     13  C   UNL A   1      33.268  16.193  24.051  1.00  0.00     0.273 C 
BRANCH  13  14
ATOM     14  N   UNL A   1      33.378  15.611  25.384  1.00  0.00    -0.348 N 
ATOM     15  C   UNL A   1      32.217  14.932  25.907  1.00  0.00     0.330 C 
ATOM     16  H   UNL A   1      34.143  14.936  25.361  1.00  0.00     0.346 HD
ATOM     17  H   UNL A   1      33.520  16.406  26.007  1.00  0.00     0.346 HD
ENDBRANCH  13  14
ENDBRANCH  11  13
ENDBRANCH   8  11
ENDBRANCH   6   7
BRANCH   6  18
ATOM     18  C   UNL A   1      32.300  21.810  23.190  1.00  0.00     0.070 C 
BRANCH  18  19
ATOM     19  C   UNL A   1      32.070  23.346  23.080  1.00  0.00    -0.045 A 
ATOM     20  C   UNL A   1      30.949  24.039  23.563  1.00  0.00     0.004 A 
ATOM     21  C   UNL A   1      32.881  24.097  22.206  1.00  0.00     0.004 A 
ATOM     22  C   UNL A   1      30.591  25.335  23.165  1.00  0.00     0.000 A 
ATOM     23  C   UNL A   1      32.539  25.406  21.803  1.00  0.00     0.000 A 
ATOM     24  C   UNL A   1      31.380  26.018  22.262  1.00  0.00     0.000 A 
ENDBRANCH  18  19
ENDBRANCH   6  18
ENDBRANCH   3   6
ENDBRANCH   1   2
BRANCH   1  25
ATOM     25  C   UNL A   1      36.829  21.696  24.050  1.00  0.00     0.042 C 
BRANCH  25  26
ATOM     26  C   UNL A   1      36.974  21.066  25.437  1.00  0.00     0.118 C 
BRANCH  26  27
ATOM     27  N   UNL A   1      38.053  20.083  25.516  1.00  0.00    -0.352 N 
ATOM     28  C   UNL A   1      39.379  20.234  25.873  1.00  0.00     0.251 C 
ATOM     29  H   UNL A   1      37.793  19.165  25.276  1.00  0.00     0.163 HD
ATOM     30  O   UNL A   1      40.145  19.283  25.731  1.00  0.00    -0.269 OA
BRANCH  28  31
ATOM     31  C   UNL A   1      39.903  21.521  26.402  1.00  0.00     0.039 A 
ATOM     32  C   UNL A   1      41.034  21.506  27.230  1.00  0.00     0.014 A 
ATOM     33  C   UNL A   1      39.283  22.739  26.119  1.00  0.00     0.014 A 
ATOM     34  C   UNL A   1      41.587  22.710  27.692  1.00  0.00     0.010 A 
ATOM     35  C   UNL A   1      39.880  23.938  26.510  1.00  0.00     0.010 A 
ATOM     36  C   UNL A   1      41.043  23.942  27.297  1.00  0.00    -0.014 A 
BRANCH  36  37
ATOM     37  C   UNL A   1      41.682  25.240  27.654  1.00  0.00     0.031 A 
ATOM     38  C   UNL A   1      40.905  26.295  28.401  1.00  0.00     0.074 A 
ATOM     39  C   UNL A   1      42.920  25.522  27.196  1.00  0.00     0.049 A 
ATOM     40  N   UNL A   1      41.251  27.523  28.692  1.00  0.00    -0.248 NA
ATOM     41  C   UNL A   1      39.553  25.934  28.859  1.00  0.00     0.031 C 
ATOM     42  C   UNL A   1      43.753  24.619  26.398  1.00  0.00     0.029 A 
ATOM     43  N   UNL A   1      43.680  26.664  27.299  1.00  0.00    -0.354 N 
ATOM     44  C   UNL A   1      40.147  28.096  29.314  1.00  0.00     0.074 A 
ATOM     45  C   UNL A   1      39.113  27.084  29.350  1.00  0.00     0.031 C 
ATOM     46  C   UNL A   1      44.902  25.240  26.081  1.00  0.00     0.029 A 
ATOM     47  C   UNL A   1      44.874  26.597  26.614  1.00  0.00     0.049 A 
ATOM     48  H   UNL A   1      43.397  27.454  27.813  1.00  0.00     0.167 HD
ATOM     49  C   UNL A   1      40.011  29.344  29.823  1.00  0.00     0.034 A 
ATOM     50  C   UNL A   1      45.829  27.529  26.417  1.00  0.00     0.034 A 
ATOM     51  C   UNL A   1      41.062  30.325  29.847  1.00  0.00     0.049 A 
ATOM     52  C   UNL A   1      45.657  28.896  27.025  1.00  0.00     0.074 A 
ATOM     53  C   UNL A   1      41.063  31.565  30.464  1.00  0.00     0.029 A 
ATOM     54  N   UNL A   1      42.287  30.192  29.215  1.00  0.00    -0.354 N 
ATOM     55  N   UNL A   1      44.683  29.350  27.775  1.00  0.00    -0.248 NA
ATOM     56  C   UNL A   1      46.729  29.874  26.778  1.00  0.00     0.031 C 
ATOM     57  C   UNL A   1      42.275  32.197  30.172  1.00  0.00     0.029 A 
ATOM     58  C   UNL A   1      43.040  31.340  29.398  1.00  0.00     0.049 A 
ATOM     59  H   UNL A   1      42.579  29.399  28.710  1.00  0.00     0.167 HD
ATOM     60  C   UNL A   1      45.039  30.652  28.114  1.00  0.00     0.074 A 
ATOM     61  C   UNL A   1      46.331  30.904  27.511  1.00  0.00     0.031 C 
ATOM     62  C   UNL A   1      44.348  31.562  28.841  1.00  0.00     0.034 A 
BRANCH  49  63
ATOM     63  C   UNL A   1      38.694  29.722  30.449  1.00  0.00     0.023 A 
ATOM     64  C   UNL A   1      38.431  29.373  31.789  1.00  0.00     0.012 A 
ATOM     65  C   UNL A   1      37.767  30.517  29.745  1.00  0.00     0.148 A 
ATOM     66  C   UNL A   1      37.256  29.790  32.412  1.00  0.00     0.002 A 
ATOM     67  C   UNL A   1      36.618  30.965  30.387  1.00  0.00     0.091 A 
ATOM     68  F   UNL A   1      38.030  30.824  28.467  1.00  0.00    -0.205 F 
ATOM     69  C   UNL A   1      36.357  30.595  31.716  1.00  0.00     0.022 A 
BRANCH  67  70
ATOM     70  S   UNL A   1      35.436  32.069  29.606  1.00  0.00     0.127 S 
ATOM     71  O   UNL A   1      34.911  31.227  28.532  1.00  0.00    -0.237 OA
ATOM     72  O   UNL A   1      34.493  32.326  30.694  1.00  0.00    -0.237 OA
ATOM     73  O   UNL A   1      36.195  33.231  29.168  1.00  0.00    -0.744 OA
ENDBRANCH  67  70
ENDBRANCH  49  63
BRANCH  50  74
ATOM     74  C   UNL A   1      47.059  27.199  25.640  1.00  0.00     0.023 A 
ATOM     75  C   UNL A   1      48.095  26.477  26.266  1.00  0.00     0.012 A 
ATOM     76  C   UNL A   1      47.215  27.596  24.298  1.00  0.00     0.148 A 
ATOM     77  C   UNL A   1      49.279  26.192  25.583  1.00  0.00     0.002 A 
ATOM     78  C   UNL A   1      48.374  27.260  23.606  1.00  0.00     0.091 A 
ATOM     79  F   UNL A   1      46.228  28.298  23.723  1.00  0.00    -0.205 F 
ATOM     80  C   UNL A   1      49.414  26.575  24.251  1.00  0.00     0.022 A 
BRANCH  78  81
ATOM     81  S   UNL A   1      48.572  27.603  21.854  1.00  0.00     0.127 S 
ATOM     82  O   UNL A   1      48.997  26.299  21.341  1.00  0.00    -0.237 OA
ATOM     83  O   UNL A   1      47.215  28.000  21.465  1.00  0.00    -0.237 OA
ATOM     84  O   UNL A   1      49.553  28.669  21.773  1.00  0.00    -0.744 OA
ENDBRANCH  78  81
ENDBRANCH  50  74
BRANCH  62  85
ATOM     85  C   UNL A   1      44.974  32.915  29.054  1.00  0.00     0.023 A 
ATOM     86  C   UNL A   1      45.791  33.134  30.182  1.00  0.00     0.012 A 
ATOM     87  C   UNL A   1      44.827  33.938  28.097  1.00  0.00     0.148 A 
ATOM     88  C   UNL A   1      46.430  34.359  30.366  1.00  0.00     0.002 A 
ATOM     89  C   UNL A   1      45.505  35.139  28.262  1.00  0.00     0.091 A 
ATOM     90  F   UNL A   1      44.033  33.713  27.039  1.00  0.00    -0.205 F 
ATOM     91  C   UNL A   1      46.299  35.355  29.401  1.00  0.00     0.022 A 
BRANCH  89  92
ATOM     92  S   UNL A   1      45.477  36.445  27.028  1.00  0.00     0.127 S 
ATOM     93  O   UNL A   1      45.978  35.748  25.844  1.00  0.00    -0.237 OA
ATOM     94  O   UNL A   1      44.056  36.790  26.978  1.00  0.00    -0.237 OA
ATOM     95  O   UNL A   1      46.340  37.501  27.540  1.00  0.00    -0.744 OA
ENDBRANCH  89  92
ENDBRANCH  62  85
ENDBRANCH  36  37
ENDBRANCH  28  31
ENDBRANCH  26  27
ENDBRANCH  25  26
ENDBRANCH   1  25
TORSDOF 19
ENDMDL
