MODEL 1
REMARK VINA RESULT:     -10.9      0.000      0.000
REMARK SMILES O=C(NCCCNC(=O)[C@H]1CSC2(CCCCC2)[NH2+]1)c1ccc(-c2c3nc(c(-c4cccc(S(=O)(=O)[O-])c4F)c4ccc([nH]4)c(-c4cccc(S(=O)(=O)[O-])c4F)c4nc(c(-c5cccc(S(=O)(=O)[O-])c5F)c5ccc2[nH]5)C=C4)C=C3)cc1
REMARK SMILES IDX 1 1 2 2 3 3 20 5 21 6 82 7 22 8 81 9 23 10 24 11 25 12 75 13
REMARK SMILES IDX 26 14 80 15 74 16 76 17 27 18 79 19 73 20 72 21 28 23 60 24
REMARK SMILES IDX 40 25 59 26 41 27 44 28 58 29 77 30 42 31 43 32 57 34 78 35
REMARK SMILES IDX 45 36 29 37 30 38 38 39 31 40 33 41 39 42 32 43 34 44 35 45
REMARK SMILES IDX 36 46 37 47 61 48 62 49 70 50 63 51 65 52 71 53 64 54 66 55
REMARK SMILES IDX 67 56 68 57 69 58 46 59 47 60 55 61 48 62 50 63 56 64 49 65
REMARK SMILES IDX 51 66 52 67 53 68 54 69 4 70 5 71 6 72 7 73 8 74 9 76 10 77
REMARK SMILES IDX 11 78 19 79 12 80 13 81 14 84 18 85 15 86 17 87 16 88
REMARK H PARENT 3 4 76 22 44 33 7 75 19 82 19 83
REMARK Flexibility Score: inf
ROOT
ATOM      1  O   UNL A   1      33.934  30.032  26.724  1.00  0.00    -0.269 OA
ATOM      2  C   UNL A   1      34.502  30.600  27.649  1.00  0.00     0.251 C 
ATOM      3  N   UNL A   1      33.886  31.680  28.237  1.00  0.00    -0.352 N 
ATOM      4  H   UNL A   1      32.943  31.797  27.983  1.00  0.00     0.163 HD
ENDROOT
BRANCH   2   5
ATOM      5  C   UNL A   1      35.831  30.133  28.110  1.00  0.00     0.039 A 
ATOM      6  C   UNL A   1      36.971  30.330  27.332  1.00  0.00     0.014 A 
ATOM      7  C   UNL A   1      35.951  29.536  29.370  1.00  0.00     0.014 A 
ATOM      8  C   UNL A   1      38.185  29.782  27.723  1.00  0.00     0.010 A 
ATOM      9  C   UNL A   1      37.201  29.097  29.821  1.00  0.00     0.010 A 
ATOM     10  C   UNL A   1      38.324  29.192  28.987  1.00  0.00    -0.014 A 
BRANCH  10  11
ATOM     11  C   UNL A   1      39.679  28.783  29.440  1.00  0.00     0.031 A 
ATOM     12  C   UNL A   1      40.384  29.501  30.555  1.00  0.00     0.074 A 
ATOM     13  C   UNL A   1      40.262  27.731  28.829  1.00  0.00     0.049 A 
ATOM     14  N   UNL A   1      41.554  29.245  31.081  1.00  0.00    -0.248 NA
ATOM     15  C   UNL A   1      39.701  30.658  31.155  1.00  0.00     0.031 C 
ATOM     16  C   UNL A   1      39.688  26.988  27.702  1.00  0.00     0.029 A 
ATOM     17  N   UNL A   1      41.454  27.097  29.065  1.00  0.00    -0.354 N 
ATOM     18  C   UNL A   1      41.769  30.228  32.038  1.00  0.00     0.074 A 
ATOM     19  C   UNL A   1      40.608  31.092  32.020  1.00  0.00     0.031 C 
ATOM     20  C   UNL A   1      40.506  25.980  27.372  1.00  0.00     0.029 A 
ATOM     21  C   UNL A   1      41.693  26.044  28.212  1.00  0.00     0.049 A 
ATOM     22  H   UNL A   1      42.079  27.369  29.776  1.00  0.00     0.167 HD
ATOM     23  C   UNL A   1      42.832  30.386  32.863  1.00  0.00     0.034 A 
ATOM     24  C   UNL A   1      42.760  25.231  28.101  1.00  0.00     0.034 A 
ATOM     25  C   UNL A   1      43.964  29.497  32.897  1.00  0.00     0.049 A 
ATOM     26  C   UNL A   1      43.908  25.417  29.048  1.00  0.00     0.074 A 
ATOM     27  C   UNL A   1      45.061  29.535  33.740  1.00  0.00     0.029 A 
ATOM     28  N   UNL A   1      44.151  28.416  32.049  1.00  0.00    -0.354 N 
ATOM     29  N   UNL A   1      44.034  26.279  30.028  1.00  0.00    -0.248 NA
ATOM     30  C   UNL A   1      45.050  24.507  28.892  1.00  0.00     0.031 C 
ATOM     31  C   UNL A   1      45.922  28.492  33.385  1.00  0.00     0.029 A 
ATOM     32  C   UNL A   1      45.349  27.786  32.340  1.00  0.00     0.049 A 
ATOM     33  H   UNL A   1      43.524  28.137  31.343  1.00  0.00     0.167 HD
ATOM     34  C   UNL A   1      45.256  25.998  30.623  1.00  0.00     0.074 A 
ATOM     35  C   UNL A   1      45.818  24.868  29.910  1.00  0.00     0.031 C 
ATOM     36  C   UNL A   1      45.869  26.632  31.653  1.00  0.00     0.034 A 
BRANCH  23  37
ATOM     37  C   UNL A   1      42.816  31.544  33.827  1.00  0.00     0.023 A 
ATOM     38  C   UNL A   1      43.196  32.827  33.384  1.00  0.00     0.012 A 
ATOM     39  C   UNL A   1      42.342  31.381  35.145  1.00  0.00     0.148 A 
ATOM     40  C   UNL A   1      43.129  33.924  34.242  1.00  0.00     0.002 A 
ATOM     41  C   UNL A   1      42.239  32.488  35.982  1.00  0.00     0.091 A 
ATOM     42  F   UNL A   1      42.003  30.151  35.554  1.00  0.00    -0.205 F 
ATOM     43  C   UNL A   1      42.640  33.757  35.535  1.00  0.00     0.022 A 
BRANCH  41  44
ATOM     44  S   UNL A   1      41.549  32.391  37.638  1.00  0.00     0.127 S 
ATOM     45  O   UNL A   1      40.172  31.983  37.361  1.00  0.00    -0.237 OA
ATOM     46  O   UNL A   1      42.379  31.357  38.256  1.00  0.00    -0.237 OA
ATOM     47  O   UNL A   1      41.703  33.720  38.215  1.00  0.00    -0.744 OA
ENDBRANCH  41  44
ENDBRANCH  23  37
BRANCH  24  48
ATOM     48  C   UNL A   1      42.767  24.154  27.071  1.00  0.00     0.023 A 
ATOM     49  C   UNL A   1      43.474  24.345  25.868  1.00  0.00     0.012 A 
ATOM     50  C   UNL A   1      42.115  22.927  27.296  1.00  0.00     0.148 A 
ATOM     51  C   UNL A   1      43.507  23.344  24.897  1.00  0.00     0.002 A 
ATOM     52  C   UNL A   1      42.204  21.911  26.353  1.00  0.00     0.091 A 
ATOM     53  F   UNL A   1      41.433  22.768  28.440  1.00  0.00    -0.205 F 
ATOM     54  C   UNL A   1      42.884  22.123  25.144  1.00  0.00     0.022 A 
BRANCH  52  55
ATOM     55  S   UNL A   1      41.557  20.263  26.661  1.00  0.00     0.127 S 
ATOM     56  O   UNL A   1      41.928  19.563  25.435  1.00  0.00    -0.237 OA
ATOM     57  O   UNL A   1      42.305  19.860  27.853  1.00  0.00    -0.237 OA
ATOM     58  O   UNL A   1      40.129  20.443  26.887  1.00  0.00    -0.744 OA
ENDBRANCH  52  55
ENDBRANCH  24  48
BRANCH  36  59
ATOM     59  C   UNL A   1      47.204  26.097  32.095  1.00  0.00     0.023 A 
ATOM     60  C   UNL A   1      48.381  26.545  31.465  1.00  0.00     0.012 A 
ATOM     61  C   UNL A   1      47.293  25.196  33.174  1.00  0.00     0.148 A 
ATOM     62  C   UNL A   1      49.627  26.079  31.881  1.00  0.00     0.002 A 
ATOM     63  C   UNL A   1      48.541  24.774  33.615  1.00  0.00     0.091 A 
ATOM     64  F   UNL A   1      46.159  24.765  33.744  1.00  0.00    -0.205 F 
ATOM     65  C   UNL A   1      49.708  25.205  32.962  1.00  0.00     0.022 A 
BRANCH  63  66
ATOM     66  S   UNL A   1      48.745  23.723  35.057  1.00  0.00     0.127 S 
ATOM     67  O   UNL A   1      50.199  23.589  35.125  1.00  0.00    -0.237 OA
ATOM     68  O   UNL A   1      48.156  24.538  36.121  1.00  0.00    -0.237 OA
ATOM     69  O   UNL A   1      48.017  22.496  34.764  1.00  0.00    -0.744 OA
ENDBRANCH  63  66
ENDBRANCH  36  59
ENDBRANCH  10  11
ENDBRANCH   2   5
BRANCH   3  70
ATOM     70  C   UNL A   1      34.387  32.682  29.173  1.00  0.00     0.118 C 
BRANCH  70  71
ATOM     71  C   UNL A   1      34.760  33.982  28.478  1.00  0.00     0.042 C 
BRANCH  71  72
ATOM     72  C   UNL A   1      33.937  35.176  28.943  1.00  0.00     0.118 C 
BRANCH  72  73
ATOM     73  N   UNL A   1      33.196  34.923  30.160  1.00  0.00    -0.351 N 
ATOM     74  C   UNL A   1      33.458  35.110  31.475  1.00  0.00     0.279 C 
ATOM     75  H   UNL A   1      32.309  34.529  29.996  1.00  0.00     0.163 HD
ATOM     76  O   UNL A   1      32.496  34.888  32.229  1.00  0.00    -0.268 OA
BRANCH  74  77
ATOM     77  C   UNL A   1      34.820  35.447  32.119  1.00  0.00     0.283 C 
ATOM     78  C   UNL A   1      34.642  35.648  33.617  1.00  0.00     0.151 C 
ATOM     79  N   UNL A   1      35.990  34.592  31.810  1.00  0.00    -0.322 N 
ATOM     80  S   UNL A   1      35.245  34.109  34.314  1.00  0.00    -0.089 SA
ATOM     81  C   UNL A   1      36.497  33.895  33.003  1.00  0.00     0.143 C 
ATOM     82  H   UNL A   1      36.733  35.178  31.430  1.00  0.00     0.348 HD
ATOM     83  H   UNL A   1      35.693  33.887  31.136  1.00  0.00     0.348 HD
ATOM     84  C   UNL A   1      36.813  32.413  32.716  1.00  0.00     0.081 C 
ATOM     85  C   UNL A   1      37.821  34.560  33.449  1.00  0.00     0.081 C 
ATOM     86  C   UNL A   1      37.387  31.673  33.922  1.00  0.00     0.007 C 
ATOM     87  C   UNL A   1      38.486  33.850  34.640  1.00  0.00     0.007 C 
ATOM     88  C   UNL A   1      38.658  32.347  34.422  1.00  0.00     0.001 C 
ENDBRANCH  74  77
ENDBRANCH  72  73
ENDBRANCH  71  72
ENDBRANCH  70  71
ENDBRANCH   3  70
TORSDOF 13
ENDMDL
MODEL 2
REMARK VINA RESULT:     -10.8      1.378      1.714
REMARK SMILES O=C(NCCCNC(=O)[C@H]1CSC2(CCCCC2)[NH2+]1)c1ccc(-c2c3nc(c(-c4cccc(S(=O)(=O)[O-])c4F)c4ccc([nH]4)c(-c4cccc(S(=O)(=O)[O-])c4F)c4nc(c(-c5cccc(S(=O)(=O)[O-])c5F)c5ccc2[nH]5)C=C4)C=C3)cc1
REMARK SMILES IDX 1 1 2 2 3 3 20 5 21 6 82 7 22 8 81 9 23 10 24 11 25 12 75 13
REMARK SMILES IDX 26 14 80 15 74 16 76 17 27 18 79 19 73 20 72 21 28 23 60 24
REMARK SMILES IDX 40 25 59 26 41 27 44 28 58 29 77 30 42 31 43 32 57 34 78 35
REMARK SMILES IDX 45 36 29 37 30 38 38 39 31 40 33 41 39 42 32 43 34 44 35 45
REMARK SMILES IDX 36 46 37 47 61 48 62 49 70 50 63 51 65 52 71 53 64 54 66 55
REMARK SMILES IDX 67 56 68 57 69 58 46 59 47 60 55 61 48 62 50 63 56 64 49 65
REMARK SMILES IDX 51 66 52 67 53 68 54 69 4 70 5 71 6 72 7 73 8 74 9 76 10 77
REMARK SMILES IDX 11 78 19 79 12 80 13 81 14 84 18 85 15 86 17 87 16 88
REMARK H PARENT 3 4 76 22 44 33 7 75 19 82 19 83
REMARK Flexibility Score: inf
ROOT
ATOM      1  O   UNL A   1      33.870  29.899  26.861  1.00  0.00    -0.269 OA
ATOM      2  C   UNL A   1      34.474  30.515  27.731  1.00  0.00     0.251 C 
ATOM      3  N   UNL A   1      33.886  31.633  28.275  1.00  0.00    -0.352 N 
ATOM      4  H   UNL A   1      32.936  31.744  28.047  1.00  0.00     0.163 HD
ENDROOT
BRANCH   2   5
ATOM      5  C   UNL A   1      35.815  30.065  28.172  1.00  0.00     0.039 A 
ATOM      6  C   UNL A   1      36.951  30.337  27.412  1.00  0.00     0.014 A 
ATOM      7  C   UNL A   1      35.949  29.404  29.399  1.00  0.00     0.014 A 
ATOM      8  C   UNL A   1      38.180  29.806  27.779  1.00  0.00     0.010 A 
ATOM      9  C   UNL A   1      37.210  28.979  29.831  1.00  0.00     0.010 A 
ATOM     10  C   UNL A   1      38.332  29.152  29.010  1.00  0.00    -0.014 A 
BRANCH  10  11
ATOM     11  C   UNL A   1      39.698  28.761  29.446  1.00  0.00     0.031 A 
ATOM     12  C   UNL A   1      40.402  29.479  30.562  1.00  0.00     0.074 A 
ATOM     13  C   UNL A   1      40.291  27.723  28.820  1.00  0.00     0.049 A 
ATOM     14  N   UNL A   1      41.581  29.236  31.074  1.00  0.00    -0.248 NA
ATOM     15  C   UNL A   1      39.706  30.620  31.178  1.00  0.00     0.031 C 
ATOM     16  C   UNL A   1      39.718  26.982  27.691  1.00  0.00     0.029 A 
ATOM     17  N   UNL A   1      41.496  27.106  29.040  1.00  0.00    -0.354 N 
ATOM     18  C   UNL A   1      41.788  30.214  32.039  1.00  0.00     0.074 A 
ATOM     19  C   UNL A   1      40.614  31.059  32.040  1.00  0.00     0.031 C 
ATOM     20  C   UNL A   1      40.549  25.990  27.344  1.00  0.00     0.029 A 
ATOM     21  C   UNL A   1      41.743  26.065  28.175  1.00  0.00     0.049 A 
ATOM     22  H   UNL A   1      42.122  27.381  29.747  1.00  0.00     0.167 HD
ATOM     23  C   UNL A   1      42.856  30.381  32.856  1.00  0.00     0.034 A 
ATOM     24  C   UNL A   1      42.821  25.270  28.046  1.00  0.00     0.034 A 
ATOM     25  C   UNL A   1      44.003  29.509  32.871  1.00  0.00     0.049 A 
ATOM     26  C   UNL A   1      43.974  25.465  28.984  1.00  0.00     0.074 A 
ATOM     27  C   UNL A   1      45.107  29.557  33.705  1.00  0.00     0.029 A 
ATOM     28  N   UNL A   1      44.199  28.439  32.011  1.00  0.00    -0.354 N 
ATOM     29  N   UNL A   1      44.096  26.319  29.972  1.00  0.00    -0.248 NA
ATOM     30  C   UNL A   1      45.129  24.574  28.810  1.00  0.00     0.031 C 
ATOM     31  C   UNL A   1      45.981  28.531  33.332  1.00  0.00     0.029 A 
ATOM     32  C   UNL A   1      45.409  27.826  32.286  1.00  0.00     0.049 A 
ATOM     33  H   UNL A   1      43.569  28.157  31.309  1.00  0.00     0.167 HD
ATOM     34  C   UNL A   1      45.328  26.052  30.553  1.00  0.00     0.074 A 
ATOM     35  C   UNL A   1      45.901  24.938  29.824  1.00  0.00     0.031 C 
ATOM     36  C   UNL A   1      45.940  26.687  31.583  1.00  0.00     0.034 A 
BRANCH  23  37
ATOM     37  C   UNL A   1      42.831  31.530  33.830  1.00  0.00     0.023 A 
ATOM     38  C   UNL A   1      43.305  32.795  33.431  1.00  0.00     0.012 A 
ATOM     39  C   UNL A   1      42.259  31.379  35.110  1.00  0.00     0.148 A 
ATOM     40  C   UNL A   1      43.233  33.887  34.296  1.00  0.00     0.002 A 
ATOM     41  C   UNL A   1      42.153  32.482  35.952  1.00  0.00     0.091 A 
ATOM     42  F   UNL A   1      41.831  30.164  35.480  1.00  0.00    -0.205 F 
ATOM     43  C   UNL A   1      42.648  33.733  35.550  1.00  0.00     0.022 A 
BRANCH  41  44
ATOM     44  S   UNL A   1      41.346  32.406  37.555  1.00  0.00     0.127 S 
ATOM     45  O   UNL A   1      42.279  31.576  38.316  1.00  0.00    -0.237 OA
ATOM     46  O   UNL A   1      41.318  33.814  37.952  1.00  0.00    -0.237 OA
ATOM     47  O   UNL A   1      40.035  31.815  37.318  1.00  0.00    -0.744 OA
ENDBRANCH  41  44
ENDBRANCH  23  37
BRANCH  24  48
ATOM     48  C   UNL A   1      42.836  24.203  27.006  1.00  0.00     0.023 A 
ATOM     49  C   UNL A   1      43.538  24.412  25.803  1.00  0.00     0.012 A 
ATOM     50  C   UNL A   1      42.195  22.967  27.221  1.00  0.00     0.148 A 
ATOM     51  C   UNL A   1      43.578  23.420  24.823  1.00  0.00     0.002 A 
ATOM     52  C   UNL A   1      42.291  21.961  26.268  1.00  0.00     0.091 A 
ATOM     53  F   UNL A   1      41.518  22.791  28.365  1.00  0.00    -0.205 F 
ATOM     54  C   UNL A   1      42.966  22.191  25.060  1.00  0.00     0.022 A 
BRANCH  52  55
ATOM     55  S   UNL A   1      41.661  20.305  26.563  1.00  0.00     0.127 S 
ATOM     56  O   UNL A   1      40.221  20.538  26.610  1.00  0.00    -0.237 OA
ATOM     57  O   UNL A   1      42.131  19.584  25.379  1.00  0.00    -0.237 OA
ATOM     58  O   UNL A   1      42.279  19.871  27.809  1.00  0.00    -0.744 OA
ENDBRANCH  52  55
ENDBRANCH  24  48
BRANCH  36  59
ATOM     59  C   UNL A   1      47.287  26.168  32.008  1.00  0.00     0.023 A 
ATOM     60  C   UNL A   1      47.386  25.294  33.109  1.00  0.00     0.012 A 
ATOM     61  C   UNL A   1      48.446  26.501  31.280  1.00  0.00     0.148 A 
ATOM     62  C   UNL A   1      48.622  24.784  33.498  1.00  0.00     0.002 A 
ATOM     63  C   UNL A   1      49.668  25.949  31.644  1.00  0.00     0.091 A 
ATOM     64  F   UNL A   1      48.333  27.351  30.250  1.00  0.00    -0.205 F 
ATOM     65  C   UNL A   1      49.760  25.101  32.760  1.00  0.00     0.022 A 
BRANCH  63  66
ATOM     66  S   UNL A   1      51.168  26.227  30.696  1.00  0.00     0.127 S 
ATOM     67  O   UNL A   1      50.802  25.676  29.392  1.00  0.00    -0.237 OA
ATOM     68  O   UNL A   1      51.290  27.685  30.731  1.00  0.00    -0.237 OA
ATOM     69  O   UNL A   1      52.225  25.516  31.401  1.00  0.00    -0.744 OA
ENDBRANCH  63  66
ENDBRANCH  36  59
ENDBRANCH  10  11
ENDBRANCH   2   5
BRANCH   3  70
ATOM     70  C   UNL A   1      34.426  32.684  29.133  1.00  0.00     0.118 C 
BRANCH  70  71
ATOM     71  C   UNL A   1      34.771  33.942  28.353  1.00  0.00     0.042 C 
BRANCH  71  72
ATOM     72  C   UNL A   1      34.030  35.180  28.840  1.00  0.00     0.118 C 
BRANCH  72  73
ATOM     73  N   UNL A   1      33.263  34.952  30.046  1.00  0.00    -0.351 N 
ATOM     74  C   UNL A   1      33.502  35.153  31.363  1.00  0.00     0.279 C 
ATOM     75  H   UNL A   1      32.375  34.567  29.870  1.00  0.00     0.163 HD
ATOM     76  O   UNL A   1      32.524  34.952  32.101  1.00  0.00    -0.268 OA
BRANCH  74  77
ATOM     77  C   UNL A   1      34.856  35.483  32.028  1.00  0.00     0.283 C 
ATOM     78  C   UNL A   1      34.653  35.695  33.522  1.00  0.00     0.151 C 
ATOM     79  N   UNL A   1      36.023  34.615  31.746  1.00  0.00    -0.322 N 
ATOM     80  S   UNL A   1      35.230  34.155  34.240  1.00  0.00    -0.089 SA
ATOM     81  C   UNL A   1      36.503  33.922  32.952  1.00  0.00     0.143 C 
ATOM     82  H   UNL A   1      36.779  35.192  31.375  1.00  0.00     0.348 HD
ATOM     83  H   UNL A   1      35.732  33.908  31.071  1.00  0.00     0.348 HD
ATOM     84  C   UNL A   1      36.811  32.435  32.680  1.00  0.00     0.081 C 
ATOM     85  C   UNL A   1      37.826  34.578  33.417  1.00  0.00     0.081 C 
ATOM     86  C   UNL A   1      37.357  31.698  33.901  1.00  0.00     0.007 C 
ATOM     87  C   UNL A   1      38.462  33.870  34.624  1.00  0.00     0.007 C 
ATOM     88  C   UNL A   1      38.625  32.364  34.419  1.00  0.00     0.001 C 
ENDBRANCH  74  77
ENDBRANCH  72  73
ENDBRANCH  71  72
ENDBRANCH  70  71
ENDBRANCH   3  70
TORSDOF 13
ENDMDL
MODEL 3
REMARK VINA RESULT:     -10.8      4.614     11.856
REMARK SMILES O=C(NCCCNC(=O)[C@H]1CSC2(CCCCC2)[NH2+]1)c1ccc(-c2c3nc(c(-c4cccc(S(=O)(=O)[O-])c4F)c4ccc([nH]4)c(-c4cccc(S(=O)(=O)[O-])c4F)c4nc(c(-c5cccc(S(=O)(=O)[O-])c5F)c5ccc2[nH]5)C=C4)C=C3)cc1
REMARK SMILES IDX 1 1 2 2 3 3 20 5 21 6 82 7 22 8 81 9 23 10 24 11 25 12 75 13
REMARK SMILES IDX 26 14 80 15 74 16 76 17 27 18 79 19 73 20 72 21 28 23 60 24
REMARK SMILES IDX 40 25 59 26 41 27 44 28 58 29 77 30 42 31 43 32 57 34 78 35
REMARK SMILES IDX 45 36 29 37 30 38 38 39 31 40 33 41 39 42 32 43 34 44 35 45
REMARK SMILES IDX 36 46 37 47 61 48 62 49 70 50 63 51 65 52 71 53 64 54 66 55
REMARK SMILES IDX 67 56 68 57 69 58 46 59 47 60 55 61 48 62 50 63 56 64 49 65
REMARK SMILES IDX 51 66 52 67 53 68 54 69 4 70 5 71 6 72 7 73 8 74 9 76 10 77
REMARK SMILES IDX 11 78 19 79 12 80 13 81 14 84 18 85 15 86 17 87 16 88
REMARK H PARENT 3 4 76 22 44 33 7 75 19 82 19 83
REMARK Flexibility Score: inf
ROOT
ATOM      1  O   UNL A   1      37.444  22.884  25.911  1.00  0.00    -0.269 OA
ATOM      2  C   UNL A   1      38.643  23.004  26.137  1.00  0.00     0.251 C 
ATOM      3  N   UNL A   1      39.483  21.967  25.803  1.00  0.00    -0.352 N 
ATOM      4  H   UNL A   1      39.071  21.278  25.235  1.00  0.00     0.163 HD
ENDROOT
BRANCH   2   5
ATOM      5  C   UNL A   1      39.165  24.239  26.768  1.00  0.00     0.039 A 
ATOM      6  C   UNL A   1      39.839  25.201  26.018  1.00  0.00     0.014 A 
ATOM      7  C   UNL A   1      38.928  24.467  28.129  1.00  0.00     0.014 A 
ATOM      8  C   UNL A   1      40.424  26.292  26.646  1.00  0.00     0.010 A 
ATOM      9  C   UNL A   1      39.410  25.632  28.737  1.00  0.00     0.010 A 
ATOM     10  C   UNL A   1      40.186  26.540  28.005  1.00  0.00    -0.014 A 
BRANCH  10  11
ATOM     11  C   UNL A   1      40.678  27.812  28.595  1.00  0.00     0.031 A 
ATOM     12  C   UNL A   1      42.147  28.101  28.727  1.00  0.00     0.074 A 
ATOM     13  C   UNL A   1      39.766  28.719  29.000  1.00  0.00     0.049 A 
ATOM     14  N   UNL A   1      42.730  29.175  29.192  1.00  0.00    -0.248 NA
ATOM     15  C   UNL A   1      43.084  27.053  28.291  1.00  0.00     0.031 C 
ATOM     16  C   UNL A   1      38.312  28.525  28.963  1.00  0.00     0.029 A 
ATOM     17  N   UNL A   1      39.914  29.982  29.514  1.00  0.00    -0.354 N 
ATOM     18  C   UNL A   1      44.095  28.920  29.149  1.00  0.00     0.074 A 
ATOM     19  C   UNL A   1      44.256  27.585  28.614  1.00  0.00     0.031 C 
ATOM     20  C   UNL A   1      37.704  29.637  29.395  1.00  0.00     0.029 A 
ATOM     21  C   UNL A   1      38.719  30.598  29.806  1.00  0.00     0.049 A 
ATOM     22  H   UNL A   1      40.790  30.405  29.661  1.00  0.00     0.167 HD
ATOM     23  C   UNL A   1      45.117  29.732  29.511  1.00  0.00     0.034 A 
ATOM     24  C   UNL A   1      38.463  31.796  30.364  1.00  0.00     0.034 A 
ATOM     25  C   UNL A   1      44.945  31.073  30.007  1.00  0.00     0.049 A 
ATOM     26  C   UNL A   1      39.619  32.680  30.728  1.00  0.00     0.074 A 
ATOM     27  C   UNL A   1      45.919  31.998  30.341  1.00  0.00     0.029 A 
ATOM     28  N   UNL A   1      43.721  31.679  30.247  1.00  0.00    -0.354 N 
ATOM     29  N   UNL A   1      40.902  32.466  30.564  1.00  0.00    -0.248 NA
ATOM     30  C   UNL A   1      39.295  33.979  31.333  1.00  0.00     0.031 C 
ATOM     31  C   UNL A   1      45.284  33.153  30.806  1.00  0.00     0.029 A 
ATOM     32  C   UNL A   1      43.914  32.961  30.735  1.00  0.00     0.049 A 
ATOM     33  H   UNL A   1      42.843  31.260  30.093  1.00  0.00     0.167 HD
ATOM     34  C   UNL A   1      41.537  33.613  31.019  1.00  0.00     0.074 A 
ATOM     35  C   UNL A   1      40.496  34.529  31.439  1.00  0.00     0.031 C 
ATOM     36  C   UNL A   1      42.865  33.876  31.102  1.00  0.00     0.034 A 
BRANCH  23  37
ATOM     37  C   UNL A   1      46.523  29.213  29.357  1.00  0.00     0.023 A 
ATOM     38  C   UNL A   1      47.154  28.573  30.442  1.00  0.00     0.012 A 
ATOM     39  C   UNL A   1      47.187  29.281  28.115  1.00  0.00     0.148 A 
ATOM     40  C   UNL A   1      48.431  28.030  30.302  1.00  0.00     0.002 A 
ATOM     41  C   UNL A   1      48.443  28.701  27.972  1.00  0.00     0.091 A 
ATOM     42  F   UNL A   1      46.579  29.911  27.100  1.00  0.00    -0.205 F 
ATOM     43  C   UNL A   1      49.070  28.084  29.066  1.00  0.00     0.022 A 
BRANCH  41  44
ATOM     44  S   UNL A   1      49.315  28.649  26.402  1.00  0.00     0.127 S 
ATOM     45  O   UNL A   1      49.797  30.025  26.286  1.00  0.00    -0.237 OA
ATOM     46  O   UNL A   1      50.359  27.658  26.663  1.00  0.00    -0.237 OA
ATOM     47  O   UNL A   1      48.330  28.247  25.407  1.00  0.00    -0.744 OA
ENDBRANCH  41  44
ENDBRANCH  23  37
BRANCH  24  48
ATOM     48  C   UNL A   1      37.054  32.229  30.579  1.00  0.00     0.023 A 
ATOM     49  C   UNL A   1      36.468  32.086  31.851  1.00  0.00     0.012 A 
ATOM     50  C   UNL A   1      36.308  32.821  29.542  1.00  0.00     0.148 A 
ATOM     51  C   UNL A   1      35.154  32.499  32.078  1.00  0.00     0.002 A 
ATOM     52  C   UNL A   1      35.023  33.287  29.790  1.00  0.00     0.091 A 
ATOM     53  F   UNL A   1      36.876  32.934  28.333  1.00  0.00    -0.205 F 
ATOM     54  C   UNL A   1      34.437  33.111  31.053  1.00  0.00     0.022 A 
BRANCH  52  55
ATOM     55  S   UNL A   1      34.093  34.219  28.568  1.00  0.00     0.127 S 
ATOM     56  O   UNL A   1      35.005  35.321  28.276  1.00  0.00    -0.237 OA
ATOM     57  O   UNL A   1      33.941  33.241  27.490  1.00  0.00    -0.237 OA
ATOM     58  O   UNL A   1      32.844  34.581  29.225  1.00  0.00    -0.744 OA
ENDBRANCH  52  55
ENDBRANCH  24  48
BRANCH  36  59
ATOM     59  C   UNL A   1      43.268  35.224  31.637  1.00  0.00     0.023 A 
ATOM     60  C   UNL A   1      43.423  35.408  33.025  1.00  0.00     0.012 A 
ATOM     61  C   UNL A   1      43.549  36.289  30.760  1.00  0.00     0.148 A 
ATOM     62  C   UNL A   1      43.822  36.642  33.535  1.00  0.00     0.002 A 
ATOM     63  C   UNL A   1      43.994  37.501  31.272  1.00  0.00     0.091 A 
ATOM     64  F   UNL A   1      43.373  36.099  29.445  1.00  0.00    -0.205 F 
ATOM     65  C   UNL A   1      44.118  37.684  32.659  1.00  0.00     0.022 A 
BRANCH  63  66
ATOM     66  S   UNL A   1      44.488  38.867  30.215  1.00  0.00     0.127 S 
ATOM     67  O   UNL A   1      43.233  39.187  29.536  1.00  0.00    -0.237 OA
ATOM     68  O   UNL A   1      44.929  39.868  31.187  1.00  0.00    -0.237 OA
ATOM     69  O   UNL A   1      45.547  38.348  29.361  1.00  0.00    -0.744 OA
ENDBRANCH  63  66
ENDBRANCH  36  59
ENDBRANCH  10  11
ENDBRANCH   2   5
BRANCH   3  70
ATOM     70  C   UNL A   1      40.879  21.711  26.145  1.00  0.00     0.118 C 
BRANCH  70  71
ATOM     71  C   UNL A   1      41.024  21.005  27.483  1.00  0.00     0.042 C 
BRANCH  71  72
ATOM     72  C   UNL A   1      42.033  19.864  27.460  1.00  0.00     0.118 C 
BRANCH  72  73
ATOM     73  N   UNL A   1      42.412  19.460  26.124  1.00  0.00    -0.351 N 
ATOM     74  C   UNL A   1      43.518  19.642  25.365  1.00  0.00     0.279 C 
ATOM     75  H   UNL A   1      41.712  18.940  25.667  1.00  0.00     0.163 HD
ATOM     76  O   UNL A   1      43.519  19.013  24.295  1.00  0.00    -0.268 OA
BRANCH  74  77
ATOM     77  C   UNL A   1      44.688  20.612  25.637  1.00  0.00     0.283 C 
ATOM     78  C   UNL A   1      45.425  20.900  24.337  1.00  0.00     0.151 C 
ATOM     79  N   UNL A   1      44.430  21.848  26.412  1.00  0.00    -0.322 N 
ATOM     80  S   UNL A   1      44.826  22.526  23.873  1.00  0.00    -0.089 SA
ATOM     81  C   UNL A   1      44.654  23.061  25.611  1.00  0.00     0.143 C 
ATOM     82  H   UNL A   1      45.053  21.866  27.219  1.00  0.00     0.348 HD
ATOM     83  H   UNL A   1      43.451  21.838  26.700  1.00  0.00     0.348 HD
ATOM     84  C   UNL A   1      43.531  24.100  25.806  1.00  0.00     0.081 C 
ATOM     85  C   UNL A   1      45.971  23.731  26.071  1.00  0.00     0.081 C 
ATOM     86  C   UNL A   1      43.759  25.392  25.024  1.00  0.00     0.007 C 
ATOM     87  C   UNL A   1      46.257  25.062  25.356  1.00  0.00     0.007 C 
ATOM     88  C   UNL A   1      45.082  26.038  25.412  1.00  0.00     0.001 C 
ENDBRANCH  74  77
ENDBRANCH  72  73
ENDBRANCH  71  72
ENDBRANCH  70  71
ENDBRANCH   3  70
TORSDOF 13
ENDMDL
