MODEL 1
REMARK VINA RESULT:     -12.7      0.000      0.000
REMARK SMILES O=C(NCCCNC(=O)c1ccc(-c2c3nc(c(-c4cccc(S(=O)(=O)[O-])c4F)c4ccc([nH]4)c(-c4cccc(S(=O)(=O)[O-])c4F)c4nc(c(-c5cccc(S(=O)(=O)[O-])c5F)c5ccc2[nH]5)C=C4)C=C3)cc1)c1ccc(/[NH+]=C2\S[C@@H](Cc3ccc(F)cc3)C(=O)N2Cc2ccccc2)cc1
REMARK SMILES IDX 5 1 4 2 3 3 1 4 2 5 73 7 74 8 100 9 75 10 99 11 76 12 77 13
REMARK SMILES IDX 78 14 79 16 91 17 80 18 89 19 90 20 92 21 93 22 94 23 98 24
REMARK SMILES IDX 95 25 97 26 96 27 81 28 82 29 83 30 88 31 84 32 87 33 85 34
REMARK SMILES IDX 86 35 6 36 7 37 8 38 9 40 10 41 11 42 72 43 12 44 71 45
REMARK SMILES IDX 13 46 14 47 15 48 65 49 16 50 70 51 64 52 66 53 17 54 69 55
REMARK SMILES IDX 63 56 62 57 18 59 50 60 30 61 49 62 31 63 34 64 48 65 67 66
REMARK SMILES IDX 32 67 33 68 47 70 68 71 35 72 19 73 20 74 28 75 21 76 23 77
REMARK SMILES IDX 29 78 22 79 24 80 25 81 26 82 27 83 51 84 52 85 60 86 53 87
REMARK SMILES IDX 55 88 61 89 54 90 56 91 57 92 58 93 59 94 36 95 37 96 45 97
REMARK SMILES IDX 38 98 40 99 46 100 39 101 41 102 42 103 43 104 44 105
REMARK H PARENT 3 6 77 15 7 39 66 58 34 69
REMARK Flexibility Score: inf
ROOT
ATOM      1  C   UNL A   1      42.253  19.102  26.811  1.00  0.00     0.042 C 
ENDROOT
BRANCH   1   2
ATOM      2  C   UNL A   1      41.143  19.816  27.563  1.00  0.00     0.118 C 
BRANCH   2   3
ATOM      3  N   UNL A   1      41.593  21.057  28.184  1.00  0.00    -0.352 N 
ATOM      4  O   UNL A   1      41.805  23.288  28.453  1.00  0.00    -0.269 OA
ATOM      5  C   UNL A   1      41.184  22.345  27.960  1.00  0.00     0.251 C 
ATOM      6  H   UNL A   1      42.296  20.952  28.864  1.00  0.00     0.163 HD
BRANCH   5   7
ATOM      7  C   UNL A   1      39.988  22.611  27.140  1.00  0.00     0.040 A 
ATOM      8  C   UNL A   1      39.328  23.835  27.244  1.00  0.00     0.018 A 
ATOM      9  C   UNL A   1      39.550  21.652  26.219  1.00  0.00     0.018 A 
ATOM     10  C   UNL A   1      38.173  24.055  26.509  1.00  0.00     0.052 A 
ATOM     11  C   UNL A   1      38.416  21.904  25.440  1.00  0.00     0.052 A 
ATOM     12  C   UNL A   1      37.709  23.097  25.601  1.00  0.00     0.125 A 
BRANCH  12  13
ATOM     13  N   UNL A   1      36.648  23.465  24.777  1.00  0.00    -0.235 N 
ATOM     14  C   UNL A   1      35.582  22.756  24.638  1.00  0.00     0.320 C 
ATOM     15  H   UNL A   1      36.717  24.309  24.276  1.00  0.00     0.313 HD
ATOM     16  S   UNL A   1      35.280  21.149  25.224  1.00  0.00    -0.022 SA
ATOM     17  N   UNL A   1      34.492  23.252  23.977  1.00  0.00    -0.186 N 
ATOM     18  C   UNL A   1      33.829  20.946  24.137  1.00  0.00     0.178 C 
ATOM     19  C   UNL A   1      33.459  22.370  23.733  1.00  0.00     0.324 C 
ATOM     20  O   UNL A   1      32.417  22.678  23.163  1.00  0.00    -0.245 OA
BRANCH  17  21
ATOM     21  C   UNL A   1      34.429  24.634  23.505  1.00  0.00     0.283 C 
BRANCH  21  22
ATOM     22  C   UNL A   1      33.571  25.563  24.350  1.00  0.00    -0.006 A 
ATOM     23  C   UNL A   1      32.298  25.962  23.926  1.00  0.00     0.008 A 
ATOM     24  C   UNL A   1      34.059  26.101  25.551  1.00  0.00     0.008 A 
ATOM     25  C   UNL A   1      31.544  26.867  24.684  1.00  0.00     0.000 A 
ATOM     26  C   UNL A   1      33.294  26.968  26.332  1.00  0.00     0.000 A 
ATOM     27  C   UNL A   1      32.035  27.359  25.893  1.00  0.00     0.000 A 
ENDBRANCH  21  22
ENDBRANCH  17  21
BRANCH  18  28
ATOM     28  C   UNL A   1      32.713  20.164  24.833  1.00  0.00     0.063 C 
BRANCH  28  29
ATOM     29  C   UNL A   1      32.930  18.664  24.839  1.00  0.00    -0.046 A 
ATOM     30  C   UNL A   1      32.540  17.907  25.954  1.00  0.00     0.007 A 
ATOM     31  C   UNL A   1      33.510  18.008  23.740  1.00  0.00     0.007 A 
ATOM     32  C   UNL A   1      32.696  16.520  25.960  1.00  0.00     0.039 A 
ATOM     33  C   UNL A   1      33.660  16.620  23.747  1.00  0.00     0.039 A 
ATOM     34  C   UNL A   1      33.246  15.889  24.853  1.00  0.00     0.123 A 
ATOM     35  F   UNL A   1      33.378  14.555  24.852  1.00  0.00    -0.207 F 
ENDBRANCH  28  29
ENDBRANCH  18  28
ENDBRANCH  12  13
ENDBRANCH   5   7
ENDBRANCH   2   3
ENDBRANCH   1   2
BRANCH   1  36
ATOM     36  C   UNL A   1      42.489  19.635  25.407  1.00  0.00     0.118 C 
BRANCH  36  37
ATOM     37  N   UNL A   1      43.647  19.031  24.759  1.00  0.00    -0.352 N 
ATOM     38  C   UNL A   1      44.822  19.603  24.336  1.00  0.00     0.251 C 
ATOM     39  H   UNL A   1      43.575  18.063  24.599  1.00  0.00     0.163 HD
ATOM     40  O   UNL A   1      45.601  18.944  23.650  1.00  0.00    -0.269 OA
BRANCH  38  41
ATOM     41  C   UNL A   1      45.141  21.004  24.686  1.00  0.00     0.039 A 
ATOM     42  C   UNL A   1      44.948  22.003  23.726  1.00  0.00     0.014 A 
ATOM     43  C   UNL A   1      45.632  21.335  25.949  1.00  0.00     0.014 A 
ATOM     44  C   UNL A   1      45.183  23.338  24.061  1.00  0.00     0.010 A 
ATOM     45  C   UNL A   1      45.768  22.671  26.311  1.00  0.00     0.010 A 
ATOM     46  C   UNL A   1      45.558  23.688  25.368  1.00  0.00    -0.014 A 
BRANCH  46  47
ATOM     47  C   UNL A   1      45.742  25.104  25.775  1.00  0.00     0.031 A 
ATOM     48  C   UNL A   1      47.125  25.695  25.849  1.00  0.00     0.074 A 
ATOM     49  C   UNL A   1      44.676  25.830  26.169  1.00  0.00     0.049 A 
ATOM     50  N   UNL A   1      47.495  26.879  26.260  1.00  0.00    -0.248 NA
ATOM     51  C   UNL A   1      48.242  24.828  25.438  1.00  0.00     0.031 C 
ATOM     52  C   UNL A   1      43.294  25.350  26.215  1.00  0.00     0.029 A 
ATOM     53  N   UNL A   1      44.595  27.119  26.634  1.00  0.00    -0.354 N 
ATOM     54  C   UNL A   1      48.884  26.887  26.196  1.00  0.00     0.074 A 
ATOM     55  C   UNL A   1      49.293  25.576  25.744  1.00  0.00     0.031 C 
ATOM     56  C   UNL A   1      42.502  26.331  26.676  1.00  0.00     0.029 A 
ATOM     57  C   UNL A   1      43.322  27.496  26.993  1.00  0.00     0.049 A 
ATOM     58  H   UNL A   1      45.374  27.718  26.705  1.00  0.00     0.167 HD
ATOM     59  C   UNL A   1      49.741  27.901  26.459  1.00  0.00     0.034 A 
ATOM     60  C   UNL A   1      42.867  28.645  27.531  1.00  0.00     0.034 A 
ATOM     61  C   UNL A   1      49.330  29.216  26.869  1.00  0.00     0.049 A 
ATOM     62  C   UNL A   1      43.836  29.767  27.787  1.00  0.00     0.074 A 
ATOM     63  C   UNL A   1      50.113  30.338  27.075  1.00  0.00     0.029 A 
ATOM     64  N   UNL A   1      48.022  29.585  27.145  1.00  0.00    -0.354 N 
ATOM     65  N   UNL A   1      45.130  29.805  27.574  1.00  0.00    -0.248 NA
ATOM     66  C   UNL A   1      43.280  31.017  28.325  1.00  0.00     0.031 C 
ATOM     67  C   UNL A   1      49.282  31.377  27.507  1.00  0.00     0.029 A 
ATOM     68  C   UNL A   1      47.977  30.914  27.533  1.00  0.00     0.049 A 
ATOM     69  H   UNL A   1      47.240  28.991  27.075  1.00  0.00     0.167 HD
ATOM     70  C   UNL A   1      45.535  31.091  27.914  1.00  0.00     0.074 A 
ATOM     71  C   UNL A   1      44.345  31.807  28.329  1.00  0.00     0.031 C 
ATOM     72  C   UNL A   1      46.779  31.629  27.896  1.00  0.00     0.034 A 
BRANCH  59  73
ATOM     73  C   UNL A   1      51.214  27.638  26.268  1.00  0.00     0.023 A 
ATOM     74  C   UNL A   1      52.033  27.403  27.392  1.00  0.00     0.012 A 
ATOM     75  C   UNL A   1      51.779  27.580  24.979  1.00  0.00     0.148 A 
ATOM     76  C   UNL A   1      53.396  27.157  27.240  1.00  0.00     0.002 A 
ATOM     77  C   UNL A   1      53.130  27.285  24.833  1.00  0.00     0.091 A 
ATOM     78  F   UNL A   1      50.991  27.826  23.923  1.00  0.00    -0.205 F 
ATOM     79  C   UNL A   1      53.942  27.088  25.962  1.00  0.00     0.022 A 
BRANCH  77  80
ATOM     80  S   UNL A   1      53.910  27.090  23.227  1.00  0.00     0.127 S 
ATOM     81  O   UNL A   1      53.745  28.426  22.656  1.00  0.00    -0.237 OA
ATOM     82  O   UNL A   1      55.286  26.750  23.593  1.00  0.00    -0.237 OA
ATOM     83  O   UNL A   1      53.181  26.026  22.552  1.00  0.00    -0.744 OA
ENDBRANCH  77  80
ENDBRANCH  59  73
BRANCH  60  84
ATOM     84  C   UNL A   1      41.411  28.815  27.802  1.00  0.00     0.023 A 
ATOM     85  C   UNL A   1      40.543  29.142  26.742  1.00  0.00     0.012 A 
ATOM     86  C   UNL A   1      40.879  28.627  29.093  1.00  0.00     0.148 A 
ATOM     87  C   UNL A   1      39.177  29.313  26.967  1.00  0.00     0.002 A 
ATOM     88  C   UNL A   1      39.509  28.744  29.299  1.00  0.00     0.091 A 
ATOM     89  F   UNL A   1      41.722  28.322  30.089  1.00  0.00    -0.205 F 
ATOM     90  C   UNL A   1      38.659  29.104  28.242  1.00  0.00     0.022 A 
BRANCH  88  91
ATOM     91  S   UNL A   1      38.734  28.366  30.875  1.00  0.00     0.127 S 
ATOM     92  O   UNL A   1      38.816  26.908  30.906  1.00  0.00    -0.237 OA
ATOM     93  O   UNL A   1      39.618  29.055  31.816  1.00  0.00    -0.237 OA
ATOM     94  O   UNL A   1      37.389  28.921  30.798  1.00  0.00    -0.744 OA
ENDBRANCH  88  91
ENDBRANCH  60  84
BRANCH  72  95
ATOM     95  C   UNL A   1      46.924  33.074  28.294  1.00  0.00     0.023 A 
ATOM     96  C   UNL A   1      47.026  33.424  29.655  1.00  0.00     0.012 A 
ATOM     97  C   UNL A   1      47.036  34.079  27.311  1.00  0.00     0.148 A 
ATOM     98  C   UNL A   1      47.201  34.755  30.032  1.00  0.00     0.002 A 
ATOM     99  C   UNL A   1      47.264  35.395  27.693  1.00  0.00     0.091 A 
ATOM    100  F   UNL A   1      46.919  33.727  26.022  1.00  0.00    -0.205 F 
ATOM    101  C   UNL A   1      47.332  35.737  29.053  1.00  0.00     0.022 A 
BRANCH  99 102
ATOM    102  S   UNL A   1      47.545  36.709  26.501  1.00  0.00     0.127 S 
ATOM    103  O   UNL A   1      48.670  36.180  25.733  1.00  0.00    -0.237 OA
ATOM    104  O   UNL A   1      46.274  36.746  25.776  1.00  0.00    -0.237 OA
ATOM    105  O   UNL A   1      47.830  37.906  27.282  1.00  0.00    -0.744 OA
ENDBRANCH  99 102
ENDBRANCH  72  95
ENDBRANCH  46  47
ENDBRANCH  38  41
ENDBRANCH  36  37
ENDBRANCH   1  36
TORSDOF 18
ENDMDL
MODEL 2
REMARK VINA RESULT:     -12.0      6.443     10.083
REMARK SMILES O=C(NCCCNC(=O)c1ccc(-c2c3nc(c(-c4cccc(S(=O)(=O)[O-])c4F)c4ccc([nH]4)c(-c4cccc(S(=O)(=O)[O-])c4F)c4nc(c(-c5cccc(S(=O)(=O)[O-])c5F)c5ccc2[nH]5)C=C4)C=C3)cc1)c1ccc(/[NH+]=C2\S[C@@H](Cc3ccc(F)cc3)C(=O)N2Cc2ccccc2)cc1
REMARK SMILES IDX 5 1 4 2 3 3 1 4 2 5 73 7 74 8 100 9 75 10 99 11 76 12 77 13
REMARK SMILES IDX 78 14 79 16 91 17 80 18 89 19 90 20 92 21 93 22 94 23 98 24
REMARK SMILES IDX 95 25 97 26 96 27 81 28 82 29 83 30 88 31 84 32 87 33 85 34
REMARK SMILES IDX 86 35 6 36 7 37 8 38 9 40 10 41 11 42 72 43 12 44 71 45
REMARK SMILES IDX 13 46 14 47 15 48 65 49 16 50 70 51 64 52 66 53 17 54 69 55
REMARK SMILES IDX 63 56 62 57 18 59 50 60 30 61 49 62 31 63 34 64 48 65 67 66
REMARK SMILES IDX 32 67 33 68 47 70 68 71 35 72 19 73 20 74 28 75 21 76 23 77
REMARK SMILES IDX 29 78 22 79 24 80 25 81 26 82 27 83 51 84 52 85 60 86 53 87
REMARK SMILES IDX 55 88 61 89 54 90 56 91 57 92 58 93 59 94 36 95 37 96 45 97
REMARK SMILES IDX 38 98 40 99 46 100 39 101 41 102 42 103 43 104 44 105
REMARK H PARENT 3 6 77 15 7 39 66 58 34 69
REMARK Flexibility Score: inf
ROOT
ATOM      1  C   UNL A   1      36.069  29.681  28.959  1.00  0.00     0.042 C 
ENDROOT
BRANCH   1   2
ATOM      2  C   UNL A   1      37.139  29.694  27.881  1.00  0.00     0.118 C 
BRANCH   2   3
ATOM      3  N   UNL A   1      38.371  30.339  28.321  1.00  0.00    -0.352 N 
ATOM      4  O   UNL A   1      40.442  30.479  29.209  1.00  0.00    -0.269 OA
ATOM      5  C   UNL A   1      39.565  29.782  28.695  1.00  0.00     0.251 C 
ATOM      6  H   UNL A   1      38.338  31.322  28.355  1.00  0.00     0.163 HD
BRANCH   5   7
ATOM      7  C   UNL A   1      39.815  28.346  28.470  1.00  0.00     0.040 A 
ATOM      8  C   UNL A   1      39.289  27.400  29.350  1.00  0.00     0.018 A 
ATOM      9  C   UNL A   1      40.536  27.935  27.343  1.00  0.00     0.018 A 
ATOM     10  C   UNL A   1      39.575  26.056  29.160  1.00  0.00     0.052 A 
ATOM     11  C   UNL A   1      40.773  26.573  27.128  1.00  0.00     0.052 A 
ATOM     12  C   UNL A   1      40.314  25.631  28.050  1.00  0.00     0.125 A 
BRANCH  12  13
ATOM     13  N   UNL A   1      40.407  24.258  27.839  1.00  0.00    -0.235 N 
ATOM     14  C   UNL A   1      39.643  23.614  27.025  1.00  0.00     0.320 C 
ATOM     15  H   UNL A   1      41.090  23.753  28.336  1.00  0.00     0.313 HD
ATOM     16  S   UNL A   1      38.237  24.198  26.187  1.00  0.00    -0.022 SA
ATOM     17  N   UNL A   1      39.901  22.310  26.705  1.00  0.00    -0.186 N 
ATOM     18  C   UNL A   1      37.694  22.507  25.768  1.00  0.00     0.178 C 
ATOM     19  C   UNL A   1      38.944  21.653  25.958  1.00  0.00     0.324 C 
ATOM     20  O   UNL A   1      39.047  20.487  25.589  1.00  0.00    -0.245 OA
BRANCH  17  21
ATOM     21  C   UNL A   1      41.104  21.618  27.162  1.00  0.00     0.283 C 
BRANCH  21  22
ATOM     22  C   UNL A   1      42.297  21.714  26.223  1.00  0.00    -0.006 A 
ATOM     23  C   UNL A   1      42.543  22.874  25.479  1.00  0.00     0.008 A 
ATOM     24  C   UNL A   1      43.149  20.617  26.026  1.00  0.00     0.008 A 
ATOM     25  C   UNL A   1      43.609  22.927  24.572  1.00  0.00     0.000 A 
ATOM     26  C   UNL A   1      44.239  20.681  25.156  1.00  0.00     0.000 A 
ATOM     27  C   UNL A   1      44.465  21.837  24.420  1.00  0.00     0.000 A 
ENDBRANCH  21  22
ENDBRANCH  17  21
BRANCH  18  28
ATOM     28  C   UNL A   1      37.080  22.447  24.369  1.00  0.00     0.063 C 
BRANCH  28  29
ATOM     29  C   UNL A   1      35.681  21.866  24.340  1.00  0.00    -0.046 A 
ATOM     30  C   UNL A   1      35.432  20.614  24.924  1.00  0.00     0.007 A 
ATOM     31  C   UNL A   1      34.616  22.562  23.744  1.00  0.00     0.007 A 
ATOM     32  C   UNL A   1      34.142  20.082  24.941  1.00  0.00     0.039 A 
ATOM     33  C   UNL A   1      33.325  22.030  23.767  1.00  0.00     0.039 A 
ATOM     34  C   UNL A   1      33.099  20.800  24.371  1.00  0.00     0.123 A 
ATOM     35  F   UNL A   1      31.857  20.297  24.404  1.00  0.00    -0.207 F 
ENDBRANCH  28  29
ENDBRANCH  18  28
ENDBRANCH  12  13
ENDBRANCH   5   7
ENDBRANCH   2   3
ENDBRANCH   1   2
BRANCH   1  36
ATOM     36  C   UNL A   1      36.590  29.329  30.343  1.00  0.00     0.118 C 
BRANCH  36  37
ATOM     37  N   UNL A   1      36.305  30.359  31.334  1.00  0.00    -0.352 N 
ATOM     38  C   UNL A   1      37.004  30.723  32.459  1.00  0.00     0.251 C 
ATOM     39  H   UNL A   1      35.482  30.874  31.173  1.00  0.00     0.163 HD
ATOM     40  O   UNL A   1      36.495  31.503  33.261  1.00  0.00    -0.269 OA
BRANCH  38  41
ATOM     41  C   UNL A   1      38.350  30.166  32.716  1.00  0.00     0.039 A 
ATOM     42  C   UNL A   1      38.509  28.778  32.777  1.00  0.00     0.014 A 
ATOM     43  C   UNL A   1      39.450  31.004  32.903  1.00  0.00     0.014 A 
ATOM     44  C   UNL A   1      39.783  28.235  32.954  1.00  0.00     0.010 A 
ATOM     45  C   UNL A   1      40.728  30.461  32.977  1.00  0.00     0.010 A 
ATOM     46  C   UNL A   1      40.910  29.072  33.018  1.00  0.00    -0.014 A 
BRANCH  46  47
ATOM     47  C   UNL A   1      42.285  28.522  33.131  1.00  0.00     0.031 A 
ATOM     48  C   UNL A   1      43.047  28.136  31.891  1.00  0.00     0.074 A 
ATOM     49  C   UNL A   1      42.811  28.281  34.348  1.00  0.00     0.049 A 
ATOM     50  N   UNL A   1      44.219  27.566  31.787  1.00  0.00    -0.248 NA
ATOM     51  C   UNL A   1      42.392  28.395  30.598  1.00  0.00     0.031 C 
ATOM     52  C   UNL A   1      42.144  28.540  35.626  1.00  0.00     0.029 A 
ATOM     53  N   UNL A   1      44.017  27.735  34.709  1.00  0.00    -0.354 N 
ATOM     54  C   UNL A   1      44.424  27.362  30.427  1.00  0.00     0.074 A 
ATOM     55  C   UNL A   1      43.238  27.833  29.747  1.00  0.00     0.031 C 
ATOM     56  C   UNL A   1      42.952  28.160  36.629  1.00  0.00     0.029 A 
ATOM     57  C   UNL A   1      44.175  27.597  36.069  1.00  0.00     0.049 A 
ATOM     58  H   UNL A   1      44.706  27.467  34.057  1.00  0.00     0.167 HD
ATOM     59  C   UNL A   1      45.510  26.856  29.798  1.00  0.00     0.034 A 
ATOM     60  C   UNL A   1      45.186  27.064  36.784  1.00  0.00     0.034 A 
ATOM     61  C   UNL A   1      46.703  26.426  30.473  1.00  0.00     0.049 A 
ATOM     62  C   UNL A   1      46.395  26.535  36.060  1.00  0.00     0.074 A 
ATOM     63  C   UNL A   1      47.892  25.982  29.922  1.00  0.00     0.029 A 
ATOM     64  N   UNL A   1      46.858  26.376  31.850  1.00  0.00    -0.354 N 
ATOM     65  N   UNL A   1      46.632  26.493  34.771  1.00  0.00    -0.248 NA
ATOM     66  C   UNL A   1      47.490  26.013  36.890  1.00  0.00     0.031 C 
ATOM     67  C   UNL A   1      48.754  25.633  30.967  1.00  0.00     0.029 A 
ATOM     68  C   UNL A   1      48.117  25.896  32.169  1.00  0.00     0.049 A 
ATOM     69  H   UNL A   1      46.173  26.644  32.506  1.00  0.00     0.167 HD
ATOM     70  C   UNL A   1      47.917  25.976  34.637  1.00  0.00     0.074 A 
ATOM     71  C   UNL A   1      48.413  25.739  35.978  1.00  0.00     0.031 C 
ATOM     72  C   UNL A   1      48.617  25.712  33.508  1.00  0.00     0.034 A 
BRANCH  59  73
ATOM     73  C   UNL A   1      45.473  26.783  28.291  1.00  0.00     0.023 A 
ATOM     74  C   UNL A   1      44.669  25.812  27.659  1.00  0.00     0.012 A 
ATOM     75  C   UNL A   1      46.196  27.699  27.503  1.00  0.00     0.148 A 
ATOM     76  C   UNL A   1      44.620  25.725  26.269  1.00  0.00     0.002 A 
ATOM     77  C   UNL A   1      46.102  27.638  26.117  1.00  0.00     0.091 A 
ATOM     78  F   UNL A   1      46.971  28.602  28.119  1.00  0.00    -0.205 F 
ATOM     79  C   UNL A   1      45.327  26.644  25.499  1.00  0.00     0.022 A 
BRANCH  77  80
ATOM     80  S   UNL A   1      46.907  28.827  25.039  1.00  0.00     0.127 S 
ATOM     81  O   UNL A   1      46.280  30.080  25.460  1.00  0.00    -0.237 OA
ATOM     82  O   UNL A   1      48.312  28.689  25.424  1.00  0.00    -0.237 OA
ATOM     83  O   UNL A   1      46.607  28.405  23.678  1.00  0.00    -0.744 OA
ENDBRANCH  77  80
ENDBRANCH  59  73
BRANCH  60  84
ATOM     84  C   UNL A   1      45.124  27.063  38.273  1.00  0.00     0.023 A 
ATOM     85  C   UNL A   1      44.619  25.931  38.943  1.00  0.00     0.012 A 
ATOM     86  C   UNL A   1      45.585  28.159  39.028  1.00  0.00     0.148 A 
ATOM     87  C   UNL A   1      44.542  25.903  40.336  1.00  0.00     0.002 A 
ATOM     88  C   UNL A   1      45.558  28.102  40.417  1.00  0.00     0.091 A 
ATOM     89  F   UNL A   1      46.055  29.228  38.371  1.00  0.00    -0.205 F 
ATOM     90  C   UNL A   1      45.021  26.984  41.072  1.00  0.00     0.022 A 
BRANCH  88  91
ATOM     91  S   UNL A   1      46.271  29.387  41.449  1.00  0.00     0.127 S 
ATOM     92  O   UNL A   1      45.286  30.457  41.317  1.00  0.00    -0.237 OA
ATOM     93  O   UNL A   1      46.305  28.736  42.759  1.00  0.00    -0.237 OA
ATOM     94  O   UNL A   1      47.585  29.666  40.884  1.00  0.00    -0.744 OA
ENDBRANCH  88  91
ENDBRANCH  60  84
BRANCH  72  95
ATOM     95  C   UNL A   1      50.017  25.175  33.660  1.00  0.00     0.023 A 
ATOM     96  C   UNL A   1      51.093  26.061  33.869  1.00  0.00     0.012 A 
ATOM     97  C   UNL A   1      50.253  23.786  33.672  1.00  0.00     0.148 A 
ATOM     98  C   UNL A   1      52.386  25.572  34.052  1.00  0.00     0.002 A 
ATOM     99  C   UNL A   1      51.535  23.305  33.907  1.00  0.00     0.091 A 
ATOM    100  F   UNL A   1      49.218  22.960  33.453  1.00  0.00    -0.205 F 
ATOM    101  C   UNL A   1      52.605  24.197  34.083  1.00  0.00     0.022 A 
BRANCH  99 102
ATOM    102  S   UNL A   1      51.894  21.552  34.064  1.00  0.00     0.127 S 
ATOM    103  O   UNL A   1      53.349  21.533  33.933  1.00  0.00    -0.237 OA
ATOM    104  O   UNL A   1      51.397  21.254  35.408  1.00  0.00    -0.237 OA
ATOM    105  O   UNL A   1      51.163  20.894  32.989  1.00  0.00    -0.744 OA
ENDBRANCH  99 102
ENDBRANCH  72  95
ENDBRANCH  46  47
ENDBRANCH  38  41
ENDBRANCH  36  37
ENDBRANCH   1  36
TORSDOF 18
ENDMDL
MODEL 3
REMARK VINA RESULT:     -11.9      6.059     13.629
REMARK SMILES O=C(NCCCNC(=O)c1ccc(-c2c3nc(c(-c4cccc(S(=O)(=O)[O-])c4F)c4ccc([nH]4)c(-c4cccc(S(=O)(=O)[O-])c4F)c4nc(c(-c5cccc(S(=O)(=O)[O-])c5F)c5ccc2[nH]5)C=C4)C=C3)cc1)c1ccc(/[NH+]=C2\S[C@@H](Cc3ccc(F)cc3)C(=O)N2Cc2ccccc2)cc1
REMARK SMILES IDX 5 1 4 2 3 3 1 4 2 5 73 7 74 8 100 9 75 10 99 11 76 12 77 13
REMARK SMILES IDX 78 14 79 16 91 17 80 18 89 19 90 20 92 21 93 22 94 23 98 24
REMARK SMILES IDX 95 25 97 26 96 27 81 28 82 29 83 30 88 31 84 32 87 33 85 34
REMARK SMILES IDX 86 35 6 36 7 37 8 38 9 40 10 41 11 42 72 43 12 44 71 45
REMARK SMILES IDX 13 46 14 47 15 48 65 49 16 50 70 51 64 52 66 53 17 54 69 55
REMARK SMILES IDX 63 56 62 57 18 59 50 60 30 61 49 62 31 63 34 64 48 65 67 66
REMARK SMILES IDX 32 67 33 68 47 70 68 71 35 72 19 73 20 74 28 75 21 76 23 77
REMARK SMILES IDX 29 78 22 79 24 80 25 81 26 82 27 83 51 84 52 85 60 86 53 87
REMARK SMILES IDX 55 88 61 89 54 90 56 91 57 92 58 93 59 94 36 95 37 96 45 97
REMARK SMILES IDX 38 98 40 99 46 100 39 101 41 102 42 103 43 104 44 105
REMARK H PARENT 3 6 77 15 7 39 66 58 34 69
REMARK Flexibility Score: inf
ROOT
ATOM      1  C   UNL A   1      34.351  33.364  29.565  1.00  0.00     0.042 C 
ENDROOT
BRANCH   1   2
ATOM      2  C   UNL A   1      35.237  32.961  30.731  1.00  0.00     0.118 C 
BRANCH   2   3
ATOM      3  N   UNL A   1      35.266  33.967  31.787  1.00  0.00    -0.352 N 
ATOM      4  O   UNL A   1      36.174  35.270  33.391  1.00  0.00    -0.269 OA
ATOM      5  C   UNL A   1      36.338  34.571  32.389  1.00  0.00     0.251 C 
ATOM      6  H   UNL A   1      34.384  34.253  32.116  1.00  0.00     0.163 HD
BRANCH   5   7
ATOM      7  C   UNL A   1      37.693  34.401  31.834  1.00  0.00     0.040 A 
ATOM      8  C   UNL A   1      38.805  34.472  32.673  1.00  0.00     0.018 A 
ATOM      9  C   UNL A   1      37.855  34.117  30.474  1.00  0.00     0.018 A 
ATOM     10  C   UNL A   1      40.078  34.365  32.133  1.00  0.00     0.052 A 
ATOM     11  C   UNL A   1      39.141  33.955  29.946  1.00  0.00     0.052 A 
ATOM     12  C   UNL A   1      40.257  34.104  30.770  1.00  0.00     0.125 A 
BRANCH  12  13
ATOM     13  N   UNL A   1      41.555  33.837  30.341  1.00  0.00    -0.235 N 
ATOM     14  C   UNL A   1      42.159  34.530  29.439  1.00  0.00     0.320 C 
ATOM     15  H   UNL A   1      42.035  33.079  30.748  1.00  0.00     0.313 HD
ATOM     16  S   UNL A   1      41.495  35.768  28.418  1.00  0.00    -0.022 SA
ATOM     17  N   UNL A   1      43.493  34.353  29.195  1.00  0.00    -0.186 N 
ATOM     18  C   UNL A   1      42.931  35.714  27.293  1.00  0.00     0.178 C 
ATOM     19  C   UNL A   1      44.018  35.018  28.106  1.00  0.00     0.324 C 
ATOM     20  O   UNL A   1      45.199  34.962  27.775  1.00  0.00    -0.245 OA
BRANCH  17  21
ATOM     21  C   UNL A   1      44.325  33.471  30.012  1.00  0.00     0.283 C 
BRANCH  21  22
ATOM     22  C   UNL A   1      44.463  32.050  29.486  1.00  0.00    -0.006 A 
ATOM     23  C   UNL A   1      43.436  31.445  28.752  1.00  0.00     0.008 A 
ATOM     24  C   UNL A   1      45.599  31.280  29.780  1.00  0.00     0.008 A 
ATOM     25  C   UNL A   1      43.551  30.115  28.327  1.00  0.00     0.000 A 
ATOM     26  C   UNL A   1      45.737  29.969  29.321  1.00  0.00     0.000 A 
ATOM     27  C   UNL A   1      44.706  29.382  28.599  1.00  0.00     0.000 A 
ENDBRANCH  21  22
ENDBRANCH  17  21
BRANCH  18  28
ATOM     28  C   UNL A   1      43.299  37.109  26.787  1.00  0.00     0.063 C 
BRANCH  28  29
ATOM     29  C   UNL A   1      42.981  38.220  27.768  1.00  0.00    -0.046 A 
ATOM     30  C   UNL A   1      43.769  38.383  28.918  1.00  0.00     0.007 A 
ATOM     31  C   UNL A   1      41.910  39.102  27.547  1.00  0.00     0.007 A 
ATOM     32  C   UNL A   1      43.514  39.424  29.811  1.00  0.00     0.039 A 
ATOM     33  C   UNL A   1      41.660  40.146  28.440  1.00  0.00     0.039 A 
ATOM     34  C   UNL A   1      42.468  40.301  29.559  1.00  0.00     0.123 A 
ATOM     35  F   UNL A   1      42.236  41.312  30.407  1.00  0.00    -0.207 F 
ENDBRANCH  28  29
ENDBRANCH  18  28
ENDBRANCH  12  13
ENDBRANCH   5   7
ENDBRANCH   2   3
ENDBRANCH   1   2
BRANCH   1  36
ATOM     36  C   UNL A   1      34.857  32.887  28.212  1.00  0.00     0.118 C 
BRANCH  36  37
ATOM     37  N   UNL A   1      34.178  31.684  27.746  1.00  0.00    -0.352 N 
ATOM     38  C   UNL A   1      34.649  30.402  27.603  1.00  0.00     0.251 C 
ATOM     39  H   UNL A   1      33.236  31.811  27.493  1.00  0.00     0.163 HD
ATOM     40  O   UNL A   1      33.959  29.567  27.022  1.00  0.00    -0.269 OA
BRANCH  38  41
ATOM     41  C   UNL A   1      35.982  30.032  28.125  1.00  0.00     0.039 A 
ATOM     42  C   UNL A   1      36.084  29.508  29.417  1.00  0.00     0.014 A 
ATOM     43  C   UNL A   1      37.130  30.205  27.349  1.00  0.00     0.014 A 
ATOM     44  C   UNL A   1      37.327  29.094  29.900  1.00  0.00     0.010 A 
ATOM     45  C   UNL A   1      38.347  29.700  27.792  1.00  0.00     0.010 A 
ATOM     46  C   UNL A   1      38.464  29.151  29.077  1.00  0.00    -0.014 A 
BRANCH  46  47
ATOM     47  C   UNL A   1      39.785  28.649  29.535  1.00  0.00     0.031 A 
ATOM     48  C   UNL A   1      40.524  29.364  30.634  1.00  0.00     0.074 A 
ATOM     49  C   UNL A   1      40.361  27.609  28.900  1.00  0.00     0.049 A 
ATOM     50  N   UNL A   1      41.718  29.131  31.113  1.00  0.00    -0.248 NA
ATOM     51  C   UNL A   1      39.846  30.515  31.254  1.00  0.00     0.031 C 
ATOM     52  C   UNL A   1      39.781  26.877  27.772  1.00  0.00     0.029 A 
ATOM     53  N   UNL A   1      41.578  27.005  29.095  1.00  0.00    -0.354 N 
ATOM     54  C   UNL A   1      41.950  30.124  32.057  1.00  0.00     0.074 A 
ATOM     55  C   UNL A   1      40.789  30.987  32.056  1.00  0.00     0.031 C 
ATOM     56  C   UNL A   1      40.638  25.921  27.379  1.00  0.00     0.029 A 
ATOM     57  C   UNL A   1      41.842  25.994  28.200  1.00  0.00     0.049 A 
ATOM     58  H   UNL A   1      42.204  27.270  29.807  1.00  0.00     0.167 HD
ATOM     59  C   UNL A   1      43.018  30.288  32.873  1.00  0.00     0.034 A 
ATOM     60  C   UNL A   1      42.936  25.221  28.049  1.00  0.00     0.034 A 
ATOM     61  C   UNL A   1      44.152  29.406  32.900  1.00  0.00     0.049 A 
ATOM     62  C   UNL A   1      44.097  25.405  28.988  1.00  0.00     0.074 A 
ATOM     63  C   UNL A   1      45.244  29.433  33.750  1.00  0.00     0.029 A 
ATOM     64  N   UNL A   1      44.347  28.342  32.033  1.00  0.00    -0.354 N 
ATOM     65  N   UNL A   1      44.232  26.254  29.978  1.00  0.00    -0.248 NA
ATOM     66  C   UNL A   1      45.243  24.501  28.812  1.00  0.00     0.031 C 
ATOM     67  C   UNL A   1      46.115  28.405  33.375  1.00  0.00     0.029 A 
ATOM     68  C   UNL A   1      45.548  27.713  32.317  1.00  0.00     0.049 A 
ATOM     69  H   UNL A   1      43.724  28.073  31.320  1.00  0.00     0.167 HD
ATOM     70  C   UNL A   1      45.458  25.962  30.566  1.00  0.00     0.074 A 
ATOM     71  C   UNL A   1      46.017  24.845  29.832  1.00  0.00     0.031 C 
ATOM     72  C   UNL A   1      46.070  26.570  31.611  1.00  0.00     0.034 A 
BRANCH  59  73
ATOM     73  C   UNL A   1      42.987  31.447  33.839  1.00  0.00     0.023 A 
ATOM     74  C   UNL A   1      43.495  32.701  33.441  1.00  0.00     0.012 A 
ATOM     75  C   UNL A   1      42.419  31.308  35.120  1.00  0.00     0.148 A 
ATOM     76  C   UNL A   1      43.477  33.785  34.316  1.00  0.00     0.002 A 
ATOM     77  C   UNL A   1      42.359  32.407  35.969  1.00  0.00     0.091 A 
ATOM     78  F   UNL A   1      41.959  30.104  35.490  1.00  0.00    -0.205 F 
ATOM     79  C   UNL A   1      42.900  33.641  35.575  1.00  0.00     0.022 A 
BRANCH  77  80
ATOM     80  S   UNL A   1      41.561  32.347  37.577  1.00  0.00     0.127 S 
ATOM     81  O   UNL A   1      40.204  31.937  37.218  1.00  0.00    -0.237 OA
ATOM     82  O   UNL A   1      42.344  31.323  38.270  1.00  0.00    -0.237 OA
ATOM     83  O   UNL A   1      41.683  33.685  38.137  1.00  0.00    -0.744 OA
ENDBRANCH  77  80
ENDBRANCH  59  73
BRANCH  60  84
ATOM     84  C   UNL A   1      42.957  24.159  27.003  1.00  0.00     0.023 A 
ATOM     85  C   UNL A   1      43.658  24.385  25.802  1.00  0.00     0.012 A 
ATOM     86  C   UNL A   1      42.314  22.921  27.201  1.00  0.00     0.148 A 
ATOM     87  C   UNL A   1      43.690  23.412  24.803  1.00  0.00     0.002 A 
ATOM     88  C   UNL A   1      42.397  21.935  26.225  1.00  0.00     0.091 A 
ATOM     89  F   UNL A   1      41.647  22.729  28.348  1.00  0.00    -0.205 F 
ATOM     90  C   UNL A   1      43.069  22.184  25.019  1.00  0.00     0.022 A 
BRANCH  88  91
ATOM     91  S   UNL A   1      41.742  20.281  26.466  1.00  0.00     0.127 S 
ATOM     92  O   UNL A   1      40.302  20.519  26.419  1.00  0.00    -0.237 OA
ATOM     93  O   UNL A   1      42.289  19.569  25.310  1.00  0.00    -0.237 OA
ATOM     94  O   UNL A   1      42.265  19.830  27.750  1.00  0.00    -0.744 OA
ENDBRANCH  88  91
ENDBRANCH  60  84
BRANCH  72  95
ATOM     95  C   UNL A   1      47.398  26.021  32.062  1.00  0.00     0.023 A 
ATOM     96  C   UNL A   1      48.592  26.507  31.494  1.00  0.00     0.012 A 
ATOM     97  C   UNL A   1      47.463  25.074  33.104  1.00  0.00     0.148 A 
ATOM     98  C   UNL A   1      49.829  26.034  31.933  1.00  0.00     0.002 A 
ATOM     99  C   UNL A   1      48.700  24.647  33.572  1.00  0.00     0.091 A 
ATOM    100  F   UNL A   1      46.315  24.610  33.619  1.00  0.00    -0.205 F 
ATOM    101  C   UNL A   1      49.883  25.114  32.978  1.00  0.00     0.022 A 
BRANCH  99 102
ATOM    102  S   UNL A   1      48.869  23.542  34.978  1.00  0.00     0.127 S 
ATOM    103  O   UNL A   1      47.543  22.933  35.040  1.00  0.00    -0.237 OA
ATOM    104  O   UNL A   1      49.935  22.641  34.537  1.00  0.00    -0.237 OA
ATOM    105  O   UNL A   1      49.222  24.386  36.113  1.00  0.00    -0.744 OA
ENDBRANCH  99 102
ENDBRANCH  72  95
ENDBRANCH  46  47
ENDBRANCH  38  41
ENDBRANCH  36  37
ENDBRANCH   1  36
TORSDOF 18
ENDMDL
