MODEL 1
REMARK VINA RESULT:     -11.8      0.000      0.000
REMARK SMILES C/C(=N/OCc1ccccc1Nc1c(Cl)cccc1Cl)C(=O)NCCCNC(=O)c1ccc(-c2c3nc(c(-c4cccc(S(=O)(=O)[O-])c4F)c4ccc([nH]4)c(-c4cccc(S(=O)(=O)[O-])c4F)c4nc(c(-c5cccc(S(=O)(=O)[O-])c5F)c5ccc2[nH]5)C=C4)C=C3)cc1
REMARK SMILES IDX 24 1 23 2 21 3 22 4 2 6 1 7 3 8 4 9 5 10 6 11 7 12 11 13
REMARK SMILES IDX 8 14 10 15 9 16 12 17 13 19 14 20 19 21 15 22 16 23 18 24
REMARK SMILES IDX 20 25 17 26 25 27 26 28 27 29 28 30 29 32 30 33 31 34 92 35
REMARK SMILES IDX 32 36 91 37 33 38 34 39 35 40 85 41 36 42 90 43 84 44 86 45
REMARK SMILES IDX 37 46 89 47 83 48 82 49 38 51 70 52 50 53 69 54 51 55 54 56
REMARK SMILES IDX 68 57 87 58 52 59 53 60 67 62 88 63 55 64 39 65 40 66 48 67
REMARK SMILES IDX 41 68 43 69 49 70 42 71 44 72 45 73 46 74 47 75 71 76 72 77
REMARK SMILES IDX 80 78 73 79 75 80 81 81 74 82 76 83 77 84 78 85 79 86 56 87
REMARK SMILES IDX 57 88 65 89 58 90 60 91 66 92 59 93 61 94 62 95 63 96 64 97
REMARK H PARENT 23 5 12 18 27 31 86 50 54 61
REMARK Flexibility Score: inf
ROOT
ATOM      1  C   UNL A   1      32.060  27.650  27.245  1.00  0.00     0.118 C 
ENDROOT
BRANCH   1   2
ATOM      2  N   UNL A   1      31.175  26.563  26.876  1.00  0.00    -0.351 N 
ATOM      3  C   UNL A   1      31.202  25.638  25.863  1.00  0.00     0.268 C 
ATOM      4  O   UNL A   1      30.225  24.893  25.759  1.00  0.00    -0.268 OA
ATOM      5  H   UNL A   1      30.398  26.470  27.473  1.00  0.00     0.163 HD
BRANCH   3   6
ATOM      6  C   UNL A   1      32.372  25.342  24.933  1.00  0.00     0.141 C 
ATOM      7  C   UNL A   1      32.168  25.846  23.518  1.00  0.00     0.077 C 
ATOM      8  N   UNL A   1      33.520  24.781  25.161  1.00  0.00    -0.086 NA
BRANCH   8   9
ATOM      9  O   UNL A   1      33.691  24.312  26.454  1.00  0.00    -0.390 OA
BRANCH   9  10
ATOM     10  C   UNL A   1      33.913  22.891  26.446  1.00  0.00     0.302 C 
BRANCH  10  11
ATOM     11  C   UNL A   1      35.236  22.409  25.856  1.00  0.00     0.016 A 
ATOM     12  C   UNL A   1      36.360  23.255  25.765  1.00  0.00     0.009 A 
ATOM     13  C   UNL A   1      35.382  21.055  25.474  1.00  0.00     0.045 A 
ATOM     14  C   UNL A   1      37.601  22.781  25.341  1.00  0.00     0.001 A 
ATOM     15  C   UNL A   1      36.648  20.592  25.070  1.00  0.00     0.026 A 
ATOM     16  C   UNL A   1      37.749  21.446  25.004  1.00  0.00     0.002 A 
BRANCH  13  17
ATOM     17  N   UNL A   1      34.276  20.179  25.521  1.00  0.00    -0.353 N 
ATOM     18  H   UNL A   1      33.835  20.115  26.399  1.00  0.00     0.167 HD
BRANCH  17  19
ATOM     19  C   UNL A   1      33.701  19.381  24.504  1.00  0.00     0.076 A 
ATOM     20  C   UNL A   1      32.718  19.943  23.661  1.00  0.00     0.066 A 
ATOM     21  C   UNL A   1      34.096  18.054  24.242  1.00  0.00     0.066 A 
ATOM     22  Cl  UNL A   1      32.189  21.578  23.892  1.00  0.00    -0.082 Cl
ATOM     23  C   UNL A   1      32.153  19.218  22.607  1.00  0.00     0.023 A 
ATOM     24  C   UNL A   1      33.527  17.328  23.186  1.00  0.00     0.023 A 
ATOM     25  Cl  UNL A   1      35.225  17.206  25.247  1.00  0.00    -0.082 Cl
ATOM     26  C   UNL A   1      32.560  17.909  22.369  1.00  0.00     0.003 A 
ENDBRANCH  17  19
ENDBRANCH  13  17
ENDBRANCH  10  11
ENDBRANCH   9  10
ENDBRANCH   8   9
ENDBRANCH   3   6
ENDBRANCH   1   2
BRANCH   1  27
ATOM     27  C   UNL A   1      31.799  28.893  26.386  1.00  0.00     0.042 C 
BRANCH  27  28
ATOM     28  C   UNL A   1      33.061  29.677  26.033  1.00  0.00     0.118 C 
BRANCH  28  29
ATOM     29  N   UNL A   1      32.941  31.083  26.390  1.00  0.00    -0.352 N 
ATOM     30  C   UNL A   1      33.616  31.816  27.335  1.00  0.00     0.251 C 
ATOM     31  H   UNL A   1      32.270  31.587  25.875  1.00  0.00     0.163 HD
ATOM     32  O   UNL A   1      33.200  32.935  27.628  1.00  0.00    -0.269 OA
BRANCH  30  33
ATOM     33  C   UNL A   1      34.828  31.283  28.004  1.00  0.00     0.039 A 
ATOM     34  C   UNL A   1      35.972  32.087  28.057  1.00  0.00     0.014 A 
ATOM     35  C   UNL A   1      34.871  29.986  28.520  1.00  0.00     0.014 A 
ATOM     36  C   UNL A   1      37.139  31.607  28.661  1.00  0.00     0.010 A 
ATOM     37  C   UNL A   1      36.013  29.533  29.181  1.00  0.00     0.010 A 
ATOM     38  C   UNL A   1      37.164  30.333  29.249  1.00  0.00    -0.014 A 
BRANCH  38  39
ATOM     39  C   UNL A   1      38.377  29.822  29.942  1.00  0.00     0.031 A 
ATOM     40  C   UNL A   1      38.764  30.358  31.297  1.00  0.00     0.074 A 
ATOM     41  C   UNL A   1      39.183  28.944  29.311  1.00  0.00     0.049 A 
ATOM     42  N   UNL A   1      39.821  30.091  32.018  1.00  0.00    -0.248 NA
ATOM     43  C   UNL A   1      37.858  31.345  31.910  1.00  0.00     0.031 C 
ATOM     44  C   UNL A   1      38.963  28.412  27.964  1.00  0.00     0.029 A 
ATOM     45  N   UNL A   1      40.369  28.371  29.702  1.00  0.00    -0.354 N 
ATOM     46  C   UNL A   1      39.737  30.906  33.140  1.00  0.00     0.074 A 
ATOM     47  C   UNL A   1      38.530  31.691  33.000  1.00  0.00     0.031 C 
ATOM     48  C   UNL A   1      39.984  27.604  27.636  1.00  0.00     0.029 A 
ATOM     49  C   UNL A   1      40.944  27.577  28.736  1.00  0.00     0.049 A 
ATOM     50  H   UNL A   1      40.769  28.515  30.590  1.00  0.00     0.167 HD
ATOM     51  C   UNL A   1      40.574  30.978  34.202  1.00  0.00     0.034 A 
ATOM     52  C   UNL A   1      42.118  26.915  28.729  1.00  0.00     0.034 A 
ATOM     53  C   UNL A   1      41.736  30.147  34.370  1.00  0.00     0.049 A 
ATOM     54  C   UNL A   1      42.990  26.961  29.955  1.00  0.00     0.074 A 
ATOM     55  C   UNL A   1      42.578  30.060  35.465  1.00  0.00     0.029 A 
ATOM     56  N   UNL A   1      42.224  29.266  33.419  1.00  0.00    -0.354 N 
ATOM     57  N   UNL A   1      42.793  27.597  31.085  1.00  0.00    -0.248 NA
ATOM     58  C   UNL A   1      44.227  26.166  29.924  1.00  0.00     0.031 C 
ATOM     59  C   UNL A   1      43.589  29.141  35.167  1.00  0.00     0.029 A 
ATOM     60  C   UNL A   1      43.362  28.639  33.896  1.00  0.00     0.049 A 
ATOM     61  H   UNL A   1      41.821  29.109  32.534  1.00  0.00     0.167 HD
ATOM     62  C   UNL A   1      43.859  27.251  31.908  1.00  0.00     0.074 A 
ATOM     63  C   UNL A   1      44.686  26.330  31.156  1.00  0.00     0.031 C 
ATOM     64  C   UNL A   1      44.139  27.674  33.164  1.00  0.00     0.034 A 
BRANCH  51  65
ATOM     65  C   UNL A   1      40.243  31.945  35.308  1.00  0.00     0.023 A 
ATOM     66  C   UNL A   1      40.935  33.171  35.388  1.00  0.00     0.012 A 
ATOM     67  C   UNL A   1      39.181  31.690  36.197  1.00  0.00     0.148 A 
ATOM     68  C   UNL A   1      40.587  34.120  36.349  1.00  0.00     0.002 A 
ATOM     69  C   UNL A   1      38.814  32.658  37.126  1.00  0.00     0.091 A 
ATOM     70  F   UNL A   1      38.547  30.512  36.115  1.00  0.00    -0.205 F 
ATOM     71  C   UNL A   1      39.521  33.869  37.209  1.00  0.00     0.022 A 
BRANCH  69  72
ATOM     72  S   UNL A   1      37.406  32.467  38.226  1.00  0.00     0.127 S 
ATOM     73  O   UNL A   1      37.347  31.014  38.379  1.00  0.00    -0.237 OA
ATOM     74  O   UNL A   1      37.851  33.187  39.420  1.00  0.00    -0.237 OA
ATOM     75  O   UNL A   1      36.271  33.066  37.540  1.00  0.00    -0.744 OA
ENDBRANCH  69  72
ENDBRANCH  51  65
BRANCH  52  76
ATOM     76  C   UNL A   1      42.514  26.104  27.543  1.00  0.00     0.023 A 
ATOM     77  C   UNL A   1      43.237  26.712  26.498  1.00  0.00     0.012 A 
ATOM     78  C   UNL A   1      42.188  24.737  27.446  1.00  0.00     0.148 A 
ATOM     79  C   UNL A   1      43.592  25.986  25.360  1.00  0.00     0.002 A 
ATOM     80  C   UNL A   1      42.595  24.005  26.335  1.00  0.00     0.091 A 
ATOM     81  F   UNL A   1      41.485  24.177  28.440  1.00  0.00    -0.205 F 
ATOM     82  C   UNL A   1      43.279  24.632  25.283  1.00  0.00     0.022 A 
BRANCH  80  83
ATOM     83  S   UNL A   1      42.354  22.228  26.231  1.00  0.00     0.127 S 
ATOM     84  O   UNL A   1      42.970  21.769  27.474  1.00  0.00    -0.237 OA
ATOM     85  O   UNL A   1      40.893  22.118  26.192  1.00  0.00    -0.237 OA
ATOM     86  O   UNL A   1      43.011  21.823  25.000  1.00  0.00    -0.744 OA
ENDBRANCH  80  83
ENDBRANCH  52  76
BRANCH  64  87
ATOM     87  C   UNL A   1      45.370  27.121  33.832  1.00  0.00     0.023 A 
ATOM     88  C   UNL A   1      46.596  27.803  33.714  1.00  0.00     0.012 A 
ATOM     89  C   UNL A   1      45.291  25.970  34.642  1.00  0.00     0.148 A 
ATOM     90  C   UNL A   1      47.735  27.331  34.366  1.00  0.00     0.002 A 
ATOM     91  C   UNL A   1      46.419  25.535  35.328  1.00  0.00     0.091 A 
ATOM     92  F   UNL A   1      44.120  25.325  34.726  1.00  0.00    -0.205 F 
ATOM     93  C   UNL A   1      47.643  26.206  35.183  1.00  0.00     0.022 A 
BRANCH  91  94
ATOM     94  S   UNL A   1      46.369  24.154  36.476  1.00  0.00     0.127 S 
ATOM     95  O   UNL A   1      47.783  23.987  36.805  1.00  0.00    -0.237 OA
ATOM     96  O   UNL A   1      45.548  24.683  37.566  1.00  0.00    -0.237 OA
ATOM     97  O   UNL A   1      45.760  23.049  35.747  1.00  0.00    -0.744 OA
ENDBRANCH  91  94
ENDBRANCH  64  87
ENDBRANCH  38  39
ENDBRANCH  30  33
ENDBRANCH  28  29
ENDBRANCH  27  28
ENDBRANCH   1  27
TORSDOF 18
ENDMDL
MODEL 2
REMARK VINA RESULT:     -11.5      4.994     10.059
REMARK SMILES C/C(=N/OCc1ccccc1Nc1c(Cl)cccc1Cl)C(=O)NCCCNC(=O)c1ccc(-c2c3nc(c(-c4cccc(S(=O)(=O)[O-])c4F)c4ccc([nH]4)c(-c4cccc(S(=O)(=O)[O-])c4F)c4nc(c(-c5cccc(S(=O)(=O)[O-])c5F)c5ccc2[nH]5)C=C4)C=C3)cc1
REMARK SMILES IDX 24 1 23 2 21 3 22 4 2 6 1 7 3 8 4 9 5 10 6 11 7 12 11 13
REMARK SMILES IDX 8 14 10 15 9 16 12 17 13 19 14 20 19 21 15 22 16 23 18 24
REMARK SMILES IDX 20 25 17 26 25 27 26 28 27 29 28 30 29 32 30 33 31 34 92 35
REMARK SMILES IDX 32 36 91 37 33 38 34 39 35 40 85 41 36 42 90 43 84 44 86 45
REMARK SMILES IDX 37 46 89 47 83 48 82 49 38 51 70 52 50 53 69 54 51 55 54 56
REMARK SMILES IDX 68 57 87 58 52 59 53 60 67 62 88 63 55 64 39 65 40 66 48 67
REMARK SMILES IDX 41 68 43 69 49 70 42 71 44 72 45 73 46 74 47 75 71 76 72 77
REMARK SMILES IDX 80 78 73 79 75 80 81 81 74 82 76 83 77 84 78 85 79 86 56 87
REMARK SMILES IDX 57 88 65 89 58 90 60 91 66 92 59 93 61 94 62 95 63 96 64 97
REMARK H PARENT 23 5 12 18 27 31 86 50 54 61
REMARK Flexibility Score: inf
ROOT
ATOM      1  C   UNL A   1      34.691  24.199  24.803  1.00  0.00     0.118 C 
ENDROOT
BRANCH   1   2
ATOM      2  N   UNL A   1      33.980  23.940  26.040  1.00  0.00    -0.351 N 
ATOM      3  C   UNL A   1      32.714  23.490  26.313  1.00  0.00     0.268 C 
ATOM      4  O   UNL A   1      32.369  23.473  27.498  1.00  0.00    -0.268 OA
ATOM      5  H   UNL A   1      34.515  24.123  26.845  1.00  0.00     0.163 HD
BRANCH   3   6
ATOM      6  C   UNL A   1      31.730  22.881  25.322  1.00  0.00     0.141 C 
ATOM      7  C   UNL A   1      32.060  21.453  24.935  1.00  0.00     0.077 C 
ATOM      8  N   UNL A   1      30.642  23.359  24.800  1.00  0.00    -0.086 NA
BRANCH   8   9
ATOM      9  O   UNL A   1      30.356  24.669  25.149  1.00  0.00    -0.390 OA
BRANCH   9  10
ATOM     10  C   UNL A   1      30.196  25.478  23.971  1.00  0.00     0.302 C 
BRANCH  10  11
ATOM     11  C   UNL A   1      31.477  25.921  23.267  1.00  0.00     0.016 A 
ATOM     12  C   UNL A   1      31.858  25.391  22.018  1.00  0.00     0.009 A 
ATOM     13  C   UNL A   1      32.262  26.957  23.825  1.00  0.00     0.045 A 
ATOM     14  C   UNL A   1      32.961  25.882  21.319  1.00  0.00     0.001 A 
ATOM     15  C   UNL A   1      33.357  27.453  23.094  1.00  0.00     0.026 A 
ATOM     16  C   UNL A   1      33.704  26.923  21.852  1.00  0.00     0.002 A 
BRANCH  13  17
ATOM     17  N   UNL A   1      31.933  27.497  25.087  1.00  0.00    -0.353 N 
ATOM     18  H   UNL A   1      31.747  26.831  25.787  1.00  0.00     0.167 HD
BRANCH  17  19
ATOM     19  C   UNL A   1      31.832  28.846  25.503  1.00  0.00     0.076 A 
ATOM     20  C   UNL A   1      30.928  29.704  24.839  1.00  0.00     0.066 A 
ATOM     21  C   UNL A   1      32.549  29.380  26.592  1.00  0.00     0.066 A 
ATOM     22  Cl  UNL A   1      29.983  29.127  23.505  1.00  0.00    -0.082 Cl
ATOM     23  C   UNL A   1      30.748  31.032  25.239  1.00  0.00     0.023 A 
ATOM     24  C   UNL A   1      32.369  30.711  26.990  1.00  0.00     0.023 A 
ATOM     25  Cl  UNL A   1      33.756  28.472  27.442  1.00  0.00    -0.082 Cl
ATOM     26  C   UNL A   1      31.469  31.535  26.318  1.00  0.00     0.003 A 
ENDBRANCH  17  19
ENDBRANCH  13  17
ENDBRANCH  10  11
ENDBRANCH   9  10
ENDBRANCH   8   9
ENDBRANCH   3   6
ENDBRANCH   1   2
BRANCH   1  27
ATOM     27  C   UNL A   1      36.095  23.585  24.831  1.00  0.00     0.042 C 
BRANCH  27  28
ATOM     28  C   UNL A   1      36.599  23.256  26.234  1.00  0.00     0.118 C 
BRANCH  28  29
ATOM     29  N   UNL A   1      37.783  22.410  26.198  1.00  0.00    -0.352 N 
ATOM     30  C   UNL A   1      39.110  22.740  26.329  1.00  0.00     0.251 C 
ATOM     31  H   UNL A   1      37.605  21.452  26.058  1.00  0.00     0.163 HD
ATOM     32  O   UNL A   1      39.962  21.902  26.041  1.00  0.00    -0.269 OA
BRANCH  30  33
ATOM     33  C   UNL A   1      39.528  24.081  26.806  1.00  0.00     0.039 A 
ATOM     34  C   UNL A   1      39.369  24.390  28.162  1.00  0.00     0.014 A 
ATOM     35  C   UNL A   1      40.014  25.053  25.929  1.00  0.00     0.014 A 
ATOM     36  C   UNL A   1      39.732  25.653  28.641  1.00  0.00     0.010 A 
ATOM     37  C   UNL A   1      40.439  26.288  26.419  1.00  0.00     0.010 A 
ATOM     38  C   UNL A   1      40.292  26.607  27.778  1.00  0.00    -0.014 A 
BRANCH  38  39
ATOM     39  C   UNL A   1      40.734  27.937  28.275  1.00  0.00     0.031 A 
ATOM     40  C   UNL A   1      42.202  28.238  28.446  1.00  0.00     0.074 A 
ATOM     41  C   UNL A   1      39.813  28.842  28.662  1.00  0.00     0.049 A 
ATOM     42  N   UNL A   1      42.772  29.309  28.936  1.00  0.00    -0.248 NA
ATOM     43  C   UNL A   1      43.153  27.189  28.041  1.00  0.00     0.031 C 
ATOM     44  C   UNL A   1      38.363  28.641  28.624  1.00  0.00     0.029 A 
ATOM     45  N   UNL A   1      39.957  30.099  29.198  1.00  0.00    -0.354 N 
ATOM     46  C   UNL A   1      44.137  29.046  28.944  1.00  0.00     0.074 A 
ATOM     47  C   UNL A   1      44.312  27.708  28.423  1.00  0.00     0.031 C 
ATOM     48  C   UNL A   1      37.752  29.726  29.127  1.00  0.00     0.029 A 
ATOM     49  C   UNL A   1      38.764  30.691  29.546  1.00  0.00     0.049 A 
ATOM     50  H   UNL A   1      40.831  30.535  29.321  1.00  0.00     0.167 HD
ATOM     51  C   UNL A   1      45.154  29.854  29.327  1.00  0.00     0.034 A 
ATOM     52  C   UNL A   1      38.513  31.871  30.148  1.00  0.00     0.034 A 
ATOM     53  C   UNL A   1      44.981  31.208  29.779  1.00  0.00     0.049 A 
ATOM     54  C   UNL A   1      39.666  32.774  30.495  1.00  0.00     0.074 A 
ATOM     55  C   UNL A   1      45.956  32.146  30.074  1.00  0.00     0.029 A 
ATOM     56  N   UNL A   1      43.758  31.817  30.007  1.00  0.00    -0.354 N 
ATOM     57  N   UNL A   1      40.950  32.578  30.318  1.00  0.00    -0.248 NA
ATOM     58  C   UNL A   1      39.336  34.080  31.087  1.00  0.00     0.031 C 
ATOM     59  C   UNL A   1      45.322  33.317  30.502  1.00  0.00     0.029 A 
ATOM     60  C   UNL A   1      43.952  33.114  30.451  1.00  0.00     0.049 A 
ATOM     61  H   UNL A   1      42.881  31.390  29.875  1.00  0.00     0.167 HD
ATOM     62  C   UNL A   1      41.576  33.745  30.743  1.00  0.00     0.074 A 
ATOM     63  C   UNL A   1      40.529  34.653  31.162  1.00  0.00     0.031 C 
ATOM     64  C   UNL A   1      42.900  34.031  30.801  1.00  0.00     0.034 A 
BRANCH  51  65
ATOM     65  C   UNL A   1      46.561  29.329  29.221  1.00  0.00     0.023 A 
ATOM     66  C   UNL A   1      47.166  28.733  30.346  1.00  0.00     0.012 A 
ATOM     67  C   UNL A   1      47.242  29.328  27.988  1.00  0.00     0.148 A 
ATOM     68  C   UNL A   1      48.435  28.161  30.250  1.00  0.00     0.002 A 
ATOM     69  C   UNL A   1      48.489  28.721  27.890  1.00  0.00     0.091 A 
ATOM     70  F   UNL A   1      46.656  29.915  26.934  1.00  0.00    -0.205 F 
ATOM     71  C   UNL A   1      49.089  28.144  29.021  1.00  0.00     0.022 A 
BRANCH  69  72
ATOM     72  S   UNL A   1      49.381  28.575  26.337  1.00  0.00     0.127 S 
ATOM     73  O   UNL A   1      50.041  29.877  26.253  1.00  0.00    -0.237 OA
ATOM     74  O   UNL A   1      50.281  27.452  26.607  1.00  0.00    -0.237 OA
ATOM     75  O   UNL A   1      48.377  28.320  25.314  1.00  0.00    -0.744 OA
ENDBRANCH  69  72
ENDBRANCH  51  65
BRANCH  52  76
ATOM     76  C   UNL A   1      37.108  32.295  30.411  1.00  0.00     0.023 A 
ATOM     77  C   UNL A   1      36.514  31.993  31.652  1.00  0.00     0.012 A 
ATOM     78  C   UNL A   1      36.361  32.998  29.447  1.00  0.00     0.148 A 
ATOM     79  C   UNL A   1      35.191  32.347  31.913  1.00  0.00     0.002 A 
ATOM     80  C   UNL A   1      35.060  33.399  29.736  1.00  0.00     0.091 A 
ATOM     81  F   UNL A   1      36.933  33.263  28.264  1.00  0.00    -0.205 F 
ATOM     82  C   UNL A   1      34.467  33.057  30.960  1.00  0.00     0.022 A 
BRANCH  80  83
ATOM     83  S   UNL A   1      34.117  34.439  28.614  1.00  0.00     0.127 S 
ATOM     84  O   UNL A   1      34.939  35.647  28.564  1.00  0.00    -0.237 OA
ATOM     85  O   UNL A   1      34.119  33.644  27.384  1.00  0.00    -0.237 OA
ATOM     86  O   UNL A   1      32.807  34.577  29.228  1.00  0.00    -0.744 OA
ENDBRANCH  80  83
ENDBRANCH  52  76
BRANCH  64  87
ATOM     87  C   UNL A   1      43.301  35.394  31.299  1.00  0.00     0.023 A 
ATOM     88  C   UNL A   1      43.536  35.596  32.672  1.00  0.00     0.012 A 
ATOM     89  C   UNL A   1      43.523  36.451  30.393  1.00  0.00     0.148 A 
ATOM     90  C   UNL A   1      43.956  36.839  33.143  1.00  0.00     0.002 A 
ATOM     91  C   UNL A   1      43.988  37.673  30.865  1.00  0.00     0.091 A 
ATOM     92  F   UNL A   1      43.275  36.244  29.093  1.00  0.00    -0.205 F 
ATOM     93  C   UNL A   1      44.195  37.873  32.239  1.00  0.00     0.022 A 
BRANCH  91  94
ATOM     94  S   UNL A   1      44.414  39.027  29.764  1.00  0.00     0.127 S 
ATOM     95  O   UNL A   1      43.104  39.411  29.242  1.00  0.00    -0.237 OA
ATOM     96  O   UNL A   1      45.014  39.998  30.679  1.00  0.00    -0.237 OA
ATOM     97  O   UNL A   1      45.340  38.471  28.785  1.00  0.00    -0.744 OA
ENDBRANCH  91  94
ENDBRANCH  64  87
ENDBRANCH  38  39
ENDBRANCH  30  33
ENDBRANCH  28  29
ENDBRANCH  27  28
ENDBRANCH   1  27
TORSDOF 18
ENDMDL
MODEL 3
REMARK VINA RESULT:     -11.5      1.837      7.871
REMARK SMILES C/C(=N/OCc1ccccc1Nc1c(Cl)cccc1Cl)C(=O)NCCCNC(=O)c1ccc(-c2c3nc(c(-c4cccc(S(=O)(=O)[O-])c4F)c4ccc([nH]4)c(-c4cccc(S(=O)(=O)[O-])c4F)c4nc(c(-c5cccc(S(=O)(=O)[O-])c5F)c5ccc2[nH]5)C=C4)C=C3)cc1
REMARK SMILES IDX 24 1 23 2 21 3 22 4 2 6 1 7 3 8 4 9 5 10 6 11 7 12 11 13
REMARK SMILES IDX 8 14 10 15 9 16 12 17 13 19 14 20 19 21 15 22 16 23 18 24
REMARK SMILES IDX 20 25 17 26 25 27 26 28 27 29 28 30 29 32 30 33 31 34 92 35
REMARK SMILES IDX 32 36 91 37 33 38 34 39 35 40 85 41 36 42 90 43 84 44 86 45
REMARK SMILES IDX 37 46 89 47 83 48 82 49 38 51 70 52 50 53 69 54 51 55 54 56
REMARK SMILES IDX 68 57 87 58 52 59 53 60 67 62 88 63 55 64 39 65 40 66 48 67
REMARK SMILES IDX 41 68 43 69 49 70 42 71 44 72 45 73 46 74 47 75 71 76 72 77
REMARK SMILES IDX 80 78 73 79 75 80 81 81 74 82 76 83 77 84 78 85 79 86 56 87
REMARK SMILES IDX 57 88 65 89 58 90 60 91 66 92 59 93 61 94 62 95 63 96 64 97
REMARK H PARENT 23 5 12 18 27 31 86 50 54 61
REMARK Flexibility Score: inf
ROOT
ATOM      1  C   UNL A   1      31.445  27.725  25.519  1.00  0.00     0.118 C 
ENDROOT
BRANCH   1   2
ATOM      2  N   UNL A   1      30.841  27.944  24.219  1.00  0.00    -0.351 N 
ATOM      3  C   UNL A   1      31.304  27.791  22.936  1.00  0.00     0.268 C 
ATOM      4  O   UNL A   1      30.562  28.167  22.025  1.00  0.00    -0.268 OA
ATOM      5  H   UNL A   1      29.913  28.266  24.266  1.00  0.00     0.163 HD
BRANCH   3   6
ATOM      6  C   UNL A   1      32.582  27.081  22.508  1.00  0.00     0.141 C 
ATOM      7  C   UNL A   1      33.802  27.979  22.492  1.00  0.00     0.077 C 
ATOM      8  N   UNL A   1      32.805  25.837  22.208  1.00  0.00    -0.086 NA
BRANCH   8   9
ATOM      9  O   UNL A   1      31.681  25.027  22.212  1.00  0.00    -0.390 OA
BRANCH   9  10
ATOM     10  C   UNL A   1      31.990  23.746  22.788  1.00  0.00     0.302 C 
BRANCH  10  11
ATOM     11  C   UNL A   1      31.789  23.609  24.296  1.00  0.00     0.016 A 
ATOM     12  C   UNL A   1      30.768  24.302  24.975  1.00  0.00     0.009 A 
ATOM     13  C   UNL A   1      32.581  22.694  25.029  1.00  0.00     0.045 A 
ATOM     14  C   UNL A   1      30.507  24.084  26.328  1.00  0.00     0.001 A 
ATOM     15  C   UNL A   1      32.287  22.472  26.387  1.00  0.00     0.026 A 
ATOM     16  C   UNL A   1      31.260  23.159  27.032  1.00  0.00     0.002 A 
BRANCH  13  17
ATOM     17  N   UNL A   1      33.634  21.999  24.396  1.00  0.00    -0.353 N 
ATOM     18  H   UNL A   1      33.365  21.451  23.624  1.00  0.00     0.167 HD
BRANCH  17  19
ATOM     19  C   UNL A   1      35.017  21.968  24.697  1.00  0.00     0.076 A 
ATOM     20  C   UNL A   1      35.657  20.721  24.861  1.00  0.00     0.066 A 
ATOM     21  C   UNL A   1      35.817  23.124  24.792  1.00  0.00     0.066 A 
ATOM     22  Cl  UNL A   1      34.758  19.244  24.736  1.00  0.00    -0.082 Cl
ATOM     23  C   UNL A   1      37.030  20.628  25.109  1.00  0.00     0.023 A 
ATOM     24  C   UNL A   1      37.193  23.029  25.042  1.00  0.00     0.023 A 
ATOM     25  Cl  UNL A   1      35.153  24.723  24.702  1.00  0.00    -0.082 Cl
ATOM     26  C   UNL A   1      37.799  21.785  25.198  1.00  0.00     0.003 A 
ENDBRANCH  17  19
ENDBRANCH  13  17
ENDBRANCH  10  11
ENDBRANCH   9  10
ENDBRANCH   8   9
ENDBRANCH   3   6
ENDBRANCH   1   2
BRANCH   1  27
ATOM     27  C   UNL A   1      31.512  29.028  26.324  1.00  0.00     0.042 C 
BRANCH  27  28
ATOM     28  C   UNL A   1      32.518  30.040  25.782  1.00  0.00     0.118 C 
BRANCH  28  29
ATOM     29  N   UNL A   1      32.137  31.406  26.106  1.00  0.00    -0.352 N 
ATOM     30  C   UNL A   1      32.643  32.264  27.053  1.00  0.00     0.251 C 
ATOM     31  H   UNL A   1      31.403  31.774  25.563  1.00  0.00     0.163 HD
ATOM     32  O   UNL A   1      32.024  33.294  27.312  1.00  0.00    -0.269 OA
BRANCH  30  33
ATOM     33  C   UNL A   1      33.910  31.968  27.764  1.00  0.00     0.039 A 
ATOM     34  C   UNL A   1      34.108  30.680  28.273  1.00  0.00     0.014 A 
ATOM     35  C   UNL A   1      34.873  32.955  27.990  1.00  0.00     0.014 A 
ATOM     36  C   UNL A   1      35.282  30.373  28.969  1.00  0.00     0.010 A 
ATOM     37  C   UNL A   1      36.072  32.631  28.624  1.00  0.00     0.010 A 
ATOM     38  C   UNL A   1      36.286  31.340  29.132  1.00  0.00    -0.014 A 
BRANCH  38  39
ATOM     39  C   UNL A   1      37.565  31.022  29.822  1.00  0.00     0.031 A 
ATOM     40  C   UNL A   1      38.606  30.168  29.143  1.00  0.00     0.074 A 
ATOM     41  C   UNL A   1      37.749  31.422  31.096  1.00  0.00     0.049 A 
ATOM     42  N   UNL A   1      39.742  29.725  29.614  1.00  0.00    -0.248 NA
ATOM     43  C   UNL A   1      38.320  29.732  27.765  1.00  0.00     0.031 C 
ATOM     44  C   UNL A   1      36.783  32.182  31.892  1.00  0.00     0.029 A 
ATOM     45  N   UNL A   1      38.797  31.214  31.961  1.00  0.00    -0.354 N 
ATOM     46  C   UNL A   1      40.283  28.922  28.617  1.00  0.00     0.074 A 
ATOM     47  C   UNL A   1      39.344  28.926  27.517  1.00  0.00     0.031 C 
ATOM     48  C   UNL A   1      37.275  32.365  33.128  1.00  0.00     0.029 A 
ATOM     49  C   UNL A   1      38.579  31.716  33.224  1.00  0.00     0.049 A 
ATOM     50  H   UNL A   1      39.626  30.751  31.700  1.00  0.00     0.167 HD
ATOM     51  C   UNL A   1      41.466  28.262  28.607  1.00  0.00     0.034 A 
ATOM     52  C   UNL A   1      39.336  31.649  34.337  1.00  0.00     0.034 A 
ATOM     53  C   UNL A   1      42.428  28.315  29.674  1.00  0.00     0.049 A 
ATOM     54  C   UNL A   1      40.676  30.967  34.270  1.00  0.00     0.074 A 
ATOM     55  C   UNL A   1      43.703  27.780  29.707  1.00  0.00     0.029 A 
ATOM     56  N   UNL A   1      42.221  28.934  30.896  1.00  0.00    -0.354 N 
ATOM     57  N   UNL A   1      41.249  30.373  33.251  1.00  0.00    -0.248 NA
ATOM     58  C   UNL A   1      41.494  30.981  35.492  1.00  0.00     0.031 C 
ATOM     59  C   UNL A   1      44.262  28.057  30.960  1.00  0.00     0.029 A 
ATOM     60  C   UNL A   1      43.341  28.784  31.697  1.00  0.00     0.049 A 
ATOM     61  H   UNL A   1      41.399  29.410  31.157  1.00  0.00     0.167 HD
ATOM     62  C   UNL A   1      42.504  29.975  33.699  1.00  0.00     0.074 A 
ATOM     63  C   UNL A   1      42.618  30.418  35.073  1.00  0.00     0.031 C 
ATOM     64  C   UNL A   1      43.467  29.287  33.038  1.00  0.00     0.034 A 
BRANCH  51  65
ATOM     65  C   UNL A   1      41.828  27.465  27.381  1.00  0.00     0.023 A 
ATOM     66  C   UNL A   1      42.342  28.128  26.249  1.00  0.00     0.012 A 
ATOM     67  C   UNL A   1      41.763  26.058  27.389  1.00  0.00     0.148 A 
ATOM     68  C   UNL A   1      42.766  27.405  25.135  1.00  0.00     0.002 A 
ATOM     69  C   UNL A   1      42.225  25.342  26.290  1.00  0.00     0.091 A 
ATOM     70  F   UNL A   1      41.256  25.447  28.469  1.00  0.00    -0.205 F 
ATOM     71  C   UNL A   1      42.719  26.013  25.160  1.00  0.00     0.022 A 
BRANCH  69  72
ATOM     72  S   UNL A   1      42.282  23.546  26.253  1.00  0.00     0.127 S 
ATOM     73  O   UNL A   1      42.766  23.294  24.897  1.00  0.00    -0.237 OA
ATOM     74  O   UNL A   1      43.250  23.249  27.310  1.00  0.00    -0.237 OA
ATOM     75  O   UNL A   1      40.925  23.091  26.522  1.00  0.00    -0.744 OA
ENDBRANCH  69  72
ENDBRANCH  51  65
BRANCH  52  76
ATOM     76  C   UNL A   1      38.872  32.292  35.599  1.00  0.00     0.023 A 
ATOM     77  C   UNL A   1      39.042  33.679  35.773  1.00  0.00     0.012 A 
ATOM     78  C   UNL A   1      38.258  31.543  36.622  1.00  0.00     0.148 A 
ATOM     79  C   UNL A   1      38.647  34.302  36.958  1.00  0.00     0.002 A 
ATOM     80  C   UNL A   1      37.815  32.180  37.777  1.00  0.00     0.091 A 
ATOM     81  F   UNL A   1      38.120  30.221  36.450  1.00  0.00    -0.205 F 
ATOM     82  C   UNL A   1      38.027  33.555  37.955  1.00  0.00     0.022 A 
BRANCH  80  83
ATOM     83  S   UNL A   1      36.881  31.310  39.041  1.00  0.00     0.127 S 
ATOM     84  O   UNL A   1      35.651  32.098  39.100  1.00  0.00    -0.237 OA
ATOM     85  O   UNL A   1      36.730  29.979  38.449  1.00  0.00    -0.237 OA
ATOM     86  O   UNL A   1      37.721  31.339  40.227  1.00  0.00    -0.744 OA
ENDBRANCH  80  83
ENDBRANCH  52  76
BRANCH  64  87
ATOM     87  C   UNL A   1      44.750  28.999  33.772  1.00  0.00     0.023 A 
ATOM     88  C   UNL A   1      45.769  29.970  33.808  1.00  0.00     0.012 A 
ATOM     89  C   UNL A   1      44.910  27.798  34.493  1.00  0.00     0.148 A 
ATOM     90  C   UNL A   1      46.943  29.739  34.524  1.00  0.00     0.002 A 
ATOM     91  C   UNL A   1      46.062  27.596  35.244  1.00  0.00     0.091 A 
ATOM     92  F   UNL A   1      43.937  26.879  34.431  1.00  0.00    -0.205 F 
ATOM     93  C   UNL A   1      47.083  28.559  35.253  1.00  0.00     0.022 A 
BRANCH  91  94
ATOM     94  S   UNL A   1      46.285  26.151  36.288  1.00  0.00     0.127 S 
ATOM     95  O   UNL A   1      45.065  26.173  37.094  1.00  0.00    -0.237 OA
ATOM     96  O   UNL A   1      46.350  25.066  35.309  1.00  0.00    -0.237 OA
ATOM     97  O   UNL A   1      47.524  26.374  37.021  1.00  0.00    -0.744 OA
ENDBRANCH  91  94
ENDBRANCH  64  87
ENDBRANCH  38  39
ENDBRANCH  30  33
ENDBRANCH  28  29
ENDBRANCH  27  28
ENDBRANCH   1  27
TORSDOF 18
ENDMDL
