MODEL 1
REMARK VINA RESULT:     -11.5      0.000      0.000
REMARK SMILES CCc1cccc(CC)c1N1/C(=[NH+]/C(=O)CCC(=O)NCCCNC(=O)c2ccc(-c3c4nc(c(-c5cccc(S(=O)(=O)[O-])c5F)c5ccc([nH]5)c(-c5cccc(S(=O)(=O)[O-])c5F)c5nc(c(-c6cccc(S(=O)(=O)[O-])c6F)c6ccc3[nH]6)C=C5)C=C4)cc2)S[C@@H]2CS(=O)(=O)C[C@H]21
REMARK SMILES IDX 21 1 20 2 18 3 19 4 17 6 16 7 14 8 11 9 12 10 97 11 13 12
REMARK SMILES IDX 90 13 91 14 96 15 92 17 93 18 15 19 94 20 95 21 10 22 3 23
REMARK SMILES IDX 4 24 5 25 7 26 6 27 2 28 1 29 8 30 9 31 22 32 23 33 24 34
REMARK SMILES IDX 25 35 26 37 27 38 28 39 89 40 29 41 88 42 30 43 31 44 32 45
REMARK SMILES IDX 82 46 33 47 87 48 81 49 83 50 34 51 86 52 80 53 79 54 35 56
REMARK SMILES IDX 67 57 47 58 66 59 48 60 51 61 65 62 84 63 49 64 50 65 64 67
REMARK SMILES IDX 85 68 52 69 36 70 37 71 45 72 38 73 40 74 46 75 39 76 41 77
REMARK SMILES IDX 42 78 43 79 44 80 68 81 69 82 77 83 70 84 72 85 78 86 71 87
REMARK SMILES IDX 73 88 74 89 75 90 76 91 53 92 54 93 62 94 55 95 57 96 63 97
REMARK SMILES IDX 56 98 58 99 59 100 60 101 61 102
REMARK H PARENT 20 5 13 16 24 36 83 55 51 66
REMARK Flexibility Score: inf
ROOT
ATOM      1  C   UNL A   1      33.650  20.404  25.805  1.00  0.00     0.117 C 
ENDROOT
BRANCH   1   2
ATOM      2  N   UNL A   1      33.180  21.626  26.476  1.00  0.00    -0.356 N 
ATOM      3  C   UNL A   1      32.087  22.441  26.351  1.00  0.00     0.220 C 
ATOM      4  O   UNL A   1      31.820  23.176  27.308  1.00  0.00    -0.275 OA
ATOM      5  H   UNL A   1      33.798  21.928  27.180  1.00  0.00     0.163 HD
BRANCH   3   6
ATOM      6  C   UNL A   1      31.210  22.528  25.119  1.00  0.00     0.112 C 
BRANCH   6   7
ATOM      7  C   UNL A   1      31.883  23.388  24.045  1.00  0.00     0.138 C 
BRANCH   7   8
ATOM      8  C   UNL A   1      31.023  24.598  23.955  1.00  0.00     0.308 C 
ATOM      9  N   UNL A   1      31.265  28.064  24.723  1.00  0.00    -0.216 N 
ATOM     10  C   UNL A   1      30.837  26.738  24.704  1.00  0.00     0.319 C 
ATOM     11  C   UNL A   1      30.321  28.758  23.769  1.00  0.00     0.212 C 
ATOM     12  N   UNL A   1      31.594  25.716  24.503  1.00  0.00    -0.204 N 
ATOM     13  S   UNL A   1      29.040  26.664  24.650  1.00  0.00    -0.029 SA
ATOM     14  C   UNL A   1      28.874  28.311  24.009  1.00  0.00     0.120 C 
ATOM     15  C   UNL A   1      30.085  30.175  23.432  1.00  0.00     0.188 C 
ATOM     16  H   UNL A   1      32.550  25.737  24.736  1.00  0.00     0.316 HD
ATOM     17  C   UNL A   1      28.156  28.541  22.670  1.00  0.00     0.156 C 
ATOM     18  S   UNL A   1      28.799  30.137  22.171  1.00  0.00     0.155 S 
ATOM     19  O   UNL A   1      30.074  24.574  23.168  1.00  0.00    -0.247 OA
ATOM     20  O   UNL A   1      27.829  31.189  22.431  1.00  0.00    -0.229 OA
ATOM     21  O   UNL A   1      29.431  30.024  20.879  1.00  0.00    -0.229 OA
BRANCH   9  22
ATOM     22  C   UNL A   1      32.337  28.506  25.543  1.00  0.00     0.134 A 
ATOM     23  C   UNL A   1      32.332  29.516  26.595  1.00  0.00    -0.001 A 
ATOM     24  C   UNL A   1      33.512  29.794  27.366  1.00  0.00     0.008 A 
ATOM     25  C   UNL A   1      34.743  29.277  27.051  1.00  0.00     0.001 A 
ATOM     26  C   UNL A   1      33.652  28.035  25.231  1.00  0.00    -0.001 A 
ATOM     27  C   UNL A   1      34.812  28.438  25.966  1.00  0.00     0.008 A 
BRANCH  23  28
ATOM     28  C   UNL A   1      31.257  30.489  27.075  1.00  0.00     0.036 C 
ATOM     29  C   UNL A   1      31.381  31.903  26.520  1.00  0.00     0.009 C 
ENDBRANCH  23  28
BRANCH  26  30
ATOM     30  C   UNL A   1      33.969  27.125  24.062  1.00  0.00     0.036 C 
ATOM     31  C   UNL A   1      34.039  27.893  22.752  1.00  0.00     0.009 C 
ENDBRANCH  26  30
ENDBRANCH   9  22
ENDBRANCH   7   8
ENDBRANCH   6   7
ENDBRANCH   3   6
ENDBRANCH   1   2
BRANCH   1  32
ATOM     32  C   UNL A   1      34.740  20.487  24.662  1.00  0.00     0.042 C 
BRANCH  32  33
ATOM     33  C   UNL A   1      36.302  20.334  24.933  1.00  0.00     0.118 C 
BRANCH  33  34
ATOM     34  N   UNL A   1      37.294  21.473  24.892  1.00  0.00    -0.352 N 
ATOM     35  C   UNL A   1      38.561  21.399  25.597  1.00  0.00     0.251 C 
ATOM     36  H   UNL A   1      37.076  22.282  24.375  1.00  0.00     0.163 HD
ATOM     37  O   UNL A   1      39.205  20.351  25.582  1.00  0.00    -0.269 OA
BRANCH  35  38
ATOM     38  C   UNL A   1      39.040  22.563  26.564  1.00  0.00     0.039 A 
ATOM     39  C   UNL A   1      40.222  22.602  27.335  1.00  0.00     0.014 A 
ATOM     40  C   UNL A   1      38.362  23.788  26.513  1.00  0.00     0.014 A 
ATOM     41  C   UNL A   1      40.809  23.858  27.803  1.00  0.00     0.010 A 
ATOM     42  C   UNL A   1      38.944  25.024  26.976  1.00  0.00     0.010 A 
ATOM     43  C   UNL A   1      40.232  25.122  27.544  1.00  0.00    -0.014 A 
BRANCH  43  44
ATOM     44  C   UNL A   1      40.889  26.515  27.824  1.00  0.00     0.031 A 
ATOM     45  C   UNL A   1      42.335  26.758  27.411  1.00  0.00     0.074 A 
ATOM     46  C   UNL A   1      40.355  27.552  28.544  1.00  0.00     0.049 A 
ATOM     47  N   UNL A   1      43.095  27.815  27.595  1.00  0.00    -0.248 NA
ATOM     48  C   UNL A   1      43.011  25.654  26.724  1.00  0.00     0.031 C 
ATOM     49  C   UNL A   1      39.026  27.594  29.122  1.00  0.00     0.029 A 
ATOM     50  N   UNL A   1      40.879  28.784  28.952  1.00  0.00    -0.354 N 
ATOM     51  C   UNL A   1      44.342  27.495  27.073  1.00  0.00     0.074 A 
ATOM     52  C   UNL A   1      44.246  26.121  26.617  1.00  0.00     0.031 C 
ATOM     53  C   UNL A   1      38.836  28.726  29.825  1.00  0.00     0.029 A 
ATOM     54  C   UNL A   1      40.034  29.553  29.749  1.00  0.00     0.049 A 
ATOM     55  H   UNL A   1      41.780  29.087  28.694  1.00  0.00     0.167 HD
ATOM     56  C   UNL A   1      45.461  28.252  26.930  1.00  0.00     0.034 A 
ATOM     57  C   UNL A   1      40.155  30.772  30.341  1.00  0.00     0.034 A 
ATOM     58  C   UNL A   1      45.625  29.628  27.324  1.00  0.00     0.049 A 
ATOM     59  C   UNL A   1      41.413  31.606  30.168  1.00  0.00     0.074 A 
ATOM     60  C   UNL A   1      46.712  30.459  27.094  1.00  0.00     0.029 A 
ATOM     61  N   UNL A   1      44.713  30.373  28.047  1.00  0.00    -0.354 N 
ATOM     62  N   UNL A   1      42.485  31.342  29.467  1.00  0.00    -0.248 NA
ATOM     63  C   UNL A   1      41.459  32.928  30.832  1.00  0.00     0.031 C 
ATOM     64  C   UNL A   1      46.473  31.692  27.708  1.00  0.00     0.029 A 
ATOM     65  C   UNL A   1      45.219  31.643  28.287  1.00  0.00     0.049 A 
ATOM     66  H   UNL A   1      43.832  30.050  28.348  1.00  0.00     0.167 HD
ATOM     67  C   UNL A   1      43.299  32.471  29.566  1.00  0.00     0.074 A 
ATOM     68  C   UNL A   1      42.598  33.435  30.378  1.00  0.00     0.031 C 
ATOM     69  C   UNL A   1      44.529  32.666  29.031  1.00  0.00     0.034 A 
BRANCH  56  70
ATOM     70  C   UNL A   1      46.630  27.597  26.237  1.00  0.00     0.023 A 
ATOM     71  C   UNL A   1      46.733  27.686  24.833  1.00  0.00     0.012 A 
ATOM     72  C   UNL A   1      47.628  26.927  26.966  1.00  0.00     0.148 A 
ATOM     73  C   UNL A   1      47.775  27.056  24.159  1.00  0.00     0.002 A 
ATOM     74  C   UNL A   1      48.695  26.348  26.290  1.00  0.00     0.091 A 
ATOM     75  F   UNL A   1      47.510  26.854  28.300  1.00  0.00    -0.205 F 
ATOM     76  C   UNL A   1      48.758  26.394  24.888  1.00  0.00     0.022 A 
BRANCH  74  77
ATOM     77  S   UNL A   1      50.061  25.548  27.137  1.00  0.00     0.127 S 
ATOM     78  O   UNL A   1      49.420  24.333  27.641  1.00  0.00    -0.237 OA
ATOM     79  O   UNL A   1      51.009  25.328  26.045  1.00  0.00    -0.237 OA
ATOM     80  O   UNL A   1      50.509  26.486  28.156  1.00  0.00    -0.744 OA
ENDBRANCH  74  77
ENDBRANCH  56  70
BRANCH  57  81
ATOM     81  C   UNL A   1      39.030  31.384  31.142  1.00  0.00     0.023 A 
ATOM     82  C   UNL A   1      38.966  31.155  32.535  1.00  0.00     0.012 A 
ATOM     83  C   UNL A   1      37.971  32.087  30.530  1.00  0.00     0.148 A 
ATOM     84  C   UNL A   1      37.858  31.560  33.288  1.00  0.00     0.002 A 
ATOM     85  C   UNL A   1      36.893  32.535  31.296  1.00  0.00     0.091 A 
ATOM     86  F   UNL A   1      38.027  32.286  29.207  1.00  0.00    -0.205 F 
ATOM     87  C   UNL A   1      36.824  32.252  32.670  1.00  0.00     0.022 A 
BRANCH  85  88
ATOM     88  S   UNL A   1      35.551  33.521  30.619  1.00  0.00     0.127 S 
ATOM     89  O   UNL A   1      35.294  34.469  31.700  1.00  0.00    -0.237 OA
ATOM     90  O   UNL A   1      36.180  34.097  29.430  1.00  0.00    -0.237 OA
ATOM     91  O   UNL A   1      34.475  32.578  30.341  1.00  0.00    -0.744 OA
ENDBRANCH  85  88
ENDBRANCH  57  81
BRANCH  69  92
ATOM     92  C   UNL A   1      45.226  33.994  29.234  1.00  0.00     0.023 A 
ATOM     93  C   UNL A   1      46.113  34.173  30.313  1.00  0.00     0.012 A 
ATOM     94  C   UNL A   1      45.088  35.030  28.286  1.00  0.00     0.148 A 
ATOM     95  C   UNL A   1      46.836  35.362  30.454  1.00  0.00     0.002 A 
ATOM     96  C   UNL A   1      45.846  36.192  28.405  1.00  0.00     0.091 A 
ATOM     97  F   UNL A   1      44.226  34.857  27.273  1.00  0.00    -0.205 F 
ATOM     98  C   UNL A   1      46.713  36.363  29.495  1.00  0.00     0.022 A 
BRANCH  96  99
ATOM     99  S   UNL A   1      45.831  37.497  27.167  1.00  0.00     0.127 S 
ATOM    100  O   UNL A   1      46.566  38.562  27.847  1.00  0.00    -0.237 OA
ATOM    101  O   UNL A   1      46.548  36.875  26.054  1.00  0.00    -0.237 OA
ATOM    102  O   UNL A   1      44.427  37.784  26.900  1.00  0.00    -0.744 OA
ENDBRANCH  96  99
ENDBRANCH  69  92
ENDBRANCH  43  44
ENDBRANCH  35  38
ENDBRANCH  33  34
ENDBRANCH  32  33
ENDBRANCH   1  32
TORSDOF 18
ENDMDL
MODEL 2
REMARK VINA RESULT:     -11.4      1.620      2.740
REMARK SMILES CCc1cccc(CC)c1N1/C(=[NH+]/C(=O)CCC(=O)NCCCNC(=O)c2ccc(-c3c4nc(c(-c5cccc(S(=O)(=O)[O-])c5F)c5ccc([nH]5)c(-c5cccc(S(=O)(=O)[O-])c5F)c5nc(c(-c6cccc(S(=O)(=O)[O-])c6F)c6ccc3[nH]6)C=C5)C=C4)cc2)S[C@@H]2CS(=O)(=O)C[C@H]21
REMARK SMILES IDX 21 1 20 2 18 3 19 4 17 6 16 7 14 8 11 9 12 10 97 11 13 12
REMARK SMILES IDX 90 13 91 14 96 15 92 17 93 18 15 19 94 20 95 21 10 22 3 23
REMARK SMILES IDX 4 24 5 25 7 26 6 27 2 28 1 29 8 30 9 31 22 32 23 33 24 34
REMARK SMILES IDX 25 35 26 37 27 38 28 39 89 40 29 41 88 42 30 43 31 44 32 45
REMARK SMILES IDX 82 46 33 47 87 48 81 49 83 50 34 51 86 52 80 53 79 54 35 56
REMARK SMILES IDX 67 57 47 58 66 59 48 60 51 61 65 62 84 63 49 64 50 65 64 67
REMARK SMILES IDX 85 68 52 69 36 70 37 71 45 72 38 73 40 74 46 75 39 76 41 77
REMARK SMILES IDX 42 78 43 79 44 80 68 81 69 82 77 83 70 84 72 85 78 86 71 87
REMARK SMILES IDX 73 88 74 89 75 90 76 91 53 92 54 93 62 94 55 95 57 96 63 97
REMARK SMILES IDX 56 98 58 99 59 100 60 101 61 102
REMARK H PARENT 20 5 13 16 24 36 83 55 51 66
REMARK Flexibility Score: inf
ROOT
ATOM      1  C   UNL A   1      34.171  20.280  25.816  1.00  0.00     0.117 C 
ENDROOT
BRANCH   1   2
ATOM      2  N   UNL A   1      33.792  21.652  26.188  1.00  0.00    -0.356 N 
ATOM      3  C   UNL A   1      32.939  22.594  25.677  1.00  0.00     0.220 C 
ATOM      4  O   UNL A   1      32.590  23.507  26.434  1.00  0.00    -0.275 OA
ATOM      5  H   UNL A   1      34.264  21.967  26.992  1.00  0.00     0.163 HD
BRANCH   3   6
ATOM      6  C   UNL A   1      32.425  22.613  24.252  1.00  0.00     0.112 C 
BRANCH   6   7
ATOM      7  C   UNL A   1      33.513  23.115  23.299  1.00  0.00     0.138 C 
BRANCH   7   8
ATOM      8  C   UNL A   1      33.690  24.545  23.666  1.00  0.00     0.308 C 
ATOM      9  N   UNL A   1      31.627  27.337  24.446  1.00  0.00    -0.216 N 
ATOM     10  C   UNL A   1      32.567  26.517  23.826  1.00  0.00     0.319 C 
ATOM     11  C   UNL A   1      32.460  28.218  25.347  1.00  0.00     0.212 C 
ATOM     12  N   UNL A   1      32.509  25.232  23.769  1.00  0.00    -0.204 N 
ATOM     13  S   UNL A   1      34.045  27.460  23.420  1.00  0.00    -0.029 SA
ATOM     14  C   UNL A   1      33.706  28.729  24.614  1.00  0.00     0.120 C 
ATOM     15  C   UNL A   1      32.153  29.409  26.163  1.00  0.00     0.188 C 
ATOM     16  H   UNL A   1      31.646  24.760  23.797  1.00  0.00     0.316 HD
ATOM     17  C   UNL A   1      34.729  29.030  25.720  1.00  0.00     0.156 C 
ATOM     18  S   UNL A   1      33.712  29.833  26.958  1.00  0.00     0.155 S 
ATOM     19  O   UNL A   1      34.779  24.892  24.128  1.00  0.00    -0.247 OA
ATOM     20  O   UNL A   1      33.901  31.275  26.926  1.00  0.00    -0.229 OA
ATOM     21  O   UNL A   1      33.801  29.110  28.204  1.00  0.00    -0.229 OA
BRANCH   9  22
ATOM     22  C   UNL A   1      30.239  27.261  24.153  1.00  0.00     0.134 A 
ATOM     23  C   UNL A   1      29.441  28.102  23.269  1.00  0.00    -0.001 A 
ATOM     24  C   UNL A   1      28.045  27.837  23.050  1.00  0.00     0.008 A 
ATOM     25  C   UNL A   1      27.341  26.916  23.782  1.00  0.00     0.001 A 
ATOM     26  C   UNL A   1      29.446  26.350  24.920  1.00  0.00    -0.001 A 
ATOM     27  C   UNL A   1      28.034  26.211  24.736  1.00  0.00     0.008 A 
BRANCH  23  28
ATOM     28  C   UNL A   1      29.774  29.368  22.483  1.00  0.00     0.036 C 
ATOM     29  C   UNL A   1      28.863  30.556  22.768  1.00  0.00     0.009 C 
ENDBRANCH  23  28
BRANCH  26  30
ATOM     30  C   UNL A   1      29.992  25.492  26.043  1.00  0.00     0.036 C 
ATOM     31  C   UNL A   1      28.929  24.571  26.618  1.00  0.00     0.009 C 
ENDBRANCH  26  30
ENDBRANCH   9  22
ENDBRANCH   7   8
ENDBRANCH   6   7
ENDBRANCH   3   6
ENDBRANCH   1   2
BRANCH   1  32
ATOM     32  C   UNL A   1      35.189  20.023  24.634  1.00  0.00     0.042 C 
BRANCH  32  33
ATOM     33  C   UNL A   1      36.761  19.886  24.850  1.00  0.00     0.118 C 
BRANCH  33  34
ATOM     34  N   UNL A   1      37.728  21.047  24.857  1.00  0.00    -0.352 N 
ATOM     35  C   UNL A   1      38.928  21.027  25.676  1.00  0.00     0.251 C 
ATOM     36  H   UNL A   1      37.542  21.833  24.295  1.00  0.00     0.163 HD
ATOM     37  O   UNL A   1      39.592  19.994  25.756  1.00  0.00    -0.269 OA
BRANCH  35  38
ATOM     38  C   UNL A   1      39.294  22.233  26.640  1.00  0.00     0.039 A 
ATOM     39  C   UNL A   1      40.411  22.336  27.495  1.00  0.00     0.014 A 
ATOM     40  C   UNL A   1      38.580  23.431  26.501  1.00  0.00     0.014 A 
ATOM     41  C   UNL A   1      40.919  23.625  27.967  1.00  0.00     0.010 A 
ATOM     42  C   UNL A   1      39.084  24.700  26.969  1.00  0.00     0.010 A 
ATOM     43  C   UNL A   1      40.321  24.860  27.627  1.00  0.00    -0.014 A 
BRANCH  43  44
ATOM     44  C   UNL A   1      40.908  26.282  27.914  1.00  0.00     0.031 A 
ATOM     45  C   UNL A   1      42.324  26.613  27.462  1.00  0.00     0.074 A 
ATOM     46  C   UNL A   1      40.339  27.275  28.667  1.00  0.00     0.049 A 
ATOM     47  N   UNL A   1      43.029  27.708  27.643  1.00  0.00    -0.248 NA
ATOM     48  C   UNL A   1      43.040  25.560  26.735  1.00  0.00     0.031 C 
ATOM     49  C   UNL A   1      39.028  27.234  29.286  1.00  0.00     0.029 A 
ATOM     50  N   UNL A   1      40.806  28.529  29.082  1.00  0.00    -0.354 N 
ATOM     51  C   UNL A   1      44.277  27.468  27.078  1.00  0.00     0.074 A 
ATOM     52  C   UNL A   1      44.243  26.098  26.600  1.00  0.00     0.031 C 
ATOM     53  C   UNL A   1      38.797  28.341  30.015  1.00  0.00     0.029 A 
ATOM     54  C   UNL A   1      39.945  29.235  29.918  1.00  0.00     0.049 A 
ATOM     55  H   UNL A   1      41.680  28.886  28.804  1.00  0.00     0.167 HD
ATOM     56  C   UNL A   1      45.347  28.289  26.916  1.00  0.00     0.034 A 
ATOM     57  C   UNL A   1      40.016  30.450  30.529  1.00  0.00     0.034 A 
ATOM     58  C   UNL A   1      45.445  29.665  27.330  1.00  0.00     0.049 A 
ATOM     59  C   UNL A   1      41.219  31.355  30.334  1.00  0.00     0.074 A 
ATOM     60  C   UNL A   1      46.477  30.559  27.083  1.00  0.00     0.029 A 
ATOM     61  N   UNL A   1      44.516  30.345  28.093  1.00  0.00    -0.354 N 
ATOM     62  N   UNL A   1      42.282  31.164  29.596  1.00  0.00    -0.248 NA
ATOM     63  C   UNL A   1      41.211  32.667  31.020  1.00  0.00     0.031 C 
ATOM     64  C   UNL A   1      46.188  31.766  27.726  1.00  0.00     0.029 A 
ATOM     65  C   UNL A   1      44.957  31.638  28.341  1.00  0.00     0.049 A 
ATOM     66  H   UNL A   1      43.664  29.969  28.415  1.00  0.00     0.167 HD
ATOM     67  C   UNL A   1      43.035  32.335  29.691  1.00  0.00     0.074 A 
ATOM     68  C   UNL A   1      42.306  33.244  30.541  1.00  0.00     0.031 C 
ATOM     69  C   UNL A   1      44.235  32.608  29.124  1.00  0.00     0.034 A 
BRANCH  56  70
ATOM     70  C   UNL A   1      46.528  27.712  26.177  1.00  0.00     0.023 A 
ATOM     71  C   UNL A   1      46.623  27.900  24.782  1.00  0.00     0.012 A 
ATOM     72  C   UNL A   1      47.545  27.018  26.855  1.00  0.00     0.148 A 
ATOM     73  C   UNL A   1      47.677  27.343  24.063  1.00  0.00     0.002 A 
ATOM     74  C   UNL A   1      48.624  26.514  26.138  1.00  0.00     0.091 A 
ATOM     75  F   UNL A   1      47.435  26.851  28.181  1.00  0.00    -0.205 F 
ATOM     76  C   UNL A   1      48.679  26.657  24.742  1.00  0.00     0.022 A 
BRANCH  74  77
ATOM     77  S   UNL A   1      50.013  25.692  26.924  1.00  0.00     0.127 S 
ATOM     78  O   UNL A   1      50.937  25.542  25.801  1.00  0.00    -0.237 OA
ATOM     79  O   UNL A   1      50.423  26.676  27.925  1.00  0.00    -0.237 OA
ATOM     80  O   UNL A   1      49.488  24.448  27.470  1.00  0.00    -0.744 OA
ENDBRANCH  74  77
ENDBRANCH  56  70
BRANCH  57  81
ATOM     81  C   UNL A   1      38.883  30.984  31.373  1.00  0.00     0.023 A 
ATOM     82  C   UNL A   1      38.912  30.792  32.774  1.00  0.00     0.012 A 
ATOM     83  C   UNL A   1      37.735  31.571  30.803  1.00  0.00     0.148 A 
ATOM     84  C   UNL A   1      37.814  31.121  33.575  1.00  0.00     0.002 A 
ATOM     85  C   UNL A   1      36.662  31.946  31.615  1.00  0.00     0.091 A 
ATOM     86  F   UNL A   1      37.704  31.734  29.473  1.00  0.00    -0.205 F 
ATOM     87  C   UNL A   1      36.691  31.700  32.996  1.00  0.00     0.022 A 
BRANCH  85  88
ATOM     88  S   UNL A   1      35.204  32.788  30.986  1.00  0.00     0.127 S 
ATOM     89  O   UNL A   1      34.341  32.822  32.164  1.00  0.00    -0.237 OA
ATOM     90  O   UNL A   1      35.759  34.083  30.591  1.00  0.00    -0.237 OA
ATOM     91  O   UNL A   1      34.725  31.969  29.880  1.00  0.00    -0.744 OA
ENDBRANCH  85  88
ENDBRANCH  57  81
BRANCH  69  92
ATOM     92  C   UNL A   1      44.862  33.969  29.330  1.00  0.00     0.023 A 
ATOM     93  C   UNL A   1      45.619  34.235  30.488  1.00  0.00     0.012 A 
ATOM     94  C   UNL A   1      44.796  34.952  28.319  1.00  0.00     0.148 A 
ATOM     95  C   UNL A   1      46.284  35.455  30.643  1.00  0.00     0.002 A 
ATOM     96  C   UNL A   1      45.499  36.145  28.458  1.00  0.00     0.091 A 
ATOM     97  F   UNL A   1      44.057  34.696  27.230  1.00  0.00    -0.205 F 
ATOM     98  C   UNL A   1      46.236  36.402  29.624  1.00  0.00     0.022 A 
BRANCH  96  99
ATOM     99  S   UNL A   1      45.579  37.386  27.158  1.00  0.00     0.127 S 
ATOM    100  O   UNL A   1      46.469  38.383  27.750  1.00  0.00    -0.237 OA
ATOM    101  O   UNL A   1      46.161  36.633  26.047  1.00  0.00    -0.237 OA
ATOM    102  O   UNL A   1      44.209  37.830  26.939  1.00  0.00    -0.744 OA
ENDBRANCH  96  99
ENDBRANCH  69  92
ENDBRANCH  43  44
ENDBRANCH  35  38
ENDBRANCH  33  34
ENDBRANCH  32  33
ENDBRANCH   1  32
TORSDOF 18
ENDMDL
MODEL 3
REMARK VINA RESULT:     -11.0      5.057     14.075
REMARK SMILES CCc1cccc(CC)c1N1/C(=[NH+]/C(=O)CCC(=O)NCCCNC(=O)c2ccc(-c3c4nc(c(-c5cccc(S(=O)(=O)[O-])c5F)c5ccc([nH]5)c(-c5cccc(S(=O)(=O)[O-])c5F)c5nc(c(-c6cccc(S(=O)(=O)[O-])c6F)c6ccc3[nH]6)C=C5)C=C4)cc2)S[C@@H]2CS(=O)(=O)C[C@H]21
REMARK SMILES IDX 21 1 20 2 18 3 19 4 17 6 16 7 14 8 11 9 12 10 97 11 13 12
REMARK SMILES IDX 90 13 91 14 96 15 92 17 93 18 15 19 94 20 95 21 10 22 3 23
REMARK SMILES IDX 4 24 5 25 7 26 6 27 2 28 1 29 8 30 9 31 22 32 23 33 24 34
REMARK SMILES IDX 25 35 26 37 27 38 28 39 89 40 29 41 88 42 30 43 31 44 32 45
REMARK SMILES IDX 82 46 33 47 87 48 81 49 83 50 34 51 86 52 80 53 79 54 35 56
REMARK SMILES IDX 67 57 47 58 66 59 48 60 51 61 65 62 84 63 49 64 50 65 64 67
REMARK SMILES IDX 85 68 52 69 36 70 37 71 45 72 38 73 40 74 46 75 39 76 41 77
REMARK SMILES IDX 42 78 43 79 44 80 68 81 69 82 77 83 70 84 72 85 78 86 71 87
REMARK SMILES IDX 73 88 74 89 75 90 76 91 53 92 54 93 62 94 55 95 57 96 63 97
REMARK SMILES IDX 56 98 58 99 59 100 60 101 61 102
REMARK H PARENT 20 5 13 16 24 36 83 55 51 66
REMARK Flexibility Score: inf
ROOT
ATOM      1  C   UNL A   1      44.464  41.529  28.905  1.00  0.00     0.117 C 
ENDROOT
BRANCH   1   2
ATOM      2  N   UNL A   1      43.018  41.273  28.838  1.00  0.00    -0.356 N 
ATOM      3  C   UNL A   1      42.195  40.578  27.991  1.00  0.00     0.220 C 
ATOM      4  O   UNL A   1      41.079  40.265  28.422  1.00  0.00    -0.275 OA
ATOM      5  H   UNL A   1      42.526  41.701  29.575  1.00  0.00     0.163 HD
BRANCH   3   6
ATOM      6  C   UNL A   1      42.540  40.201  26.566  1.00  0.00     0.112 C 
BRANCH   6   7
ATOM      7  C   UNL A   1      41.514  40.790  25.595  1.00  0.00     0.138 C 
BRANCH   7   8
ATOM      8  C   UNL A   1      42.321  41.644  24.684  1.00  0.00     0.308 C 
ATOM      9  N   UNL A   1      45.656  42.870  24.489  1.00  0.00    -0.216 N 
ATOM     10  C   UNL A   1      44.266  42.819  24.565  1.00  0.00     0.319 C 
ATOM     11  C   UNL A   1      45.927  43.079  23.018  1.00  0.00     0.212 C 
ATOM     12  N   UNL A   1      43.587  41.892  25.145  1.00  0.00    -0.204 N 
ATOM     13  S   UNL A   1      43.537  44.029  23.451  1.00  0.00    -0.029 SA
ATOM     14  C   UNL A   1      44.988  44.142  22.434  1.00  0.00     0.120 C 
ATOM     15  C   UNL A   1      47.148  43.384  22.247  1.00  0.00     0.188 C 
ATOM     16  H   UNL A   1      43.964  41.379  25.896  1.00  0.00     0.316 HD
ATOM     17  C   UNL A   1      44.897  43.819  20.935  1.00  0.00     0.156 C 
ATOM     18  S   UNL A   1      46.602  43.444  20.531  1.00  0.00     0.155 S 
ATOM     19  O   UNL A   1      41.927  41.784  23.524  1.00  0.00    -0.247 OA
ATOM     20  O   UNL A   1      47.233  44.568  19.857  1.00  0.00    -0.229 OA
ATOM     21  O   UNL A   1      46.690  42.114  19.979  1.00  0.00    -0.229 OA
BRANCH   9  22
ATOM     22  C   UNL A   1      46.485  42.772  25.639  1.00  0.00     0.134 A 
ATOM     23  C   UNL A   1      47.157  41.600  26.188  1.00  0.00    -0.001 A 
ATOM     24  C   UNL A   1      48.011  41.704  27.339  1.00  0.00     0.008 A 
ATOM     25  C   UNL A   1      48.104  42.845  28.094  1.00  0.00     0.001 A 
ATOM     26  C   UNL A   1      46.582  43.919  26.489  1.00  0.00    -0.001 A 
ATOM     27  C   UNL A   1      47.360  43.927  27.690  1.00  0.00     0.008 A 
BRANCH  23  28
ATOM     28  C   UNL A   1      47.108  40.121  25.812  1.00  0.00     0.036 C 
ATOM     29  C   UNL A   1      47.879  39.198  26.747  1.00  0.00     0.009 C 
ENDBRANCH  23  28
BRANCH  26  30
ATOM     30  C   UNL A   1      45.827  45.211  26.255  1.00  0.00     0.036 C 
ATOM     31  C   UNL A   1      45.816  46.091  27.493  1.00  0.00     0.009 C 
ENDBRANCH  26  30
ENDBRANCH   9  22
ENDBRANCH   7   8
ENDBRANCH   6   7
ENDBRANCH   3   6
ENDBRANCH   1   2
BRANCH   1  32
ATOM     32  C   UNL A   1      45.447  40.427  29.470  1.00  0.00     0.042 C 
BRANCH  32  33
ATOM     33  C   UNL A   1      45.251  39.725  30.886  1.00  0.00     0.118 C 
BRANCH  33  34
ATOM     34  N   UNL A   1      45.784  38.357  31.245  1.00  0.00    -0.352 N 
ATOM     35  C   UNL A   1      46.829  37.723  30.460  1.00  0.00     0.251 C 
ATOM     36  H   UNL A   1      45.415  37.886  32.026  1.00  0.00     0.163 HD
ATOM     37  O   UNL A   1      47.778  38.394  30.057  1.00  0.00    -0.269 OA
BRANCH  35  38
ATOM     38  C   UNL A   1      46.677  36.237  29.926  1.00  0.00     0.039 A 
ATOM     39  C   UNL A   1      47.121  35.053  30.554  1.00  0.00     0.014 A 
ATOM     40  C   UNL A   1      45.835  36.010  28.829  1.00  0.00     0.014 A 
ATOM     41  C   UNL A   1      46.541  33.743  30.251  1.00  0.00     0.010 A 
ATOM     42  C   UNL A   1      45.267  34.716  28.534  1.00  0.00     0.010 A 
ATOM     43  C   UNL A   1      45.516  33.556  29.297  1.00  0.00    -0.014 A 
BRANCH  43  44
ATOM     44  C   UNL A   1      44.703  32.240  29.058  1.00  0.00     0.031 A 
ATOM     45  C   UNL A   1      45.249  31.185  28.105  1.00  0.00     0.074 A 
ATOM     46  C   UNL A   1      43.442  31.953  29.511  1.00  0.00     0.049 A 
ATOM     47  N   UNL A   1      44.717  30.046  27.718  1.00  0.00    -0.248 NA
ATOM     48  C   UNL A   1      46.553  31.467  27.497  1.00  0.00     0.031 C 
ATOM     49  C   UNL A   1      42.637  32.787  30.382  1.00  0.00     0.029 A 
ATOM     50  N   UNL A   1      42.578  30.876  29.277  1.00  0.00    -0.354 N 
ATOM     51  C   UNL A   1      45.603  29.491  26.803  1.00  0.00     0.074 A 
ATOM     52  C   UNL A   1      46.681  30.452  26.656  1.00  0.00     0.031 C 
ATOM     53  C   UNL A   1      41.419  32.250  30.583  1.00  0.00     0.029 A 
ATOM     54  C   UNL A   1      41.324  30.981  29.871  1.00  0.00     0.049 A 
ATOM     55  H   UNL A   1      42.839  30.099  28.730  1.00  0.00     0.167 HD
ATOM     56  C   UNL A   1      45.581  28.292  26.165  1.00  0.00     0.034 A 
ATOM     57  C   UNL A   1      40.223  30.181  29.889  1.00  0.00     0.034 A 
ATOM     58  C   UNL A   1      44.569  27.274  26.284  1.00  0.00     0.049 A 
ATOM     59  C   UNL A   1      40.216  28.842  29.173  1.00  0.00     0.074 A 
ATOM     60  C   UNL A   1      44.570  26.000  25.736  1.00  0.00     0.029 A 
ATOM     61  N   UNL A   1      43.371  27.404  26.961  1.00  0.00    -0.354 N 
ATOM     62  N   UNL A   1      41.178  28.263  28.502  1.00  0.00    -0.248 NA
ATOM     63  C   UNL A   1      38.985  28.025  29.253  1.00  0.00     0.031 C 
ATOM     64  C   UNL A   1      43.360  25.374  26.050  1.00  0.00     0.029 A 
ATOM     65  C   UNL A   1      42.620  26.244  26.829  1.00  0.00     0.049 A 
ATOM     66  H   UNL A   1      43.090  28.203  27.465  1.00  0.00     0.167 HD
ATOM     67  C   UNL A   1      40.690  27.010  28.129  1.00  0.00     0.074 A 
ATOM     68  C   UNL A   1      39.353  26.897  28.659  1.00  0.00     0.031 C 
ATOM     69  C   UNL A   1      41.310  26.053  27.397  1.00  0.00     0.034 A 
BRANCH  56  70
ATOM     70  C   UNL A   1      46.766  27.977  25.288  1.00  0.00     0.023 A 
ATOM     71  C   UNL A   1      46.659  28.168  23.894  1.00  0.00     0.012 A 
ATOM     72  C   UNL A   1      47.980  27.525  25.837  1.00  0.00     0.148 A 
ATOM     73  C   UNL A   1      47.720  27.845  23.053  1.00  0.00     0.002 A 
ATOM     74  C   UNL A   1      49.052  27.259  24.994  1.00  0.00     0.091 A 
ATOM     75  F   UNL A   1      48.060  27.350  27.164  1.00  0.00    -0.205 F 
ATOM     76  C   UNL A   1      48.917  27.398  23.604  1.00  0.00     0.022 A 
BRANCH  74  77
ATOM     77  S   UNL A   1      50.666  26.762  25.605  1.00  0.00     0.127 S 
ATOM     78  O   UNL A   1      51.439  26.692  24.365  1.00  0.00    -0.237 OA
ATOM     79  O   UNL A   1      51.017  27.879  26.481  1.00  0.00    -0.237 OA
ATOM     80  O   UNL A   1      50.465  25.491  26.288  1.00  0.00    -0.744 OA
ENDBRANCH  74  77
ENDBRANCH  56  70
BRANCH  57  81
ATOM     81  C   UNL A   1      38.983  30.550  30.669  1.00  0.00     0.023 A 
ATOM     82  C   UNL A   1      38.823  30.065  31.987  1.00  0.00     0.012 A 
ATOM     83  C   UNL A   1      37.919  31.271  30.088  1.00  0.00     0.148 A 
ATOM     84  C   UNL A   1      37.624  30.241  32.685  1.00  0.00     0.002 A 
ATOM     85  C   UNL A   1      36.744  31.489  30.810  1.00  0.00     0.091 A 
ATOM     86  F   UNL A   1      38.068  31.713  28.832  1.00  0.00    -0.205 F 
ATOM     87  C   UNL A   1      36.586  30.955  32.099  1.00  0.00     0.022 A 
BRANCH  85  88
ATOM     88  S   UNL A   1      35.378  32.477  30.186  1.00  0.00     0.127 S 
ATOM     89  O   UNL A   1      34.977  31.727  28.999  1.00  0.00    -0.237 OA
ATOM     90  O   UNL A   1      34.434  32.415  31.303  1.00  0.00    -0.237 OA
ATOM     91  O   UNL A   1      35.935  33.800  29.934  1.00  0.00    -0.744 OA
ENDBRANCH  85  88
ENDBRANCH  57  81
BRANCH  69  92
ATOM     92  C   UNL A   1      40.604  24.740  27.139  1.00  0.00     0.023 A 
ATOM     93  C   UNL A   1      39.328  24.724  26.542  1.00  0.00     0.012 A 
ATOM     94  C   UNL A   1      41.256  23.513  27.386  1.00  0.00     0.148 A 
ATOM     95  C   UNL A   1      38.709  23.516  26.209  1.00  0.00     0.002 A 
ATOM     96  C   UNL A   1      40.655  22.315  27.009  1.00  0.00     0.091 A 
ATOM     97  F   UNL A   1      42.462  23.539  27.972  1.00  0.00    -0.205 F 
ATOM     98  C   UNL A   1      39.377  22.314  26.430  1.00  0.00     0.022 A 
BRANCH  96  99
ATOM     99  S   UNL A   1      41.478  20.722  27.161  1.00  0.00     0.127 S 
ATOM    100  O   UNL A   1      40.412  19.886  27.710  1.00  0.00    -0.237 OA
ATOM    101  O   UNL A   1      41.834  20.424  25.774  1.00  0.00    -0.237 OA
ATOM    102  O   UNL A   1      42.615  20.938  28.047  1.00  0.00    -0.744 OA
ENDBRANCH  96  99
ENDBRANCH  69  92
ENDBRANCH  43  44
ENDBRANCH  35  38
ENDBRANCH  33  34
ENDBRANCH  32  33
ENDBRANCH   1  32
TORSDOF 18
ENDMDL
