MODEL 1
REMARK VINA RESULT:     -11.8      0.000      0.000
REMARK SMILES O=Cc1ccc(-c2ccc(C(=O)NCCCNC(=O)c3ccc(-c4c5nc(c(-c6cccc(S(=O)(=O)[O-])c6F)c6ccc([nH]6)c(-c6cccc(S(=O)(=O)[O-])c6F)c6nc(c(-c7cccc(S(=O)(=O)[O-])c7F)c7ccc4[nH]7)C=C6)C=C5)cc3)cn2)cc1
REMARK SMILES IDX 15 1 14 2 13 3 11 4 12 5 10 7 7 8 8 9 84 10 9 11 83 12 6 13
REMARK SMILES IDX 3 14 4 15 86 16 5 17 85 18 2 19 1 20 16 21 17 22 18 23 19 25
REMARK SMILES IDX 20 26 21 27 82 28 22 29 81 30 23 31 24 32 25 33 75 34 26 35
REMARK SMILES IDX 80 36 74 37 76 38 27 39 79 40 73 41 72 42 28 44 60 45 40 46
REMARK SMILES IDX 59 47 41 48 44 49 58 50 77 51 42 52 43 53 57 55 78 56 45 57
REMARK SMILES IDX 29 58 30 59 38 60 31 61 33 62 39 63 32 64 34 65 35 66 36 67
REMARK SMILES IDX 37 68 61 69 62 70 70 71 63 72 65 73 71 74 64 75 66 76 67 77
REMARK SMILES IDX 68 78 69 79 46 80 47 81 55 82 48 83 50 84 56 85 49 86 51 87
REMARK SMILES IDX 52 88 53 89 54 90
REMARK H PARENT 13 6 17 24 76 43 44 54
REMARK Flexibility Score: inf
ROOT
ATOM      1  C   UNL A   1      33.891  28.522  25.141  1.00  0.00     0.042 C 
ENDROOT
BRANCH   1   2
ATOM      2  C   UNL A   1      33.173  27.264  24.654  1.00  0.00     0.118 C 
BRANCH   2   3
ATOM      3  N   UNL A   1      31.953  27.027  25.405  1.00  0.00    -0.352 N 
ATOM      4  C   UNL A   1      31.351  25.879  25.850  1.00  0.00     0.252 C 
ATOM      5  O   UNL A   1      30.348  25.998  26.554  1.00  0.00    -0.269 OA
ATOM      6  H   UNL A   1      31.465  27.849  25.641  1.00  0.00     0.163 HD
BRANCH   4   7
ATOM      7  C   UNL A   1      31.872  24.520  25.576  1.00  0.00     0.058 A 
ATOM      8  C   UNL A   1      32.625  21.958  24.849  1.00  0.00     0.070 A 
ATOM      9  C   UNL A   1      33.208  22.549  25.967  1.00  0.00     0.030 A 
ATOM     10  N   UNL A   1      31.726  22.605  24.074  1.00  0.00    -0.255 NA
ATOM     11  C   UNL A   1      32.843  23.850  26.317  1.00  0.00     0.018 A 
ATOM     12  C   UNL A   1      31.377  23.863  24.453  1.00  0.00     0.125 A 
BRANCH   8  13
ATOM     13  C   UNL A   1      32.966  20.597  24.437  1.00  0.00     0.000 A 
ATOM     14  C   UNL A   1      33.594  17.965  23.694  1.00  0.00     0.014 A 
ATOM     15  C   UNL A   1      34.384  18.625  24.635  1.00  0.00     0.012 A 
ATOM     16  C   UNL A   1      32.499  18.608  23.111  1.00  0.00     0.012 A 
ATOM     17  C   UNL A   1      34.074  19.940  24.997  1.00  0.00     0.011 A 
ATOM     18  C   UNL A   1      32.188  19.918  23.487  1.00  0.00     0.011 A 
BRANCH  14  19
ATOM     19  C   UNL A   1      33.924  16.576  23.318  1.00  0.00     0.260 C 
ATOM     20  O   UNL A   1      34.589  15.843  24.039  1.00  0.00    -0.298 OA
ENDBRANCH  14  19
ENDBRANCH   8  13
ENDBRANCH   4   7
ENDBRANCH   2   3
ENDBRANCH   1   2
BRANCH   1  21
ATOM     21  C   UNL A   1      33.819  28.714  26.654  1.00  0.00     0.118 C 
BRANCH  21  22
ATOM     22  N   UNL A   1      33.777  30.123  27.022  1.00  0.00    -0.352 N 
ATOM     23  C   UNL A   1      34.597  30.844  27.854  1.00  0.00     0.251 C 
ATOM     24  H   UNL A   1      33.046  30.638  26.612  1.00  0.00     0.163 HD
ATOM     25  O   UNL A   1      34.247  31.964  28.216  1.00  0.00    -0.269 OA
BRANCH  23  26
ATOM     26  C   UNL A   1      35.889  30.288  28.314  1.00  0.00     0.039 A 
ATOM     27  C   UNL A   1      37.009  30.411  27.486  1.00  0.00     0.014 A 
ATOM     28  C   UNL A   1      35.991  29.602  29.528  1.00  0.00     0.014 A 
ATOM     29  C   UNL A   1      38.238  29.885  27.894  1.00  0.00     0.010 A 
ATOM     30  C   UNL A   1      37.231  29.140  29.964  1.00  0.00     0.010 A 
ATOM     31  C   UNL A   1      38.365  29.268  29.148  1.00  0.00    -0.014 A 
BRANCH  31  32
ATOM     32  C   UNL A   1      39.674  28.754  29.628  1.00  0.00     0.031 A 
ATOM     33  C   UNL A   1      40.409  29.460  30.736  1.00  0.00     0.074 A 
ATOM     34  C   UNL A   1      40.243  27.705  29.000  1.00  0.00     0.049 A 
ATOM     35  N   UNL A   1      41.589  29.202  31.236  1.00  0.00    -0.248 NA
ATOM     36  C   UNL A   1      39.743  30.626  31.341  1.00  0.00     0.031 C 
ATOM     37  C   UNL A   1      39.667  26.989  27.861  1.00  0.00     0.029 A 
ATOM     38  N   UNL A   1      41.448  27.082  29.210  1.00  0.00    -0.354 N 
ATOM     39  C   UNL A   1      41.826  30.192  32.183  1.00  0.00     0.074 A 
ATOM     40  C   UNL A   1      40.678  31.073  32.168  1.00  0.00     0.031 C 
ATOM     41  C   UNL A   1      40.518  26.027  27.471  1.00  0.00     0.029 A 
ATOM     42  C   UNL A   1      41.710  26.075  28.311  1.00  0.00     0.049 A 
ATOM     43  H   UNL A   1      42.065  27.332  29.934  1.00  0.00     0.167 HD
ATOM     44  C   UNL A   1      42.889  30.340  33.009  1.00  0.00     0.034 A 
ATOM     45  C   UNL A   1      42.792  25.284  28.171  1.00  0.00     0.034 A 
ATOM     46  C   UNL A   1      44.003  29.432  33.056  1.00  0.00     0.049 A 
ATOM     47  C   UNL A   1      43.935  25.435  29.139  1.00  0.00     0.074 A 
ATOM     48  C   UNL A   1      45.082  29.437  33.924  1.00  0.00     0.029 A 
ATOM     49  N   UNL A   1      44.188  28.360  32.197  1.00  0.00    -0.354 N 
ATOM     50  N   UNL A   1      44.066  26.275  30.136  1.00  0.00    -0.248 NA
ATOM     51  C   UNL A   1      45.061  24.503  28.987  1.00  0.00     0.031 C 
ATOM     52  C   UNL A   1      45.927  28.379  33.576  1.00  0.00     0.029 A 
ATOM     53  C   UNL A   1      45.364  27.701  32.506  1.00  0.00     0.049 A 
ATOM     54  H   UNL A   1      43.571  28.105  31.472  1.00  0.00     0.167 HD
ATOM     55  C   UNL A   1      45.269  25.952  30.752  1.00  0.00     0.074 A 
ATOM     56  C   UNL A   1      45.818  24.824  30.028  1.00  0.00     0.031 C 
ATOM     57  C   UNL A   1      45.872  26.546  31.812  1.00  0.00     0.034 A 
BRANCH  44  58
ATOM     58  C   UNL A   1      42.875  31.498  33.973  1.00  0.00     0.023 A 
ATOM     59  C   UNL A   1      43.457  32.725  33.594  1.00  0.00     0.012 A 
ATOM     60  C   UNL A   1      42.235  31.396  35.223  1.00  0.00     0.148 A 
ATOM     61  C   UNL A   1      43.434  33.821  34.456  1.00  0.00     0.002 A 
ATOM     62  C   UNL A   1      42.177  32.506  36.060  1.00  0.00     0.091 A 
ATOM     63  F   UNL A   1      41.704  30.217  35.577  1.00  0.00    -0.205 F 
ATOM     64  C   UNL A   1      42.784  33.714  35.683  1.00  0.00     0.022 A 
BRANCH  62  65
ATOM     65  S   UNL A   1      41.296  32.494  37.626  1.00  0.00     0.127 S 
ATOM     66  O   UNL A   1      42.103  31.560  38.410  1.00  0.00    -0.237 OA
ATOM     67  O   UNL A   1      41.399  33.892  38.048  1.00  0.00    -0.237 OA
ATOM     68  O   UNL A   1      39.943  32.051  37.322  1.00  0.00    -0.744 OA
ENDBRANCH  62  65
ENDBRANCH  44  58
BRANCH  45  69
ATOM     69  C   UNL A   1      42.813  24.234  27.113  1.00  0.00     0.023 A 
ATOM     70  C   UNL A   1      43.533  24.466  25.926  1.00  0.00     0.012 A 
ATOM     71  C   UNL A   1      42.161  22.999  27.292  1.00  0.00     0.148 A 
ATOM     72  C   UNL A   1      43.578  23.499  24.921  1.00  0.00     0.002 A 
ATOM     73  C   UNL A   1      42.258  22.018  26.311  1.00  0.00     0.091 A 
ATOM     74  F   UNL A   1      41.472  22.802  28.425  1.00  0.00    -0.205 F 
ATOM     75  C   UNL A   1      42.951  22.272  25.118  1.00  0.00     0.022 A 
BRANCH  73  76
ATOM     76  S   UNL A   1      41.600  20.363  26.541  1.00  0.00     0.127 S 
ATOM     77  O   UNL A   1      40.161  20.610  26.550  1.00  0.00    -0.237 OA
ATOM     78  O   UNL A   1      42.099  19.669  25.353  1.00  0.00    -0.237 OA
ATOM     79  O   UNL A   1      42.170  19.884  27.795  1.00  0.00    -0.744 OA
ENDBRANCH  73  76
ENDBRANCH  45  69
BRANCH  57  80
ATOM     80  C   UNL A   1      47.183  25.972  32.281  1.00  0.00     0.023 A 
ATOM     81  C   UNL A   1      48.390  26.433  31.720  1.00  0.00     0.012 A 
ATOM     82  C   UNL A   1      47.221  25.034  33.332  1.00  0.00     0.148 A 
ATOM     83  C   UNL A   1      49.615  25.947  32.177  1.00  0.00     0.002 A 
ATOM     84  C   UNL A   1      48.447  24.591  33.815  1.00  0.00     0.091 A 
ATOM     85  F   UNL A   1      46.061  24.593  33.839  1.00  0.00    -0.205 F 
ATOM     86  C   UNL A   1      49.644  25.037  33.231  1.00  0.00     0.022 A 
BRANCH  84  87
ATOM     87  S   UNL A   1      48.581  23.494  35.231  1.00  0.00     0.127 S 
ATOM     88  O   UNL A   1      50.031  23.374  35.379  1.00  0.00    -0.237 OA
ATOM     89  O   UNL A   1      47.922  24.265  36.286  1.00  0.00    -0.237 OA
ATOM     90  O   UNL A   1      47.887  22.270  34.856  1.00  0.00    -0.744 OA
ENDBRANCH  84  87
ENDBRANCH  57  80
ENDBRANCH  31  32
ENDBRANCH  23  26
ENDBRANCH  21  22
ENDBRANCH   1  21
TORSDOF 15
ENDMDL
MODEL 2
REMARK VINA RESULT:     -11.7      5.263     10.080
REMARK SMILES O=Cc1ccc(-c2ccc(C(=O)NCCCNC(=O)c3ccc(-c4c5nc(c(-c6cccc(S(=O)(=O)[O-])c6F)c6ccc([nH]6)c(-c6cccc(S(=O)(=O)[O-])c6F)c6nc(c(-c7cccc(S(=O)(=O)[O-])c7F)c7ccc4[nH]7)C=C6)C=C5)cc3)cn2)cc1
REMARK SMILES IDX 15 1 14 2 13 3 11 4 12 5 10 7 7 8 8 9 84 10 9 11 83 12 6 13
REMARK SMILES IDX 3 14 4 15 86 16 5 17 85 18 2 19 1 20 16 21 17 22 18 23 19 25
REMARK SMILES IDX 20 26 21 27 82 28 22 29 81 30 23 31 24 32 25 33 75 34 26 35
REMARK SMILES IDX 80 36 74 37 76 38 27 39 79 40 73 41 72 42 28 44 60 45 40 46
REMARK SMILES IDX 59 47 41 48 44 49 58 50 77 51 42 52 43 53 57 55 78 56 45 57
REMARK SMILES IDX 29 58 30 59 38 60 31 61 33 62 39 63 32 64 34 65 35 66 36 67
REMARK SMILES IDX 37 68 61 69 62 70 70 71 63 72 65 73 71 74 64 75 66 76 67 77
REMARK SMILES IDX 68 78 69 79 46 80 47 81 55 82 48 83 50 84 56 85 49 86 51 87
REMARK SMILES IDX 52 88 53 89 54 90
REMARK H PARENT 13 6 17 24 76 43 44 54
REMARK Flexibility Score: inf
ROOT
ATOM      1  C   UNL A   1      35.145  21.856  24.658  1.00  0.00     0.042 C 
ENDROOT
BRANCH   1   2
ATOM      2  C   UNL A   1      33.836  21.226  25.132  1.00  0.00     0.118 C 
BRANCH   2   3
ATOM      3  N   UNL A   1      33.592  21.506  26.536  1.00  0.00    -0.352 N 
ATOM      4  C   UNL A   1      32.999  22.563  27.177  1.00  0.00     0.252 C 
ATOM      5  O   UNL A   1      32.852  22.479  28.397  1.00  0.00    -0.269 OA
ATOM      6  H   UNL A   1      33.913  20.802  27.144  1.00  0.00     0.163 HD
BRANCH   4   7
ATOM      7  C   UNL A   1      32.482  23.762  26.478  1.00  0.00     0.058 A 
ATOM      8  C   UNL A   1      31.249  25.847  25.140  1.00  0.00     0.070 A 
ATOM      9  C   UNL A   1      32.613  25.921  25.408  1.00  0.00     0.030 A 
ATOM     10  N   UNL A   1      30.487  24.806  25.543  1.00  0.00    -0.255 NA
ATOM     11  C   UNL A   1      33.227  24.878  26.104  1.00  0.00     0.018 A 
ATOM     12  C   UNL A   1      31.118  23.797  26.200  1.00  0.00     0.125 A 
BRANCH   8  13
ATOM     13  C   UNL A   1      30.555  26.908  24.411  1.00  0.00     0.000 A 
ATOM     14  C   UNL A   1      29.193  28.958  23.061  1.00  0.00     0.014 A 
ATOM     15  C   UNL A   1      28.587  27.710  23.218  1.00  0.00     0.012 A 
ATOM     16  C   UNL A   1      30.476  29.190  23.562  1.00  0.00     0.012 A 
ATOM     17  C   UNL A   1      29.272  26.689  23.884  1.00  0.00     0.011 A 
ATOM     18  C   UNL A   1      31.150  28.168  24.237  1.00  0.00     0.011 A 
BRANCH  14  19
ATOM     19  C   UNL A   1      28.464  30.033  22.361  1.00  0.00     0.260 C 
ATOM     20  O   UNL A   1      28.158  29.954  21.177  1.00  0.00    -0.298 OA
ENDBRANCH  14  19
ENDBRANCH   8  13
ENDBRANCH   4   7
ENDBRANCH   2   3
ENDBRANCH   1   2
BRANCH   1  21
ATOM     21  C   UNL A   1      36.142  22.105  25.788  1.00  0.00     0.118 C 
BRANCH  21  22
ATOM     22  N   UNL A   1      37.170  21.074  25.843  1.00  0.00    -0.352 N 
ATOM     23  C   UNL A   1      38.532  21.190  25.968  1.00  0.00     0.251 C 
ATOM     24  H   UNL A   1      36.836  20.150  25.779  1.00  0.00     0.163 HD
ATOM     25  O   UNL A   1      39.238  20.208  25.754  1.00  0.00    -0.269 OA
BRANCH  23  26
ATOM     26  C   UNL A   1      39.151  22.477  26.355  1.00  0.00     0.039 A 
ATOM     27  C   UNL A   1      40.207  22.468  27.271  1.00  0.00     0.014 A 
ATOM     28  C   UNL A   1      38.664  23.691  25.864  1.00  0.00     0.014 A 
ATOM     29  C   UNL A   1      40.803  23.671  27.660  1.00  0.00     0.010 A 
ATOM     30  C   UNL A   1      39.303  24.884  26.198  1.00  0.00     0.010 A 
ATOM     31  C   UNL A   1      40.372  24.888  27.107  1.00  0.00    -0.014 A 
BRANCH  31  32
ATOM     32  C   UNL A   1      41.028  26.173  27.460  1.00  0.00     0.031 A 
ATOM     33  C   UNL A   1      42.456  26.434  27.061  1.00  0.00     0.074 A 
ATOM     34  C   UNL A   1      40.365  27.065  28.223  1.00  0.00     0.049 A 
ATOM     35  N   UNL A   1      43.214  27.461  27.341  1.00  0.00    -0.248 NA
ATOM     36  C   UNL A   1      43.128  25.391  26.268  1.00  0.00     0.031 C 
ATOM     37  C   UNL A   1      39.008  26.891  28.742  1.00  0.00     0.029 A 
ATOM     38  N   UNL A   1      40.758  28.282  28.724  1.00  0.00    -0.354 N 
ATOM     39  C   UNL A   1      44.460  27.174  26.796  1.00  0.00     0.074 A 
ATOM     40  C   UNL A   1      44.365  25.862  26.193  1.00  0.00     0.031 C 
ATOM     41  C   UNL A   1      38.681  27.957  29.487  1.00  0.00     0.029 A 
ATOM     42  C   UNL A   1      39.812  28.878  29.525  1.00  0.00     0.049 A 
ATOM     43  H   UNL A   1      41.632  28.689  28.528  1.00  0.00     0.167 HD
ATOM     44  C   UNL A   1      45.576  27.942  26.776  1.00  0.00     0.034 A 
ATOM     45  C   UNL A   1      39.854  30.031  30.220  1.00  0.00     0.034 A 
ATOM     46  C   UNL A   1      45.650  29.266  27.331  1.00  0.00     0.049 A 
ATOM     47  C   UNL A   1      41.086  30.891  30.134  1.00  0.00     0.074 A 
ATOM     48  C   UNL A   1      46.702  30.165  27.276  1.00  0.00     0.029 A 
ATOM     49  N   UNL A   1      44.637  29.881  28.050  1.00  0.00    -0.354 N 
ATOM     50  N   UNL A   1      42.198  30.675  29.474  1.00  0.00    -0.248 NA
ATOM     51  C   UNL A   1      41.055  32.172  30.854  1.00  0.00     0.031 C 
ATOM     52  C   UNL A   1      46.330  31.316  27.978  1.00  0.00     0.029 A 
ATOM     53  C   UNL A   1      45.038  31.144  28.451  1.00  0.00     0.049 A 
ATOM     54  H   UNL A   1      43.760  29.479  28.246  1.00  0.00     0.167 HD
ATOM     55  C   UNL A   1      42.984  31.803  29.670  1.00  0.00     0.074 A 
ATOM     56  C   UNL A   1      42.211  32.712  30.493  1.00  0.00     0.031 C 
ATOM     57  C   UNL A   1      44.239  32.059  29.223  1.00  0.00     0.034 A 
BRANCH  44  58
ATOM     58  C   UNL A   1      46.796  27.393  26.081  1.00  0.00     0.023 A 
ATOM     59  C   UNL A   1      47.607  26.450  26.743  1.00  0.00     0.012 A 
ATOM     60  C   UNL A   1      47.104  27.759  24.756  1.00  0.00     0.148 A 
ATOM     61  C   UNL A   1      48.726  25.906  26.113  1.00  0.00     0.002 A 
ATOM     62  C   UNL A   1      48.196  27.179  24.119  1.00  0.00     0.091 A 
ATOM     63  F   UNL A   1      46.334  28.673  24.149  1.00  0.00    -0.205 F 
ATOM     64  C   UNL A   1      49.013  26.262  24.798  1.00  0.00     0.022 A 
BRANCH  62  65
ATOM     65  S   UNL A   1      48.604  27.512  22.401  1.00  0.00     0.127 S 
ATOM     66  O   UNL A   1      47.462  28.322  21.978  1.00  0.00    -0.237 OA
ATOM     67  O   UNL A   1      49.863  28.249  22.520  1.00  0.00    -0.237 OA
ATOM     68  O   UNL A   1      48.721  26.211  21.757  1.00  0.00    -0.744 OA
ENDBRANCH  62  65
ENDBRANCH  44  58
BRANCH  45  69
ATOM     69  C   UNL A   1      38.663  30.470  31.002  1.00  0.00     0.023 A 
ATOM     70  C   UNL A   1      38.609  30.204  32.383  1.00  0.00     0.012 A 
ATOM     71  C   UNL A   1      37.609  31.181  30.398  1.00  0.00     0.148 A 
ATOM     72  C   UNL A   1      37.512  30.609  33.144  1.00  0.00     0.002 A 
ATOM     73  C   UNL A   1      36.545  31.631  31.172  1.00  0.00     0.091 A 
ATOM     74  F   UNL A   1      37.674  31.415  29.079  1.00  0.00    -0.205 F 
ATOM     75  C   UNL A   1      36.486  31.332  32.541  1.00  0.00     0.022 A 
BRANCH  73  76
ATOM     76  S   UNL A   1      35.253  32.687  30.507  1.00  0.00     0.127 S 
ATOM     77  O   UNL A   1      34.336  32.789  31.639  1.00  0.00    -0.237 OA
ATOM     78  O   UNL A   1      35.991  33.913  30.199  1.00  0.00    -0.237 OA
ATOM     79  O   UNL A   1      34.740  31.989  29.334  1.00  0.00    -0.744 OA
ENDBRANCH  73  76
ENDBRANCH  45  69
BRANCH  57  80
ATOM     80  C   UNL A   1      44.851  33.387  29.582  1.00  0.00     0.023 A 
ATOM     81  C   UNL A   1      45.594  33.517  30.772  1.00  0.00     0.012 A 
ATOM     82  C   UNL A   1      44.757  34.483  28.701  1.00  0.00     0.148 A 
ATOM     83  C   UNL A   1      46.208  34.726  31.096  1.00  0.00     0.002 A 
ATOM     84  C   UNL A   1      45.413  35.670  29.006  1.00  0.00     0.091 A 
ATOM     85  F   UNL A   1      44.030  34.345  27.583  1.00  0.00    -0.205 F 
ATOM     86  C   UNL A   1      46.128  35.797  30.208  1.00  0.00     0.022 A 
BRANCH  84  87
ATOM     87  S   UNL A   1      45.444  37.067  27.879  1.00  0.00     0.127 S 
ATOM     88  O   UNL A   1      46.598  37.821  28.369  1.00  0.00    -0.237 OA
ATOM     89  O   UNL A   1      45.645  36.417  26.583  1.00  0.00    -0.237 OA
ATOM     90  O   UNL A   1      44.155  37.730  28.026  1.00  0.00    -0.744 OA
ENDBRANCH  84  87
ENDBRANCH  57  80
ENDBRANCH  31  32
ENDBRANCH  23  26
ENDBRANCH  21  22
ENDBRANCH   1  21
TORSDOF 15
ENDMDL
MODEL 3
REMARK VINA RESULT:     -11.7      2.238      2.914
REMARK SMILES O=Cc1ccc(-c2ccc(C(=O)NCCCNC(=O)c3ccc(-c4c5nc(c(-c6cccc(S(=O)(=O)[O-])c6F)c6ccc([nH]6)c(-c6cccc(S(=O)(=O)[O-])c6F)c6nc(c(-c7cccc(S(=O)(=O)[O-])c7F)c7ccc4[nH]7)C=C6)C=C5)cc3)cn2)cc1
REMARK SMILES IDX 15 1 14 2 13 3 11 4 12 5 10 7 7 8 8 9 84 10 9 11 83 12 6 13
REMARK SMILES IDX 3 14 4 15 86 16 5 17 85 18 2 19 1 20 16 21 17 22 18 23 19 25
REMARK SMILES IDX 20 26 21 27 82 28 22 29 81 30 23 31 24 32 25 33 75 34 26 35
REMARK SMILES IDX 80 36 74 37 76 38 27 39 79 40 73 41 72 42 28 44 60 45 40 46
REMARK SMILES IDX 59 47 41 48 44 49 58 50 77 51 42 52 43 53 57 55 78 56 45 57
REMARK SMILES IDX 29 58 30 59 38 60 31 61 33 62 39 63 32 64 34 65 35 66 36 67
REMARK SMILES IDX 37 68 61 69 62 70 70 71 63 72 65 73 71 74 64 75 66 76 67 77
REMARK SMILES IDX 68 78 69 79 46 80 47 81 55 82 48 83 50 84 56 85 49 86 51 87
REMARK SMILES IDX 52 88 53 89 54 90
REMARK H PARENT 13 6 17 24 76 43 44 54
REMARK Flexibility Score: inf
ROOT
ATOM      1  C   UNL A   1      31.432  30.349  25.924  1.00  0.00     0.042 C 
ENDROOT
BRANCH   1   2
ATOM      2  C   UNL A   1      31.652  29.137  25.020  1.00  0.00     0.118 C 
BRANCH   2   3
ATOM      3  N   UNL A   1      32.812  29.317  24.166  1.00  0.00    -0.352 N 
ATOM      4  C   UNL A   1      33.698  28.430  23.613  1.00  0.00     0.252 C 
ATOM      5  O   UNL A   1      34.547  28.878  22.842  1.00  0.00    -0.269 OA
ATOM      6  H   UNL A   1      32.997  30.257  23.939  1.00  0.00     0.163 HD
BRANCH   4   7
ATOM      7  C   UNL A   1      33.652  26.968  23.850  1.00  0.00     0.058 A 
ATOM      8  C   UNL A   1      33.456  24.212  24.003  1.00  0.00     0.070 A 
ATOM      9  C   UNL A   1      33.762  24.939  25.151  1.00  0.00     0.030 A 
ATOM     10  N   UNL A   1      33.287  24.800  22.797  1.00  0.00    -0.255 NA
ATOM     11  C   UNL A   1      33.883  26.328  25.064  1.00  0.00     0.018 A 
ATOM     12  C   UNL A   1      33.392  26.154  22.751  1.00  0.00     0.125 A 
BRANCH   8  13
ATOM     13  C   UNL A   1      33.313  22.758  24.035  1.00  0.00     0.000 A 
ATOM     14  C   UNL A   1      33.005  19.970  24.142  1.00  0.00     0.014 A 
ATOM     15  C   UNL A   1      33.957  20.592  24.951  1.00  0.00     0.012 A 
ATOM     16  C   UNL A   1      32.213  20.723  23.272  1.00  0.00     0.012 A 
ATOM     17  C   UNL A   1      34.113  21.981  24.889  1.00  0.00     0.011 A 
ATOM     18  C   UNL A   1      32.367  22.111  23.224  1.00  0.00     0.011 A 
BRANCH  14  19
ATOM     19  C   UNL A   1      32.842  18.505  24.214  1.00  0.00     0.260 C 
ATOM     20  O   UNL A   1      32.019  17.973  24.949  1.00  0.00    -0.298 OA
ENDBRANCH  14  19
ENDBRANCH   8  13
ENDBRANCH   4   7
ENDBRANCH   2   3
ENDBRANCH   1   2
BRANCH   1  21
ATOM     21  C   UNL A   1      32.656  30.709  26.764  1.00  0.00     0.118 C 
BRANCH  21  22
ATOM     22  N   UNL A   1      32.804  32.150  26.920  1.00  0.00    -0.352 N 
ATOM     23  C   UNL A   1      33.685  32.869  27.688  1.00  0.00     0.251 C 
ATOM     24  H   UNL A   1      32.172  32.692  26.395  1.00  0.00     0.163 HD
ATOM     25  O   UNL A   1      33.487  34.069  27.861  1.00  0.00    -0.269 OA
BRANCH  23  26
ATOM     26  C   UNL A   1      34.863  32.217  28.303  1.00  0.00     0.039 A 
ATOM     27  C   UNL A   1      36.081  32.904  28.322  1.00  0.00     0.014 A 
ATOM     28  C   UNL A   1      34.788  30.917  28.811  1.00  0.00     0.014 A 
ATOM     29  C   UNL A   1      37.209  32.307  28.888  1.00  0.00     0.010 A 
ATOM     30  C   UNL A   1      35.895  30.350  29.438  1.00  0.00     0.010 A 
ATOM     31  C   UNL A   1      37.120  31.034  29.475  1.00  0.00    -0.014 A 
BRANCH  31  32
ATOM     32  C   UNL A   1      38.292  30.403  30.135  1.00  0.00     0.031 A 
ATOM     33  C   UNL A   1      38.709  30.830  31.516  1.00  0.00     0.074 A 
ATOM     34  C   UNL A   1      39.036  29.511  29.449  1.00  0.00     0.049 A 
ATOM     35  N   UNL A   1      39.741  30.446  32.220  1.00  0.00    -0.248 NA
ATOM     36  C   UNL A   1      37.872  31.843  32.182  1.00  0.00     0.031 C 
ATOM     37  C   UNL A   1      38.781  29.078  28.075  1.00  0.00     0.029 A 
ATOM     38  N   UNL A   1      40.177  28.836  29.805  1.00  0.00    -0.354 N 
ATOM     39  C   UNL A   1      39.704  31.195  33.391  1.00  0.00     0.074 A 
ATOM     40  C   UNL A   1      38.562  32.078  33.290  1.00  0.00     0.031 C 
ATOM     41  C   UNL A   1      39.737  28.213  27.702  1.00  0.00     0.029 A 
ATOM     42  C   UNL A   1      40.687  28.050  28.797  1.00  0.00     0.049 A 
ATOM     43  H   UNL A   1      40.590  28.906  30.695  1.00  0.00     0.167 HD
ATOM     44  C   UNL A   1      40.528  31.136  34.464  1.00  0.00     0.034 A 
ATOM     45  C   UNL A   1      41.800  27.292  28.756  1.00  0.00     0.034 A 
ATOM     46  C   UNL A   1      41.631  30.221  34.581  1.00  0.00     0.049 A 
ATOM     47  C   UNL A   1      42.667  27.202  29.983  1.00  0.00     0.074 A 
ATOM     48  C   UNL A   1      42.466  30.013  35.665  1.00  0.00     0.029 A 
ATOM     49  N   UNL A   1      42.059  29.365  33.577  1.00  0.00    -0.354 N 
ATOM     50  N   UNL A   1      42.520  27.795  31.142  1.00  0.00    -0.248 NA
ATOM     51  C   UNL A   1      43.831  26.308  29.910  1.00  0.00     0.031 C 
ATOM     52  C   UNL A   1      43.411  29.045  35.309  1.00  0.00     0.029 A 
ATOM     53  C   UNL A   1      43.150  28.632  34.012  1.00  0.00     0.049 A 
ATOM     54  H   UNL A   1      41.647  29.290  32.687  1.00  0.00     0.167 HD
ATOM     55  C   UNL A   1      43.549  27.322  31.947  1.00  0.00     0.074 A 
ATOM     56  C   UNL A   1      44.301  26.375  31.148  1.00  0.00     0.031 C 
ATOM     57  C   UNL A   1      43.855  27.653  33.226  1.00  0.00     0.034 A 
BRANCH  44  58
ATOM     58  C   UNL A   1      40.237  32.050  35.627  1.00  0.00     0.023 A 
ATOM     59  C   UNL A   1      40.989  33.232  35.787  1.00  0.00     0.012 A 
ATOM     60  C   UNL A   1      39.184  31.776  36.521  1.00  0.00     0.148 A 
ATOM     61  C   UNL A   1      40.722  34.108  36.838  1.00  0.00     0.002 A 
ATOM     62  C   UNL A   1      38.895  32.676  37.540  1.00  0.00     0.091 A 
ATOM     63  F   UNL A   1      38.492  30.638  36.366  1.00  0.00    -0.205 F 
ATOM     64  C   UNL A   1      39.669  33.836  37.707  1.00  0.00     0.022 A 
BRANCH  62  65
ATOM     65  S   UNL A   1      37.510  32.457  38.664  1.00  0.00     0.127 S 
ATOM     66  O   UNL A   1      37.876  33.352  39.761  1.00  0.00    -0.237 OA
ATOM     67  O   UNL A   1      36.380  32.916  37.854  1.00  0.00    -0.237 OA
ATOM     68  O   UNL A   1      37.482  31.039  38.995  1.00  0.00    -0.744 OA
ENDBRANCH  62  65
ENDBRANCH  44  58
BRANCH  45  69
ATOM     69  C   UNL A   1      42.116  26.504  27.531  1.00  0.00     0.023 A 
ATOM     70  C   UNL A   1      42.747  27.142  26.445  1.00  0.00     0.012 A 
ATOM     71  C   UNL A   1      41.835  25.127  27.450  1.00  0.00     0.148 A 
ATOM     72  C   UNL A   1      43.063  26.430  25.288  1.00  0.00     0.002 A 
ATOM     73  C   UNL A   1      42.205  24.412  26.317  1.00  0.00     0.091 A 
ATOM     74  F   UNL A   1      41.225  24.541  28.490  1.00  0.00    -0.205 F 
ATOM     75  C   UNL A   1      42.803  25.064  25.228  1.00  0.00     0.022 A 
BRANCH  73  76
ATOM     76  S   UNL A   1      42.035  22.626  26.210  1.00  0.00     0.127 S 
ATOM     77  O   UNL A   1      42.711  22.335  24.949  1.00  0.00    -0.237 OA
ATOM     78  O   UNL A   1      42.747  22.181  27.409  1.00  0.00    -0.237 OA
ATOM     79  O   UNL A   1      40.601  22.366  26.237  1.00  0.00    -0.744 OA
ENDBRANCH  73  76
ENDBRANCH  45  69
BRANCH  57  80
ATOM     80  C   UNL A   1      45.033  26.966  33.863  1.00  0.00     0.023 A 
ATOM     81  C   UNL A   1      46.313  27.550  33.782  1.00  0.00     0.012 A 
ATOM     82  C   UNL A   1      44.858  25.783  34.609  1.00  0.00     0.148 A 
ATOM     83  C   UNL A   1      47.406  26.952  34.407  1.00  0.00     0.002 A 
ATOM     84  C   UNL A   1      45.943  25.218  35.270  1.00  0.00     0.091 A 
ATOM     85  F   UNL A   1      43.637  25.232  34.657  1.00  0.00    -0.205 F 
ATOM     86  C   UNL A   1      47.219  25.795  35.161  1.00  0.00     0.022 A 
BRANCH  84  87
ATOM     87  S   UNL A   1      45.776  23.785  36.339  1.00  0.00     0.127 S 
ATOM     88  O   UNL A   1      47.158  23.568  36.764  1.00  0.00    -0.237 OA
ATOM     89  O   UNL A   1      44.886  24.281  37.389  1.00  0.00    -0.237 OA
ATOM     90  O   UNL A   1      45.203  22.733  35.511  1.00  0.00    -0.744 OA
ENDBRANCH  84  87
ENDBRANCH  57  80
ENDBRANCH  31  32
ENDBRANCH  23  26
ENDBRANCH  21  22
ENDBRANCH   1  21
TORSDOF 15
ENDMDL
