MODEL 1
REMARK VINA RESULT:     -12.1      0.000      0.000
REMARK SMILES CCc1ccc(C(=O)N2CC[C@H](C(=O)NCCCNC(=O)c3ccc(-c4c5nc(c(-c6cccc(S(=O)(=O)[O-])c6F)c6ccc([nH]6)c(-c6cccc(S(=O)(=O)[O-])c6F)c6nc(c(-c7cccc(S(=O)(=O)[O-])c7F)c7ccc4[nH]7)C=C6)C=C5)cc3)[C@@H]2C)s1
REMARK SMILES IDX 17 1 16 2 15 3 13 4 14 5 12 7 9 8 10 9 85 10 11 11 86 12
REMARK SMILES IDX 7 13 8 14 6 15 3 16 4 17 87 18 5 19 2 20 1 21 18 22 19 23
REMARK SMILES IDX 20 24 21 26 22 27 23 28 84 29 24 30 83 31 25 32 26 33 27 34
REMARK SMILES IDX 77 35 28 36 82 37 76 38 78 39 29 40 81 41 75 42 74 43 30 45
REMARK SMILES IDX 62 46 42 47 61 48 43 49 46 50 60 51 79 52 44 53 45 54 59 56
REMARK SMILES IDX 80 57 47 58 31 59 32 60 40 61 33 62 35 63 41 64 34 65 36 66
REMARK SMILES IDX 37 67 38 68 39 69 63 70 64 71 72 72 65 73 67 74 73 75 66 76
REMARK SMILES IDX 68 77 69 78 70 79 71 80 48 81 49 82 57 83 50 84 52 85 58 86
REMARK SMILES IDX 51 87 53 88 54 89 55 90 56 91
REMARK H PARENT 15 6 19 25 78 44 46 55
REMARK Flexibility Score: inf
ROOT
ATOM      1  C   UNL A   1      32.719  29.524  25.449  1.00  0.00     0.042 C 
ENDROOT
BRANCH   1   2
ATOM      2  C   UNL A   1      31.372  29.349  24.747  1.00  0.00     0.117 C 
BRANCH   2   3
ATOM      3  N   UNL A   1      31.540  28.605  23.511  1.00  0.00    -0.356 N 
ATOM      4  C   UNL A   1      31.514  27.268  23.263  1.00  0.00     0.225 C 
ATOM      5  O   UNL A   1      31.888  26.900  22.149  1.00  0.00    -0.275 OA
ATOM      6  H   UNL A   1      31.699  29.164  22.716  1.00  0.00     0.163 HD
BRANCH   4   7
ATOM      7  C   UNL A   1      30.944  26.300  24.291  1.00  0.00     0.102 C 
ATOM      8  N   UNL A   1      31.647  24.192  25.151  1.00  0.00    -0.334 N 
ATOM      9  C   UNL A   1      31.165  23.933  23.817  1.00  0.00     0.121 C 
ATOM     10  C   UNL A   1      31.899  25.627  25.311  1.00  0.00     0.094 C 
ATOM     11  C   UNL A   1      30.240  25.111  23.588  1.00  0.00     0.037 C 
ATOM     12  C   UNL A   1      33.394  25.887  25.153  1.00  0.00     0.032 C 
BRANCH   8  13
ATOM     13  C   UNL A   1      31.935  23.152  26.028  1.00  0.00     0.264 C 
ATOM     14  O   UNL A   1      31.496  23.183  27.179  1.00  0.00    -0.268 OA
BRANCH  13  15
ATOM     15  C   UNL A   1      32.835  22.098  25.570  1.00  0.00     0.092 A 
ATOM     16  C   UNL A   1      33.732  19.897  24.861  1.00  0.00     0.005 A 
ATOM     17  C   UNL A   1      34.734  20.787  25.189  1.00  0.00     0.016 A 
ATOM     18  S   UNL A   1      32.184  20.614  25.011  1.00  0.00    -0.135 S 
ATOM     19  C   UNL A   1      34.217  22.041  25.621  1.00  0.00     0.026 A 
BRANCH  16  20
ATOM     20  C   UNL A   1      33.873  18.455  24.468  1.00  0.00     0.043 C 
ATOM     21  C   UNL A   1      32.688  17.611  24.903  1.00  0.00     0.010 C 
ENDBRANCH  16  20
ENDBRANCH  13  15
ENDBRANCH   8  13
ENDBRANCH   4   7
ENDBRANCH   2   3
ENDBRANCH   1   2
BRANCH   1  22
ATOM     22  C   UNL A   1      32.606  29.959  26.905  1.00  0.00     0.118 C 
BRANCH  22  23
ATOM     23  N   UNL A   1      32.718  31.397  27.052  1.00  0.00    -0.352 N 
ATOM     24  C   UNL A   1      33.687  32.164  27.652  1.00  0.00     0.251 C 
ATOM     25  H   UNL A   1      31.976  31.909  26.655  1.00  0.00     0.163 HD
ATOM     26  O   UNL A   1      33.432  33.350  27.859  1.00  0.00    -0.269 OA
BRANCH  24  27
ATOM     27  C   UNL A   1      35.012  31.619  28.055  1.00  0.00     0.039 A 
ATOM     28  C   UNL A   1      35.086  30.269  28.421  1.00  0.00     0.014 A 
ATOM     29  C   UNL A   1      36.150  32.418  28.199  1.00  0.00     0.014 A 
ATOM     30  C   UNL A   1      36.275  29.733  28.932  1.00  0.00     0.010 A 
ATOM     31  C   UNL A   1      37.363  31.860  28.615  1.00  0.00     0.010 A 
ATOM     32  C   UNL A   1      37.426  30.527  29.042  1.00  0.00    -0.014 A 
BRANCH  32  33
ATOM     33  C   UNL A   1      38.655  30.012  29.707  1.00  0.00     0.031 A 
ATOM     34  C   UNL A   1      39.019  30.495  31.093  1.00  0.00     0.074 A 
ATOM     35  C   UNL A   1      39.466  29.143  29.073  1.00  0.00     0.049 A 
ATOM     36  N   UNL A   1      40.049  30.175  31.836  1.00  0.00    -0.248 NA
ATOM     37  C   UNL A   1      38.129  31.491  31.712  1.00  0.00     0.031 C 
ATOM     38  C   UNL A   1      39.285  28.657  27.705  1.00  0.00     0.029 A 
ATOM     39  N   UNL A   1      40.617  28.524  29.496  1.00  0.00    -0.354 N 
ATOM     40  C   UNL A   1      39.957  30.966  32.976  1.00  0.00     0.074 A 
ATOM     41  C   UNL A   1      38.790  31.805  32.817  1.00  0.00     0.031 C 
ATOM     42  C   UNL A   1      40.281  27.806  27.405  1.00  0.00     0.029 A 
ATOM     43  C   UNL A   1      41.174  27.688  28.556  1.00  0.00     0.049 A 
ATOM     44  H   UNL A   1      41.007  28.664  30.388  1.00  0.00     0.167 HD
ATOM     45  C   UNL A   1      40.742  30.970  34.080  1.00  0.00     0.034 A 
ATOM     46  C   UNL A   1      42.266  26.900  28.621  1.00  0.00     0.034 A 
ATOM     47  C   UNL A   1      41.839  30.067  34.291  1.00  0.00     0.049 A 
ATOM     48  C   UNL A   1      43.043  26.822  29.910  1.00  0.00     0.074 A 
ATOM     49  C   UNL A   1      42.638  29.928  35.414  1.00  0.00     0.029 A 
ATOM     50  N   UNL A   1      42.278  29.132  33.368  1.00  0.00    -0.354 N 
ATOM     51  N   UNL A   1      42.838  27.464  31.036  1.00  0.00    -0.248 NA
ATOM     52  C   UNL A   1      44.167  25.875  29.955  1.00  0.00     0.031 C 
ATOM     53  C   UNL A   1      43.550  28.894  35.174  1.00  0.00     0.029 A 
ATOM     54  C   UNL A   1      43.323  28.398  33.901  1.00  0.00     0.049 A 
ATOM     55  H   UNL A   1      41.902  29.009  32.467  1.00  0.00     0.167 HD
ATOM     56  C   UNL A   1      43.783  26.971  31.929  1.00  0.00     0.074 A 
ATOM     57  C   UNL A   1      44.545  25.964  31.223  1.00  0.00     0.031 C 
ATOM     58  C   UNL A   1      44.016  27.340  33.214  1.00  0.00     0.034 A 
BRANCH  45  59
ATOM     59  C   UNL A   1      40.383  31.922  35.189  1.00  0.00     0.023 A 
ATOM     60  C   UNL A   1      41.127  33.109  35.342  1.00  0.00     0.012 A 
ATOM     61  C   UNL A   1      39.292  31.675  36.044  1.00  0.00     0.148 A 
ATOM     62  C   UNL A   1      40.812  34.023  36.347  1.00  0.00     0.002 A 
ATOM     63  C   UNL A   1      38.959  32.608  37.021  1.00  0.00     0.091 A 
ATOM     64  F   UNL A   1      38.610  30.529  35.901  1.00  0.00    -0.205 F 
ATOM     65  C   UNL A   1      39.723  33.777  37.179  1.00  0.00     0.022 A 
BRANCH  63  66
ATOM     66  S   UNL A   1      37.533  32.413  38.096  1.00  0.00     0.127 S 
ATOM     67  O   UNL A   1      37.418  30.958  38.174  1.00  0.00    -0.237 OA
ATOM     68  O   UNL A   1      37.981  33.057  39.331  1.00  0.00    -0.237 OA
ATOM     69  O   UNL A   1      36.436  33.098  37.424  1.00  0.00    -0.744 OA
ENDBRANCH  63  66
ENDBRANCH  45  59
BRANCH  46  70
ATOM     70  C   UNL A   1      42.619  26.025  27.468  1.00  0.00     0.023 A 
ATOM     71  C   UNL A   1      43.467  26.528  26.462  1.00  0.00     0.012 A 
ATOM     72  C   UNL A   1      42.153  24.700  27.373  1.00  0.00     0.148 A 
ATOM     73  C   UNL A   1      43.822  25.738  25.369  1.00  0.00     0.002 A 
ATOM     74  C   UNL A   1      42.550  23.902  26.306  1.00  0.00     0.091 A 
ATOM     75  F   UNL A   1      41.331  24.242  28.328  1.00  0.00    -0.205 F 
ATOM     76  C   UNL A   1      43.373  24.422  25.295  1.00  0.00     0.022 A 
BRANCH  74  77
ATOM     77  S   UNL A   1      42.115  22.161  26.220  1.00  0.00     0.127 S 
ATOM     78  O   UNL A   1      40.660  22.218  26.127  1.00  0.00    -0.237 OA
ATOM     79  O   UNL A   1      42.793  21.726  24.998  1.00  0.00    -0.237 OA
ATOM     80  O   UNL A   1      42.662  21.579  27.439  1.00  0.00    -0.744 OA
ENDBRANCH  74  77
ENDBRANCH  46  70
BRANCH  58  81
ATOM     81  C   UNL A   1      45.114  26.632  33.959  1.00  0.00     0.023 A 
ATOM     82  C   UNL A   1      46.435  27.112  33.862  1.00  0.00     0.012 A 
ATOM     83  C   UNL A   1      44.831  25.549  34.812  1.00  0.00     0.148 A 
ATOM     84  C   UNL A   1      47.462  26.508  34.586  1.00  0.00     0.002 A 
ATOM     85  C   UNL A   1      45.855  24.975  35.559  1.00  0.00     0.091 A 
ATOM     86  F   UNL A   1      43.573  25.088  34.874  1.00  0.00    -0.205 F 
ATOM     87  C   UNL A   1      47.171  25.448  35.442  1.00  0.00     0.022 A 
BRANCH  85  88
ATOM     88  S   UNL A   1      45.522  23.663  36.741  1.00  0.00     0.127 S 
ATOM     89  O   UNL A   1      46.860  23.368  37.250  1.00  0.00    -0.237 OA
ATOM     90  O   UNL A   1      44.635  24.313  37.707  1.00  0.00    -0.237 OA
ATOM     91  O   UNL A   1      44.885  22.606  35.967  1.00  0.00    -0.744 OA
ENDBRANCH  85  88
ENDBRANCH  58  81
ENDBRANCH  32  33
ENDBRANCH  24  27
ENDBRANCH  22  23
ENDBRANCH   1  22
TORSDOF 16
ENDMDL
MODEL 2
REMARK VINA RESULT:     -12.0      1.254      1.595
REMARK SMILES CCc1ccc(C(=O)N2CC[C@H](C(=O)NCCCNC(=O)c3ccc(-c4c5nc(c(-c6cccc(S(=O)(=O)[O-])c6F)c6ccc([nH]6)c(-c6cccc(S(=O)(=O)[O-])c6F)c6nc(c(-c7cccc(S(=O)(=O)[O-])c7F)c7ccc4[nH]7)C=C6)C=C5)cc3)[C@@H]2C)s1
REMARK SMILES IDX 17 1 16 2 15 3 13 4 14 5 12 7 9 8 10 9 85 10 11 11 86 12
REMARK SMILES IDX 7 13 8 14 6 15 3 16 4 17 87 18 5 19 2 20 1 21 18 22 19 23
REMARK SMILES IDX 20 24 21 26 22 27 23 28 84 29 24 30 83 31 25 32 26 33 27 34
REMARK SMILES IDX 77 35 28 36 82 37 76 38 78 39 29 40 81 41 75 42 74 43 30 45
REMARK SMILES IDX 62 46 42 47 61 48 43 49 46 50 60 51 79 52 44 53 45 54 59 56
REMARK SMILES IDX 80 57 47 58 31 59 32 60 40 61 33 62 35 63 41 64 34 65 36 66
REMARK SMILES IDX 37 67 38 68 39 69 63 70 64 71 72 72 65 73 67 74 73 75 66 76
REMARK SMILES IDX 68 77 69 78 70 79 71 80 48 81 49 82 57 83 50 84 52 85 58 86
REMARK SMILES IDX 51 87 53 88 54 89 55 90 56 91
REMARK H PARENT 15 6 19 25 78 44 46 55
REMARK Flexibility Score: inf
ROOT
ATOM      1  C   UNL A   1      32.443  29.336  25.338  1.00  0.00     0.042 C 
ENDROOT
BRANCH   1   2
ATOM      2  C   UNL A   1      31.183  29.262  24.477  1.00  0.00     0.117 C 
BRANCH   2   3
ATOM      3  N   UNL A   1      31.424  28.450  23.296  1.00  0.00    -0.356 N 
ATOM      4  C   UNL A   1      31.519  27.102  23.143  1.00  0.00     0.225 C 
ATOM      5  O   UNL A   1      31.931  26.691  22.058  1.00  0.00    -0.275 OA
ATOM      6  H   UNL A   1      31.538  28.964  22.464  1.00  0.00     0.163 HD
BRANCH   4   7
ATOM      7  C   UNL A   1      31.030  26.162  24.237  1.00  0.00     0.102 C 
ATOM      8  N   UNL A   1      31.807  24.085  25.106  1.00  0.00    -0.334 N 
ATOM      9  C   UNL A   1      31.235  23.783  23.817  1.00  0.00     0.121 C 
ATOM     10  C   UNL A   1      32.059  25.524  25.206  1.00  0.00     0.094 C 
ATOM     11  C   UNL A   1      30.287  24.948  23.620  1.00  0.00     0.037 C 
ATOM     12  C   UNL A   1      33.537  25.789  24.935  1.00  0.00     0.032 C 
BRANCH   8  13
ATOM     13  C   UNL A   1      32.165  23.072  25.990  1.00  0.00     0.264 C 
ATOM     14  O   UNL A   1      31.783  23.120  27.161  1.00  0.00    -0.268 OA
BRANCH  13  15
ATOM     15  C   UNL A   1      33.066  22.029  25.511  1.00  0.00     0.092 A 
ATOM     16  C   UNL A   1      33.976  19.835  24.798  1.00  0.00     0.005 A 
ATOM     17  C   UNL A   1      34.973  20.749  25.071  1.00  0.00     0.016 A 
ATOM     18  S   UNL A   1      32.422  20.525  25.001  1.00  0.00    -0.135 S 
ATOM     19  C   UNL A   1      34.449  21.999  25.507  1.00  0.00     0.026 A 
BRANCH  16  20
ATOM     20  C   UNL A   1      34.129  18.390  24.421  1.00  0.00     0.043 C 
ATOM     21  C   UNL A   1      32.849  17.791  23.864  1.00  0.00     0.010 C 
ENDBRANCH  16  20
ENDBRANCH  13  15
ENDBRANCH   8  13
ENDBRANCH   4   7
ENDBRANCH   2   3
ENDBRANCH   1   2
BRANCH   1  22
ATOM     22  C   UNL A   1      32.200  29.861  26.747  1.00  0.00     0.118 C 
BRANCH  22  23
ATOM     23  N   UNL A   1      32.273  31.307  26.807  1.00  0.00    -0.352 N 
ATOM     24  C   UNL A   1      33.215  32.135  27.368  1.00  0.00     0.251 C 
ATOM     25  H   UNL A   1      31.522  31.774  26.373  1.00  0.00     0.163 HD
ATOM     26  O   UNL A   1      32.927  33.325  27.500  1.00  0.00    -0.269 OA
BRANCH  24  27
ATOM     27  C   UNL A   1      34.550  31.652  27.816  1.00  0.00     0.039 A 
ATOM     28  C   UNL A   1      34.669  30.310  28.202  1.00  0.00     0.014 A 
ATOM     29  C   UNL A   1      35.649  32.499  27.981  1.00  0.00     0.014 A 
ATOM     30  C   UNL A   1      35.864  29.832  28.754  1.00  0.00     0.010 A 
ATOM     31  C   UNL A   1      36.871  31.999  28.439  1.00  0.00     0.010 A 
ATOM     32  C   UNL A   1      36.977  30.675  28.885  1.00  0.00    -0.014 A 
BRANCH  32  33
ATOM     33  C   UNL A   1      38.207  30.220  29.592  1.00  0.00     0.031 A 
ATOM     34  C   UNL A   1      38.484  30.693  31.001  1.00  0.00     0.074 A 
ATOM     35  C   UNL A   1      39.096  29.416  28.976  1.00  0.00     0.049 A 
ATOM     36  N   UNL A   1      39.499  30.420  31.781  1.00  0.00    -0.248 NA
ATOM     37  C   UNL A   1      37.509  31.620  31.602  1.00  0.00     0.031 C 
ATOM     38  C   UNL A   1      39.001  28.950  27.593  1.00  0.00     0.029 A 
ATOM     39  N   UNL A   1      40.264  28.858  29.436  1.00  0.00    -0.354 N 
ATOM     40  C   UNL A   1      39.312  31.178  32.932  1.00  0.00     0.074 A 
ATOM     41  C   UNL A   1      38.104  31.948  32.740  1.00  0.00     0.031 C 
ATOM     42  C   UNL A   1      40.059  28.168  27.319  1.00  0.00     0.029 A 
ATOM     43  C   UNL A   1      40.909  28.078  28.504  1.00  0.00     0.049 A 
ATOM     44  H   UNL A   1      40.607  29.002  30.347  1.00  0.00     0.167 HD
ATOM     45  C   UNL A   1      40.049  31.205  34.068  1.00  0.00     0.034 A 
ATOM     46  C   UNL A   1      42.043  27.357  28.600  1.00  0.00     0.034 A 
ATOM     47  C   UNL A   1      41.190  30.366  34.308  1.00  0.00     0.049 A 
ATOM     48  C   UNL A   1      42.770  27.298  29.919  1.00  0.00     0.074 A 
ATOM     49  C   UNL A   1      41.948  30.250  35.461  1.00  0.00     0.029 A 
ATOM     50  N   UNL A   1      41.723  29.479  33.387  1.00  0.00    -0.354 N 
ATOM     51  N   UNL A   1      42.480  27.900  31.048  1.00  0.00    -0.248 NA
ATOM     52  C   UNL A   1      43.947  26.419  29.993  1.00  0.00     0.031 C 
ATOM     53  C   UNL A   1      42.931  29.279  35.239  1.00  0.00     0.029 A 
ATOM     54  C   UNL A   1      42.788  28.798  33.948  1.00  0.00     0.049 A 
ATOM     55  H   UNL A   1      41.393  29.354  32.468  1.00  0.00     0.167 HD
ATOM     56  C   UNL A   1      43.416  27.446  31.971  1.00  0.00     0.074 A 
ATOM     57  C   UNL A   1      44.266  26.502  31.278  1.00  0.00     0.031 C 
ATOM     58  C   UNL A   1      43.572  27.800  33.272  1.00  0.00     0.034 A 
BRANCH  45  59
ATOM     59  C   UNL A   1      39.586  32.109  35.180  1.00  0.00     0.023 A 
ATOM     60  C   UNL A   1      38.627  31.634  36.096  1.00  0.00     0.012 A 
ATOM     61  C   UNL A   1      40.126  33.398  35.349  1.00  0.00     0.148 A 
ATOM     62  C   UNL A   1      38.188  32.437  37.148  1.00  0.00     0.002 A 
ATOM     63  C   UNL A   1      39.712  34.180  36.422  1.00  0.00     0.091 A 
ATOM     64  F   UNL A   1      41.019  33.843  34.454  1.00  0.00    -0.205 F 
ATOM     65  C   UNL A   1      38.738  33.705  37.317  1.00  0.00     0.022 A 
BRANCH  63  66
ATOM     66  S   UNL A   1      40.411  35.801  36.762  1.00  0.00     0.127 S 
ATOM     67  O   UNL A   1      39.651  36.649  35.846  1.00  0.00    -0.237 OA
ATOM     68  O   UNL A   1      40.092  35.990  38.177  1.00  0.00    -0.237 OA
ATOM     69  O   UNL A   1      41.836  35.682  36.476  1.00  0.00    -0.744 OA
ENDBRANCH  63  66
ENDBRANCH  45  59
BRANCH  46  70
ATOM     70  C   UNL A   1      42.497  26.531  27.446  1.00  0.00     0.023 A 
ATOM     71  C   UNL A   1      43.338  27.111  26.477  1.00  0.00     0.012 A 
ATOM     72  C   UNL A   1      42.133  25.177  27.315  1.00  0.00     0.148 A 
ATOM     73  C   UNL A   1      43.786  26.369  25.384  1.00  0.00     0.002 A 
ATOM     74  C   UNL A   1      42.621  24.429  26.249  1.00  0.00     0.091 A 
ATOM     75  F   UNL A   1      41.315  24.644  28.235  1.00  0.00    -0.205 F 
ATOM     76  C   UNL A   1      43.437  25.026  25.275  1.00  0.00     0.022 A 
BRANCH  74  77
ATOM     77  S   UNL A   1      42.318  22.664  26.122  1.00  0.00     0.127 S 
ATOM     78  O   UNL A   1      42.992  22.154  27.312  1.00  0.00    -0.237 OA
ATOM     79  O   UNL A   1      40.856  22.591  26.166  1.00  0.00    -0.237 OA
ATOM     80  O   UNL A   1      42.891  22.277  24.839  1.00  0.00    -0.744 OA
ENDBRANCH  74  77
ENDBRANCH  46  70
BRANCH  58  81
ATOM     81  C   UNL A   1      44.680  27.143  34.048  1.00  0.00     0.023 A 
ATOM     82  C   UNL A   1      45.975  27.695  34.005  1.00  0.00     0.012 A 
ATOM     83  C   UNL A   1      44.427  26.035  34.879  1.00  0.00     0.148 A 
ATOM     84  C   UNL A   1      47.008  27.139  34.760  1.00  0.00     0.002 A 
ATOM     85  C   UNL A   1      45.452  25.509  35.656  1.00  0.00     0.091 A 
ATOM     86  F   UNL A   1      43.194  25.506  34.890  1.00  0.00    -0.205 F 
ATOM     87  C   UNL A   1      46.744  26.054  35.593  1.00  0.00     0.022 A 
BRANCH  85  88
ATOM     88  S   UNL A   1      45.150  24.165  36.811  1.00  0.00     0.127 S 
ATOM     89  O   UNL A   1      44.647  23.115  35.929  1.00  0.00    -0.237 OA
ATOM     90  O   UNL A   1      46.480  23.908  37.365  1.00  0.00    -0.237 OA
ATOM     91  O   UNL A   1      44.199  24.701  37.776  1.00  0.00    -0.744 OA
ENDBRANCH  85  88
ENDBRANCH  58  81
ENDBRANCH  32  33
ENDBRANCH  24  27
ENDBRANCH  22  23
ENDBRANCH   1  22
TORSDOF 16
ENDMDL
MODEL 3
REMARK VINA RESULT:     -12.0      2.542      8.342
REMARK SMILES CCc1ccc(C(=O)N2CC[C@H](C(=O)NCCCNC(=O)c3ccc(-c4c5nc(c(-c6cccc(S(=O)(=O)[O-])c6F)c6ccc([nH]6)c(-c6cccc(S(=O)(=O)[O-])c6F)c6nc(c(-c7cccc(S(=O)(=O)[O-])c7F)c7ccc4[nH]7)C=C6)C=C5)cc3)[C@@H]2C)s1
REMARK SMILES IDX 17 1 16 2 15 3 13 4 14 5 12 7 9 8 10 9 85 10 11 11 86 12
REMARK SMILES IDX 7 13 8 14 6 15 3 16 4 17 87 18 5 19 2 20 1 21 18 22 19 23
REMARK SMILES IDX 20 24 21 26 22 27 23 28 84 29 24 30 83 31 25 32 26 33 27 34
REMARK SMILES IDX 77 35 28 36 82 37 76 38 78 39 29 40 81 41 75 42 74 43 30 45
REMARK SMILES IDX 62 46 42 47 61 48 43 49 46 50 60 51 79 52 44 53 45 54 59 56
REMARK SMILES IDX 80 57 47 58 31 59 32 60 40 61 33 62 35 63 41 64 34 65 36 66
REMARK SMILES IDX 37 67 38 68 39 69 63 70 64 71 72 72 65 73 67 74 73 75 66 76
REMARK SMILES IDX 68 77 69 78 70 79 71 80 48 81 49 82 57 83 50 84 52 85 58 86
REMARK SMILES IDX 51 87 53 88 54 89 55 90 56 91
REMARK H PARENT 15 6 19 25 78 44 46 55
REMARK Flexibility Score: inf
ROOT
ATOM      1  C   UNL A   1      31.651  32.119  26.559  1.00  0.00     0.042 C 
ENDROOT
BRANCH   1   2
ATOM      2  C   UNL A   1      31.679  30.593  26.484  1.00  0.00     0.117 C 
BRANCH   2   3
ATOM      3  N   UNL A   1      31.844  30.157  25.109  1.00  0.00    -0.356 N 
ATOM      4  C   UNL A   1      31.743  28.924  24.543  1.00  0.00     0.225 C 
ATOM      5  O   UNL A   1      32.133  28.809  23.381  1.00  0.00    -0.275 OA
ATOM      6  H   UNL A   1      32.068  30.878  24.476  1.00  0.00     0.163 HD
BRANCH   4   7
ATOM      7  C   UNL A   1      31.074  27.780  25.295  1.00  0.00     0.102 C 
ATOM      8  N   UNL A   1      31.622  25.490  25.656  1.00  0.00    -0.334 N 
ATOM      9  C   UNL A   1      31.190  25.580  24.283  1.00  0.00     0.121 C 
ATOM     10  C   UNL A   1      31.943  26.829  26.158  1.00  0.00     0.094 C 
ATOM     11  C   UNL A   1      30.341  26.835  24.308  1.00  0.00     0.037 C 
ATOM     12  C   UNL A   1      33.455  27.024  26.115  1.00  0.00     0.032 C 
BRANCH   8  13
ATOM     13  C   UNL A   1      31.813  24.257  26.271  1.00  0.00     0.264 C 
ATOM     14  O   UNL A   1      31.281  24.028  27.359  1.00  0.00    -0.268 OA
BRANCH  13  15
ATOM     15  C   UNL A   1      32.723  23.309  25.638  1.00  0.00     0.092 A 
ATOM     16  C   UNL A   1      34.763  22.255  24.699  1.00  0.00     0.005 A 
ATOM     17  C   UNL A   1      33.610  21.628  24.275  1.00  0.00     0.016 A 
ATOM     18  S   UNL A   1      34.416  23.541  25.776  1.00  0.00    -0.135 S 
ATOM     19  C   UNL A   1      32.439  22.251  24.793  1.00  0.00     0.026 A 
BRANCH  16  20
ATOM     20  C   UNL A   1      36.176  21.962  24.287  1.00  0.00     0.043 C 
ATOM     21  C   UNL A   1      36.670  22.887  23.188  1.00  0.00     0.010 C 
ENDBRANCH  16  20
ENDBRANCH  13  15
ENDBRANCH   8  13
ENDBRANCH   4   7
ENDBRANCH   2   3
ENDBRANCH   1   2
BRANCH   1  22
ATOM     22  C   UNL A   1      32.822  32.723  27.324  1.00  0.00     0.118 C 
BRANCH  22  23
ATOM     23  N   UNL A   1      32.597  34.118  27.647  1.00  0.00    -0.352 N 
ATOM     24  C   UNL A   1      33.073  34.888  28.680  1.00  0.00     0.251 C 
ATOM     25  H   UNL A   1      32.004  34.594  27.021  1.00  0.00     0.163 HD
ATOM     26  O   UNL A   1      32.542  35.981  28.873  1.00  0.00    -0.269 OA
BRANCH  24  27
ATOM     27  C   UNL A   1      34.191  34.452  29.562  1.00  0.00     0.039 A 
ATOM     28  C   UNL A   1      35.488  34.457  29.032  1.00  0.00     0.014 A 
ATOM     29  C   UNL A   1      33.989  33.928  30.842  1.00  0.00     0.014 A 
ATOM     30  C   UNL A   1      36.560  33.936  29.768  1.00  0.00     0.010 A 
ATOM     31  C   UNL A   1      35.073  33.500  31.614  1.00  0.00     0.010 A 
ATOM     32  C   UNL A   1      36.361  33.444  31.067  1.00  0.00    -0.014 A 
BRANCH  32  33
ATOM     33  C   UNL A   1      37.460  32.765  31.808  1.00  0.00     0.031 A 
ATOM     34  C   UNL A   1      38.197  31.610  31.170  1.00  0.00     0.074 A 
ATOM     35  C   UNL A   1      37.783  33.147  33.060  1.00  0.00     0.049 A 
ATOM     36  N   UNL A   1      39.174  30.884  31.653  1.00  0.00    -0.248 NA
ATOM     37  C   UNL A   1      37.761  31.196  29.825  1.00  0.00     0.031 C 
ATOM     38  C   UNL A   1      37.102  34.188  33.831  1.00  0.00     0.029 A 
ATOM     39  N   UNL A   1      38.762  32.692  33.908  1.00  0.00    -0.354 N 
ATOM     40  C   UNL A   1      39.427  29.902  30.701  1.00  0.00     0.074 A 
ATOM     41  C   UNL A   1      38.483  30.103  29.625  1.00  0.00     0.031 C 
ATOM     42  C   UNL A   1      37.691  34.300  35.033  1.00  0.00     0.029 A 
ATOM     43  C   UNL A   1      38.789  33.339  35.121  1.00  0.00     0.049 A 
ATOM     44  H   UNL A   1      39.388  31.970  33.670  1.00  0.00     0.167 HD
ATOM     45  C   UNL A   1      40.385  28.944  30.693  1.00  0.00     0.034 A 
ATOM     46  C   UNL A   1      39.615  33.190  36.176  1.00  0.00     0.034 A 
ATOM     47  C   UNL A   1      41.392  28.805  31.707  1.00  0.00     0.049 A 
ATOM     48  C   UNL A   1      40.756  32.210  36.086  1.00  0.00     0.074 A 
ATOM     49  C   UNL A   1      42.462  27.926  31.745  1.00  0.00     0.029 A 
ATOM     50  N   UNL A   1      41.470  29.581  32.852  1.00  0.00    -0.354 N 
ATOM     51  N   UNL A   1      41.073  31.402  35.103  1.00  0.00    -0.248 NA
ATOM     52  C   UNL A   1      41.683  32.158  37.227  1.00  0.00     0.031 C 
ATOM     53  C   UNL A   1      43.196  28.185  32.908  1.00  0.00     0.029 A 
ATOM     54  C   UNL A   1      42.579  29.217  33.595  1.00  0.00     0.049 A 
ATOM     55  H   UNL A   1      40.830  30.286  33.100  1.00  0.00     0.167 HD
ATOM     56  C   UNL A   1      42.251  30.775  35.492  1.00  0.00     0.074 A 
ATOM     57  C   UNL A   1      42.605  31.312  36.788  1.00  0.00     0.031 C 
ATOM     58  C   UNL A   1      42.964  29.820  34.843  1.00  0.00     0.034 A 
BRANCH  45  59
ATOM     59  C   UNL A   1      40.445  28.027  29.501  1.00  0.00     0.023 A 
ATOM     60  C   UNL A   1      39.581  26.914  29.446  1.00  0.00     0.012 A 
ATOM     61  C   UNL A   1      41.312  28.282  28.422  1.00  0.00     0.148 A 
ATOM     62  C   UNL A   1      39.597  26.053  28.351  1.00  0.00     0.002 A 
ATOM     63  C   UNL A   1      41.297  27.441  27.314  1.00  0.00     0.091 A 
ATOM     64  F   UNL A   1      42.145  29.330  28.501  1.00  0.00    -0.205 F 
ATOM     65  C   UNL A   1      40.447  26.322  27.281  1.00  0.00     0.022 A 
BRANCH  63  66
ATOM     66  S   UNL A   1      42.307  27.742  25.859  1.00  0.00     0.127 S 
ATOM     67  O   UNL A   1      41.870  29.081  25.468  1.00  0.00    -0.237 OA
ATOM     68  O   UNL A   1      43.664  27.676  26.400  1.00  0.00    -0.237 OA
ATOM     69  O   UNL A   1      41.979  26.673  24.924  1.00  0.00    -0.744 OA
ENDBRANCH  63  66
ENDBRANCH  45  59
BRANCH  46  70
ATOM     70  C   UNL A   1      39.470  34.079  37.363  1.00  0.00     0.023 A 
ATOM     71  C   UNL A   1      39.895  35.419  37.271  1.00  0.00     0.012 A 
ATOM     72  C   UNL A   1      38.890  33.626  38.562  1.00  0.00     0.148 A 
ATOM     73  C   UNL A   1      39.773  36.283  38.359  1.00  0.00     0.002 A 
ATOM     74  C   UNL A   1      38.726  34.504  39.628  1.00  0.00     0.091 A 
ATOM     75  F   UNL A   1      38.507  32.342  38.642  1.00  0.00    -0.205 F 
ATOM     76  C   UNL A   1      39.179  35.829  39.534  1.00  0.00     0.022 A 
BRANCH  74  77
ATOM     77  S   UNL A   1      37.851  34.021  41.120  1.00  0.00     0.127 S 
ATOM     78  O   UNL A   1      36.671  33.356  40.576  1.00  0.00    -0.237 OA
ATOM     79  O   UNL A   1      38.811  33.130  41.775  1.00  0.00    -0.237 OA
ATOM     80  O   UNL A   1      37.617  35.268  41.837  1.00  0.00    -0.744 OA
ENDBRANCH  74  77
ENDBRANCH  46  70
BRANCH  58  81
ATOM     81  C   UNL A   1      44.218  29.313  35.501  1.00  0.00     0.023 A 
ATOM     82  C   UNL A   1      45.436  29.983  35.275  1.00  0.00     0.012 A 
ATOM     83  C   UNL A   1      44.179  28.231  36.401  1.00  0.00     0.148 A 
ATOM     84  C   UNL A   1      46.602  29.568  35.918  1.00  0.00     0.002 A 
ATOM     85  C   UNL A   1      45.338  27.846  37.065  1.00  0.00     0.091 A 
ATOM     86  F   UNL A   1      43.016  27.588  36.587  1.00  0.00    -0.205 F 
ATOM     87  C   UNL A   1      46.551  28.507  36.821  1.00  0.00     0.022 A 
BRANCH  85  88
ATOM     88  S   UNL A   1      45.313  26.542  38.302  1.00  0.00     0.127 S 
ATOM     89  O   UNL A   1      44.881  25.388  37.517  1.00  0.00    -0.237 OA
ATOM     90  O   UNL A   1      46.707  26.488  38.745  1.00  0.00    -0.237 OA
ATOM     91  O   UNL A   1      44.383  27.005  39.324  1.00  0.00    -0.744 OA
ENDBRANCH  85  88
ENDBRANCH  58  81
ENDBRANCH  32  33
ENDBRANCH  24  27
ENDBRANCH  22  23
ENDBRANCH   1  22
TORSDOF 16
ENDMDL
