MODEL 1
REMARK VINA RESULT:     -13.1      0.000      0.000
REMARK SMILES CC(C)c1cc(C#N)cc2nc(-c3ccc(C(=O)NCCCNC(=O)c4ccc(-c5c6nc(c(-c7cccc(S(=O)(=O)[O-])c7F)c7ccc([nH]7)c(-c7cccc(S(=O)(=O)[O-])c7F)c7nc(c(-c8cccc(S(=O)(=O)[O-])c8F)c8ccc5[nH]8)C=C7)C=C6)cc4)cc3)oc12
REMARK SMILES IDX 21 1 20 2 19 3 17 4 18 5 16 7 13 8 14 9 90 10 15 11 89 12
REMARK SMILES IDX 12 13 4 14 5 15 92 16 6 17 10 18 91 19 9 20 11 21 2 22 1 23
REMARK SMILES IDX 3 24 7 25 8 26 22 27 23 28 24 29 25 31 26 32 27 33 88 34
REMARK SMILES IDX 28 35 87 36 29 37 30 38 31 39 81 40 32 41 86 42 80 43 82 44
REMARK SMILES IDX 33 45 85 46 79 47 78 48 34 50 66 51 46 52 65 53 47 54 50 55
REMARK SMILES IDX 64 56 83 57 48 58 49 59 63 61 84 62 51 63 35 64 36 65 44 66
REMARK SMILES IDX 37 67 39 68 45 69 38 70 40 71 41 72 42 73 43 74 67 75 68 76
REMARK SMILES IDX 76 77 69 78 71 79 77 80 70 81 72 82 73 83 74 84 75 85 52 86
REMARK SMILES IDX 53 87 61 88 54 89 56 90 62 91 55 92 57 93 58 94 59 95 60 96
REMARK H PARENT 19 6 23 30 82 49 50 60
REMARK Flexibility Score: inf
ROOT
ATOM      1  C   UNL A   1      35.334  32.246  27.979  1.00  0.00     0.042 C 
ENDROOT
BRANCH   1   2
ATOM      2  C   UNL A   1      34.495  30.995  27.719  1.00  0.00     0.118 C 
BRANCH   2   3
ATOM      3  N   UNL A   1      33.244  31.206  26.998  1.00  0.00    -0.352 N 
ATOM      4  C   UNL A   1      32.343  30.362  26.381  1.00  0.00     0.251 C 
ATOM      5  O   UNL A   1      31.324  30.873  25.906  1.00  0.00    -0.269 OA
ATOM      6  H   UNL A   1      32.987  32.155  26.939  1.00  0.00     0.163 HD
BRANCH   4   7
ATOM      7  C   UNL A   1      32.542  28.892  26.200  1.00  0.00     0.039 A 
ATOM      8  C   UNL A   1      32.690  26.091  25.768  1.00  0.00     0.037 A 
ATOM      9  C   UNL A   1      31.668  26.624  26.557  1.00  0.00     0.014 A 
ATOM     10  C   UNL A   1      33.670  26.960  25.273  1.00  0.00     0.014 A 
ATOM     11  C   UNL A   1      31.594  28.014  26.765  1.00  0.00     0.014 A 
ATOM     12  C   UNL A   1      33.626  28.329  25.534  1.00  0.00     0.014 A 
BRANCH   8  13
ATOM     13  C   UNL A   1      32.838  24.677  25.465  1.00  0.00     0.227 A 
ATOM     14  C   UNL A   1      34.897  21.883  24.805  1.00  0.00     0.001 A 
ATOM     15  C   UNL A   1      34.399  20.556  24.804  1.00  0.00     0.027 A 
ATOM     16  C   UNL A   1      33.926  22.854  25.074  1.00  0.00     0.158 A 
ATOM     17  C   UNL A   1      33.053  20.248  25.074  1.00  0.00     0.055 A 
ATOM     18  C   UNL A   1      32.597  22.581  25.364  1.00  0.00     0.111 A 
ATOM     19  O   UNL A   1      34.081  24.218  25.114  1.00  0.00    -0.436 OA
ATOM     20  C   UNL A   1      32.138  21.262  25.376  1.00  0.00     0.052 A 
ATOM     21  N   UNL A   1      31.921  23.739  25.608  1.00  0.00    -0.209 NA
BRANCH  14  22
ATOM     22  C   UNL A   1      36.353  22.159  24.503  1.00  0.00     0.017 C 
ATOM     23  C   UNL A   1      36.507  22.800  23.125  1.00  0.00     0.012 C 
ATOM     24  C   UNL A   1      37.021  23.009  25.585  1.00  0.00     0.012 C 
ENDBRANCH  14  22
BRANCH  17  25
ATOM     25  C   UNL A   1      32.600  18.895  25.008  1.00  0.00     0.099 C 
ATOM     26  N   UNL A   1      32.231  17.786  24.997  1.00  0.00    -0.192 NA
ENDBRANCH  17  25
ENDBRANCH   8  13
ENDBRANCH   4   7
ENDBRANCH   2   3
ENDBRANCH   1   2
BRANCH   1  27
ATOM     27  C   UNL A   1      34.722  33.298  28.897  1.00  0.00     0.118 C 
BRANCH  27  28
ATOM     28  N   UNL A   1      34.455  32.847  30.248  1.00  0.00    -0.352 N 
ATOM     29  C   UNL A   1      35.156  32.242  31.253  1.00  0.00     0.251 C 
ATOM     30  H   UNL A   1      33.522  33.024  30.512  1.00  0.00     0.163 HD
ATOM     31  O   UNL A   1      34.591  32.267  32.352  1.00  0.00    -0.269 OA
BRANCH  29  32
ATOM     32  C   UNL A   1      36.451  31.510  31.140  1.00  0.00     0.039 A 
ATOM     33  C   UNL A   1      37.725  32.072  31.135  1.00  0.00     0.014 A 
ATOM     34  C   UNL A   1      36.340  30.117  30.925  1.00  0.00     0.014 A 
ATOM     35  C   UNL A   1      38.833  31.275  30.804  1.00  0.00     0.010 A 
ATOM     36  C   UNL A   1      37.440  29.321  30.606  1.00  0.00     0.010 A 
ATOM     37  C   UNL A   1      38.690  29.907  30.488  1.00  0.00    -0.014 A 
BRANCH  37  38
ATOM     38  C   UNL A   1      39.892  29.079  30.278  1.00  0.00     0.031 A 
ATOM     39  C   UNL A   1      40.590  28.811  31.564  1.00  0.00     0.074 A 
ATOM     40  C   UNL A   1      40.329  28.535  29.113  1.00  0.00     0.049 A 
ATOM     41  N   UNL A   1      41.640  29.426  31.998  1.00  0.00    -0.248 NA
ATOM     42  C   UNL A   1      39.943  27.955  32.572  1.00  0.00     0.031 C 
ATOM     43  C   UNL A   1      39.651  28.518  27.813  1.00  0.00     0.029 A 
ATOM     44  N   UNL A   1      41.465  27.805  28.851  1.00  0.00    -0.354 N 
ATOM     45  C   UNL A   1      41.954  28.810  33.203  1.00  0.00     0.074 A 
ATOM     46  C   UNL A   1      40.778  28.087  33.608  1.00  0.00     0.031 C 
ATOM     47  C   UNL A   1      40.261  27.635  26.982  1.00  0.00     0.029 A 
ATOM     48  C   UNL A   1      41.462  27.128  27.620  1.00  0.00     0.049 A 
ATOM     49  H   UNL A   1      42.222  27.761  29.478  1.00  0.00     0.167 HD
ATOM     50  C   UNL A   1      43.253  28.683  33.584  1.00  0.00     0.034 A 
ATOM     51  C   UNL A   1      42.383  26.228  27.167  1.00  0.00     0.034 A 
ATOM     52  C   UNL A   1      44.109  29.540  32.806  1.00  0.00     0.049 A 
ATOM     53  C   UNL A   1      43.636  26.545  27.876  1.00  0.00     0.074 A 
ATOM     54  C   UNL A   1      44.237  30.895  32.586  1.00  0.00     0.029 A 
ATOM     55  N   UNL A   1      44.729  28.904  31.764  1.00  0.00    -0.354 N 
ATOM     56  N   UNL A   1      44.313  27.640  27.688  1.00  0.00    -0.248 NA
ATOM     57  C   UNL A   1      43.962  25.784  29.067  1.00  0.00     0.031 C 
ATOM     58  C   UNL A   1      44.631  31.019  31.220  1.00  0.00     0.029 A 
ATOM     59  C   UNL A   1      44.804  29.740  30.690  1.00  0.00     0.049 A 
ATOM     60  H   UNL A   1      45.069  27.981  31.786  1.00  0.00     0.167 HD
ATOM     61  C   UNL A   1      44.773  27.952  28.954  1.00  0.00     0.074 A 
ATOM     62  C   UNL A   1      44.666  26.711  29.717  1.00  0.00     0.031 C 
ATOM     63  C   UNL A   1      44.895  29.254  29.332  1.00  0.00     0.034 A 
BRANCH  50  64
ATOM     64  C   UNL A   1      43.813  27.446  34.255  1.00  0.00     0.023 A 
ATOM     65  C   UNL A   1      43.807  26.241  33.519  1.00  0.00     0.012 A 
ATOM     66  C   UNL A   1      44.034  27.343  35.648  1.00  0.00     0.148 A 
ATOM     67  C   UNL A   1      44.004  25.001  34.140  1.00  0.00     0.002 A 
ATOM     68  C   UNL A   1      44.302  26.119  36.250  1.00  0.00     0.091 A 
ATOM     69  F   UNL A   1      43.838  28.406  36.433  1.00  0.00    -0.205 F 
ATOM     70  C   UNL A   1      44.268  24.940  35.503  1.00  0.00     0.022 A 
BRANCH  68  71
ATOM     71  S   UNL A   1      44.647  25.987  38.008  1.00  0.00     0.127 S 
ATOM     72  O   UNL A   1      43.382  26.432  38.586  1.00  0.00    -0.237 OA
ATOM     73  O   UNL A   1      44.927  24.558  38.145  1.00  0.00    -0.237 OA
ATOM     74  O   UNL A   1      45.796  26.849  38.249  1.00  0.00    -0.744 OA
ENDBRANCH  68  71
ENDBRANCH  50  64
BRANCH  51  75
ATOM     75  C   UNL A   1      42.311  24.985  26.338  1.00  0.00     0.023 A 
ATOM     76  C   UNL A   1      43.280  24.773  25.319  1.00  0.00     0.012 A 
ATOM     77  C   UNL A   1      41.564  23.868  26.759  1.00  0.00     0.148 A 
ATOM     78  C   UNL A   1      43.559  23.494  24.817  1.00  0.00     0.002 A 
ATOM     79  C   UNL A   1      41.839  22.595  26.249  1.00  0.00     0.091 A 
ATOM     80  F   UNL A   1      40.652  24.037  27.724  1.00  0.00    -0.205 F 
ATOM     81  C   UNL A   1      42.851  22.401  25.298  1.00  0.00     0.022 A 
BRANCH  79  82
ATOM     82  S   UNL A   1      40.970  21.125  26.813  1.00  0.00     0.127 S 
ATOM     83  O   UNL A   1      40.842  21.378  28.249  1.00  0.00    -0.237 OA
ATOM     84  O   UNL A   1      39.718  21.205  26.066  1.00  0.00    -0.237 OA
ATOM     85  O   UNL A   1      41.837  20.003  26.477  1.00  0.00    -0.744 OA
ENDBRANCH  79  82
ENDBRANCH  51  75
BRANCH  63  86
ATOM     86  C   UNL A   1      44.973  30.301  28.259  1.00  0.00     0.023 A 
ATOM     87  C   UNL A   1      43.844  30.932  27.698  1.00  0.00     0.012 A 
ATOM     88  C   UNL A   1      46.256  30.787  27.961  1.00  0.00     0.148 A 
ATOM     89  C   UNL A   1      44.003  32.044  26.865  1.00  0.00     0.002 A 
ATOM     90  C   UNL A   1      46.405  31.913  27.170  1.00  0.00     0.091 A 
ATOM     91  F   UNL A   1      47.307  30.158  28.508  1.00  0.00    -0.205 F 
ATOM     92  C   UNL A   1      45.282  32.547  26.617  1.00  0.00     0.022 A 
BRANCH  90  93
ATOM     93  S   UNL A   1      48.012  32.665  26.909  1.00  0.00     0.127 S 
ATOM     94  O   UNL A   1      47.713  33.682  25.903  1.00  0.00    -0.237 OA
ATOM     95  O   UNL A   1      48.326  33.189  28.239  1.00  0.00    -0.237 OA
ATOM     96  O   UNL A   1      48.896  31.594  26.463  1.00  0.00    -0.744 OA
ENDBRANCH  90  93
ENDBRANCH  63  86
ENDBRANCH  37  38
ENDBRANCH  29  32
ENDBRANCH  27  28
ENDBRANCH   1  27
TORSDOF 16
ENDMDL
MODEL 2
REMARK VINA RESULT:     -13.0      2.859      9.293
REMARK SMILES CC(C)c1cc(C#N)cc2nc(-c3ccc(C(=O)NCCCNC(=O)c4ccc(-c5c6nc(c(-c7cccc(S(=O)(=O)[O-])c7F)c7ccc([nH]7)c(-c7cccc(S(=O)(=O)[O-])c7F)c7nc(c(-c8cccc(S(=O)(=O)[O-])c8F)c8ccc5[nH]8)C=C7)C=C6)cc4)cc3)oc12
REMARK SMILES IDX 21 1 20 2 19 3 17 4 18 5 16 7 13 8 14 9 90 10 15 11 89 12
REMARK SMILES IDX 12 13 4 14 5 15 92 16 6 17 10 18 91 19 9 20 11 21 2 22 1 23
REMARK SMILES IDX 3 24 7 25 8 26 22 27 23 28 24 29 25 31 26 32 27 33 88 34
REMARK SMILES IDX 28 35 87 36 29 37 30 38 31 39 81 40 32 41 86 42 80 43 82 44
REMARK SMILES IDX 33 45 85 46 79 47 78 48 34 50 66 51 46 52 65 53 47 54 50 55
REMARK SMILES IDX 64 56 83 57 48 58 49 59 63 61 84 62 51 63 35 64 36 65 44 66
REMARK SMILES IDX 37 67 39 68 45 69 38 70 40 71 41 72 42 73 43 74 67 75 68 76
REMARK SMILES IDX 76 77 69 78 71 79 77 80 70 81 72 82 73 83 74 84 75 85 52 86
REMARK SMILES IDX 53 87 61 88 54 89 56 90 62 91 55 92 57 93 58 94 59 95 60 96
REMARK H PARENT 19 6 23 30 82 49 50 60
REMARK Flexibility Score: inf
ROOT
ATOM      1  C   UNL A   1      36.012  21.156  25.501  1.00  0.00     0.042 C 
ENDROOT
BRANCH   1   2
ATOM      2  C   UNL A   1      35.721  19.831  24.797  1.00  0.00     0.118 C 
BRANCH   2   3
ATOM      3  N   UNL A   1      34.425  19.226  25.089  1.00  0.00    -0.352 N 
ATOM      4  C   UNL A   1      33.130  19.701  25.100  1.00  0.00     0.251 C 
ATOM      5  O   UNL A   1      32.231  18.887  25.335  1.00  0.00    -0.269 OA
ATOM      6  H   UNL A   1      34.489  18.273  25.329  1.00  0.00     0.163 HD
BRANCH   4   7
ATOM      7  C   UNL A   1      32.749  21.133  24.905  1.00  0.00     0.039 A 
ATOM      8  C   UNL A   1      31.851  23.773  24.378  1.00  0.00     0.037 A 
ATOM      9  C   UNL A   1      32.256  22.949  23.325  1.00  0.00     0.014 A 
ATOM     10  C   UNL A   1      31.978  23.292  25.686  1.00  0.00     0.014 A 
ATOM     11  C   UNL A   1      32.695  21.638  23.590  1.00  0.00     0.014 A 
ATOM     12  C   UNL A   1      32.472  22.014  25.946  1.00  0.00     0.014 A 
BRANCH   8  13
ATOM     13  C   UNL A   1      31.351  25.128  24.211  1.00  0.00     0.227 A 
ATOM     14  C   UNL A   1      31.387  28.542  25.120  1.00  0.00     0.001 A 
ATOM     15  C   UNL A   1      30.747  29.541  24.346  1.00  0.00     0.027 A 
ATOM     16  C   UNL A   1      31.250  27.248  24.605  1.00  0.00     0.158 A 
ATOM     17  C   UNL A   1      30.056  29.254  23.154  1.00  0.00     0.055 A 
ATOM     18  C   UNL A   1      30.594  26.935  23.423  1.00  0.00     0.111 A 
ATOM     19  O   UNL A   1      31.722  26.072  25.134  1.00  0.00    -0.436 OA
ATOM     20  C   UNL A   1      29.989  27.944  22.669  1.00  0.00     0.052 A 
ATOM     21  N   UNL A   1      30.665  25.596  23.186  1.00  0.00    -0.209 NA
BRANCH  14  22
ATOM     22  C   UNL A   1      32.112  28.905  26.397  1.00  0.00     0.017 C 
ATOM     23  C   UNL A   1      32.192  30.422  26.561  1.00  0.00     0.012 C 
ATOM     24  C   UNL A   1      31.485  28.249  27.629  1.00  0.00     0.012 C 
ENDBRANCH  14  22
BRANCH  17  25
ATOM     25  C   UNL A   1      29.387  30.297  22.443  1.00  0.00     0.099 C 
ATOM     26  N   UNL A   1      28.874  31.175  21.867  1.00  0.00    -0.192 NA
ENDBRANCH  17  25
ENDBRANCH   8  13
ENDBRANCH   4   7
ENDBRANCH   2   3
ENDBRANCH   1   2
BRANCH   1  27
ATOM     27  C   UNL A   1      37.267  21.900  25.061  1.00  0.00     0.118 C 
BRANCH  27  28
ATOM     28  N   UNL A   1      38.504  21.394  25.620  1.00  0.00    -0.352 N 
ATOM     29  C   UNL A   1      39.439  21.824  26.520  1.00  0.00     0.251 C 
ATOM     30  H   UNL A   1      38.730  20.507  25.257  1.00  0.00     0.163 HD
ATOM     31  O   UNL A   1      40.223  20.944  26.895  1.00  0.00    -0.269 OA
BRANCH  29  32
ATOM     32  C   UNL A   1      39.649  23.216  27.014  1.00  0.00     0.039 A 
ATOM     33  C   UNL A   1      38.876  24.332  26.705  1.00  0.00     0.014 A 
ATOM     34  C   UNL A   1      40.810  23.409  27.798  1.00  0.00     0.014 A 
ATOM     35  C   UNL A   1      39.327  25.610  27.073  1.00  0.00     0.010 A 
ATOM     36  C   UNL A   1      41.254  24.677  28.173  1.00  0.00     0.010 A 
ATOM     37  C   UNL A   1      40.543  25.793  27.764  1.00  0.00    -0.014 A 
BRANCH  37  38
ATOM     38  C   UNL A   1      40.911  27.138  28.246  1.00  0.00     0.031 A 
ATOM     39  C   UNL A   1      42.236  27.554  27.712  1.00  0.00     0.074 A 
ATOM     40  C   UNL A   1      40.166  27.975  29.012  1.00  0.00     0.049 A 
ATOM     41  N   UNL A   1      43.358  27.511  28.353  1.00  0.00    -0.248 NA
ATOM     42  C   UNL A   1      42.384  27.820  26.272  1.00  0.00     0.031 C 
ATOM     43  C   UNL A   1      38.771  27.813  29.434  1.00  0.00     0.029 A 
ATOM     44  N   UNL A   1      40.479  29.209  29.532  1.00  0.00    -0.354 N 
ATOM     45  C   UNL A   1      44.300  28.037  27.477  1.00  0.00     0.074 A 
ATOM     46  C   UNL A   1      43.704  27.999  26.169  1.00  0.00     0.031 C 
ATOM     47  C   UNL A   1      38.298  28.983  29.933  1.00  0.00     0.029 A 
ATOM     48  C   UNL A   1      39.383  29.944  30.013  1.00  0.00     0.049 A 
ATOM     49  H   UNL A   1      41.401  29.551  29.564  1.00  0.00     0.167 HD
ATOM     50  C   UNL A   1      45.347  28.758  27.960  1.00  0.00     0.034 A 
ATOM     51  C   UNL A   1      39.378  31.237  30.447  1.00  0.00     0.034 A 
ATOM     52  C   UNL A   1      45.500  28.568  29.379  1.00  0.00     0.049 A 
ATOM     53  C   UNL A   1      40.755  31.516  30.895  1.00  0.00     0.074 A 
ATOM     54  C   UNL A   1      45.753  27.510  30.226  1.00  0.00     0.029 A 
ATOM     55  N   UNL A   1      44.936  29.561  30.134  1.00  0.00    -0.354 N 
ATOM     56  N   UNL A   1      41.302  30.955  31.933  1.00  0.00    -0.248 NA
ATOM     57  C   UNL A   1      41.657  32.174  29.970  1.00  0.00     0.031 C 
ATOM     58  C   UNL A   1      44.998  27.784  31.405  1.00  0.00     0.029 A 
ATOM     59  C   UNL A   1      44.385  29.029  31.261  1.00  0.00     0.049 A 
ATOM     60  H   UNL A   1      44.928  30.517  29.898  1.00  0.00     0.167 HD
ATOM     61  C   UNL A   1      42.612  30.759  31.537  1.00  0.00     0.074 A 
ATOM     62  C   UNL A   1      42.808  31.660  30.404  1.00  0.00     0.031 C 
ATOM     63  C   UNL A   1      43.298  29.665  31.970  1.00  0.00     0.034 A 
BRANCH  50  64
ATOM     64  C   UNL A   1      45.882  30.008  27.292  1.00  0.00     0.023 A 
ATOM     65  C   UNL A   1      47.274  30.241  27.354  1.00  0.00     0.012 A 
ATOM     66  C   UNL A   1      45.068  31.099  26.906  1.00  0.00     0.148 A 
ATOM     67  C   UNL A   1      47.822  31.494  27.053  1.00  0.00     0.002 A 
ATOM     68  C   UNL A   1      45.621  32.320  26.537  1.00  0.00     0.091 A 
ATOM     69  F   UNL A   1      43.741  31.018  27.036  1.00  0.00    -0.205 F 
ATOM     70  C   UNL A   1      46.999  32.530  26.629  1.00  0.00     0.022 A 
BRANCH  68  71
ATOM     71  S   UNL A   1      44.600  33.691  25.985  1.00  0.00     0.127 S 
ATOM     72  O   UNL A   1      43.851  33.073  24.894  1.00  0.00    -0.237 OA
ATOM     73  O   UNL A   1      43.823  33.981  27.189  1.00  0.00    -0.237 OA
ATOM     74  O   UNL A   1      45.531  34.744  25.603  1.00  0.00    -0.744 OA
ENDBRANCH  68  71
ENDBRANCH  50  64
BRANCH  51  75
ATOM     75  C   UNL A   1      38.399  32.366  30.365  1.00  0.00     0.023 A 
ATOM     76  C   UNL A   1      37.807  32.681  29.112  1.00  0.00     0.012 A 
ATOM     77  C   UNL A   1      37.776  32.877  31.520  1.00  0.00     0.148 A 
ATOM     78  C   UNL A   1      36.599  33.388  29.021  1.00  0.00     0.002 A 
ATOM     79  C   UNL A   1      36.576  33.590  31.424  1.00  0.00     0.091 A 
ATOM     80  F   UNL A   1      38.307  32.587  32.714  1.00  0.00    -0.205 F 
ATOM     81  C   UNL A   1      35.972  33.824  30.181  1.00  0.00     0.022 A 
BRANCH  79  82
ATOM     82  S   UNL A   1      35.698  34.193  32.873  1.00  0.00     0.127 S 
ATOM     83  O   UNL A   1      35.404  32.952  33.592  1.00  0.00    -0.237 OA
ATOM     84  O   UNL A   1      36.702  35.042  33.507  1.00  0.00    -0.237 OA
ATOM     85  O   UNL A   1      34.520  34.881  32.360  1.00  0.00    -0.744 OA
ENDBRANCH  79  82
ENDBRANCH  51  75
BRANCH  63  86
ATOM     86  C   UNL A   1      42.802  28.955  33.196  1.00  0.00     0.023 A 
ATOM     87  C   UNL A   1      41.843  27.923  33.168  1.00  0.00     0.012 A 
ATOM     88  C   UNL A   1      43.490  29.227  34.389  1.00  0.00     0.148 A 
ATOM     89  C   UNL A   1      41.592  27.165  34.317  1.00  0.00     0.002 A 
ATOM     90  C   UNL A   1      43.269  28.447  35.511  1.00  0.00     0.091 A 
ATOM     91  F   UNL A   1      44.392  30.221  34.380  1.00  0.00    -0.205 F 
ATOM     92  C   UNL A   1      42.320  27.414  35.483  1.00  0.00     0.022 A 
BRANCH  90  93
ATOM     93  S   UNL A   1      44.250  28.652  36.998  1.00  0.00     0.127 S 
ATOM     94  O   UNL A   1      43.826  27.508  37.802  1.00  0.00    -0.237 OA
ATOM     95  O   UNL A   1      45.616  28.566  36.479  1.00  0.00    -0.237 OA
ATOM     96  O   UNL A   1      43.898  29.957  37.545  1.00  0.00    -0.744 OA
ENDBRANCH  90  93
ENDBRANCH  63  86
ENDBRANCH  37  38
ENDBRANCH  29  32
ENDBRANCH  27  28
ENDBRANCH   1  27
TORSDOF 16
ENDMDL
MODEL 3
REMARK VINA RESULT:     -13.0      2.915      9.365
REMARK SMILES CC(C)c1cc(C#N)cc2nc(-c3ccc(C(=O)NCCCNC(=O)c4ccc(-c5c6nc(c(-c7cccc(S(=O)(=O)[O-])c7F)c7ccc([nH]7)c(-c7cccc(S(=O)(=O)[O-])c7F)c7nc(c(-c8cccc(S(=O)(=O)[O-])c8F)c8ccc5[nH]8)C=C7)C=C6)cc4)cc3)oc12
REMARK SMILES IDX 21 1 20 2 19 3 17 4 18 5 16 7 13 8 14 9 90 10 15 11 89 12
REMARK SMILES IDX 12 13 4 14 5 15 92 16 6 17 10 18 91 19 9 20 11 21 2 22 1 23
REMARK SMILES IDX 3 24 7 25 8 26 22 27 23 28 24 29 25 31 26 32 27 33 88 34
REMARK SMILES IDX 28 35 87 36 29 37 30 38 31 39 81 40 32 41 86 42 80 43 82 44
REMARK SMILES IDX 33 45 85 46 79 47 78 48 34 50 66 51 46 52 65 53 47 54 50 55
REMARK SMILES IDX 64 56 83 57 48 58 49 59 63 61 84 62 51 63 35 64 36 65 44 66
REMARK SMILES IDX 37 67 39 68 45 69 38 70 40 71 41 72 42 73 43 74 67 75 68 76
REMARK SMILES IDX 76 77 69 78 71 79 77 80 70 81 72 82 73 83 74 84 75 85 52 86
REMARK SMILES IDX 53 87 61 88 54 89 56 90 62 91 55 92 57 93 58 94 59 95 60 96
REMARK H PARENT 19 6 23 30 82 49 50 60
REMARK Flexibility Score: inf
ROOT
ATOM      1  C   UNL A   1      40.063  22.195  27.143  1.00  0.00     0.042 C 
ENDROOT
BRANCH   1   2
ATOM      2  C   UNL A   1      38.892  22.529  26.219  1.00  0.00     0.118 C 
BRANCH   2   3
ATOM      3  N   UNL A   1      38.030  21.409  25.854  1.00  0.00    -0.352 N 
ATOM      4  C   UNL A   1      36.774  21.314  25.289  1.00  0.00     0.251 C 
ATOM      5  O   UNL A   1      36.348  20.181  25.046  1.00  0.00    -0.269 OA
ATOM      6  H   UNL A   1      38.431  20.532  26.052  1.00  0.00     0.163 HD
BRANCH   4   7
ATOM      7  C   UNL A   1      35.880  22.478  25.006  1.00  0.00     0.039 A 
ATOM      8  C   UNL A   1      34.043  24.533  24.335  1.00  0.00     0.037 A 
ATOM      9  C   UNL A   1      34.675  23.804  23.326  1.00  0.00     0.014 A 
ATOM     10  C   UNL A   1      34.400  24.278  25.664  1.00  0.00     0.014 A 
ATOM     11  C   UNL A   1      35.581  22.781  23.662  1.00  0.00     0.014 A 
ATOM     12  C   UNL A   1      35.345  23.305  25.989  1.00  0.00     0.014 A 
BRANCH   8  13
ATOM     13  C   UNL A   1      33.068  25.586  24.098  1.00  0.00     0.227 A 
ATOM     14  C   UNL A   1      31.682  28.726  24.934  1.00  0.00     0.001 A 
ATOM     15  C   UNL A   1      30.772  29.405  24.087  1.00  0.00     0.027 A 
ATOM     16  C   UNL A   1      32.109  27.490  24.436  1.00  0.00     0.158 A 
ATOM     17  C   UNL A   1      30.357  28.887  22.845  1.00  0.00     0.055 A 
ATOM     18  C   UNL A   1      31.735  26.962  23.209  1.00  0.00     0.111 A 
ATOM     19  O   UNL A   1      32.956  26.586  25.028  1.00  0.00    -0.436 OA
ATOM     20  C   UNL A   1      30.852  27.663  22.384  1.00  0.00     0.052 A 
ATOM     21  N   UNL A   1      32.346  25.761  23.007  1.00  0.00    -0.209 NA
BRANCH  14  22
ATOM     22  C   UNL A   1      32.091  29.326  26.261  1.00  0.00     0.017 C 
ATOM     23  C   UNL A   1      31.672  30.793  26.342  1.00  0.00     0.012 C 
ATOM     24  C   UNL A   1      31.551  28.531  27.450  1.00  0.00     0.012 C 
ENDBRANCH  14  22
BRANCH  17  25
ATOM     25  C   UNL A   1      29.397  29.594  22.057  1.00  0.00     0.099 C 
ATOM     26  N   UNL A   1      28.640  30.172  21.380  1.00  0.00    -0.192 NA
ENDBRANCH  17  25
ENDBRANCH   8  13
ENDBRANCH   4   7
ENDBRANCH   2   3
ENDBRANCH   1   2
BRANCH   1  27
ATOM     27  C   UNL A   1      41.165  21.320  26.557  1.00  0.00     0.118 C 
BRANCH  27  28
ATOM     28  N   UNL A   1      41.937  21.939  25.498  1.00  0.00    -0.352 N 
ATOM     29  C   UNL A   1      42.646  23.095  25.328  1.00  0.00     0.251 C 
ATOM     30  H   UNL A   1      41.956  21.378  24.689  1.00  0.00     0.163 HD
ATOM     31  O   UNL A   1      43.369  23.103  24.326  1.00  0.00    -0.269 OA
BRANCH  29  32
ATOM     32  C   UNL A   1      42.573  24.333  26.158  1.00  0.00     0.039 A 
ATOM     33  C   UNL A   1      43.290  24.596  27.321  1.00  0.00     0.014 A 
ATOM     34  C   UNL A   1      41.602  25.277  25.749  1.00  0.00     0.014 A 
ATOM     35  C   UNL A   1      42.954  25.711  28.106  1.00  0.00     0.010 A 
ATOM     36  C   UNL A   1      41.273  26.391  26.521  1.00  0.00     0.010 A 
ATOM     37  C   UNL A   1      41.909  26.585  27.736  1.00  0.00    -0.014 A 
BRANCH  37  38
ATOM     38  C   UNL A   1      41.678  27.814  28.518  1.00  0.00     0.031 A 
ATOM     39  C   UNL A   1      42.679  28.862  28.176  1.00  0.00     0.074 A 
ATOM     40  C   UNL A   1      40.671  28.062  29.393  1.00  0.00     0.049 A 
ATOM     41  N   UNL A   1      43.729  29.159  28.867  1.00  0.00    -0.248 NA
ATOM     42  C   UNL A   1      42.652  29.477  26.839  1.00  0.00     0.031 C 
ATOM     43  C   UNL A   1      39.495  27.232  29.676  1.00  0.00     0.029 A 
ATOM     44  N   UNL A   1      40.439  29.162  30.184  1.00  0.00    -0.354 N 
ATOM     45  C   UNL A   1      44.326  30.216  28.191  1.00  0.00     0.074 A 
ATOM     46  C   UNL A   1      43.764  30.219  26.867  1.00  0.00     0.031 C 
ATOM     47  C   UNL A   1      38.581  27.947  30.379  1.00  0.00     0.029 A 
ATOM     48  C   UNL A   1      39.149  29.234  30.736  1.00  0.00     0.049 A 
ATOM     49  H   UNL A   1      41.125  29.848  30.352  1.00  0.00     0.167 HD
ATOM     50  C   UNL A   1      44.976  31.187  28.885  1.00  0.00     0.034 A 
ATOM     51  C   UNL A   1      38.603  30.270  31.436  1.00  0.00     0.034 A 
ATOM     52  C   UNL A   1      45.241  30.771  30.238  1.00  0.00     0.049 A 
ATOM     53  C   UNL A   1      39.740  31.001  32.024  1.00  0.00     0.074 A 
ATOM     54  C   UNL A   1      45.950  29.762  30.855  1.00  0.00     0.029 A 
ATOM     55  N   UNL A   1      44.329  31.234  31.149  1.00  0.00    -0.354 N 
ATOM     56  N   UNL A   1      40.508  30.511  32.954  1.00  0.00    -0.248 NA
ATOM     57  C   UNL A   1      40.243  32.167  31.325  1.00  0.00     0.031 C 
ATOM     58  C   UNL A   1      45.189  29.419  32.012  1.00  0.00     0.029 A 
ATOM     59  C   UNL A   1      44.096  30.283  32.095  1.00  0.00     0.049 A 
ATOM     60  H   UNL A   1      43.904  32.122  31.122  1.00  0.00     0.167 HD
ATOM     61  C   UNL A   1      41.762  30.985  32.615  1.00  0.00     0.074 A 
ATOM     62  C   UNL A   1      41.515  32.110  31.716  1.00  0.00     0.031 C 
ATOM     63  C   UNL A   1      42.864  30.221  32.849  1.00  0.00     0.034 A 
BRANCH  50  64
ATOM     64  C   UNL A   1      44.901  32.660  28.539  1.00  0.00     0.023 A 
ATOM     65  C   UNL A   1      43.660  33.312  28.713  1.00  0.00     0.012 A 
ATOM     66  C   UNL A   1      45.873  33.331  27.761  1.00  0.00     0.148 A 
ATOM     67  C   UNL A   1      43.403  34.563  28.138  1.00  0.00     0.002 A 
ATOM     68  C   UNL A   1      45.641  34.605  27.254  1.00  0.00     0.091 A 
ATOM     69  F   UNL A   1      46.977  32.687  27.375  1.00  0.00    -0.205 F 
ATOM     70  C   UNL A   1      44.398  35.217  27.422  1.00  0.00     0.022 A 
BRANCH  68  71
ATOM     71  S   UNL A   1      46.893  35.492  26.320  1.00  0.00     0.127 S 
ATOM     72  O   UNL A   1      46.953  34.702  25.093  1.00  0.00    -0.237 OA
ATOM     73  O   UNL A   1      46.276  36.811  26.183  1.00  0.00    -0.237 OA
ATOM     74  O   UNL A   1      48.090  35.473  27.151  1.00  0.00    -0.744 OA
ENDBRANCH  68  71
ENDBRANCH  50  64
BRANCH  51  75
ATOM     75  C   UNL A   1      37.232  30.862  31.531  1.00  0.00     0.023 A 
ATOM     76  C   UNL A   1      36.744  31.283  32.797  1.00  0.00     0.012 A 
ATOM     77  C   UNL A   1      36.566  31.348  30.389  1.00  0.00     0.148 A 
ATOM     78  C   UNL A   1      35.706  32.219  32.917  1.00  0.00     0.002 A 
ATOM     79  C   UNL A   1      35.526  32.275  30.513  1.00  0.00     0.091 A 
ATOM     80  F   UNL A   1      37.012  30.976  29.183  1.00  0.00    -0.205 F 
ATOM     81  C   UNL A   1      35.111  32.731  31.772  1.00  0.00     0.022 A 
BRANCH  79  82
ATOM     82  S   UNL A   1      34.698  32.988  29.084  1.00  0.00     0.127 S 
ATOM     83  O   UNL A   1      34.140  31.803  28.431  1.00  0.00    -0.237 OA
ATOM     84  O   UNL A   1      33.710  33.863  29.709  1.00  0.00    -0.237 OA
ATOM     85  O   UNL A   1      35.742  33.658  28.319  1.00  0.00    -0.744 OA
ENDBRANCH  79  82
ENDBRANCH  51  75
BRANCH  63  86
ATOM     86  C   UNL A   1      42.761  29.115  33.858  1.00  0.00     0.023 A 
ATOM     87  C   UNL A   1      42.215  27.846  33.576  1.00  0.00     0.012 A 
ATOM     88  C   UNL A   1      43.423  29.326  35.077  1.00  0.00     0.148 A 
ATOM     89  C   UNL A   1      42.349  26.802  34.498  1.00  0.00     0.002 A 
ATOM     90  C   UNL A   1      43.591  28.279  35.967  1.00  0.00     0.091 A 
ATOM     91  F   UNL A   1      43.925  30.548  35.315  1.00  0.00    -0.205 F 
ATOM     92  C   UNL A   1      43.055  27.013  35.684  1.00  0.00     0.022 A 
BRANCH  90  93
ATOM     93  S   UNL A   1      44.579  28.464  37.452  1.00  0.00     0.127 S 
ATOM     94  O   UNL A   1      45.930  28.573  36.907  1.00  0.00    -0.237 OA
ATOM     95  O   UNL A   1      44.045  29.701  38.024  1.00  0.00    -0.237 OA
ATOM     96  O   UNL A   1      44.332  27.275  38.259  1.00  0.00    -0.744 OA
ENDBRANCH  90  93
ENDBRANCH  63  86
ENDBRANCH  37  38
ENDBRANCH  29  32
ENDBRANCH  27  28
ENDBRANCH   1  27
TORSDOF 16
ENDMDL
