MODEL 1
REMARK VINA RESULT:     -12.6      0.000      0.000
REMARK SMILES O=C(NCCCNC(=O)c1ccc(-n2cc(CSc3nc4ccccc4c(=O)n3-c3ccc(Cl)cc3)nn2)cc1)c1ccc(-c2c3nc(c(-c4cccc(S(=O)(=O)[O-])c4F)c4ccc([nH]4)c(-c4cccc(S(=O)(=O)[O-])c4F)c4nc(c(-c5cccc(S(=O)(=O)[O-])c5F)c5ccc2[nH]5)C=C4)C=C3)cc1
REMARK SMILES IDX 6 1 5 2 4 3 3 4 1 5 2 6 41 8 42 9 103 10 43 11 102 12 44 13
REMARK SMILES IDX 45 14 46 15 96 16 47 17 101 18 95 19 97 20 48 21 100 22
REMARK SMILES IDX 94 23 93 24 49 26 81 27 61 28 80 29 62 30 65 31 79 32 98 33
REMARK SMILES IDX 63 34 64 35 78 37 99 38 66 39 50 40 51 41 59 42 52 43 54 44
REMARK SMILES IDX 60 45 53 46 55 47 56 48 57 49 58 50 82 51 83 52 91 53 84 54
REMARK SMILES IDX 86 55 92 56 85 57 87 58 88 59 89 60 90 61 67 62 68 63 76 64
REMARK SMILES IDX 69 65 71 66 77 67 70 68 72 69 73 70 74 71 75 72 7 73 8 74
REMARK SMILES IDX 9 76 10 77 11 78 40 79 12 80 39 81 13 82 14 83 15 84 38 85
REMARK SMILES IDX 16 86 37 87 17 88 18 89 19 90 20 91 29 92 21 93 27 94 22 95
REMARK SMILES IDX 26 96 28 97 23 98 25 99 24 100 30 101 31 102 36 103 32 104
REMARK SMILES IDX 35 105 33 106 34 107
REMARK H PARENT 3 7 97 25 65 36 7 75
REMARK Flexibility Score: inf
ROOT
ATOM      1  C   UNL A   1      35.236  30.699  27.497  1.00  0.00     0.118 C 
ENDROOT
BRANCH   1   2
ATOM      2  C   UNL A   1      36.239  31.255  28.506  1.00  0.00     0.042 C 
BRANCH   2   3
ATOM      3  C   UNL A   1      35.739  32.461  29.297  1.00  0.00     0.118 C 
BRANCH   3   4
ATOM      4  N   UNL A   1      35.514  32.216  30.709  1.00  0.00    -0.352 N 
ATOM      5  O   UNL A   1      35.732  31.746  32.849  1.00  0.00    -0.269 OA
ATOM      6  C   UNL A   1      36.244  31.672  31.729  1.00  0.00     0.251 C 
ATOM      7  H   UNL A   1      34.622  32.513  31.003  1.00  0.00     0.163 HD
BRANCH   6   8
ATOM      8  C   UNL A   1      37.544  30.965  31.575  1.00  0.00     0.039 A 
ATOM      9  C   UNL A   1      38.797  31.574  31.495  1.00  0.00     0.014 A 
ATOM     10  C   UNL A   1      37.476  29.559  31.519  1.00  0.00     0.014 A 
ATOM     11  C   UNL A   1      39.945  30.807  31.299  1.00  0.00     0.010 A 
ATOM     12  C   UNL A   1      38.620  28.787  31.339  1.00  0.00     0.010 A 
ATOM     13  C   UNL A   1      39.856  29.416  31.207  1.00  0.00    -0.014 A 
BRANCH  13  14
ATOM     14  C   UNL A   1      41.095  28.641  31.147  1.00  0.00     0.031 A 
ATOM     15  C   UNL A   1      41.804  28.475  32.453  1.00  0.00     0.074 A 
ATOM     16  C   UNL A   1      41.497  27.955  30.057  1.00  0.00     0.049 A 
ATOM     17  N   UNL A   1      43.020  28.800  32.757  1.00  0.00    -0.248 NA
ATOM     18  C   UNL A   1      41.024  27.953  33.586  1.00  0.00     0.031 C 
ATOM     19  C   UNL A   1      40.747  27.745  28.816  1.00  0.00     0.029 A 
ATOM     20  N   UNL A   1      42.605  27.172  29.889  1.00  0.00    -0.354 N 
ATOM     21  C   UNL A   1      43.222  28.337  34.058  1.00  0.00     0.074 A 
ATOM     22  C   UNL A   1      41.928  27.962  34.565  1.00  0.00     0.031 C 
ATOM     23  C   UNL A   1      41.292  26.708  28.142  1.00  0.00     0.029 A 
ATOM     24  C   UNL A   1      42.491  26.270  28.835  1.00  0.00     0.049 A 
ATOM     25  H   UNL A   1      43.405  27.238  30.458  1.00  0.00     0.167 HD
ATOM     26  C   UNL A   1      44.462  28.096  34.565  1.00  0.00     0.034 A 
ATOM     27  C   UNL A   1      43.273  25.189  28.599  1.00  0.00     0.034 A 
ATOM     28  C   UNL A   1      45.495  28.736  33.797  1.00  0.00     0.049 A 
ATOM     29  C   UNL A   1      44.532  25.363  29.352  1.00  0.00     0.074 A 
ATOM     30  C   UNL A   1      45.796  30.036  33.446  1.00  0.00     0.029 A 
ATOM     31  N   UNL A   1      46.258  27.940  32.981  1.00  0.00    -0.354 N 
ATOM     32  N   UNL A   1      45.434  26.258  29.068  1.00  0.00    -0.248 NA
ATOM     33  C   UNL A   1      44.636  24.763  30.672  1.00  0.00     0.031 C 
ATOM     34  C   UNL A   1      46.345  29.944  32.135  1.00  0.00     0.029 A 
ATOM     35  C   UNL A   1      46.378  28.592  31.786  1.00  0.00     0.049 A 
ATOM     36  H   UNL A   1      46.644  27.065  33.213  1.00  0.00     0.167 HD
ATOM     37  C   UNL A   1      45.928  26.652  30.303  1.00  0.00     0.074 A 
ATOM     38  C   UNL A   1      45.497  25.612  31.233  1.00  0.00     0.031 C 
ATOM     39  C   UNL A   1      46.385  27.923  30.503  1.00  0.00     0.034 A 
BRANCH  26  40
ATOM     40  C   UNL A   1      44.791  27.014  35.568  1.00  0.00     0.023 A 
ATOM     41  C   UNL A   1      45.379  27.407  36.793  1.00  0.00     0.012 A 
ATOM     42  C   UNL A   1      44.810  25.633  35.266  1.00  0.00     0.148 A 
ATOM     43  C   UNL A   1      45.991  26.483  37.647  1.00  0.00     0.002 A 
ATOM     44  C   UNL A   1      45.345  24.708  36.158  1.00  0.00     0.091 A 
ATOM     45  F   UNL A   1      44.437  25.209  34.054  1.00  0.00    -0.205 F 
ATOM     46  C   UNL A   1      45.966  25.130  37.334  1.00  0.00     0.022 A 
BRANCH  44  47
ATOM     47  S   UNL A   1      45.270  22.944  35.825  1.00  0.00     0.127 S 
ATOM     48  O   UNL A   1      46.300  22.801  34.791  1.00  0.00    -0.237 OA
ATOM     49  O   UNL A   1      45.633  22.379  37.130  1.00  0.00    -0.237 OA
ATOM     50  O   UNL A   1      43.906  22.682  35.422  1.00  0.00    -0.744 OA
ENDBRANCH  44  47
ENDBRANCH  26  40
BRANCH  27  51
ATOM     51  C   UNL A   1      42.934  23.897  27.957  1.00  0.00     0.023 A 
ATOM     52  C   UNL A   1      41.632  23.371  28.085  1.00  0.00     0.012 A 
ATOM     53  C   UNL A   1      43.794  23.319  26.997  1.00  0.00     0.148 A 
ATOM     54  C   UNL A   1      41.192  22.324  27.267  1.00  0.00     0.002 A 
ATOM     55  C   UNL A   1      43.355  22.270  26.192  1.00  0.00     0.091 A 
ATOM     56  F   UNL A   1      45.005  23.858  26.807  1.00  0.00    -0.205 F 
ATOM     57  C   UNL A   1      42.050  21.778  26.316  1.00  0.00     0.022 A 
BRANCH  55  58
ATOM     58  S   UNL A   1      44.404  21.532  24.933  1.00  0.00     0.127 S 
ATOM     59  O   UNL A   1      43.818  20.197  24.796  1.00  0.00    -0.237 OA
ATOM     60  O   UNL A   1      44.181  22.418  23.796  1.00  0.00    -0.237 OA
ATOM     61  O   UNL A   1      45.752  21.536  25.488  1.00  0.00    -0.744 OA
ENDBRANCH  55  58
ENDBRANCH  27  51
BRANCH  39  62
ATOM     62  C   UNL A   1      46.622  28.797  29.298  1.00  0.00     0.023 A 
ATOM     63  C   UNL A   1      47.815  28.734  28.549  1.00  0.00     0.012 A 
ATOM     64  C   UNL A   1      45.550  29.564  28.807  1.00  0.00     0.148 A 
ATOM     65  C   UNL A   1      47.946  29.444  27.352  1.00  0.00     0.002 A 
ATOM     66  C   UNL A   1      45.667  30.224  27.591  1.00  0.00     0.091 A 
ATOM     67  F   UNL A   1      44.419  29.610  29.529  1.00  0.00    -0.205 F 
ATOM     68  C   UNL A   1      46.866  30.176  26.865  1.00  0.00     0.022 A 
BRANCH  66  69
ATOM     69  S   UNL A   1      44.268  31.067  26.847  1.00  0.00     0.127 S 
ATOM     70  O   UNL A   1      43.831  31.948  27.927  1.00  0.00    -0.237 OA
ATOM     71  O   UNL A   1      44.882  31.752  25.708  1.00  0.00    -0.237 OA
ATOM     72  O   UNL A   1      43.327  30.019  26.469  1.00  0.00    -0.744 OA
ENDBRANCH  66  69
ENDBRANCH  39  62
ENDBRANCH  13  14
ENDBRANCH   6   8
ENDBRANCH   3   4
ENDBRANCH   2   3
ENDBRANCH   1   2
BRANCH   1  73
ATOM     73  N   UNL A   1      33.945  31.375  27.540  1.00  0.00    -0.352 N 
ATOM     74  C   UNL A   1      32.764  31.075  26.912  1.00  0.00     0.251 C 
ATOM     75  H   UNL A   1      33.917  32.175  28.112  1.00  0.00     0.163 HD
ATOM     76  O   UNL A   1      31.805  31.837  26.999  1.00  0.00    -0.269 OA
BRANCH  74  77
ATOM     77  C   UNL A   1      32.636  29.841  26.115  1.00  0.00     0.039 A 
ATOM     78  C   UNL A   1      31.575  29.730  25.206  1.00  0.00     0.016 A 
ATOM     79  C   UNL A   1      33.522  28.777  26.299  1.00  0.00     0.016 A 
ATOM     80  C   UNL A   1      31.440  28.582  24.419  1.00  0.00     0.029 A 
ATOM     81  C   UNL A   1      33.374  27.619  25.538  1.00  0.00     0.029 A 
ATOM     82  C   UNL A   1      32.331  27.520  24.597  1.00  0.00     0.066 A 
BRANCH  82  83
ATOM     83  N   UNL A   1      32.149  26.316  23.880  1.00  0.00    -0.220 N 
ATOM     84  C   UNL A   1      31.563  25.175  24.358  1.00  0.00     0.141 A 
ATOM     85  N   UNL A   1      32.515  26.122  22.593  1.00  0.00    -0.062 NA
ATOM     86  C   UNL A   1      31.604  24.266  23.329  1.00  0.00     0.093 A 
ATOM     87  N   UNL A   1      32.242  24.858  22.269  1.00  0.00    -0.134 NA
BRANCH  86  88
ATOM     88  C   UNL A   1      31.285  22.823  23.371  1.00  0.00     0.138 C 
BRANCH  88  89
ATOM     89  S   UNL A   1      32.442  21.545  22.863  1.00  0.00    -0.081 SA
BRANCH  89  90
ATOM     90  C   UNL A   1      33.825  21.449  23.921  1.00  0.00     0.176 A 
ATOM     91  N   UNL A   1      34.243  22.632  24.264  1.00  0.00    -0.223 NA
ATOM     92  N   UNL A   1      34.414  20.285  24.408  1.00  0.00    -0.255 N 
ATOM     93  C   UNL A   1      35.391  22.743  25.050  1.00  0.00     0.079 A 
ATOM     94  C   UNL A   1      35.799  20.393  24.624  1.00  0.00     0.266 A 
ATOM     95  C   UNL A   1      35.715  23.946  25.679  1.00  0.00     0.029 A 
ATOM     96  C   UNL A   1      36.282  21.686  25.130  1.00  0.00     0.066 A 
ATOM     97  O   UNL A   1      36.640  19.520  24.417  1.00  0.00    -0.268 OA
ATOM     98  C   UNL A   1      36.951  24.099  26.319  1.00  0.00     0.002 A 
ATOM     99  C   UNL A   1      37.541  21.837  25.721  1.00  0.00     0.016 A 
ATOM    100  C   UNL A   1      37.878  23.055  26.308  1.00  0.00     0.001 A 
BRANCH  92 101
ATOM    101  C   UNL A   1      33.775  18.997  24.646  1.00  0.00     0.051 A 
ATOM    102  C   UNL A   1      32.946  18.809  25.774  1.00  0.00     0.028 A 
ATOM    103  C   UNL A   1      33.908  17.875  23.815  1.00  0.00     0.028 A 
ATOM    104  C   UNL A   1      32.500  17.546  26.181  1.00  0.00     0.022 A 
ATOM    105  C   UNL A   1      33.512  16.593  24.236  1.00  0.00     0.022 A 
ATOM    106  C   UNL A   1      32.848  16.430  25.443  1.00  0.00     0.041 A 
ATOM    107  Cl  UNL A   1      32.475  14.860  26.025  1.00  0.00    -0.084 Cl
ENDBRANCH  92 101
ENDBRANCH  89  90
ENDBRANCH  88  89
ENDBRANCH  86  88
ENDBRANCH  82  83
ENDBRANCH  74  77
ENDBRANCH   1  73
TORSDOF 18
ENDMDL
MODEL 2
REMARK VINA RESULT:     -12.3      5.565     10.597
REMARK SMILES O=C(NCCCNC(=O)c1ccc(-n2cc(CSc3nc4ccccc4c(=O)n3-c3ccc(Cl)cc3)nn2)cc1)c1ccc(-c2c3nc(c(-c4cccc(S(=O)(=O)[O-])c4F)c4ccc([nH]4)c(-c4cccc(S(=O)(=O)[O-])c4F)c4nc(c(-c5cccc(S(=O)(=O)[O-])c5F)c5ccc2[nH]5)C=C4)C=C3)cc1
REMARK SMILES IDX 6 1 5 2 4 3 3 4 1 5 2 6 41 8 42 9 103 10 43 11 102 12 44 13
REMARK SMILES IDX 45 14 46 15 96 16 47 17 101 18 95 19 97 20 48 21 100 22
REMARK SMILES IDX 94 23 93 24 49 26 81 27 61 28 80 29 62 30 65 31 79 32 98 33
REMARK SMILES IDX 63 34 64 35 78 37 99 38 66 39 50 40 51 41 59 42 52 43 54 44
REMARK SMILES IDX 60 45 53 46 55 47 56 48 57 49 58 50 82 51 83 52 91 53 84 54
REMARK SMILES IDX 86 55 92 56 85 57 87 58 88 59 89 60 90 61 67 62 68 63 76 64
REMARK SMILES IDX 69 65 71 66 77 67 70 68 72 69 73 70 74 71 75 72 7 73 8 74
REMARK SMILES IDX 9 76 10 77 11 78 40 79 12 80 39 81 13 82 14 83 15 84 38 85
REMARK SMILES IDX 16 86 37 87 17 88 18 89 19 90 20 91 29 92 21 93 27 94 22 95
REMARK SMILES IDX 26 96 28 97 23 98 25 99 24 100 30 101 31 102 36 103 32 104
REMARK SMILES IDX 35 105 33 106 34 107
REMARK H PARENT 3 7 97 25 65 36 7 75
REMARK Flexibility Score: inf
ROOT
ATOM      1  C   UNL A   1      35.581  33.116  32.419  1.00  0.00     0.118 C 
ENDROOT
BRANCH   1   2
ATOM      2  C   UNL A   1      34.630  33.833  31.463  1.00  0.00     0.042 C 
BRANCH   2   3
ATOM      3  C   UNL A   1      35.186  34.042  30.056  1.00  0.00     0.118 C 
BRANCH   3   4
ATOM      4  N   UNL A   1      34.670  33.132  29.053  1.00  0.00    -0.352 N 
ATOM      5  O   UNL A   1      34.299  31.410  27.730  1.00  0.00    -0.269 OA
ATOM      6  C   UNL A   1      35.096  31.956  28.497  1.00  0.00     0.251 C 
ATOM      7  H   UNL A   1      33.808  33.431  28.683  1.00  0.00     0.163 HD
BRANCH   6   8
ATOM      8  C   UNL A   1      36.436  31.344  28.701  1.00  0.00     0.039 A 
ATOM      9  C   UNL A   1      37.599  32.028  29.058  1.00  0.00     0.014 A 
ATOM     10  C   UNL A   1      36.506  29.947  28.524  1.00  0.00     0.014 A 
ATOM     11  C   UNL A   1      38.812  31.350  29.170  1.00  0.00     0.010 A 
ATOM     12  C   UNL A   1      37.711  29.263  28.650  1.00  0.00     0.010 A 
ATOM     13  C   UNL A   1      38.872  29.971  28.954  1.00  0.00    -0.014 A 
BRANCH  13  14
ATOM     14  C   UNL A   1      40.132  29.278  29.223  1.00  0.00     0.031 A 
ATOM     15  C   UNL A   1      40.378  28.944  30.660  1.00  0.00     0.074 A 
ATOM     16  C   UNL A   1      40.941  28.794  28.259  1.00  0.00     0.049 A 
ATOM     17  N   UNL A   1      41.384  29.278  31.403  1.00  0.00    -0.248 NA
ATOM     18  C   UNL A   1      39.321  28.212  31.376  1.00  0.00     0.031 C 
ATOM     19  C   UNL A   1      40.672  28.745  26.819  1.00  0.00     0.029 A 
ATOM     20  N   UNL A   1      42.114  28.103  28.380  1.00  0.00    -0.354 N 
ATOM     21  C   UNL A   1      41.186  28.625  32.622  1.00  0.00     0.074 A 
ATOM     22  C   UNL A   1      39.842  28.111  32.598  1.00  0.00     0.031 C 
ATOM     23  C   UNL A   1      41.512  27.856  26.243  1.00  0.00     0.029 A 
ATOM     24  C   UNL A   1      42.449  27.374  27.243  1.00  0.00     0.049 A 
ATOM     25  H   UNL A   1      42.667  28.119  29.194  1.00  0.00     0.167 HD
ATOM     26  C   UNL A   1      42.204  28.369  33.489  1.00  0.00     0.034 A 
ATOM     27  C   UNL A   1      43.369  26.384  27.151  1.00  0.00     0.034 A 
ATOM     28  C   UNL A   1      43.363  29.173  33.215  1.00  0.00     0.049 A 
ATOM     29  C   UNL A   1      44.282  26.499  28.309  1.00  0.00     0.074 A 
ATOM     30  C   UNL A   1      43.632  30.525  33.163  1.00  0.00     0.029 A 
ATOM     31  N   UNL A   1      44.430  28.555  32.615  1.00  0.00    -0.354 N 
ATOM     32  N   UNL A   1      45.132  27.472  28.473  1.00  0.00    -0.248 NA
ATOM     33  C   UNL A   1      43.999  25.704  29.492  1.00  0.00     0.031 C 
ATOM     34  C   UNL A   1      44.593  30.669  32.121  1.00  0.00     0.029 A 
ATOM     35  C   UNL A   1      44.876  29.392  31.630  1.00  0.00     0.049 A 
ATOM     36  H   UNL A   1      44.804  27.674  32.848  1.00  0.00     0.167 HD
ATOM     37  C   UNL A   1      45.143  27.690  29.843  1.00  0.00     0.074 A 
ATOM     38  C   UNL A   1      44.534  26.497  30.422  1.00  0.00     0.031 C 
ATOM     39  C   UNL A   1      45.377  28.935  30.353  1.00  0.00     0.034 A 
BRANCH  26  40
ATOM     40  C   UNL A   1      42.287  27.160  34.392  1.00  0.00     0.023 A 
ATOM     41  C   UNL A   1      41.814  27.295  35.719  1.00  0.00     0.012 A 
ATOM     42  C   UNL A   1      43.045  26.003  34.099  1.00  0.00     0.148 A 
ATOM     43  C   UNL A   1      42.118  26.354  36.708  1.00  0.00     0.002 A 
ATOM     44  C   UNL A   1      43.271  25.028  35.066  1.00  0.00     0.091 A 
ATOM     45  F   UNL A   1      43.671  25.895  32.924  1.00  0.00    -0.205 F 
ATOM     46  C   UNL A   1      42.839  25.213  36.380  1.00  0.00     0.022 A 
BRANCH  44  47
ATOM     47  S   UNL A   1      44.139  23.506  34.666  1.00  0.00     0.127 S 
ATOM     48  O   UNL A   1      45.378  24.025  34.077  1.00  0.00    -0.237 OA
ATOM     49  O   UNL A   1      44.302  22.898  35.992  1.00  0.00    -0.237 OA
ATOM     50  O   UNL A   1      43.257  22.777  33.782  1.00  0.00    -0.744 OA
ENDBRANCH  44  47
ENDBRANCH  26  40
BRANCH  27  51
ATOM     51  C   UNL A   1      43.396  25.194  26.268  1.00  0.00     0.023 A 
ATOM     52  C   UNL A   1      44.393  25.078  25.279  1.00  0.00     0.012 A 
ATOM     53  C   UNL A   1      42.621  24.053  26.570  1.00  0.00     0.148 A 
ATOM     54  C   UNL A   1      44.631  23.859  24.633  1.00  0.00     0.002 A 
ATOM     55  C   UNL A   1      42.854  22.845  25.917  1.00  0.00     0.091 A 
ATOM     56  F   UNL A   1      41.724  24.125  27.561  1.00  0.00    -0.205 F 
ATOM     57  C   UNL A   1      43.867  22.741  24.956  1.00  0.00     0.022 A 
BRANCH  55  58
ATOM     58  S   UNL A   1      41.917  21.359  26.298  1.00  0.00     0.127 S 
ATOM     59  O   UNL A   1      40.551  21.770  25.968  1.00  0.00    -0.237 OA
ATOM     60  O   UNL A   1      42.503  20.389  25.379  1.00  0.00    -0.237 OA
ATOM     61  O   UNL A   1      42.136  21.106  27.716  1.00  0.00    -0.744 OA
ENDBRANCH  55  58
ENDBRANCH  27  51
BRANCH  39  62
ATOM     62  C   UNL A   1      45.913  29.999  29.429  1.00  0.00     0.023 A 
ATOM     63  C   UNL A   1      47.295  30.189  29.226  1.00  0.00     0.012 A 
ATOM     64  C   UNL A   1      45.004  30.697  28.615  1.00  0.00     0.148 A 
ATOM     65  C   UNL A   1      47.760  31.078  28.252  1.00  0.00     0.002 A 
ATOM     66  C   UNL A   1      45.471  31.539  27.613  1.00  0.00     0.091 A 
ATOM     67  F   UNL A   1      43.691  30.502  28.816  1.00  0.00    -0.205 F 
ATOM     68  C   UNL A   1      46.848  31.740  27.436  1.00  0.00     0.022 A 
BRANCH  66  69
ATOM     69  S   UNL A   1      44.351  32.310  26.442  1.00  0.00     0.127 S 
ATOM     70  O   UNL A   1      45.251  32.668  25.348  1.00  0.00    -0.237 OA
ATOM     71  O   UNL A   1      43.417  31.225  26.137  1.00  0.00    -0.237 OA
ATOM     72  O   UNL A   1      43.744  33.431  27.151  1.00  0.00    -0.744 OA
ENDBRANCH  66  69
ENDBRANCH  39  62
ENDBRANCH  13  14
ENDBRANCH   6   8
ENDBRANCH   3   4
ENDBRANCH   2   3
ENDBRANCH   1   2
BRANCH   1  73
ATOM     73  N   UNL A   1      35.659  31.680  32.180  1.00  0.00    -0.352 N 
ATOM     74  C   UNL A   1      36.675  30.793  32.427  1.00  0.00     0.251 C 
ATOM     75  H   UNL A   1      34.853  31.284  31.778  1.00  0.00     0.163 HD
ATOM     76  O   UNL A   1      36.582  29.626  32.054  1.00  0.00    -0.269 OA
BRANCH  74  77
ATOM     77  C   UNL A   1      37.895  31.232  33.129  1.00  0.00     0.039 A 
ATOM     78  C   UNL A   1      38.019  30.971  34.499  1.00  0.00     0.016 A 
ATOM     79  C   UNL A   1      38.888  31.946  32.454  1.00  0.00     0.016 A 
ATOM     80  C   UNL A   1      39.174  31.355  35.187  1.00  0.00     0.029 A 
ATOM     81  C   UNL A   1      40.028  32.356  33.142  1.00  0.00     0.029 A 
ATOM     82  C   UNL A   1      40.171  32.062  34.511  1.00  0.00     0.066 A 
BRANCH  82  83
ATOM     83  N   UNL A   1      41.299  32.542  35.215  1.00  0.00    -0.220 N 
ATOM     84  C   UNL A   1      41.662  32.195  36.487  1.00  0.00     0.141 A 
ATOM     85  N   UNL A   1      42.206  33.413  34.715  1.00  0.00    -0.062 NA
ATOM     86  C   UNL A   1      42.808  32.900  36.762  1.00  0.00     0.093 A 
ATOM     87  N   UNL A   1      43.093  33.683  35.673  1.00  0.00    -0.134 NA
BRANCH  86  88
ATOM     88  C   UNL A   1      43.504  33.044  38.060  1.00  0.00     0.138 C 
BRANCH  88  89
ATOM     89  S   UNL A   1      45.249  32.680  38.284  1.00  0.00    -0.081 SA
BRANCH  89  90
ATOM     90  C   UNL A   1      45.634  31.026  37.888  1.00  0.00     0.176 A 
ATOM     91  N   UNL A   1      46.061  30.918  36.664  1.00  0.00    -0.223 NA
ATOM     92  N   UNL A   1      45.563  29.932  38.745  1.00  0.00    -0.255 N 
ATOM     93  C   UNL A   1      46.344  29.650  36.154  1.00  0.00     0.079 A 
ATOM     94  C   UNL A   1      45.246  28.722  38.103  1.00  0.00     0.266 A 
ATOM     95  C   UNL A   1      47.067  29.499  34.970  1.00  0.00     0.029 A 
ATOM     96  C   UNL A   1      45.818  28.524  36.764  1.00  0.00     0.066 A 
ATOM     97  O   UNL A   1      44.528  27.827  38.546  1.00  0.00    -0.268 OA
ATOM     98  C   UNL A   1      47.196  28.238  34.376  1.00  0.00     0.002 A 
ATOM     99  C   UNL A   1      45.895  27.264  36.159  1.00  0.00     0.016 A 
ATOM    100  C   UNL A   1      46.578  27.126  34.953  1.00  0.00     0.001 A 
BRANCH  92 101
ATOM    101  C   UNL A   1      45.714  29.926  40.195  1.00  0.00     0.051 A 
ATOM    102  C   UNL A   1      44.781  30.604  41.012  1.00  0.00     0.028 A 
ATOM    103  C   UNL A   1      46.742  29.272  40.888  1.00  0.00     0.028 A 
ATOM    104  C   UNL A   1      44.999  30.832  42.376  1.00  0.00     0.022 A 
ATOM    105  C   UNL A   1      47.002  29.534  42.245  1.00  0.00     0.022 A 
ATOM    106  C   UNL A   1      46.151  30.353  42.973  1.00  0.00     0.041 A 
ATOM    107  Cl  UNL A   1      46.529  30.781  44.590  1.00  0.00    -0.084 Cl
ENDBRANCH  92 101
ENDBRANCH  89  90
ENDBRANCH  88  89
ENDBRANCH  86  88
ENDBRANCH  82  83
ENDBRANCH  74  77
ENDBRANCH   1  73
TORSDOF 18
ENDMDL
MODEL 3
REMARK VINA RESULT:     -12.3     10.621     16.578
REMARK SMILES O=C(NCCCNC(=O)c1ccc(-n2cc(CSc3nc4ccccc4c(=O)n3-c3ccc(Cl)cc3)nn2)cc1)c1ccc(-c2c3nc(c(-c4cccc(S(=O)(=O)[O-])c4F)c4ccc([nH]4)c(-c4cccc(S(=O)(=O)[O-])c4F)c4nc(c(-c5cccc(S(=O)(=O)[O-])c5F)c5ccc2[nH]5)C=C4)C=C3)cc1
REMARK SMILES IDX 6 1 5 2 4 3 3 4 1 5 2 6 41 8 42 9 103 10 43 11 102 12 44 13
REMARK SMILES IDX 45 14 46 15 96 16 47 17 101 18 95 19 97 20 48 21 100 22
REMARK SMILES IDX 94 23 93 24 49 26 81 27 61 28 80 29 62 30 65 31 79 32 98 33
REMARK SMILES IDX 63 34 64 35 78 37 99 38 66 39 50 40 51 41 59 42 52 43 54 44
REMARK SMILES IDX 60 45 53 46 55 47 56 48 57 49 58 50 82 51 83 52 91 53 84 54
REMARK SMILES IDX 86 55 92 56 85 57 87 58 88 59 89 60 90 61 67 62 68 63 76 64
REMARK SMILES IDX 69 65 71 66 77 67 70 68 72 69 73 70 74 71 75 72 7 73 8 74
REMARK SMILES IDX 9 76 10 77 11 78 40 79 12 80 39 81 13 82 14 83 15 84 38 85
REMARK SMILES IDX 16 86 37 87 17 88 18 89 19 90 20 91 29 92 21 93 27 94 22 95
REMARK SMILES IDX 26 96 28 97 23 98 25 99 24 100 30 101 31 102 36 103 32 104
REMARK SMILES IDX 35 105 33 106 34 107
REMARK H PARENT 3 7 97 25 65 36 7 75
REMARK Flexibility Score: inf
ROOT
ATOM      1  C   UNL A   1      43.266  37.805  27.276  1.00  0.00     0.118 C 
ENDROOT
BRANCH   1   2
ATOM      2  C   UNL A   1      44.708  37.900  26.781  1.00  0.00     0.042 C 
BRANCH   2   3
ATOM      3  C   UNL A   1      45.677  36.943  27.470  1.00  0.00     0.118 C 
BRANCH   3   4
ATOM      4  N   UNL A   1      46.283  37.454  28.684  1.00  0.00    -0.352 N 
ATOM      5  O   UNL A   1      46.935  37.784  30.762  1.00  0.00    -0.269 OA
ATOM      6  C   UNL A   1      46.130  37.212  30.022  1.00  0.00     0.251 C 
ATOM      7  H   UNL A   1      46.968  38.138  28.503  1.00  0.00     0.163 HD
BRANCH   6   8
ATOM      8  C   UNL A   1      45.056  36.381  30.629  1.00  0.00     0.039 A 
ATOM      9  C   UNL A   1      44.922  34.998  30.495  1.00  0.00     0.014 A 
ATOM     10  C   UNL A   1      44.112  37.074  31.412  1.00  0.00     0.014 A 
ATOM     11  C   UNL A   1      43.840  34.334  31.071  1.00  0.00     0.010 A 
ATOM     12  C   UNL A   1      43.039  36.414  32.003  1.00  0.00     0.010 A 
ATOM     13  C   UNL A   1      42.892  35.042  31.813  1.00  0.00    -0.014 A 
BRANCH  13  14
ATOM     14  C   UNL A   1      41.856  34.288  32.519  1.00  0.00     0.031 A 
ATOM     15  C   UNL A   1      42.163  33.972  33.947  1.00  0.00     0.074 A 
ATOM     16  C   UNL A   1      40.629  34.046  32.012  1.00  0.00     0.049 A 
ATOM     17  N   UNL A   1      42.206  32.814  34.525  1.00  0.00    -0.248 NA
ATOM     18  C   UNL A   1      42.553  35.090  34.820  1.00  0.00     0.031 C 
ATOM     19  C   UNL A   1      40.064  34.577  30.768  1.00  0.00     0.029 A 
ATOM     20  N   UNL A   1      39.572  33.393  32.581  1.00  0.00    -0.354 N 
ATOM     21  C   UNL A   1      42.426  33.074  35.879  1.00  0.00     0.074 A 
ATOM     22  C   UNL A   1      42.776  34.467  35.976  1.00  0.00     0.031 C 
ATOM     23  C   UNL A   1      38.719  34.440  30.801  1.00  0.00     0.029 A 
ATOM     24  C   UNL A   1      38.348  33.706  31.998  1.00  0.00     0.049 A 
ATOM     25  H   UNL A   1      39.668  32.762  33.331  1.00  0.00     0.167 HD
ATOM     26  C   UNL A   1      42.106  32.183  36.857  1.00  0.00     0.034 A 
ATOM     27  C   UNL A   1      37.116  33.458  32.506  1.00  0.00     0.034 A 
ATOM     28  C   UNL A   1      41.919  30.855  36.340  1.00  0.00     0.049 A 
ATOM     29  C   UNL A   1      37.250  32.410  33.539  1.00  0.00     0.074 A 
ATOM     30  C   UNL A   1      42.699  29.950  35.649  1.00  0.00     0.029 A 
ATOM     31  N   UNL A   1      40.631  30.394  36.240  1.00  0.00    -0.354 N 
ATOM     32  N   UNL A   1      37.552  31.169  33.283  1.00  0.00    -0.248 NA
ATOM     33  C   UNL A   1      37.399  32.821  34.925  1.00  0.00     0.031 C 
ATOM     34  C   UNL A   1      41.795  29.276  34.779  1.00  0.00     0.029 A 
ATOM     35  C   UNL A   1      40.518  29.786  35.021  1.00  0.00     0.049 A 
ATOM     36  H   UNL A   1      39.923  30.485  36.917  1.00  0.00     0.167 HD
ATOM     37  C   UNL A   1      38.342  30.781  34.356  1.00  0.00     0.074 A 
ATOM     38  C   UNL A   1      38.104  31.786  35.386  1.00  0.00     0.031 C 
ATOM     39  C   UNL A   1      39.329  29.849  34.200  1.00  0.00     0.034 A 
BRANCH  26  40
ATOM     40  C   UNL A   1      41.638  32.554  38.246  1.00  0.00     0.023 A 
ATOM     41  C   UNL A   1      42.449  32.171  39.339  1.00  0.00     0.012 A 
ATOM     42  C   UNL A   1      40.332  33.004  38.547  1.00  0.00     0.148 A 
ATOM     43  C   UNL A   1      41.972  32.193  40.654  1.00  0.00     0.002 A 
ATOM     44  C   UNL A   1      39.892  33.105  39.863  1.00  0.00     0.091 A 
ATOM     45  F   UNL A   1      39.453  33.211  37.561  1.00  0.00    -0.205 F 
ATOM     46  C   UNL A   1      40.695  32.670  40.918  1.00  0.00     0.022 A 
BRANCH  44  47
ATOM     47  S   UNL A   1      38.273  33.781  40.253  1.00  0.00     0.127 S 
ATOM     48  O   UNL A   1      38.056  33.254  41.604  1.00  0.00    -0.237 OA
ATOM     49  O   UNL A   1      38.532  35.224  40.196  1.00  0.00    -0.237 OA
ATOM     50  O   UNL A   1      37.389  33.293  39.218  1.00  0.00    -0.744 OA
ENDBRANCH  44  47
ENDBRANCH  26  40
BRANCH  27  51
ATOM     51  C   UNL A   1      35.853  34.216  32.340  1.00  0.00     0.023 A 
ATOM     52  C   UNL A   1      35.439  35.115  33.345  1.00  0.00     0.012 A 
ATOM     53  C   UNL A   1      35.200  34.268  31.089  1.00  0.00     0.148 A 
ATOM     54  C   UNL A   1      34.428  36.053  33.102  1.00  0.00     0.002 A 
ATOM     55  C   UNL A   1      34.187  35.195  30.857  1.00  0.00     0.091 A 
ATOM     56  F   UNL A   1      35.634  33.477  30.101  1.00  0.00    -0.205 F 
ATOM     57  C   UNL A   1      33.807  36.098  31.857  1.00  0.00     0.022 A 
BRANCH  55  58
ATOM     58  S   UNL A   1      33.356  35.321  29.267  1.00  0.00     0.127 S 
ATOM     59  O   UNL A   1      32.805  33.974  29.108  1.00  0.00    -0.237 OA
ATOM     60  O   UNL A   1      32.366  36.361  29.526  1.00  0.00    -0.237 OA
ATOM     61  O   UNL A   1      34.395  35.657  28.303  1.00  0.00    -0.744 OA
ENDBRANCH  55  58
ENDBRANCH  27  51
BRANCH  39  62
ATOM     62  C   UNL A   1      39.354  29.038  32.929  1.00  0.00     0.023 A 
ATOM     63  C   UNL A   1      38.553  27.891  32.756  1.00  0.00     0.012 A 
ATOM     64  C   UNL A   1      40.061  29.546  31.825  1.00  0.00     0.148 A 
ATOM     65  C   UNL A   1      38.483  27.247  31.517  1.00  0.00     0.002 A 
ATOM     66  C   UNL A   1      39.946  28.934  30.584  1.00  0.00     0.091 A 
ATOM     67  F   UNL A   1      40.815  30.642  32.004  1.00  0.00    -0.205 F 
ATOM     68  C   UNL A   1      39.167  27.779  30.427  1.00  0.00     0.022 A 
BRANCH  66  69
ATOM     69  S   UNL A   1      40.690  29.650  29.116  1.00  0.00     0.127 S 
ATOM     70  O   UNL A   1      40.586  31.082  29.387  1.00  0.00    -0.237 OA
ATOM     71  O   UNL A   1      42.052  29.116  29.159  1.00  0.00    -0.237 OA
ATOM     72  O   UNL A   1      39.900  29.163  27.991  1.00  0.00    -0.744 OA
ENDBRANCH  66  69
ENDBRANCH  39  62
ENDBRANCH  13  14
ENDBRANCH   6   8
ENDBRANCH   3   4
ENDBRANCH   2   3
ENDBRANCH   1   2
BRANCH   1  73
ATOM     73  N   UNL A   1      42.940  38.801  28.288  1.00  0.00    -0.352 N 
ATOM     74  C   UNL A   1      42.662  40.138  28.162  1.00  0.00     0.251 C 
ATOM     75  H   UNL A   1      42.916  38.460  29.211  1.00  0.00     0.163 HD
ATOM     76  O   UNL A   1      42.511  40.837  29.161  1.00  0.00    -0.269 OA
BRANCH  74  77
ATOM     77  C   UNL A   1      42.556  40.755  26.827  1.00  0.00     0.039 A 
ATOM     78  C   UNL A   1      41.316  40.752  26.177  1.00  0.00     0.016 A 
ATOM     79  C   UNL A   1      43.683  41.285  26.194  1.00  0.00     0.016 A 
ATOM     80  C   UNL A   1      41.177  41.349  24.920  1.00  0.00     0.029 A 
ATOM     81  C   UNL A   1      43.557  41.855  24.929  1.00  0.00     0.029 A 
ATOM     82  C   UNL A   1      42.303  41.887  24.290  1.00  0.00     0.066 A 
BRANCH  82  83
ATOM     83  N   UNL A   1      42.200  42.405  22.979  1.00  0.00    -0.220 N 
ATOM     84  C   UNL A   1      43.112  42.239  21.973  1.00  0.00     0.141 A 
ATOM     85  N   UNL A   1      41.158  43.134  22.518  1.00  0.00    -0.062 NA
ATOM     86  C   UNL A   1      42.609  42.910  20.887  1.00  0.00     0.093 A 
ATOM     87  N   UNL A   1      41.428  43.497  21.264  1.00  0.00    -0.134 NA
BRANCH  86  88
ATOM     88  C   UNL A   1      43.283  43.213  19.605  1.00  0.00     0.138 C 
BRANCH  88  89
ATOM     89  S   UNL A   1      44.929  43.927  19.506  1.00  0.00    -0.081 SA
BRANCH  89  90
ATOM     90  C   UNL A   1      44.912  45.657  19.727  1.00  0.00     0.176 A 
ATOM     91  N   UNL A   1      44.230  46.248  18.791  1.00  0.00    -0.223 NA
ATOM     92  N   UNL A   1      45.491  46.362  20.778  1.00  0.00    -0.255 N 
ATOM     93  C   UNL A   1      44.175  47.643  18.770  1.00  0.00     0.079 A 
ATOM     94  C   UNL A   1      45.945  47.645  20.425  1.00  0.00     0.266 A 
ATOM     95  C   UNL A   1      43.241  48.311  17.978  1.00  0.00     0.029 A 
ATOM     96  C   UNL A   1      45.122  48.384  19.457  1.00  0.00     0.066 A 
ATOM     97  O   UNL A   1      46.965  48.197  20.835  1.00  0.00    -0.268 OA
ATOM     98  C   UNL A   1      43.306  49.702  17.829  1.00  0.00     0.002 A 
ATOM     99  C   UNL A   1      45.233  49.768  19.280  1.00  0.00     0.016 A 
ATOM    100  C   UNL A   1      44.325  50.425  18.452  1.00  0.00     0.001 A 
BRANCH  92 101
ATOM    101  C   UNL A   1      45.725  45.897  22.140  1.00  0.00     0.051 A 
ATOM    102  C   UNL A   1      47.036  45.603  22.579  1.00  0.00     0.028 A 
ATOM    103  C   UNL A   1      44.723  45.714  23.104  1.00  0.00     0.028 A 
ATOM    104  C   UNL A   1      47.297  44.936  23.782  1.00  0.00     0.022 A 
ATOM    105  C   UNL A   1      44.963  45.000  24.291  1.00  0.00     0.022 A 
ATOM    106  C   UNL A   1      46.245  44.574  24.603  1.00  0.00     0.041 A 
ATOM    107  Cl  UNL A   1      46.525  43.593  25.983  1.00  0.00    -0.084 Cl
ENDBRANCH  92 101
ENDBRANCH  89  90
ENDBRANCH  88  89
ENDBRANCH  86  88
ENDBRANCH  82  83
ENDBRANCH  74  77
ENDBRANCH   1  73
TORSDOF 18
ENDMDL
