MODEL 1
REMARK VINA RESULT:     -12.6      0.000      0.000
REMARK SMILES O=C(Cn1c(O)c(/N=N/C(=O)c2ccc(Cl)cc2Cl)c2ccccc21)NCCCNC(=O)c1ccc(-c2c3nc(c(-c4cccc(S(=O)(=O)[O-])c4F)c4ccc([nH]4)c(-c4cccc(S(=O)(=O)[O-])c4F)c4nc(c(-c5cccc(S(=O)(=O)[O-])c5F)c5ccc2[nH]5)C=C4)C=C3)cc1
REMARK SMILES IDX 27 1 26 2 1 3 2 4 3 6 4 7 5 8 25 9 7 10 20 11 24 12 21 13
REMARK SMILES IDX 23 14 22 15 6 16 8 18 9 19 10 20 11 21 12 22 13 23 18 24
REMARK SMILES IDX 14 25 17 26 19 27 15 28 16 29 28 30 29 31 30 32 31 33 32 35
REMARK SMILES IDX 33 36 34 37 95 38 35 39 94 40 36 41 37 42 38 43 88 44 39 45
REMARK SMILES IDX 93 46 87 47 89 48 40 49 92 50 86 51 85 52 41 54 73 55 53 56
REMARK SMILES IDX 72 57 54 58 57 59 71 60 90 61 55 62 56 63 70 65 91 66 58 67
REMARK SMILES IDX 42 68 43 69 51 70 44 71 46 72 52 73 45 74 47 75 48 76 49 77
REMARK SMILES IDX 50 78 74 79 75 80 83 81 76 82 78 83 84 84 77 85 79 86 80 87
REMARK SMILES IDX 81 88 82 89 59 90 60 91 68 92 61 93 63 94 69 95 62 96 64 97
REMARK SMILES IDX 65 98 66 99 67 100
REMARK H PARENT 26 5 6 17 30 34 89 53 57 64
REMARK Flexibility Score: inf
ROOT
ATOM      1  C   UNL A   1      40.420  21.469  27.236  1.00  0.00     0.117 C 
ENDROOT
BRANCH   1   2
ATOM      2  N   UNL A   1      39.374  21.222  26.256  1.00  0.00    -0.354 N 
ATOM      3  O   UNL A   1      38.405  23.300  26.479  1.00  0.00    -0.273 OA
ATOM      4  C   UNL A   1      38.483  22.221  25.897  1.00  0.00     0.240 C 
ATOM      5  H   UNL A   1      39.297  20.332  25.842  1.00  0.00     0.163 HD
BRANCH   4   6
ATOM      6  C   UNL A   1      37.593  21.900  24.721  1.00  0.00     0.225 C 
BRANCH   6   7
ATOM      7  N   UNL A   1      36.141  21.900  24.942  1.00  0.00    -0.301 N 
ATOM      8  C   UNL A   1      35.458  23.032  25.392  1.00  0.00     0.221 A 
ATOM      9  C   UNL A   1      35.280  20.806  24.944  1.00  0.00     0.054 A 
ATOM     10  C   UNL A   1      34.194  22.618  25.760  1.00  0.00     0.155 A 
ATOM     11  C   UNL A   1      34.082  21.226  25.536  1.00  0.00     0.031 A 
ATOM     12  C   UNL A   1      35.416  19.476  24.504  1.00  0.00     0.027 A 
ATOM     13  C   UNL A   1      33.051  20.287  25.766  1.00  0.00     0.013 A 
ATOM     14  C   UNL A   1      34.392  18.558  24.760  1.00  0.00     0.002 A 
ATOM     15  C   UNL A   1      33.228  18.953  25.397  1.00  0.00     0.001 A 
BRANCH   8  16
ATOM     16  O   UNL A   1      36.004  24.247  25.471  1.00  0.00    -0.493 OA
ATOM     17  H   UNL A   1      36.336  24.559  26.290  1.00  0.00     0.295 HD
ENDBRANCH   8  16
BRANCH  10  18
ATOM     18  N   UNL A   1      33.130  23.362  26.295  1.00  0.00    -0.141 NA
ATOM     19  N   UNL A   1      32.899  24.438  25.707  1.00  0.00    -0.106 NA
BRANCH  19  20
ATOM     20  C   UNL A   1      31.770  25.052  26.212  1.00  0.00     0.296 C 
ATOM     21  O   UNL A   1      31.085  24.662  27.152  1.00  0.00    -0.265 OA
BRANCH  20  22
ATOM     22  C   UNL A   1      31.328  26.249  25.446  1.00  0.00     0.062 A 
ATOM     23  C   UNL A   1      30.277  26.106  24.523  1.00  0.00     0.017 A 
ATOM     24  C   UNL A   1      31.904  27.513  25.643  1.00  0.00     0.055 A 
ATOM     25  C   UNL A   1      29.801  27.215  23.816  1.00  0.00     0.021 A 
ATOM     26  C   UNL A   1      31.421  28.620  24.933  1.00  0.00     0.041 A 
ATOM     27  Cl  UNL A   1      33.249  27.794  26.690  1.00  0.00    -0.083 Cl
ATOM     28  C   UNL A   1      30.373  28.466  24.028  1.00  0.00     0.042 A 
ATOM     29  Cl  UNL A   1      29.787  29.831  23.160  1.00  0.00    -0.084 Cl
ENDBRANCH  20  22
ENDBRANCH  19  20
ENDBRANCH  10  18
ENDBRANCH   6   7
ENDBRANCH   4   6
ENDBRANCH   1   2
BRANCH   1  30
ATOM     30  C   UNL A   1      41.510  20.401  27.282  1.00  0.00     0.042 C 
BRANCH  30  31
ATOM     31  C   UNL A   1      41.627  19.522  26.035  1.00  0.00     0.118 C 
BRANCH  31  32
ATOM     32  N   UNL A   1      42.920  19.578  25.381  1.00  0.00    -0.352 N 
ATOM     33  C   UNL A   1      43.949  20.483  25.358  1.00  0.00     0.251 C 
ATOM     34  H   UNL A   1      43.099  18.785  24.825  1.00  0.00     0.163 HD
ATOM     35  O   UNL A   1      45.005  20.069  24.870  1.00  0.00    -0.269 OA
BRANCH  33  36
ATOM     36  C   UNL A   1      43.881  21.897  25.828  1.00  0.00     0.039 A 
ATOM     37  C   UNL A   1      44.454  22.380  27.001  1.00  0.00     0.014 A 
ATOM     38  C   UNL A   1      43.093  22.781  25.059  1.00  0.00     0.014 A 
ATOM     39  C   UNL A   1      44.212  23.690  27.416  1.00  0.00     0.010 A 
ATOM     40  C   UNL A   1      42.853  24.095  25.470  1.00  0.00     0.010 A 
ATOM     41  C   UNL A   1      43.390  24.546  26.670  1.00  0.00    -0.014 A 
BRANCH  41  42
ATOM     42  C   UNL A   1      43.192  25.904  27.187  1.00  0.00     0.031 A 
ATOM     43  C   UNL A   1      44.324  26.847  26.973  1.00  0.00     0.074 A 
ATOM     44  C   UNL A   1      42.084  26.378  27.793  1.00  0.00     0.049 A 
ATOM     45  N   UNL A   1      45.168  27.285  27.852  1.00  0.00    -0.248 NA
ATOM     46  C   UNL A   1      44.590  27.294  25.600  1.00  0.00     0.031 C 
ATOM     47  C   UNL A   1      40.749  25.777  27.837  1.00  0.00     0.029 A 
ATOM     48  N   UNL A   1      41.912  27.575  28.435  1.00  0.00    -0.354 N 
ATOM     49  C   UNL A   1      45.941  28.231  27.184  1.00  0.00     0.074 A 
ATOM     50  C   UNL A   1      45.638  28.098  25.781  1.00  0.00     0.031 C 
ATOM     51  C   UNL A   1      39.862  26.704  28.271  1.00  0.00     0.029 A 
ATOM     52  C   UNL A   1      40.585  27.893  28.690  1.00  0.00     0.049 A 
ATOM     53  H   UNL A   1      42.662  28.158  28.692  1.00  0.00     0.167 HD
ATOM     54  C   UNL A   1      46.612  29.214  27.842  1.00  0.00     0.034 A 
ATOM     55  C   UNL A   1      40.117  29.064  29.179  1.00  0.00     0.034 A 
ATOM     56  C   UNL A   1      46.645  29.014  29.262  1.00  0.00     0.049 A 
ATOM     57  C   UNL A   1      41.204  29.697  29.963  1.00  0.00     0.074 A 
ATOM     58  C   UNL A   1      47.275  28.176  30.153  1.00  0.00     0.029 A 
ATOM     59  N   UNL A   1      45.645  29.656  29.940  1.00  0.00    -0.354 N 
ATOM     60  N   UNL A   1      41.693  29.203  31.067  1.00  0.00    -0.248 NA
ATOM     61  C   UNL A   1      41.920  30.846  29.422  1.00  0.00     0.031 C 
ATOM     62  C   UNL A   1      46.449  28.150  31.315  1.00  0.00     0.029 A 
ATOM     63  C   UNL A   1      45.340  28.964  31.081  1.00  0.00     0.049 A 
ATOM     64  H   UNL A   1      45.210  30.491  29.651  1.00  0.00     0.167 HD
ATOM     65  C   UNL A   1      42.979  29.706  31.126  1.00  0.00     0.074 A 
ATOM     66  C   UNL A   1      42.991  30.840  30.219  1.00  0.00     0.031 C 
ATOM     67  C   UNL A   1      44.002  28.964  31.637  1.00  0.00     0.034 A 
BRANCH  54  68
ATOM     68  C   UNL A   1      46.905  30.580  27.273  1.00  0.00     0.023 A 
ATOM     69  C   UNL A   1      48.192  31.125  27.477  1.00  0.00     0.012 A 
ATOM     70  C   UNL A   1      45.898  31.455  26.810  1.00  0.00     0.148 A 
ATOM     71  C   UNL A   1      48.461  32.476  27.230  1.00  0.00     0.002 A 
ATOM     72  C   UNL A   1      46.190  32.776  26.493  1.00  0.00     0.091 A 
ATOM     73  F   UNL A   1      44.622  31.051  26.810  1.00  0.00    -0.205 F 
ATOM     74  C   UNL A   1      47.465  33.300  26.720  1.00  0.00     0.022 A 
BRANCH  72  75
ATOM     75  S   UNL A   1      44.943  33.854  25.783  1.00  0.00     0.127 S 
ATOM     76  O   UNL A   1      44.034  34.032  26.909  1.00  0.00    -0.237 OA
ATOM     77  O   UNL A   1      45.730  35.036  25.425  1.00  0.00    -0.237 OA
ATOM     78  O   UNL A   1      44.426  33.118  24.636  1.00  0.00    -0.744 OA
ENDBRANCH  72  75
ENDBRANCH  54  68
BRANCH  55  79
ATOM     79  C   UNL A   1      38.840  29.777  28.929  1.00  0.00     0.023 A 
ATOM     80  C   UNL A   1      38.084  29.448  27.782  1.00  0.00     0.012 A 
ATOM     81  C   UNL A   1      38.213  30.541  29.937  1.00  0.00     0.148 A 
ATOM     82  C   UNL A   1      36.734  29.799  27.677  1.00  0.00     0.002 A 
ATOM     83  C   UNL A   1      36.872  30.902  29.820  1.00  0.00     0.091 A 
ATOM     84  F   UNL A   1      38.893  30.828  31.054  1.00  0.00    -0.205 F 
ATOM     85  C   UNL A   1      36.124  30.514  28.700  1.00  0.00     0.022 A 
BRANCH  83  86
ATOM     86  S   UNL A   1      36.027  31.836  31.103  1.00  0.00     0.127 S 
ATOM     87  O   UNL A   1      36.881  33.017  31.242  1.00  0.00    -0.237 OA
ATOM     88  O   UNL A   1      34.728  32.090  30.490  1.00  0.00    -0.237 OA
ATOM     89  O   UNL A   1      36.025  30.967  32.274  1.00  0.00    -0.744 OA
ENDBRANCH  83  86
ENDBRANCH  55  79
BRANCH  67  90
ATOM     90  C   UNL A   1      43.669  27.883  32.622  1.00  0.00     0.023 A 
ATOM     91  C   UNL A   1      43.966  26.529  32.380  1.00  0.00     0.012 A 
ATOM     92  C   UNL A   1      43.178  28.267  33.882  1.00  0.00     0.148 A 
ATOM     93  C   UNL A   1      43.761  25.571  33.375  1.00  0.00     0.002 A 
ATOM     94  C   UNL A   1      43.016  27.318  34.882  1.00  0.00     0.091 A 
ATOM     95  F   UNL A   1      42.912  29.566  34.089  1.00  0.00    -0.205 F 
ATOM     96  C   UNL A   1      43.298  25.966  34.629  1.00  0.00     0.022 A 
BRANCH  94  97
ATOM     97  S   UNL A   1      42.537  27.767  36.553  1.00  0.00     0.127 S 
ATOM     98  O   UNL A   1      42.619  26.486  37.251  1.00  0.00    -0.237 OA
ATOM     99  O   UNL A   1      43.575  28.732  36.920  1.00  0.00    -0.237 OA
ATOM    100  O   UNL A   1      41.199  28.335  36.455  1.00  0.00    -0.744 OA
ENDBRANCH  94  97
ENDBRANCH  67  90
ENDBRANCH  41  42
ENDBRANCH  33  36
ENDBRANCH  31  32
ENDBRANCH  30  31
ENDBRANCH   1  30
TORSDOF 18
ENDMDL
MODEL 2
REMARK VINA RESULT:     -12.6      3.121      9.213
REMARK SMILES O=C(Cn1c(O)c(/N=N/C(=O)c2ccc(Cl)cc2Cl)c2ccccc21)NCCCNC(=O)c1ccc(-c2c3nc(c(-c4cccc(S(=O)(=O)[O-])c4F)c4ccc([nH]4)c(-c4cccc(S(=O)(=O)[O-])c4F)c4nc(c(-c5cccc(S(=O)(=O)[O-])c5F)c5ccc2[nH]5)C=C4)C=C3)cc1
REMARK SMILES IDX 27 1 26 2 1 3 2 4 3 6 4 7 5 8 25 9 7 10 20 11 24 12 21 13
REMARK SMILES IDX 23 14 22 15 6 16 8 18 9 19 10 20 11 21 12 22 13 23 18 24
REMARK SMILES IDX 14 25 17 26 19 27 15 28 16 29 28 30 29 31 30 32 31 33 32 35
REMARK SMILES IDX 33 36 34 37 95 38 35 39 94 40 36 41 37 42 38 43 88 44 39 45
REMARK SMILES IDX 93 46 87 47 89 48 40 49 92 50 86 51 85 52 41 54 73 55 53 56
REMARK SMILES IDX 72 57 54 58 57 59 71 60 90 61 55 62 56 63 70 65 91 66 58 67
REMARK SMILES IDX 42 68 43 69 51 70 44 71 46 72 52 73 45 74 47 75 48 76 49 77
REMARK SMILES IDX 50 78 74 79 75 80 83 81 76 82 78 83 84 84 77 85 79 86 80 87
REMARK SMILES IDX 81 88 82 89 59 90 60 91 68 92 61 93 63 94 69 95 62 96 64 97
REMARK SMILES IDX 65 98 66 99 67 100
REMARK H PARENT 26 5 6 17 30 34 89 53 57 64
REMARK Flexibility Score: inf
ROOT
ATOM      1  C   UNL A   1      35.163  31.955  28.021  1.00  0.00     0.117 C 
ENDROOT
BRANCH   1   2
ATOM      2  N   UNL A   1      33.827  31.730  27.491  1.00  0.00    -0.354 N 
ATOM      3  O   UNL A   1      34.153  29.486  27.088  1.00  0.00    -0.273 OA
ATOM      4  C   UNL A   1      33.404  30.459  27.137  1.00  0.00     0.240 C 
ATOM      5  H   UNL A   1      33.214  32.493  27.381  1.00  0.00     0.163 HD
BRANCH   4   6
ATOM      6  C   UNL A   1      31.937  30.335  26.809  1.00  0.00     0.225 C 
BRANCH   6   7
ATOM      7  N   UNL A   1      31.450  29.035  26.327  1.00  0.00    -0.301 N 
ATOM      8  C   UNL A   1      31.479  27.889  27.126  1.00  0.00     0.221 A 
ATOM      9  C   UNL A   1      31.096  28.687  25.027  1.00  0.00     0.054 A 
ATOM     10  C   UNL A   1      31.229  26.816  26.295  1.00  0.00     0.155 A 
ATOM     11  C   UNL A   1      31.039  27.288  24.976  1.00  0.00     0.031 A 
ATOM     12  C   UNL A   1      30.828  29.443  23.870  1.00  0.00     0.027 A 
ATOM     13  C   UNL A   1      30.798  26.645  23.741  1.00  0.00     0.013 A 
ATOM     14  C   UNL A   1      30.612  28.786  22.655  1.00  0.00     0.002 A 
ATOM     15  C   UNL A   1      30.612  27.403  22.585  1.00  0.00     0.001 A 
BRANCH   8  16
ATOM     16  O   UNL A   1      31.753  27.899  28.432  1.00  0.00    -0.493 OA
ATOM     17  H   UNL A   1      31.339  27.281  29.002  1.00  0.00     0.295 HD
ENDBRANCH   8  16
BRANCH  10  18
ATOM     18  N   UNL A   1      31.170  25.446  26.598  1.00  0.00    -0.141 NA
ATOM     19  N   UNL A   1      32.097  24.765  26.114  1.00  0.00    -0.106 NA
BRANCH  19  20
ATOM     20  C   UNL A   1      32.039  23.456  26.551  1.00  0.00     0.296 C 
ATOM     21  O   UNL A   1      31.207  22.979  27.316  1.00  0.00    -0.265 OA
BRANCH  20  22
ATOM     22  C   UNL A   1      33.173  22.607  26.096  1.00  0.00     0.062 A 
ATOM     23  C   UNL A   1      34.280  22.449  26.949  1.00  0.00     0.017 A 
ATOM     24  C   UNL A   1      33.152  21.935  24.864  1.00  0.00     0.055 A 
ATOM     25  C   UNL A   1      35.345  21.623  26.579  1.00  0.00     0.021 A 
ATOM     26  C   UNL A   1      34.223  21.108  24.500  1.00  0.00     0.041 A 
ATOM     27  Cl  UNL A   1      31.886  22.114  23.703  1.00  0.00    -0.083 Cl
ATOM     28  C   UNL A   1      35.309  20.954  25.359  1.00  0.00     0.042 A 
ATOM     29  Cl  UNL A   1      36.619  19.936  24.903  1.00  0.00    -0.084 Cl
ENDBRANCH  20  22
ENDBRANCH  19  20
ENDBRANCH  10  18
ENDBRANCH   6   7
ENDBRANCH   4   6
ENDBRANCH   1   2
BRANCH   1  30
ATOM     30  C   UNL A   1      35.641  33.402  27.943  1.00  0.00     0.042 C 
BRANCH  30  31
ATOM     31  C   UNL A   1      35.550  34.200  29.246  1.00  0.00     0.118 C 
BRANCH  31  32
ATOM     32  N   UNL A   1      34.872  33.509  30.326  1.00  0.00    -0.352 N 
ATOM     33  C   UNL A   1      35.239  32.557  31.240  1.00  0.00     0.251 C 
ATOM     34  H   UNL A   1      33.933  33.788  30.424  1.00  0.00     0.163 HD
ATOM     35  O   UNL A   1      34.446  32.386  32.171  1.00  0.00    -0.269 OA
BRANCH  33  36
ATOM     36  C   UNL A   1      36.467  31.712  31.177  1.00  0.00     0.039 A 
ATOM     37  C   UNL A   1      37.773  32.194  31.200  1.00  0.00     0.014 A 
ATOM     38  C   UNL A   1      36.272  30.327  30.990  1.00  0.00     0.014 A 
ATOM     39  C   UNL A   1      38.848  31.327  30.995  1.00  0.00     0.010 A 
ATOM     40  C   UNL A   1      37.347  29.456  30.790  1.00  0.00     0.010 A 
ATOM     41  C   UNL A   1      38.641  29.960  30.762  1.00  0.00    -0.014 A 
BRANCH  41  42
ATOM     42  C   UNL A   1      39.831  29.129  30.556  1.00  0.00     0.031 A 
ATOM     43  C   UNL A   1      40.630  28.832  31.777  1.00  0.00     0.074 A 
ATOM     44  C   UNL A   1      40.238  28.586  29.390  1.00  0.00     0.049 A 
ATOM     45  N   UNL A   1      41.778  29.329  32.113  1.00  0.00    -0.248 NA
ATOM     46  C   UNL A   1      40.042  27.931  32.775  1.00  0.00     0.031 C 
ATOM     47  C   UNL A   1      39.485  28.453  28.141  1.00  0.00     0.029 A 
ATOM     48  N   UNL A   1      41.418  27.947  29.116  1.00  0.00    -0.354 N 
ATOM     49  C   UNL A   1      42.157  28.642  33.263  1.00  0.00     0.074 A 
ATOM     50  C   UNL A   1      41.002  27.898  33.701  1.00  0.00     0.031 C 
ATOM     51  C   UNL A   1      40.132  27.588  27.325  1.00  0.00     0.029 A 
ATOM     52  C   UNL A   1      41.414  27.245  27.918  1.00  0.00     0.049 A 
ATOM     53  H   UNL A   1      42.198  27.982  29.713  1.00  0.00     0.167 HD
ATOM     54  C   UNL A   1      43.456  28.547  33.655  1.00  0.00     0.034 A 
ATOM     55  C   UNL A   1      42.383  26.416  27.467  1.00  0.00     0.034 A 
ATOM     56  C   UNL A   1      44.325  29.424  32.927  1.00  0.00     0.049 A 
ATOM     57  C   UNL A   1      43.663  26.830  28.089  1.00  0.00     0.074 A 
ATOM     58  C   UNL A   1      44.584  30.774  32.865  1.00  0.00     0.029 A 
ATOM     59  N   UNL A   1      44.924  28.842  31.842  1.00  0.00    -0.354 N 
ATOM     60  N   UNL A   1      44.253  27.971  27.857  1.00  0.00    -0.248 NA
ATOM     61  C   UNL A   1      44.246  26.031  29.160  1.00  0.00     0.031 C 
ATOM     62  C   UNL A   1      45.135  31.007  31.571  1.00  0.00     0.029 A 
ATOM     63  C   UNL A   1      45.178  29.790  30.889  1.00  0.00     0.049 A 
ATOM     64  H   UNL A   1      45.140  27.885  31.761  1.00  0.00     0.167 HD
ATOM     65  C   UNL A   1      45.001  28.206  28.996  1.00  0.00     0.074 A 
ATOM     66  C   UNL A   1      45.113  26.916  29.656  1.00  0.00     0.031 C 
ATOM     67  C   UNL A   1      45.173  29.469  29.476  1.00  0.00     0.034 A 
BRANCH  54  68
ATOM     68  C   UNL A   1      44.037  27.383  34.420  1.00  0.00     0.023 A 
ATOM     69  C   UNL A   1      44.933  27.660  35.475  1.00  0.00     0.012 A 
ATOM     70  C   UNL A   1      43.969  26.050  33.962  1.00  0.00     0.148 A 
ATOM     71  C   UNL A   1      45.722  26.655  36.048  1.00  0.00     0.002 A 
ATOM     72  C   UNL A   1      44.696  25.042  34.586  1.00  0.00     0.091 A 
ATOM     73  F   UNL A   1      43.309  25.773  32.831  1.00  0.00    -0.205 F 
ATOM     74  C   UNL A   1      45.591  25.341  35.616  1.00  0.00     0.022 A 
BRANCH  72  75
ATOM     75  S   UNL A   1      44.513  23.327  34.090  1.00  0.00     0.127 S 
ATOM     76  O   UNL A   1      45.313  22.643  35.099  1.00  0.00    -0.237 OA
ATOM     77  O   UNL A   1      43.066  23.130  34.204  1.00  0.00    -0.237 OA
ATOM     78  O   UNL A   1      45.010  23.282  32.720  1.00  0.00    -0.744 OA
ENDBRANCH  72  75
ENDBRANCH  54  68
BRANCH  55  79
ATOM     79  C   UNL A   1      42.299  25.191  26.634  1.00  0.00     0.023 A 
ATOM     80  C   UNL A   1      43.291  24.957  25.656  1.00  0.00     0.012 A 
ATOM     81  C   UNL A   1      41.452  24.117  26.986  1.00  0.00     0.148 A 
ATOM     82  C   UNL A   1      43.482  23.686  25.104  1.00  0.00     0.002 A 
ATOM     83  C   UNL A   1      41.636  22.857  26.421  1.00  0.00     0.091 A 
ATOM     84  F   UNL A   1      40.533  24.299  27.943  1.00  0.00    -0.205 F 
ATOM     85  C   UNL A   1      42.664  22.633  25.496  1.00  0.00     0.022 A 
BRANCH  83  86
ATOM     86  S   UNL A   1      40.606  21.455  26.877  1.00  0.00     0.127 S 
ATOM     87  O   UNL A   1      40.814  21.374  28.324  1.00  0.00    -0.237 OA
ATOM     88  O   UNL A   1      39.279  21.909  26.475  1.00  0.00    -0.237 OA
ATOM     89  O   UNL A   1      41.148  20.321  26.137  1.00  0.00    -0.744 OA
ENDBRANCH  83  86
ENDBRANCH  55  79
BRANCH  67  90
ATOM     90  C   UNL A   1      45.056  30.614  28.514  1.00  0.00     0.023 A 
ATOM     91  C   UNL A   1      43.817  31.194  28.182  1.00  0.00     0.012 A 
ATOM     92  C   UNL A   1      46.243  31.209  28.048  1.00  0.00     0.148 A 
ATOM     93  C   UNL A   1      43.762  32.340  27.387  1.00  0.00     0.002 A 
ATOM     94  C   UNL A   1      46.185  32.372  27.293  1.00  0.00     0.091 A 
ATOM     95  F   UNL A   1      47.410  30.641  28.386  1.00  0.00    -0.205 F 
ATOM     96  C   UNL A   1      44.945  32.936  26.953  1.00  0.00     0.022 A 
BRANCH  94  97
ATOM     97  S   UNL A   1      47.665  33.260  26.798  1.00  0.00     0.127 S 
ATOM     98  O   UNL A   1      48.549  32.174  26.380  1.00  0.00    -0.237 OA
ATOM     99  O   UNL A   1      47.168  34.100  25.707  1.00  0.00    -0.237 OA
ATOM    100  O   UNL A   1      48.107  34.001  27.972  1.00  0.00    -0.744 OA
ENDBRANCH  94  97
ENDBRANCH  67  90
ENDBRANCH  41  42
ENDBRANCH  33  36
ENDBRANCH  31  32
ENDBRANCH  30  31
ENDBRANCH   1  30
TORSDOF 18
ENDMDL
MODEL 3
REMARK VINA RESULT:     -12.4      2.914      9.329
REMARK SMILES O=C(Cn1c(O)c(/N=N/C(=O)c2ccc(Cl)cc2Cl)c2ccccc21)NCCCNC(=O)c1ccc(-c2c3nc(c(-c4cccc(S(=O)(=O)[O-])c4F)c4ccc([nH]4)c(-c4cccc(S(=O)(=O)[O-])c4F)c4nc(c(-c5cccc(S(=O)(=O)[O-])c5F)c5ccc2[nH]5)C=C4)C=C3)cc1
REMARK SMILES IDX 27 1 26 2 1 3 2 4 3 6 4 7 5 8 25 9 7 10 20 11 24 12 21 13
REMARK SMILES IDX 23 14 22 15 6 16 8 18 9 19 10 20 11 21 12 22 13 23 18 24
REMARK SMILES IDX 14 25 17 26 19 27 15 28 16 29 28 30 29 31 30 32 31 33 32 35
REMARK SMILES IDX 33 36 34 37 95 38 35 39 94 40 36 41 37 42 38 43 88 44 39 45
REMARK SMILES IDX 93 46 87 47 89 48 40 49 92 50 86 51 85 52 41 54 73 55 53 56
REMARK SMILES IDX 72 57 54 58 57 59 71 60 90 61 55 62 56 63 70 65 91 66 58 67
REMARK SMILES IDX 42 68 43 69 51 70 44 71 46 72 52 73 45 74 47 75 48 76 49 77
REMARK SMILES IDX 50 78 74 79 75 80 83 81 76 82 78 83 84 84 77 85 79 86 80 87
REMARK SMILES IDX 81 88 82 89 59 90 60 91 68 92 61 93 63 94 69 95 62 96 64 97
REMARK SMILES IDX 65 98 66 99 67 100
REMARK H PARENT 26 5 6 17 30 34 89 53 57 64
REMARK Flexibility Score: inf
ROOT
ATOM      1  C   UNL A   1      34.635  31.364  27.608  1.00  0.00     0.117 C 
ENDROOT
BRANCH   1   2
ATOM      2  N   UNL A   1      33.347  30.766  27.290  1.00  0.00    -0.354 N 
ATOM      3  O   UNL A   1      34.152  28.610  27.199  1.00  0.00    -0.273 OA
ATOM      4  C   UNL A   1      33.204  29.391  27.192  1.00  0.00     0.240 C 
ATOM      5  H   UNL A   1      32.566  31.346  27.142  1.00  0.00     0.163 HD
BRANCH   4   6
ATOM      6  C   UNL A   1      31.783  28.898  27.074  1.00  0.00     0.225 C 
BRANCH   6   7
ATOM      7  N   UNL A   1      31.418  28.145  25.866  1.00  0.00    -0.301 N 
ATOM      8  C   UNL A   1      31.777  26.807  25.688  1.00  0.00     0.221 A 
ATOM      9  C   UNL A   1      30.875  28.642  24.685  1.00  0.00     0.054 A 
ATOM     10  C   UNL A   1      31.537  26.501  24.365  1.00  0.00     0.155 A 
ATOM     11  C   UNL A   1      31.024  27.645  23.712  1.00  0.00     0.031 A 
ATOM     12  C   UNL A   1      30.274  29.869  24.346  1.00  0.00     0.027 A 
ATOM     13  C   UNL A   1      30.650  27.914  22.375  1.00  0.00     0.013 A 
ATOM     14  C   UNL A   1      29.931  30.122  23.014  1.00  0.00     0.002 A 
ATOM     15  C   UNL A   1      30.129  29.162  22.035  1.00  0.00     0.001 A 
BRANCH   8  16
ATOM     16  O   UNL A   1      32.294  26.041  26.652  1.00  0.00    -0.493 OA
ATOM     17  H   UNL A   1      32.215  26.301  27.549  1.00  0.00     0.295 HD
ENDBRANCH   8  16
BRANCH  10  18
ATOM     18  N   UNL A   1      31.750  25.297  23.673  1.00  0.00    -0.141 NA
ATOM     19  N   UNL A   1      32.531  24.503  24.235  1.00  0.00    -0.106 NA
BRANCH  19  20
ATOM     20  C   UNL A   1      32.596  23.301  23.559  1.00  0.00     0.296 C 
ATOM     21  O   UNL A   1      31.752  22.847  22.795  1.00  0.00    -0.265 OA
BRANCH  20  22
ATOM     22  C   UNL A   1      33.783  22.470  23.899  1.00  0.00     0.062 A 
ATOM     23  C   UNL A   1      35.060  22.945  23.549  1.00  0.00     0.017 A 
ATOM     24  C   UNL A   1      33.668  21.252  24.586  1.00  0.00     0.055 A 
ATOM     25  C   UNL A   1      36.203  22.217  23.890  1.00  0.00     0.021 A 
ATOM     26  C   UNL A   1      34.818  20.528  24.926  1.00  0.00     0.041 A 
ATOM     27  Cl  UNL A   1      32.153  20.531  24.998  1.00  0.00    -0.083 Cl
ATOM     28  C   UNL A   1      36.077  21.015  24.580  1.00  0.00     0.042 A 
ATOM     29  Cl  UNL A   1      37.484  20.120  25.003  1.00  0.00    -0.084 Cl
ENDBRANCH  20  22
ENDBRANCH  19  20
ENDBRANCH  10  18
ENDBRANCH   6   7
ENDBRANCH   4   6
ENDBRANCH   1   2
BRANCH   1  30
ATOM     30  C   UNL A   1      34.598  32.383  28.743  1.00  0.00     0.042 C 
BRANCH  30  31
ATOM     31  C   UNL A   1      35.564  33.562  28.604  1.00  0.00     0.118 C 
BRANCH  31  32
ATOM     32  N   UNL A   1      36.110  34.041  29.859  1.00  0.00    -0.352 N 
ATOM     33  C   UNL A   1      37.250  33.783  30.575  1.00  0.00     0.251 C 
ATOM     34  H   UNL A   1      35.528  34.703  30.298  1.00  0.00     0.163 HD
ATOM     35  O   UNL A   1      37.486  34.573  31.494  1.00  0.00    -0.269 OA
BRANCH  33  36
ATOM     36  C   UNL A   1      38.176  32.634  30.359  1.00  0.00     0.039 A 
ATOM     37  C   UNL A   1      37.787  31.302  30.243  1.00  0.00     0.014 A 
ATOM     38  C   UNL A   1      39.557  32.925  30.366  1.00  0.00     0.014 A 
ATOM     39  C   UNL A   1      38.746  30.291  30.183  1.00  0.00     0.010 A 
ATOM     40  C   UNL A   1      40.520  31.915  30.300  1.00  0.00     0.010 A 
ATOM     41  C   UNL A   1      40.116  30.586  30.238  1.00  0.00    -0.014 A 
BRANCH  41  42
ATOM     42  C   UNL A   1      41.048  29.457  30.169  1.00  0.00     0.031 A 
ATOM     43  C   UNL A   1      41.597  28.994  31.473  1.00  0.00     0.074 A 
ATOM     44  C   UNL A   1      41.415  28.787  29.057  1.00  0.00     0.049 A 
ATOM     45  N   UNL A   1      42.794  29.171  31.936  1.00  0.00    -0.248 NA
ATOM     46  C   UNL A   1      40.680  28.318  32.399  1.00  0.00     0.031 C 
ATOM     47  C   UNL A   1      40.795  28.824  27.731  1.00  0.00     0.029 A 
ATOM     48  N   UNL A   1      42.398  27.844  28.919  1.00  0.00    -0.354 N 
ATOM     49  C   UNL A   1      42.843  28.443  33.122  1.00  0.00     0.074 A 
ATOM     50  C   UNL A   1      41.488  28.056  33.427  1.00  0.00     0.031 C 
ATOM     51  C   UNL A   1      41.267  27.791  26.994  1.00  0.00     0.029 A 
ATOM     52  C   UNL A   1      42.333  27.131  27.729  1.00  0.00     0.049 A 
ATOM     53  H   UNL A   1      43.089  27.685  29.602  1.00  0.00     0.167 HD
ATOM     54  C   UNL A   1      44.015  28.013  33.660  1.00  0.00     0.034 A 
ATOM     55  C   UNL A   1      43.082  26.057  27.392  1.00  0.00     0.034 A 
ATOM     56  C   UNL A   1      45.165  28.597  33.034  1.00  0.00     0.049 A 
ATOM     57  C   UNL A   1      44.351  26.127  28.155  1.00  0.00     0.074 A 
ATOM     58  C   UNL A   1      45.789  29.823  33.001  1.00  0.00     0.029 A 
ATOM     59  N   UNL A   1      45.696  27.840  32.025  1.00  0.00    -0.354 N 
ATOM     60  N   UNL A   1      45.252  27.056  27.991  1.00  0.00    -0.248 NA
ATOM     61  C   UNL A   1      44.573  25.234  29.286  1.00  0.00     0.031 C 
ATOM     62  C   UNL A   1      46.520  29.856  31.777  1.00  0.00     0.029 A 
ATOM     63  C   UNL A   1      46.303  28.652  31.106  1.00  0.00     0.049 A 
ATOM     64  H   UNL A   1      45.650  26.858  31.970  1.00  0.00     0.167 HD
ATOM     65  C   UNL A   1      45.907  27.116  29.207  1.00  0.00     0.074 A 
ATOM     66  C   UNL A   1      45.589  25.866  29.876  1.00  0.00     0.031 C 
ATOM     67  C   UNL A   1      46.365  28.300  29.702  1.00  0.00     0.034 A 
BRANCH  54  68
ATOM     68  C   UNL A   1      44.169  26.760  34.486  1.00  0.00     0.023 A 
ATOM     69  C   UNL A   1      43.722  25.539  33.935  1.00  0.00     0.012 A 
ATOM     70  C   UNL A   1      44.457  26.778  35.868  1.00  0.00     0.148 A 
ATOM     71  C   UNL A   1      43.572  24.392  34.723  1.00  0.00     0.002 A 
ATOM     72  C   UNL A   1      44.381  25.617  36.630  1.00  0.00     0.091 A 
ATOM     73  F   UNL A   1      44.669  27.948  36.483  1.00  0.00    -0.205 F 
ATOM     74  C   UNL A   1      43.919  24.425  36.068  1.00  0.00     0.022 A 
BRANCH  72  75
ATOM     75  S   UNL A   1      44.871  25.610  38.357  1.00  0.00     0.127 S 
ATOM     76  O   UNL A   1      43.777  26.352  38.974  1.00  0.00    -0.237 OA
ATOM     77  O   UNL A   1      44.900  24.178  38.659  1.00  0.00    -0.237 OA
ATOM     78  O   UNL A   1      46.182  26.245  38.372  1.00  0.00    -0.744 OA
ENDBRANCH  72  75
ENDBRANCH  54  68
BRANCH  55  79
ATOM     79  C   UNL A   1      42.758  24.874  26.556  1.00  0.00     0.023 A 
ATOM     80  C   UNL A   1      43.641  24.505  25.518  1.00  0.00     0.012 A 
ATOM     81  C   UNL A   1      41.774  23.941  26.950  1.00  0.00     0.148 A 
ATOM     82  C   UNL A   1      43.597  23.229  24.945  1.00  0.00     0.002 A 
ATOM     83  C   UNL A   1      41.724  22.677  26.365  1.00  0.00     0.091 A 
ATOM     84  F   UNL A   1      40.952  24.249  27.962  1.00  0.00    -0.205 F 
ATOM     85  C   UNL A   1      42.648  22.311  25.378  1.00  0.00     0.022 A 
BRANCH  83  86
ATOM     86  S   UNL A   1      40.514  21.447  26.871  1.00  0.00     0.127 S 
ATOM     87  O   UNL A   1      40.905  20.281  26.077  1.00  0.00    -0.237 OA
ATOM     88  O   UNL A   1      40.779  21.329  28.301  1.00  0.00    -0.237 OA
ATOM     89  O   UNL A   1      39.218  22.006  26.503  1.00  0.00    -0.744 OA
ENDBRANCH  83  86
ENDBRANCH  55  79
BRANCH  67  90
ATOM     90  C   UNL A   1      46.671  29.402  28.732  1.00  0.00     0.023 A 
ATOM     91  C   UNL A   1      47.950  29.576  28.171  1.00  0.00     0.012 A 
ATOM     92  C   UNL A   1      45.601  30.188  28.267  1.00  0.00     0.148 A 
ATOM     93  C   UNL A   1      48.161  30.529  27.173  1.00  0.00     0.002 A 
ATOM     94  C   UNL A   1      45.807  31.105  27.246  1.00  0.00     0.091 A 
ATOM     95  F   UNL A   1      44.391  29.995  28.812  1.00  0.00    -0.205 F 
ATOM     96  C   UNL A   1      47.089  31.285  26.702  1.00  0.00     0.022 A 
BRANCH  94  97
ATOM     97  S   UNL A   1      44.456  32.028  26.508  1.00  0.00     0.127 S 
ATOM     98  O   UNL A   1      44.068  32.926  27.594  1.00  0.00    -0.237 OA
ATOM     99  O   UNL A   1      45.113  32.684  25.376  1.00  0.00    -0.237 OA
ATOM    100  O   UNL A   1      43.449  31.044  26.130  1.00  0.00    -0.744 OA
ENDBRANCH  94  97
ENDBRANCH  67  90
ENDBRANCH  41  42
ENDBRANCH  33  36
ENDBRANCH  31  32
ENDBRANCH  30  31
ENDBRANCH   1  30
TORSDOF 18
ENDMDL
