MODEL 1
REMARK VINA RESULT:     -12.3      0.000      0.000
REMARK SMILES COc1ccc(/C=C/c2ncc(C(=O)NCCCNC(=O)c3ccc(-c4c5nc(c(-c6cccc(S(=O)(=O)[O-])c6F)c6ccc([nH]6)c(-c6cccc(S(=O)(=O)[O-])c6F)c6nc(c(-c7cccc(S(=O)(=O)[O-])c7F)c7ccc4[nH]7)C=C6)C=C5)cc3)s2)cc1O
REMARK SMILES IDX 17 1 16 2 15 3 13 4 14 5 12 7 9 8 10 9 85 10 11 11 8 12 7 13
REMARK SMILES IDX 6 14 3 15 4 16 87 17 5 18 86 19 2 20 1 21 88 22 18 24 19 25
REMARK SMILES IDX 20 26 21 28 22 29 23 30 84 31 24 32 83 33 25 34 26 35 27 36
REMARK SMILES IDX 77 37 28 38 82 39 76 40 78 41 29 42 81 43 75 44 74 45 30 47
REMARK SMILES IDX 62 48 42 49 61 50 43 51 46 52 60 53 79 54 44 55 45 56 59 58
REMARK SMILES IDX 80 59 47 60 31 61 32 62 40 63 33 64 35 65 41 66 34 67 36 68
REMARK SMILES IDX 37 69 38 70 39 71 63 72 64 73 72 74 65 75 67 76 73 77 66 78
REMARK SMILES IDX 68 79 69 80 70 81 71 82 48 83 49 84 57 85 50 86 52 87 58 88
REMARK SMILES IDX 51 89 53 90 54 91 55 92 56 93
REMARK H PARENT 15 6 88 23 19 27 78 46 46 57
REMARK Flexibility Score: inf
ROOT
ATOM      1  C   UNL A   1      31.730  28.586  26.385  1.00  0.00     0.042 C 
ENDROOT
BRANCH   1   2
ATOM      2  C   UNL A   1      31.238  27.480  25.454  1.00  0.00     0.118 C 
BRANCH   2   3
ATOM      3  N   UNL A   1      30.830  28.003  24.164  1.00  0.00    -0.351 N 
ATOM      4  C   UNL A   1      31.058  27.561  22.882  1.00  0.00     0.263 C 
ATOM      5  O   UNL A   1      30.457  28.178  21.999  1.00  0.00    -0.268 OA
ATOM      6  H   UNL A   1      30.291  28.826  24.215  1.00  0.00     0.163 HD
BRANCH   4   7
ATOM      7  C   UNL A   1      31.920  26.428  22.611  1.00  0.00     0.112 A 
ATOM      8  C   UNL A   1      32.813  24.148  22.399  1.00  0.00     0.116 A 
ATOM      9  N   UNL A   1      33.728  25.037  22.072  1.00  0.00    -0.244 NA
ATOM     10  S   UNL A   1      31.293  24.838  22.839  1.00  0.00    -0.109 S 
ATOM     11  C   UNL A   1      33.210  26.316  22.138  1.00  0.00     0.137 A 
BRANCH   8  12
ATOM     12  C   UNL A   1      32.971  22.732  22.415  1.00  0.00     0.040 C 
ATOM     13  C   UNL A   1      32.730  22.034  23.538  1.00  0.00     0.011 C 
BRANCH  13  14
ATOM     14  C   UNL A   1      32.873  20.577  23.656  1.00  0.00    -0.022 A 
ATOM     15  C   UNL A   1      33.056  17.766  23.850  1.00  0.00     0.160 A 
ATOM     16  C   UNL A   1      33.712  18.584  24.772  1.00  0.00     0.051 A 
ATOM     17  C   UNL A   1      32.328  18.364  22.820  1.00  0.00     0.158 A 
ATOM     18  C   UNL A   1      33.620  19.978  24.679  1.00  0.00     0.012 A 
ATOM     19  C   UNL A   1      32.209  19.752  22.739  1.00  0.00     0.058 A 
BRANCH  15  20
ATOM     20  O   UNL A   1      33.254  16.422  24.010  1.00  0.00    -0.493 OA
ATOM     21  C   UNL A   1      33.596  15.995  25.327  1.00  0.00     0.278 C 
ENDBRANCH  15  20
BRANCH  17  22
ATOM     22  O   UNL A   1      31.763  17.645  21.805  1.00  0.00    -0.504 OA
ATOM     23  H   UNL A   1      30.832  17.637  21.698  1.00  0.00     0.293 HD
ENDBRANCH  17  22
ENDBRANCH  13  14
ENDBRANCH   8  12
ENDBRANCH   4   7
ENDBRANCH   2   3
ENDBRANCH   1   2
BRANCH   1  24
ATOM     24  C   UNL A   1      32.782  29.498  25.753  1.00  0.00     0.118 C 
BRANCH  24  25
ATOM     25  N   UNL A   1      32.547  30.901  26.064  1.00  0.00    -0.352 N 
ATOM     26  C   UNL A   1      33.111  31.708  27.019  1.00  0.00     0.251 C 
ATOM     27  H   UNL A   1      31.874  31.341  25.496  1.00  0.00     0.163 HD
ATOM     28  O   UNL A   1      32.599  32.803  27.243  1.00  0.00    -0.269 OA
BRANCH  26  29
ATOM     29  C   UNL A   1      34.313  31.288  27.773  1.00  0.00     0.039 A 
ATOM     30  C   UNL A   1      35.359  32.206  27.928  1.00  0.00     0.014 A 
ATOM     31  C   UNL A   1      34.459  29.984  28.255  1.00  0.00     0.014 A 
ATOM     32  C   UNL A   1      36.534  31.825  28.581  1.00  0.00     0.010 A 
ATOM     33  C   UNL A   1      35.603  29.626  28.968  1.00  0.00     0.010 A 
ATOM     34  C   UNL A   1      36.662  30.534  29.117  1.00  0.00    -0.014 A 
BRANCH  34  35
ATOM     35  C   UNL A   1      37.907  30.113  29.809  1.00  0.00     0.031 A 
ATOM     36  C   UNL A   1      38.212  30.615  31.197  1.00  0.00     0.074 A 
ATOM     37  C   UNL A   1      38.794  29.328  29.167  1.00  0.00     0.049 A 
ATOM     38  N   UNL A   1      39.256  30.375  31.949  1.00  0.00    -0.248 NA
ATOM     39  C   UNL A   1      37.233  31.527  31.808  1.00  0.00     0.031 C 
ATOM     40  C   UNL A   1      38.653  28.844  27.792  1.00  0.00     0.029 A 
ATOM     41  N   UNL A   1      39.999  28.818  29.577  1.00  0.00    -0.354 N 
ATOM     42  C   UNL A   1      39.078  31.133  33.102  1.00  0.00     0.074 A 
ATOM     43  C   UNL A   1      37.842  31.867  32.935  1.00  0.00     0.031 C 
ATOM     44  C   UNL A   1      39.727  28.103  27.476  1.00  0.00     0.029 A 
ATOM     45  C   UNL A   1      40.639  28.071  28.615  1.00  0.00     0.049 A 
ATOM     46  H   UNL A   1      40.372  28.973  30.475  1.00  0.00     0.167 HD
ATOM     47  C   UNL A   1      39.851  31.189  34.212  1.00  0.00     0.034 A 
ATOM     48  C   UNL A   1      41.821  27.427  28.651  1.00  0.00     0.034 A 
ATOM     49  C   UNL A   1      41.047  30.413  34.399  1.00  0.00     0.049 A 
ATOM     50  C   UNL A   1      42.622  27.439  29.926  1.00  0.00     0.074 A 
ATOM     51  C   UNL A   1      41.856  30.332  35.518  1.00  0.00     0.029 A 
ATOM     52  N   UNL A   1      41.603  29.577  33.443  1.00  0.00    -0.354 N 
ATOM     53  N   UNL A   1      42.353  28.035  31.063  1.00  0.00    -0.248 NA
ATOM     54  C   UNL A   1      43.863  26.652  29.938  1.00  0.00     0.031 C 
ATOM     55  C   UNL A   1      42.905  29.450  35.236  1.00  0.00     0.029 A 
ATOM     56  C   UNL A   1      42.742  28.972  33.946  1.00  0.00     0.049 A 
ATOM     57  H   UNL A   1      41.241  29.435  32.539  1.00  0.00     0.167 HD
ATOM     58  C   UNL A   1      43.369  27.664  31.936  1.00  0.00     0.074 A 
ATOM     59  C   UNL A   1      44.246  26.775  31.202  1.00  0.00     0.031 C 
ATOM     60  C   UNL A   1      43.569  28.039  33.224  1.00  0.00     0.034 A 
BRANCH  47  61
ATOM     61  C   UNL A   1      39.387  32.072  35.343  1.00  0.00     0.023 A 
ATOM     62  C   UNL A   1      38.486  31.556  36.297  1.00  0.00     0.012 A 
ATOM     63  C   UNL A   1      39.875  33.385  35.494  1.00  0.00     0.148 A 
ATOM     64  C   UNL A   1      38.048  32.341  37.361  1.00  0.00     0.002 A 
ATOM     65  C   UNL A   1      39.466  34.149  36.583  1.00  0.00     0.091 A 
ATOM     66  F   UNL A   1      40.713  33.868  34.567  1.00  0.00    -0.205 F 
ATOM     67  C   UNL A   1      38.545  33.633  37.510  1.00  0.00     0.022 A 
BRANCH  65  68
ATOM     68  S   UNL A   1      40.108  35.796  36.903  1.00  0.00     0.127 S 
ATOM     69  O   UNL A   1      39.640  36.529  35.728  1.00  0.00    -0.237 OA
ATOM     70  O   UNL A   1      39.433  36.154  38.152  1.00  0.00    -0.237 OA
ATOM     71  O   UNL A   1      41.552  35.646  37.018  1.00  0.00    -0.744 OA
ENDBRANCH  65  68
ENDBRANCH  47  61
BRANCH  48  72
ATOM     72  C   UNL A   1      42.270  26.633  27.472  1.00  0.00     0.023 A 
ATOM     73  C   UNL A   1      43.007  27.272  26.455  1.00  0.00     0.012 A 
ATOM     74  C   UNL A   1      42.006  25.255  27.367  1.00  0.00     0.148 A 
ATOM     75  C   UNL A   1      43.447  26.559  25.340  1.00  0.00     0.002 A 
ATOM     76  C   UNL A   1      42.493  24.540  26.278  1.00  0.00     0.091 A 
ATOM     77  F   UNL A   1      41.293  24.668  28.338  1.00  0.00    -0.205 F 
ATOM     78  C   UNL A   1      43.199  25.191  25.256  1.00  0.00     0.022 A 
BRANCH  76  79
ATOM     79  S   UNL A   1      42.334  22.753  26.157  1.00  0.00     0.127 S 
ATOM     80  O   UNL A   1      42.995  22.310  27.382  1.00  0.00    -0.237 OA
ATOM     81  O   UNL A   1      40.881  22.577  26.142  1.00  0.00    -0.237 OA
ATOM     82  O   UNL A   1      42.992  22.389  24.910  1.00  0.00    -0.744 OA
ENDBRANCH  76  79
ENDBRANCH  48  72
BRANCH  60  83
ATOM     83  C   UNL A   1      44.760  27.462  33.941  1.00  0.00     0.023 A 
ATOM     84  C   UNL A   1      45.943  28.219  34.050  1.00  0.00     0.012 A 
ATOM     85  C   UNL A   1      44.686  26.200  34.560  1.00  0.00     0.148 A 
ATOM     86  C   UNL A   1      47.047  27.712  34.735  1.00  0.00     0.002 A 
ATOM     87  C   UNL A   1      45.775  25.721  35.282  1.00  0.00     0.091 A 
ATOM     88  F   UNL A   1      43.560  25.484  34.428  1.00  0.00    -0.205 F 
ATOM     89  C   UNL A   1      46.959  26.471  35.361  1.00  0.00     0.022 A 
BRANCH  87  90
ATOM     90  S   UNL A   1      45.706  24.174  36.193  1.00  0.00     0.127 S 
ATOM     91  O   UNL A   1      46.289  24.558  37.477  1.00  0.00    -0.237 OA
ATOM     92  O   UNL A   1      44.270  23.896  36.234  1.00  0.00    -0.237 OA
ATOM     93  O   UNL A   1      46.478  23.221  35.407  1.00  0.00    -0.744 OA
ENDBRANCH  87  90
ENDBRANCH  60  83
ENDBRANCH  34  35
ENDBRANCH  26  29
ENDBRANCH  24  25
ENDBRANCH   1  24
TORSDOF 17
ENDMDL
MODEL 2
REMARK VINA RESULT:     -12.3      2.515      3.232
REMARK SMILES COc1ccc(/C=C/c2ncc(C(=O)NCCCNC(=O)c3ccc(-c4c5nc(c(-c6cccc(S(=O)(=O)[O-])c6F)c6ccc([nH]6)c(-c6cccc(S(=O)(=O)[O-])c6F)c6nc(c(-c7cccc(S(=O)(=O)[O-])c7F)c7ccc4[nH]7)C=C6)C=C5)cc3)s2)cc1O
REMARK SMILES IDX 17 1 16 2 15 3 13 4 14 5 12 7 9 8 10 9 85 10 11 11 8 12 7 13
REMARK SMILES IDX 6 14 3 15 4 16 87 17 5 18 86 19 2 20 1 21 88 22 18 24 19 25
REMARK SMILES IDX 20 26 21 28 22 29 23 30 84 31 24 32 83 33 25 34 26 35 27 36
REMARK SMILES IDX 77 37 28 38 82 39 76 40 78 41 29 42 81 43 75 44 74 45 30 47
REMARK SMILES IDX 62 48 42 49 61 50 43 51 46 52 60 53 79 54 44 55 45 56 59 58
REMARK SMILES IDX 80 59 47 60 31 61 32 62 40 63 33 64 35 65 41 66 34 67 36 68
REMARK SMILES IDX 37 69 38 70 39 71 63 72 64 73 72 74 65 75 67 76 73 77 66 78
REMARK SMILES IDX 68 79 69 80 70 81 71 82 48 83 49 84 57 85 50 86 52 87 58 88
REMARK SMILES IDX 51 89 53 90 54 91 55 92 56 93
REMARK H PARENT 15 6 88 23 19 27 78 46 46 57
REMARK Flexibility Score: inf
ROOT
ATOM      1  C   UNL A   1      32.582  28.395  25.746  1.00  0.00     0.042 C 
ENDROOT
BRANCH   1   2
ATOM      2  C   UNL A   1      32.894  29.075  24.414  1.00  0.00     0.118 C 
BRANCH   2   3
ATOM      3  N   UNL A   1      31.778  28.992  23.491  1.00  0.00    -0.351 N 
ATOM      4  C   UNL A   1      31.361  27.992  22.645  1.00  0.00     0.263 C 
ATOM      5  O   UNL A   1      30.286  28.199  22.077  1.00  0.00    -0.268 OA
ATOM      6  H   UNL A   1      31.215  29.801  23.465  1.00  0.00     0.163 HD
BRANCH   4   7
ATOM      7  C   UNL A   1      32.128  26.774  22.472  1.00  0.00     0.112 A 
ATOM      8  C   UNL A   1      32.826  24.418  22.434  1.00  0.00     0.116 A 
ATOM      9  N   UNL A   1      33.820  25.202  22.072  1.00  0.00    -0.244 NA
ATOM     10  S   UNL A   1      31.363  25.262  22.790  1.00  0.00    -0.109 S 
ATOM     11  C   UNL A   1      33.412  26.522  22.039  1.00  0.00     0.137 A 
BRANCH   8  12
ATOM     12  C   UNL A   1      32.862  22.999  22.549  1.00  0.00     0.040 C 
ATOM     13  C   UNL A   1      32.537  22.402  23.709  1.00  0.00     0.011 C 
BRANCH  13  14
ATOM     14  C   UNL A   1      32.553  20.949  23.928  1.00  0.00    -0.022 A 
ATOM     15  C   UNL A   1      32.508  18.149  24.285  1.00  0.00     0.160 A 
ATOM     16  C   UNL A   1      32.835  18.993  25.347  1.00  0.00     0.051 A 
ATOM     17  C   UNL A   1      32.226  18.714  23.040  1.00  0.00     0.158 A 
ATOM     18  C   UNL A   1      32.855  20.383  25.173  1.00  0.00     0.012 A 
ATOM     19  C   UNL A   1      32.216  20.099  22.868  1.00  0.00     0.058 A 
BRANCH  15  20
ATOM     20  O   UNL A   1      32.566  16.810  24.558  1.00  0.00    -0.493 OA
ATOM     21  C   UNL A   1      33.841  16.194  24.387  1.00  0.00     0.278 C 
ENDBRANCH  15  20
BRANCH  17  22
ATOM     22  O   UNL A   1      32.022  17.960  21.919  1.00  0.00    -0.504 OA
ATOM     23  H   UNL A   1      32.073  17.025  21.967  1.00  0.00     0.293 HD
ENDBRANCH  17  22
ENDBRANCH  13  14
ENDBRANCH   8  12
ENDBRANCH   4   7
ENDBRANCH   2   3
ENDBRANCH   1   2
BRANCH   1  24
ATOM     24  C   UNL A   1      33.576  28.736  26.856  1.00  0.00     0.118 C 
BRANCH  24  25
ATOM     25  N   UNL A   1      33.600  30.163  27.149  1.00  0.00    -0.352 N 
ATOM     26  C   UNL A   1      34.505  30.910  27.860  1.00  0.00     0.251 C 
ATOM     27  H   UNL A   1      32.844  30.672  26.778  1.00  0.00     0.163 HD
ATOM     28  O   UNL A   1      34.206  32.063  28.166  1.00  0.00    -0.269 OA
BRANCH  26  29
ATOM     29  C   UNL A   1      35.820  30.360  28.257  1.00  0.00     0.039 A 
ATOM     30  C   UNL A   1      35.902  29.608  29.435  1.00  0.00     0.014 A 
ATOM     31  C   UNL A   1      36.982  30.642  27.533  1.00  0.00     0.014 A 
ATOM     32  C   UNL A   1      37.138  29.125  29.871  1.00  0.00     0.010 A 
ATOM     33  C   UNL A   1      38.203  30.100  27.932  1.00  0.00     0.010 A 
ATOM     34  C   UNL A   1      38.299  29.357  29.117  1.00  0.00    -0.014 A 
BRANCH  34  35
ATOM     35  C   UNL A   1      39.621  28.854  29.572  1.00  0.00     0.031 A 
ATOM     36  C   UNL A   1      40.357  29.552  30.686  1.00  0.00     0.074 A 
ATOM     37  C   UNL A   1      40.189  27.807  28.943  1.00  0.00     0.049 A 
ATOM     38  N   UNL A   1      41.526  29.275  31.203  1.00  0.00    -0.248 NA
ATOM     39  C   UNL A   1      39.708  30.734  31.279  1.00  0.00     0.031 C 
ATOM     40  C   UNL A   1      39.615  27.098  27.797  1.00  0.00     0.029 A 
ATOM     41  N   UNL A   1      41.384  27.172  29.163  1.00  0.00    -0.354 N 
ATOM     42  C   UNL A   1      41.770  30.264  32.150  1.00  0.00     0.074 A 
ATOM     43  C   UNL A   1      40.642  31.168  32.113  1.00  0.00     0.031 C 
ATOM     44  C   UNL A   1      40.456  26.122  27.420  1.00  0.00     0.029 A 
ATOM     45  C   UNL A   1      41.634  26.145  28.283  1.00  0.00     0.049 A 
ATOM     46  H   UNL A   1      42.005  27.427  29.883  1.00  0.00     0.167 HD
ATOM     47  C   UNL A   1      42.818  30.391  32.998  1.00  0.00     0.034 A 
ATOM     48  C   UNL A   1      42.687  25.310  28.188  1.00  0.00     0.034 A 
ATOM     49  C   UNL A   1      43.909  29.457  33.073  1.00  0.00     0.049 A 
ATOM     50  C   UNL A   1      43.800  25.422  29.194  1.00  0.00     0.074 A 
ATOM     51  C   UNL A   1      44.976  29.447  33.954  1.00  0.00     0.029 A 
ATOM     52  N   UNL A   1      44.070  28.361  32.240  1.00  0.00    -0.354 N 
ATOM     53  N   UNL A   1      43.933  26.269  30.187  1.00  0.00    -0.248 NA
ATOM     54  C   UNL A   1      44.885  24.436  29.098  1.00  0.00     0.031 C 
ATOM     55  C   UNL A   1      45.785  28.347  33.648  1.00  0.00     0.029 A 
ATOM     56  C   UNL A   1      45.214  27.664  32.587  1.00  0.00     0.049 A 
ATOM     57  H   UNL A   1      43.458  28.114  31.509  1.00  0.00     0.167 HD
ATOM     58  C   UNL A   1      45.093  25.894  30.856  1.00  0.00     0.074 A 
ATOM     59  C   UNL A   1      45.612  24.730  30.167  1.00  0.00     0.031 C 
ATOM     60  C   UNL A   1      45.684  26.470  31.931  1.00  0.00     0.034 A 
BRANCH  47  61
ATOM     61  C   UNL A   1      42.800  31.549  33.963  1.00  0.00     0.023 A 
ATOM     62  C   UNL A   1      43.342  32.788  33.566  1.00  0.00     0.012 A 
ATOM     63  C   UNL A   1      42.205  31.432  35.236  1.00  0.00     0.148 A 
ATOM     64  C   UNL A   1      43.328  33.882  34.430  1.00  0.00     0.002 A 
ATOM     65  C   UNL A   1      42.157  32.539  36.076  1.00  0.00     0.091 A 
ATOM     66  F   UNL A   1      41.714  30.241  35.606  1.00  0.00    -0.205 F 
ATOM     67  C   UNL A   1      42.728  33.760  35.679  1.00  0.00     0.022 A 
BRANCH  65  68
ATOM     68  S   UNL A   1      41.338  32.504  37.675  1.00  0.00     0.127 S 
ATOM     69  O   UNL A   1      41.413  33.909  38.075  1.00  0.00    -0.237 OA
ATOM     70  O   UNL A   1      39.994  32.042  37.325  1.00  0.00    -0.237 OA
ATOM     71  O   UNL A   1      42.102  31.575  38.495  1.00  0.00    -0.744 OA
ENDBRANCH  65  68
ENDBRANCH  47  61
BRANCH  48  72
ATOM     72  C   UNL A   1      42.689  24.232  27.160  1.00  0.00     0.023 A 
ATOM     73  C   UNL A   1      43.388  24.434  25.953  1.00  0.00     0.012 A 
ATOM     74  C   UNL A   1      42.040  23.002  27.379  1.00  0.00     0.148 A 
ATOM     75  C   UNL A   1      43.416  23.444  24.971  1.00  0.00     0.002 A 
ATOM     76  C   UNL A   1      42.115  22.000  26.418  1.00  0.00     0.091 A 
ATOM     77  F   UNL A   1      41.370  22.833  28.527  1.00  0.00    -0.205 F 
ATOM     78  C   UNL A   1      42.788  22.224  25.207  1.00  0.00     0.022 A 
BRANCH  76  79
ATOM     79  S   UNL A   1      41.449  20.354  26.696  1.00  0.00     0.127 S 
ATOM     80  O   UNL A   1      41.817  19.670  25.458  1.00  0.00    -0.237 OA
ATOM     81  O   UNL A   1      42.189  19.922  27.883  1.00  0.00    -0.237 OA
ATOM     82  O   UNL A   1      40.023  20.544  26.918  1.00  0.00    -0.744 OA
ENDBRANCH  76  79
ENDBRANCH  48  72
BRANCH  60  83
ATOM     83  C   UNL A   1      46.941  25.833  32.460  1.00  0.00     0.023 A 
ATOM     84  C   UNL A   1      46.872  24.970  33.571  1.00  0.00     0.012 A 
ATOM     85  C   UNL A   1      48.178  26.038  31.819  1.00  0.00     0.148 A 
ATOM     86  C   UNL A   1      48.022  24.348  34.057  1.00  0.00     0.002 A 
ATOM     87  C   UNL A   1      49.311  25.378  32.280  1.00  0.00     0.091 A 
ATOM     88  F   UNL A   1      48.229  26.880  30.776  1.00  0.00    -0.205 F 
ATOM     89  C   UNL A   1      49.238  24.542  33.405  1.00  0.00     0.022 A 
BRANCH  87  90
ATOM     90  S   UNL A   1      50.894  25.503  31.438  1.00  0.00     0.127 S 
ATOM     91  O   UNL A   1      50.550  25.060  30.088  1.00  0.00    -0.237 OA
ATOM     92  O   UNL A   1      51.201  26.929  31.552  1.00  0.00    -0.237 OA
ATOM     93  O   UNL A   1      51.801  24.634  32.177  1.00  0.00    -0.744 OA
ENDBRANCH  87  90
ENDBRANCH  60  83
ENDBRANCH  34  35
ENDBRANCH  26  29
ENDBRANCH  24  25
ENDBRANCH   1  24
TORSDOF 17
ENDMDL
MODEL 3
REMARK VINA RESULT:     -12.2      5.073     10.699
REMARK SMILES COc1ccc(/C=C/c2ncc(C(=O)NCCCNC(=O)c3ccc(-c4c5nc(c(-c6cccc(S(=O)(=O)[O-])c6F)c6ccc([nH]6)c(-c6cccc(S(=O)(=O)[O-])c6F)c6nc(c(-c7cccc(S(=O)(=O)[O-])c7F)c7ccc4[nH]7)C=C6)C=C5)cc3)s2)cc1O
REMARK SMILES IDX 17 1 16 2 15 3 13 4 14 5 12 7 9 8 10 9 85 10 11 11 8 12 7 13
REMARK SMILES IDX 6 14 3 15 4 16 87 17 5 18 86 19 2 20 1 21 88 22 18 24 19 25
REMARK SMILES IDX 20 26 21 28 22 29 23 30 84 31 24 32 83 33 25 34 26 35 27 36
REMARK SMILES IDX 77 37 28 38 82 39 76 40 78 41 29 42 81 43 75 44 74 45 30 47
REMARK SMILES IDX 62 48 42 49 61 50 43 51 46 52 60 53 79 54 44 55 45 56 59 58
REMARK SMILES IDX 80 59 47 60 31 61 32 62 40 63 33 64 35 65 41 66 34 67 36 68
REMARK SMILES IDX 37 69 38 70 39 71 63 72 64 73 72 74 65 75 67 76 73 77 66 78
REMARK SMILES IDX 68 79 69 80 70 81 71 82 48 83 49 84 57 85 50 86 52 87 58 88
REMARK SMILES IDX 51 89 53 90 54 91 55 92 56 93
REMARK H PARENT 15 6 88 23 19 27 78 46 46 57
REMARK Flexibility Score: inf
ROOT
ATOM      1  C   UNL A   1      36.743  20.926  24.894  1.00  0.00     0.042 C 
ENDROOT
BRANCH   1   2
ATOM      2  C   UNL A   1      35.499  21.469  25.595  1.00  0.00     0.118 C 
BRANCH   2   3
ATOM      3  N   UNL A   1      34.412  20.508  25.586  1.00  0.00    -0.351 N 
ATOM      4  C   UNL A   1      33.053  20.660  25.727  1.00  0.00     0.263 C 
ATOM      5  O   UNL A   1      32.389  19.637  25.545  1.00  0.00    -0.268 OA
ATOM      6  H   UNL A   1      34.701  19.575  25.455  1.00  0.00     0.163 HD
BRANCH   4   7
ATOM      7  C   UNL A   1      32.461  21.947  26.034  1.00  0.00     0.112 A 
ATOM      8  C   UNL A   1      31.274  24.092  25.863  1.00  0.00     0.116 A 
ATOM      9  N   UNL A   1      31.798  23.947  27.062  1.00  0.00    -0.244 NA
ATOM     10  S   UNL A   1      31.550  22.752  24.811  1.00  0.00    -0.109 S 
ATOM     11  C   UNL A   1      32.418  22.717  27.176  1.00  0.00     0.137 A 
BRANCH   8  12
ATOM     12  C   UNL A   1      30.532  25.213  25.390  1.00  0.00     0.040 C 
ATOM     13  C   UNL A   1      30.793  25.740  24.181  1.00  0.00     0.011 C 
BRANCH  13  14
ATOM     14  C   UNL A   1      30.091  26.897  23.611  1.00  0.00    -0.022 A 
ATOM     15  C   UNL A   1      28.820  29.178  22.537  1.00  0.00     0.160 A 
ATOM     16  C   UNL A   1      28.075  28.191  23.183  1.00  0.00     0.051 A 
ATOM     17  C   UNL A   1      30.199  29.005  22.412  1.00  0.00     0.158 A 
ATOM     18  C   UNL A   1      28.704  27.060  23.719  1.00  0.00     0.012 A 
ATOM     19  C   UNL A   1      30.835  27.895  22.970  1.00  0.00     0.058 A 
BRANCH  15  20
ATOM     20  O   UNL A   1      28.096  30.214  22.012  1.00  0.00    -0.493 OA
ATOM     21  C   UNL A   1      28.096  31.421  22.771  1.00  0.00     0.278 C 
ENDBRANCH  15  20
BRANCH  17  22
ATOM     22  O   UNL A   1      30.985  29.856  21.687  1.00  0.00    -0.504 OA
ATOM     23  H   UNL A   1      30.632  30.299  20.940  1.00  0.00     0.293 HD
ENDBRANCH  17  22
ENDBRANCH  13  14
ENDBRANCH   8  12
ENDBRANCH   4   7
ENDBRANCH   2   3
ENDBRANCH   1   2
BRANCH   1  24
ATOM     24  C   UNL A   1      38.041  21.600  25.339  1.00  0.00     0.118 C 
BRANCH  24  25
ATOM     25  N   UNL A   1      38.950  20.664  25.987  1.00  0.00    -0.352 N 
ATOM     26  C   UNL A   1      40.130  20.884  26.651  1.00  0.00     0.251 C 
ATOM     27  H   UNL A   1      38.671  19.721  25.940  1.00  0.00     0.163 HD
ATOM     28  O   UNL A   1      40.840  19.919  26.926  1.00  0.00    -0.269 OA
BRANCH  26  29
ATOM     29  C   UNL A   1      40.555  22.247  27.041  1.00  0.00     0.039 A 
ATOM     30  C   UNL A   1      40.096  23.332  26.285  1.00  0.00     0.014 A 
ATOM     31  C   UNL A   1      41.461  22.463  28.083  1.00  0.00     0.014 A 
ATOM     32  C   UNL A   1      40.525  24.627  26.586  1.00  0.00     0.010 A 
ATOM     33  C   UNL A   1      41.834  23.762  28.427  1.00  0.00     0.010 A 
ATOM     34  C   UNL A   1      41.390  24.855  27.668  1.00  0.00    -0.014 A 
BRANCH  34  35
ATOM     35  C   UNL A   1      41.860  26.225  27.997  1.00  0.00     0.031 A 
ATOM     36  C   UNL A   1      43.269  26.645  27.666  1.00  0.00     0.074 A 
ATOM     37  C   UNL A   1      41.040  27.072  28.649  1.00  0.00     0.049 A 
ATOM     38  N   UNL A   1      43.864  27.787  27.896  1.00  0.00    -0.248 NA
ATOM     39  C   UNL A   1      44.131  25.642  27.020  1.00  0.00     0.031 C 
ATOM     40  C   UNL A   1      39.683  26.757  29.098  1.00  0.00     0.029 A 
ATOM     41  N   UNL A   1      41.237  28.364  29.067  1.00  0.00    -0.354 N 
ATOM     42  C   UNL A   1      45.175  27.629  27.459  1.00  0.00     0.074 A 
ATOM     43  C   UNL A   1      45.298  26.269  26.982  1.00  0.00     0.031 C 
ATOM     44  C   UNL A   1      39.167  27.828  29.723  1.00  0.00     0.029 A 
ATOM     45  C   UNL A   1      40.159  28.899  29.734  1.00  0.00     0.049 A 
ATOM     46  H   UNL A   1      42.071  28.861  28.905  1.00  0.00     0.167 HD
ATOM     47  C   UNL A   1      46.177  28.541  27.424  1.00  0.00     0.034 A 
ATOM     48  C   UNL A   1      39.987  30.116  30.284  1.00  0.00     0.034 A 
ATOM     49  C   UNL A   1      46.034  29.908  27.844  1.00  0.00     0.049 A 
ATOM     50  C   UNL A   1      41.087  31.136  30.159  1.00  0.00     0.074 A 
ATOM     51  C   UNL A   1      46.960  30.933  27.771  1.00  0.00     0.029 A 
ATOM     52  N   UNL A   1      44.888  30.446  28.410  1.00  0.00    -0.354 N 
ATOM     53  N   UNL A   1      42.266  31.014  29.596  1.00  0.00    -0.248 NA
ATOM     54  C   UNL A   1      40.817  32.474  30.703  1.00  0.00     0.031 C 
ATOM     55  C   UNL A   1      46.375  32.090  28.299  1.00  0.00     0.029 A 
ATOM     56  C   UNL A   1      45.080  31.788  28.688  1.00  0.00     0.049 A 
ATOM     57  H   UNL A   1      44.059  29.945  28.588  1.00  0.00     0.167 HD
ATOM     58  C   UNL A   1      42.861  32.267  29.683  1.00  0.00     0.074 A 
ATOM     59  C   UNL A   1      41.904  33.139  30.333  1.00  0.00     0.031 C 
ATOM     60  C   UNL A   1      44.094  32.658  29.277  1.00  0.00     0.034 A 
BRANCH  47  61
ATOM     61  C   UNL A   1      47.499  28.103  26.848  1.00  0.00     0.023 A 
ATOM     62  C   UNL A   1      48.574  27.824  27.717  1.00  0.00     0.012 A 
ATOM     63  C   UNL A   1      47.668  27.918  25.461  1.00  0.00     0.148 A 
ATOM     64  C   UNL A   1      49.805  27.405  27.217  1.00  0.00     0.002 A 
ATOM     65  C   UNL A   1      48.886  27.458  24.972  1.00  0.00     0.091 A 
ATOM     66  F   UNL A   1      46.644  28.208  24.647  1.00  0.00    -0.205 F 
ATOM     67  C   UNL A   1      49.958  27.213  25.847  1.00  0.00     0.022 A 
BRANCH  65  68
ATOM     68  S   UNL A   1      49.159  27.107  23.231  1.00  0.00     0.127 S 
ATOM     69  O   UNL A   1      48.343  25.909  23.041  1.00  0.00    -0.237 OA
ATOM     70  O   UNL A   1      48.633  28.310  22.586  1.00  0.00    -0.237 OA
ATOM     71  O   UNL A   1      50.595  26.919  23.083  1.00  0.00    -0.744 OA
ENDBRANCH  65  68
ENDBRANCH  47  61
BRANCH  48  72
ATOM     72  C   UNL A   1      38.683  30.468  30.914  1.00  0.00     0.023 A 
ATOM     73  C   UNL A   1      38.462  30.136  32.265  1.00  0.00     0.012 A 
ATOM     74  C   UNL A   1      37.683  31.157  30.203  1.00  0.00     0.148 A 
ATOM     75  C   UNL A   1      37.256  30.455  32.888  1.00  0.00     0.002 A 
ATOM     76  C   UNL A   1      36.503  31.518  30.845  1.00  0.00     0.091 A 
ATOM     77  F   UNL A   1      37.906  31.453  28.915  1.00  0.00    -0.205 F 
ATOM     78  C   UNL A   1      36.280  31.154  32.182  1.00  0.00     0.022 A 
BRANCH  76  79
ATOM     79  S   UNL A   1      35.251  32.534  30.051  1.00  0.00     0.127 S 
ATOM     80  O   UNL A   1      34.820  31.672  28.952  1.00  0.00    -0.237 OA
ATOM     81  O   UNL A   1      34.270  32.702  31.124  1.00  0.00    -0.237 OA
ATOM     82  O   UNL A   1      35.934  33.762  29.667  1.00  0.00    -0.744 OA
ENDBRANCH  76  79
ENDBRANCH  48  72
BRANCH  60  83
ATOM     83  C   UNL A   1      44.473  34.100  29.487  1.00  0.00     0.023 A 
ATOM     84  C   UNL A   1      45.048  34.500  30.709  1.00  0.00     0.012 A 
ATOM     85  C   UNL A   1      44.317  35.043  28.454  1.00  0.00     0.148 A 
ATOM     86  C   UNL A   1      45.432  35.826  30.910  1.00  0.00     0.002 A 
ATOM     87  C   UNL A   1      44.744  36.353  28.645  1.00  0.00     0.091 A 
ATOM     88  F   UNL A   1      43.747  34.650  27.305  1.00  0.00    -0.205 F 
ATOM     89  C   UNL A   1      45.291  36.748  29.876  1.00  0.00     0.022 A 
BRANCH  87  90
ATOM     90  S   UNL A   1      44.684  37.575  27.330  1.00  0.00     0.127 S 
ATOM     91  O   UNL A   1      45.500  36.943  26.295  1.00  0.00    -0.237 OA
ATOM     92  O   UNL A   1      43.254  37.640  27.024  1.00  0.00    -0.237 OA
ATOM     93  O   UNL A   1      45.228  38.798  27.906  1.00  0.00    -0.744 OA
ENDBRANCH  87  90
ENDBRANCH  60  83
ENDBRANCH  34  35
ENDBRANCH  26  29
ENDBRANCH  24  25
ENDBRANCH   1  24
TORSDOF 17
ENDMDL
