MODEL 1
REMARK VINA RESULT:     -11.3      0.000      0.000
REMARK SMILES O=C(C[C@@H]1CN(C(=O)NCc2cccs2)CCO1)NCCCNC(=O)c1ccc(-c2c3nc(c(-c4cccc(S(=O)(=O)[O-])c4F)c4ccc([nH]4)c(-c4cccc(S(=O)(=O)[O-])c4F)c4nc(c(-c5cccc(S(=O)(=O)[O-])c5F)c5ccc2[nH]5)C=C4)C=C3)cc1
REMARK SMILES IDX 20 1 19 2 1 3 2 4 3 6 4 7 5 8 18 9 6 10 17 11 16 12 7 13
REMARK SMILES IDX 8 14 9 15 10 17 11 18 12 19 15 20 13 21 14 22 21 23 22 24
REMARK SMILES IDX 23 25 24 26 25 28 26 29 27 30 88 31 28 32 87 33 29 34 30 35
REMARK SMILES IDX 31 36 81 37 32 38 86 39 80 40 82 41 33 42 85 43 79 44 78 45
REMARK SMILES IDX 34 47 66 48 46 49 65 50 47 51 50 52 64 53 83 54 48 55 49 56
REMARK SMILES IDX 63 58 84 59 51 60 35 61 36 62 44 63 37 64 39 65 45 66 38 67
REMARK SMILES IDX 40 68 41 69 42 70 43 71 67 72 68 73 76 74 69 75 71 76 77 77
REMARK SMILES IDX 70 78 72 79 73 80 74 81 75 82 52 83 53 84 61 85 54 86 56 87
REMARK SMILES IDX 62 88 55 89 57 90 58 91 59 92 60 93
REMARK H PARENT 19 5 9 16 23 27 82 46 50 57
REMARK Flexibility Score: inf
ROOT
ATOM      1  C   UNL A   1      33.790  22.846  26.748  1.00  0.00     0.117 C 
ENDROOT
BRANCH   1   2
ATOM      2  N   UNL A   1      32.789  23.615  26.044  1.00  0.00    -0.356 N 
ATOM      3  O   UNL A   1      31.079  23.364  27.564  1.00  0.00    -0.275 OA
ATOM      4  C   UNL A   1      31.519  23.836  26.521  1.00  0.00     0.222 C 
ATOM      5  H   UNL A   1      33.031  24.005  25.173  1.00  0.00     0.163 HD
BRANCH   4   6
ATOM      6  C   UNL A   1      30.646  24.636  25.577  1.00  0.00     0.133 C 
BRANCH   6   7
ATOM      7  C   UNL A   1      31.371  25.405  24.463  1.00  0.00     0.147 C 
ATOM      8  C   UNL A   1      30.361  26.314  23.723  1.00  0.00     0.154 C 
ATOM      9  O   UNL A   1      32.008  24.526  23.519  1.00  0.00    -0.374 OA
ATOM     10  N   UNL A   1      30.992  27.029  22.611  1.00  0.00    -0.320 N 
ATOM     11  C   UNL A   1      32.723  25.279  22.526  1.00  0.00     0.182 C 
ATOM     12  C   UNL A   1      31.741  26.128  21.720  1.00  0.00     0.150 C 
BRANCH  10  13
ATOM     13  C   UNL A   1      31.049  28.363  22.355  1.00  0.00     0.317 C 
ATOM     14  O   UNL A   1      30.105  28.959  21.823  1.00  0.00    -0.249 OA
ATOM     15  N   UNL A   1      32.102  29.136  22.646  1.00  0.00    -0.333 N 
ATOM     16  H   UNL A   1      31.996  30.044  22.278  1.00  0.00     0.165 HD
BRANCH  15  17
ATOM     17  C   UNL A   1      33.354  28.996  23.355  1.00  0.00     0.164 C 
BRANCH  17  18
ATOM     18  C   UNL A   1      33.128  28.931  24.843  1.00  0.00     0.024 A 
ATOM     19  C   UNL A   1      33.726  28.056  25.735  1.00  0.00     0.017 A 
ATOM     20  S   UNL A   1      32.050  29.990  25.665  1.00  0.00    -0.147 S 
ATOM     21  C   UNL A   1      33.253  28.218  27.070  1.00  0.00     0.012 A 
ATOM     22  C   UNL A   1      32.322  29.225  27.167  1.00  0.00     0.065 A 
ENDBRANCH  17  18
ENDBRANCH  15  17
ENDBRANCH  10  13
ENDBRANCH   6   7
ENDBRANCH   4   6
ENDBRANCH   1   2
BRANCH   1  23
ATOM     23  C   UNL A   1      34.900  22.351  25.828  1.00  0.00     0.042 C 
BRANCH  23  24
ATOM     24  C   UNL A   1      36.311  22.782  26.221  1.00  0.00     0.118 C 
BRANCH  24  25
ATOM     25  N   UNL A   1      37.307  21.731  26.067  1.00  0.00    -0.352 N 
ATOM     26  C   UNL A   1      38.677  21.774  26.159  1.00  0.00     0.251 C 
ATOM     27  H   UNL A   1      36.937  20.841  25.866  1.00  0.00     0.163 HD
ATOM     28  O   UNL A   1      39.325  20.770  25.869  1.00  0.00    -0.269 OA
BRANCH  26  29
ATOM     29  C   UNL A   1      39.387  23.009  26.574  1.00  0.00     0.039 A 
ATOM     30  C   UNL A   1      39.198  24.171  25.818  1.00  0.00     0.014 A 
ATOM     31  C   UNL A   1      40.260  23.032  27.665  1.00  0.00     0.014 A 
ATOM     32  C   UNL A   1      39.836  25.359  26.189  1.00  0.00     0.010 A 
ATOM     33  C   UNL A   1      40.831  24.236  28.080  1.00  0.00     0.010 A 
ATOM     34  C   UNL A   1      40.634  25.413  27.344  1.00  0.00    -0.014 A 
BRANCH  34  35
ATOM     35  C   UNL A   1      41.242  26.697  27.791  1.00  0.00     0.031 A 
ATOM     36  C   UNL A   1      42.695  27.001  27.526  1.00  0.00     0.074 A 
ATOM     37  C   UNL A   1      40.496  27.576  28.493  1.00  0.00     0.049 A 
ATOM     38  N   UNL A   1      43.382  28.071  27.835  1.00  0.00    -0.248 NA
ATOM     39  C   UNL A   1      43.485  25.960  26.849  1.00  0.00     0.031 C 
ATOM     40  C   UNL A   1      39.104  27.368  28.896  1.00  0.00     0.029 A 
ATOM     41  N   UNL A   1      40.808  28.811  29.006  1.00  0.00    -0.354 N 
ATOM     42  C   UNL A   1      44.685  27.824  27.420  1.00  0.00     0.074 A 
ATOM     43  C   UNL A   1      44.702  26.485  26.871  1.00  0.00     0.031 C 
ATOM     44  C   UNL A   1      38.679  28.443  29.579  1.00  0.00     0.029 A 
ATOM     45  C   UNL A   1      39.771  29.405  29.686  1.00  0.00     0.049 A 
ATOM     46  H   UNL A   1      41.693  29.231  28.897  1.00  0.00     0.167 HD
ATOM     47  C   UNL A   1      45.764  28.643  27.462  1.00  0.00     0.034 A 
ATOM     48  C   UNL A   1      39.703  30.590  30.324  1.00  0.00     0.034 A 
ATOM     49  C   UNL A   1      45.740  29.988  27.973  1.00  0.00     0.049 A 
ATOM     50  C   UNL A   1      40.900  31.501  30.310  1.00  0.00     0.074 A 
ATOM     51  C   UNL A   1      46.758  30.926  27.976  1.00  0.00     0.029 A 
ATOM     52  N   UNL A   1      44.646  30.586  28.579  1.00  0.00    -0.354 N 
ATOM     53  N   UNL A   1      42.074  31.313  29.761  1.00  0.00    -0.248 NA
ATOM     54  C   UNL A   1      40.748  32.807  30.969  1.00  0.00     0.031 C 
ATOM     55  C   UNL A   1      46.288  32.081  28.609  1.00  0.00     0.029 A 
ATOM     56  C   UNL A   1      44.966  31.876  28.970  1.00  0.00     0.049 A 
ATOM     57  H   UNL A   1      43.771  30.157  28.713  1.00  0.00     0.167 HD
ATOM     58  C   UNL A   1      42.788  32.487  29.975  1.00  0.00     0.074 A 
ATOM     59  C   UNL A   1      41.903  33.391  30.681  1.00  0.00     0.031 C 
ATOM     60  C   UNL A   1      44.065  32.785  29.629  1.00  0.00     0.034 A 
BRANCH  47  61
ATOM     61  C   UNL A   1      47.060  28.126  26.889  1.00  0.00     0.023 A 
ATOM     62  C   UNL A   1      48.066  27.652  27.756  1.00  0.00     0.012 A 
ATOM     63  C   UNL A   1      47.259  28.046  25.496  1.00  0.00     0.148 A 
ATOM     64  C   UNL A   1      49.262  27.144  27.252  1.00  0.00     0.002 A 
ATOM     65  C   UNL A   1      48.435  27.495  24.998  1.00  0.00     0.091 A 
ATOM     66  F   UNL A   1      46.301  28.516  24.684  1.00  0.00    -0.205 F 
ATOM     67  C   UNL A   1      49.441  27.056  25.874  1.00  0.00     0.022 A 
BRANCH  65  68
ATOM     68  S   UNL A   1      48.733  27.261  23.242  1.00  0.00     0.127 S 
ATOM     69  O   UNL A   1      50.188  27.383  23.171  1.00  0.00    -0.237 OA
ATOM     70  O   UNL A   1      48.222  25.909  23.021  1.00  0.00    -0.237 OA
ATOM     71  O   UNL A   1      47.984  28.312  22.565  1.00  0.00    -0.744 OA
ENDBRANCH  65  68
ENDBRANCH  47  61
BRANCH  48  72
ATOM     72  C   UNL A   1      38.427  31.017  30.968  1.00  0.00     0.023 A 
ATOM     73  C   UNL A   1      38.236  30.787  32.346  1.00  0.00     0.012 A 
ATOM     74  C   UNL A   1      37.416  31.662  30.232  1.00  0.00     0.148 A 
ATOM     75  C   UNL A   1      37.046  31.162  32.970  1.00  0.00     0.002 A 
ATOM     76  C   UNL A   1      36.257  32.084  30.873  1.00  0.00     0.091 A 
ATOM     77  F   UNL A   1      37.612  31.861  28.921  1.00  0.00    -0.205 F 
ATOM     78  C   UNL A   1      36.061  31.818  32.237  1.00  0.00     0.022 A 
BRANCH  76  79
ATOM     79  S   UNL A   1      34.993  33.052  30.040  1.00  0.00     0.127 S 
ATOM     80  O   UNL A   1      35.782  34.126  29.446  1.00  0.00    -0.237 OA
ATOM     81  O   UNL A   1      34.451  32.083  29.088  1.00  0.00    -0.237 OA
ATOM     82  O   UNL A   1      34.057  33.456  31.083  1.00  0.00    -0.744 OA
ENDBRANCH  76  79
ENDBRANCH  48  72
BRANCH  60  83
ATOM     83  C   UNL A   1      44.577  34.160  29.975  1.00  0.00     0.023 A 
ATOM     84  C   UNL A   1      45.281  34.369  31.177  1.00  0.00     0.012 A 
ATOM     85  C   UNL A   1      44.408  35.237  29.080  1.00  0.00     0.148 A 
ATOM     86  C   UNL A   1      45.769  35.634  31.505  1.00  0.00     0.002 A 
ATOM     87  C   UNL A   1      44.942  36.482  29.389  1.00  0.00     0.091 A 
ATOM     88  F   UNL A   1      43.720  35.026  27.948  1.00  0.00    -0.205 F 
ATOM     89  C   UNL A   1      45.609  36.686  30.607  1.00  0.00     0.022 A 
BRANCH  87  90
ATOM     90  S   UNL A   1      44.869  37.868  28.248  1.00  0.00     0.127 S 
ATOM     91  O   UNL A   1      43.433  38.135  28.195  1.00  0.00    -0.237 OA
ATOM     92  O   UNL A   1      45.653  38.888  28.947  1.00  0.00    -0.237 OA
ATOM     93  O   UNL A   1      45.465  37.395  27.007  1.00  0.00    -0.744 OA
ENDBRANCH  87  90
ENDBRANCH  60  83
ENDBRANCH  34  35
ENDBRANCH  26  29
ENDBRANCH  24  25
ENDBRANCH  23  24
ENDBRANCH   1  23
TORSDOF 17
ENDMDL
MODEL 2
REMARK VINA RESULT:     -11.2      5.877      8.864
REMARK SMILES O=C(C[C@@H]1CN(C(=O)NCc2cccs2)CCO1)NCCCNC(=O)c1ccc(-c2c3nc(c(-c4cccc(S(=O)(=O)[O-])c4F)c4ccc([nH]4)c(-c4cccc(S(=O)(=O)[O-])c4F)c4nc(c(-c5cccc(S(=O)(=O)[O-])c5F)c5ccc2[nH]5)C=C4)C=C3)cc1
REMARK SMILES IDX 20 1 19 2 1 3 2 4 3 6 4 7 5 8 18 9 6 10 17 11 16 12 7 13
REMARK SMILES IDX 8 14 9 15 10 17 11 18 12 19 15 20 13 21 14 22 21 23 22 24
REMARK SMILES IDX 23 25 24 26 25 28 26 29 27 30 88 31 28 32 87 33 29 34 30 35
REMARK SMILES IDX 31 36 81 37 32 38 86 39 80 40 82 41 33 42 85 43 79 44 78 45
REMARK SMILES IDX 34 47 66 48 46 49 65 50 47 51 50 52 64 53 83 54 48 55 49 56
REMARK SMILES IDX 63 58 84 59 51 60 35 61 36 62 44 63 37 64 39 65 45 66 38 67
REMARK SMILES IDX 40 68 41 69 42 70 43 71 67 72 68 73 76 74 69 75 71 76 77 77
REMARK SMILES IDX 70 78 72 79 73 80 74 81 75 82 52 83 53 84 61 85 54 86 56 87
REMARK SMILES IDX 62 88 55 89 57 90 58 91 59 92 60 93
REMARK H PARENT 19 5 9 16 23 27 82 46 50 57
REMARK Flexibility Score: inf
ROOT
ATOM      1  C   UNL A   1      31.451  30.937  25.746  1.00  0.00     0.117 C 
ENDROOT
BRANCH   1   2
ATOM      2  N   UNL A   1      31.917  29.653  26.218  1.00  0.00    -0.356 N 
ATOM      3  O   UNL A   1      33.494  29.276  24.586  1.00  0.00    -0.275 OA
ATOM      4  C   UNL A   1      32.922  28.935  25.615  1.00  0.00     0.222 C 
ATOM      5  H   UNL A   1      31.491  29.271  27.020  1.00  0.00     0.163 HD
BRANCH   4   6
ATOM      6  C   UNL A   1      33.195  27.600  26.276  1.00  0.00     0.133 C 
BRANCH   6   7
ATOM      7  C   UNL A   1      32.070  26.558  26.201  1.00  0.00     0.147 C 
ATOM      8  C   UNL A   1      32.683  25.138  26.190  1.00  0.00     0.154 C 
ATOM      9  O   UNL A   1      31.241  26.733  25.038  1.00  0.00    -0.374 OA
ATOM     10  N   UNL A   1      31.652  24.105  26.060  1.00  0.00    -0.320 N 
ATOM     11  C   UNL A   1      30.168  25.779  25.031  1.00  0.00     0.182 C 
ATOM     12  C   UNL A   1      30.738  24.365  24.936  1.00  0.00     0.150 C 
BRANCH  10  13
ATOM     13  C   UNL A   1      31.386  23.037  26.859  1.00  0.00     0.317 C 
ATOM     14  O   UNL A   1      30.381  23.004  27.579  1.00  0.00    -0.249 OA
ATOM     15  N   UNL A   1      32.164  21.951  26.938  1.00  0.00    -0.333 N 
ATOM     16  H   UNL A   1      31.865  21.344  27.655  1.00  0.00     0.165 HD
BRANCH  15  17
ATOM     17  C   UNL A   1      33.326  21.429  26.256  1.00  0.00     0.164 C 
BRANCH  17  18
ATOM     18  C   UNL A   1      32.939  20.366  25.261  1.00  0.00     0.024 A 
ATOM     19  C   UNL A   1      32.876  19.002  25.487  1.00  0.00     0.017 A 
ATOM     20  S   UNL A   1      32.497  20.732  23.639  1.00  0.00    -0.147 S 
ATOM     21  C   UNL A   1      32.529  18.262  24.319  1.00  0.00     0.012 A 
ATOM     22  C   UNL A   1      32.315  19.083  23.237  1.00  0.00     0.065 A 
ENDBRANCH  17  18
ENDBRANCH  15  17
ENDBRANCH  10  13
ENDBRANCH   6   7
ENDBRANCH   4   6
ENDBRANCH   1   2
BRANCH   1  23
ATOM     23  C   UNL A   1      31.368  31.975  26.860  1.00  0.00     0.042 C 
BRANCH  23  24
ATOM     24  C   UNL A   1      32.680  32.685  27.188  1.00  0.00     0.118 C 
BRANCH  24  25
ATOM     25  N   UNL A   1      32.506  34.068  27.607  1.00  0.00    -0.352 N 
ATOM     26  C   UNL A   1      33.149  34.797  28.578  1.00  0.00     0.251 C 
ATOM     27  H   UNL A   1      31.814  34.564  27.112  1.00  0.00     0.163 HD
ATOM     28  O   UNL A   1      32.746  35.930  28.836  1.00  0.00    -0.269 OA
BRANCH  26  29
ATOM     29  C   UNL A   1      34.298  34.239  29.332  1.00  0.00     0.039 A 
ATOM     30  C   UNL A   1      34.036  33.482  30.479  1.00  0.00     0.014 A 
ATOM     31  C   UNL A   1      35.621  34.480  28.954  1.00  0.00     0.014 A 
ATOM     32  C   UNL A   1      35.093  32.923  31.206  1.00  0.00     0.010 A 
ATOM     33  C   UNL A   1      36.669  33.857  29.634  1.00  0.00     0.010 A 
ATOM     34  C   UNL A   1      36.420  33.077  30.773  1.00  0.00    -0.014 A 
BRANCH  34  35
ATOM     35  C   UNL A   1      37.540  32.411  31.494  1.00  0.00     0.031 A 
ATOM     36  C   UNL A   1      38.294  31.266  30.866  1.00  0.00     0.074 A 
ATOM     37  C   UNL A   1      37.845  32.799  32.750  1.00  0.00     0.049 A 
ATOM     38  N   UNL A   1      39.300  30.581  31.347  1.00  0.00    -0.248 NA
ATOM     39  C   UNL A   1      37.849  30.817  29.538  1.00  0.00     0.031 C 
ATOM     40  C   UNL A   1      37.137  33.832  33.509  1.00  0.00     0.029 A 
ATOM     41  N   UNL A   1      38.818  32.362  33.615  1.00  0.00    -0.354 N 
ATOM     42  C   UNL A   1      39.588  29.605  30.401  1.00  0.00     0.074 A 
ATOM     43  C   UNL A   1      38.625  29.762  29.332  1.00  0.00     0.031 C 
ATOM     44  C   UNL A   1      37.707  33.958  34.718  1.00  0.00     0.029 A 
ATOM     45  C   UNL A   1      38.803  33.000  34.832  1.00  0.00     0.049 A 
ATOM     46  H   UNL A   1      39.464  31.655  33.384  1.00  0.00     0.167 HD
ATOM     47  C   UNL A   1      40.580  28.681  30.402  1.00  0.00     0.034 A 
ATOM     48  C   UNL A   1      39.582  32.838  35.920  1.00  0.00     0.034 A 
ATOM     49  C   UNL A   1      41.561  28.548  31.446  1.00  0.00     0.049 A 
ATOM     50  C   UNL A   1      40.708  31.841  35.874  1.00  0.00     0.074 A 
ATOM     51  C   UNL A   1      42.656  27.703  31.495  1.00  0.00     0.029 A 
ATOM     52  N   UNL A   1      41.564  29.272  32.628  1.00  0.00    -0.354 N 
ATOM     53  N   UNL A   1      41.065  31.044  34.897  1.00  0.00    -0.248 NA
ATOM     54  C   UNL A   1      41.563  31.750  37.066  1.00  0.00     0.031 C 
ATOM     55  C   UNL A   1      43.305  27.897  32.719  1.00  0.00     0.029 A 
ATOM     56  C   UNL A   1      42.635  28.887  33.418  1.00  0.00     0.049 A 
ATOM     57  H   UNL A   1      40.902  29.958  32.871  1.00  0.00     0.167 HD
ATOM     58  C   UNL A   1      42.207  30.386  35.341  1.00  0.00     0.074 A 
ATOM     59  C   UNL A   1      42.495  30.897  36.665  1.00  0.00     0.031 C 
ATOM     60  C   UNL A   1      42.942  29.434  34.714  1.00  0.00     0.034 A 
BRANCH  47  61
ATOM     61  C   UNL A   1      40.689  27.768  29.206  1.00  0.00     0.023 A 
ATOM     62  C   UNL A   1      39.858  26.632  29.118  1.00  0.00     0.012 A 
ATOM     63  C   UNL A   1      41.562  28.066  28.140  1.00  0.00     0.148 A 
ATOM     64  C   UNL A   1      39.919  25.787  28.011  1.00  0.00     0.002 A 
ATOM     65  C   UNL A   1      41.585  27.245  27.018  1.00  0.00     0.091 A 
ATOM     66  F   UNL A   1      42.358  29.140  28.246  1.00  0.00    -0.205 F 
ATOM     67  C   UNL A   1      40.774  26.100  26.958  1.00  0.00     0.022 A 
BRANCH  65  68
ATOM     68  S   UNL A   1      42.590  27.602  25.573  1.00  0.00     0.127 S 
ATOM     69  O   UNL A   1      41.968  28.828  25.076  1.00  0.00    -0.237 OA
ATOM     70  O   UNL A   1      43.917  27.785  26.159  1.00  0.00    -0.237 OA
ATOM     71  O   UNL A   1      42.467  26.441  24.701  1.00  0.00    -0.744 OA
ENDBRANCH  65  68
ENDBRANCH  47  61
BRANCH  48  72
ATOM     72  C   UNL A   1      39.370  33.694  37.122  1.00  0.00     0.023 A 
ATOM     73  C   UNL A   1      39.822  35.029  37.111  1.00  0.00     0.012 A 
ATOM     74  C   UNL A   1      38.711  33.202  38.264  1.00  0.00     0.148 A 
ATOM     75  C   UNL A   1      39.650  35.847  38.228  1.00  0.00     0.002 A 
ATOM     76  C   UNL A   1      38.492  34.039  39.352  1.00  0.00     0.091 A 
ATOM     77  F   UNL A   1      38.299  31.926  38.259  1.00  0.00    -0.205 F 
ATOM     78  C   UNL A   1      38.978  35.356  39.344  1.00  0.00     0.022 A 
BRANCH  76  79
ATOM     79  S   UNL A   1      37.522  33.534  40.777  1.00  0.00     0.127 S 
ATOM     80  O   UNL A   1      36.325  32.989  40.146  1.00  0.00    -0.237 OA
ATOM     81  O   UNL A   1      38.398  32.544  41.402  1.00  0.00    -0.237 OA
ATOM     82  O   UNL A   1      37.327  34.745  41.566  1.00  0.00    -0.744 OA
ENDBRANCH  76  79
ENDBRANCH  48  72
BRANCH  60  83
ATOM     83  C   UNL A   1      44.156  28.905  35.434  1.00  0.00     0.023 A 
ATOM     84  C   UNL A   1      45.424  29.469  35.187  1.00  0.00     0.012 A 
ATOM     85  C   UNL A   1      44.033  27.882  36.396  1.00  0.00     0.148 A 
ATOM     86  C   UNL A   1      46.554  28.995  35.852  1.00  0.00     0.002 A 
ATOM     87  C   UNL A   1      45.155  27.451  37.094  1.00  0.00     0.091 A 
ATOM     88  F   UNL A   1      42.823  27.343  36.606  1.00  0.00    -0.205 F 
ATOM     89  C   UNL A   1      46.419  27.995  36.812  1.00  0.00     0.022 A 
BRANCH  87  90
ATOM     90  S   UNL A   1      45.057  26.238  38.415  1.00  0.00     0.127 S 
ATOM     91  O   UNL A   1      44.546  25.066  37.707  1.00  0.00    -0.237 OA
ATOM     92  O   UNL A   1      46.453  26.131  38.844  1.00  0.00    -0.237 OA
ATOM     93  O   UNL A   1      44.163  26.807  39.414  1.00  0.00    -0.744 OA
ENDBRANCH  87  90
ENDBRANCH  60  83
ENDBRANCH  34  35
ENDBRANCH  26  29
ENDBRANCH  24  25
ENDBRANCH  23  24
ENDBRANCH   1  23
TORSDOF 17
ENDMDL
MODEL 3
REMARK VINA RESULT:     -11.2      5.303     10.243
REMARK SMILES O=C(C[C@@H]1CN(C(=O)NCc2cccs2)CCO1)NCCCNC(=O)c1ccc(-c2c3nc(c(-c4cccc(S(=O)(=O)[O-])c4F)c4ccc([nH]4)c(-c4cccc(S(=O)(=O)[O-])c4F)c4nc(c(-c5cccc(S(=O)(=O)[O-])c5F)c5ccc2[nH]5)C=C4)C=C3)cc1
REMARK SMILES IDX 20 1 19 2 1 3 2 4 3 6 4 7 5 8 18 9 6 10 17 11 16 12 7 13
REMARK SMILES IDX 8 14 9 15 10 17 11 18 12 19 15 20 13 21 14 22 21 23 22 24
REMARK SMILES IDX 23 25 24 26 25 28 26 29 27 30 88 31 28 32 87 33 29 34 30 35
REMARK SMILES IDX 31 36 81 37 32 38 86 39 80 40 82 41 33 42 85 43 79 44 78 45
REMARK SMILES IDX 34 47 66 48 46 49 65 50 47 51 50 52 64 53 83 54 48 55 49 56
REMARK SMILES IDX 63 58 84 59 51 60 35 61 36 62 44 63 37 64 39 65 45 66 38 67
REMARK SMILES IDX 40 68 41 69 42 70 43 71 67 72 68 73 76 74 69 75 71 76 77 77
REMARK SMILES IDX 70 78 72 79 73 80 74 81 75 82 52 83 53 84 61 85 54 86 56 87
REMARK SMILES IDX 62 88 55 89 57 90 58 91 59 92 60 93
REMARK H PARENT 19 5 9 16 23 27 82 46 50 57
REMARK Flexibility Score: inf
ROOT
ATOM      1  C   UNL A   1      32.306  27.952  23.260  1.00  0.00     0.117 C 
ENDROOT
BRANCH   1   2
ATOM      2  N   UNL A   1      32.384  26.508  23.254  1.00  0.00    -0.356 N 
ATOM      3  O   UNL A   1      33.560  26.269  21.290  1.00  0.00    -0.275 OA
ATOM      4  C   UNL A   1      33.028  25.780  22.282  1.00  0.00     0.222 C 
ATOM      5  H   UNL A   1      31.950  26.018  23.990  1.00  0.00     0.163 HD
BRANCH   4   6
ATOM      6  C   UNL A   1      32.929  24.283  22.479  1.00  0.00     0.133 C 
BRANCH   6   7
ATOM      7  C   UNL A   1      33.856  23.670  23.538  1.00  0.00     0.147 C 
ATOM      8  C   UNL A   1      33.039  23.339  24.810  1.00  0.00     0.154 C 
ATOM      9  O   UNL A   1      34.945  24.546  23.881  1.00  0.00    -0.374 OA
ATOM     10  N   UNL A   1      33.891  22.804  25.875  1.00  0.00    -0.320 N 
ATOM     11  C   UNL A   1      35.822  23.919  24.830  1.00  0.00     0.182 C 
ATOM     12  C   UNL A   1      35.066  23.652  26.131  1.00  0.00     0.150 C 
BRANCH  10  13
ATOM     13  C   UNL A   1      33.790  21.637  26.565  1.00  0.00     0.317 C 
ATOM     14  O   UNL A   1      33.533  21.621  27.774  1.00  0.00    -0.249 OA
ATOM     15  N   UNL A   1      33.957  20.427  26.016  1.00  0.00    -0.333 N 
ATOM     16  H   UNL A   1      33.961  19.718  26.699  1.00  0.00     0.165 HD
BRANCH  15  17
ATOM     17  C   UNL A   1      34.132  19.883  24.688  1.00  0.00     0.164 C 
BRANCH  17  18
ATOM     18  C   UNL A   1      33.881  18.398  24.674  1.00  0.00     0.024 A 
ATOM     19  C   UNL A   1      34.516  17.456  23.883  1.00  0.00     0.017 A 
ATOM     20  S   UNL A   1      32.719  17.645  25.695  1.00  0.00    -0.147 S 
ATOM     21  C   UNL A   1      34.006  16.139  24.072  1.00  0.00     0.012 A 
ATOM     22  C   UNL A   1      33.009  16.105  25.018  1.00  0.00     0.065 A 
ENDBRANCH  17  18
ENDBRANCH  15  17
ENDBRANCH  10  13
ENDBRANCH   6   7
ENDBRANCH   4   6
ENDBRANCH   1   2
BRANCH   1  23
ATOM     23  C   UNL A   1      31.839  28.507  24.600  1.00  0.00     0.042 C 
BRANCH  23  24
ATOM     24  C   UNL A   1      32.924  29.173  25.443  1.00  0.00     0.118 C 
BRANCH  24  25
ATOM     25  N   UNL A   1      32.544  30.481  25.957  1.00  0.00    -0.352 N 
ATOM     26  C   UNL A   1      33.112  31.257  26.938  1.00  0.00     0.251 C 
ATOM     27  H   UNL A   1      31.749  30.874  25.530  1.00  0.00     0.163 HD
ATOM     28  O   UNL A   1      32.538  32.288  27.287  1.00  0.00    -0.269 OA
BRANCH  26  29
ATOM     29  C   UNL A   1      34.382  30.867  27.596  1.00  0.00     0.039 A 
ATOM     30  C   UNL A   1      35.307  31.871  27.904  1.00  0.00     0.014 A 
ATOM     31  C   UNL A   1      34.693  29.535  27.878  1.00  0.00     0.014 A 
ATOM     32  C   UNL A   1      36.509  31.544  28.542  1.00  0.00     0.010 A 
ATOM     33  C   UNL A   1      35.855  29.221  28.585  1.00  0.00     0.010 A 
ATOM     34  C   UNL A   1      36.781  30.219  28.920  1.00  0.00    -0.014 A 
BRANCH  34  35
ATOM     35  C   UNL A   1      38.018  29.882  29.677  1.00  0.00     0.031 A 
ATOM     36  C   UNL A   1      38.278  30.471  31.040  1.00  0.00     0.074 A 
ATOM     37  C   UNL A   1      38.946  29.082  29.111  1.00  0.00     0.049 A 
ATOM     38  N   UNL A   1      39.295  30.278  31.841  1.00  0.00    -0.248 NA
ATOM     39  C   UNL A   1      37.281  31.419  31.562  1.00  0.00     0.031 C 
ATOM     40  C   UNL A   1      38.863  28.516  27.763  1.00  0.00     0.029 A 
ATOM     41  N   UNL A   1      40.147  28.619  29.590  1.00  0.00    -0.354 N 
ATOM     42  C   UNL A   1      39.077  31.097  32.943  1.00  0.00     0.074 A 
ATOM     43  C   UNL A   1      37.850  31.820  32.691  1.00  0.00     0.031 C 
ATOM     44  C   UNL A   1      39.956  27.772  27.530  1.00  0.00     0.029 A 
ATOM     45  C   UNL A   1      40.830  27.827  28.698  1.00  0.00     0.049 A 
ATOM     46  H   UNL A   1      40.487  28.836  30.489  1.00  0.00     0.167 HD
ATOM     47  C   UNL A   1      39.812  31.217  34.076  1.00  0.00     0.034 A 
ATOM     48  C   UNL A   1      42.024  27.211  28.804  1.00  0.00     0.034 A 
ATOM     49  C   UNL A   1      41.013  30.470  34.344  1.00  0.00     0.049 A 
ATOM     50  C   UNL A   1      42.794  27.320  30.092  1.00  0.00     0.074 A 
ATOM     51  C   UNL A   1      41.777  30.456  35.498  1.00  0.00     0.029 A 
ATOM     52  N   UNL A   1      41.630  29.612  33.448  1.00  0.00    -0.354 N 
ATOM     53  N   UNL A   1      42.483  27.969  31.187  1.00  0.00    -0.248 NA
ATOM     54  C   UNL A   1      44.060  26.577  30.172  1.00  0.00     0.031 C 
ATOM     55  C   UNL A   1      42.872  29.610  35.289  1.00  0.00     0.029 A 
ATOM     56  C   UNL A   1      42.771  29.070  34.017  1.00  0.00     0.049 A 
ATOM     57  H   UNL A   1      41.305  29.416  32.540  1.00  0.00     0.167 HD
ATOM     58  C   UNL A   1      43.494  27.683  32.099  1.00  0.00     0.074 A 
ATOM     59  C   UNL A   1      44.413  26.782  31.434  1.00  0.00     0.031 C 
ATOM     60  C   UNL A   1      43.654  28.137  33.366  1.00  0.00     0.034 A 
BRANCH  47  61
ATOM     61  C   UNL A   1      39.308  32.157  35.142  1.00  0.00     0.023 A 
ATOM     62  C   UNL A   1      38.319  31.718  36.046  1.00  0.00     0.012 A 
ATOM     63  C   UNL A   1      39.856  33.446  35.294  1.00  0.00     0.148 A 
ATOM     64  C   UNL A   1      37.855  32.557  37.058  1.00  0.00     0.002 A 
ATOM     65  C   UNL A   1      39.422  34.261  36.335  1.00  0.00     0.091 A 
ATOM     66  F   UNL A   1      40.784  33.855  34.417  1.00  0.00    -0.205 F 
ATOM     67  C   UNL A   1      38.414  33.823  37.208  1.00  0.00     0.022 A 
BRANCH  65  68
ATOM     68  S   UNL A   1      40.133  35.877  36.665  1.00  0.00     0.127 S 
ATOM     69  O   UNL A   1      41.553  35.553  36.796  1.00  0.00    -0.237 OA
ATOM     70  O   UNL A   1      39.786  36.619  35.454  1.00  0.00    -0.237 OA
ATOM     71  O   UNL A   1      39.488  36.358  37.880  1.00  0.00    -0.744 OA
ENDBRANCH  65  68
ENDBRANCH  47  61
BRANCH  48  72
ATOM     72  C   UNL A   1      42.532  26.373  27.680  1.00  0.00     0.023 A 
ATOM     73  C   UNL A   1      43.431  26.932  26.749  1.00  0.00     0.012 A 
ATOM     74  C   UNL A   1      42.147  25.027  27.539  1.00  0.00     0.148 A 
ATOM     75  C   UNL A   1      43.909  26.175  25.680  1.00  0.00     0.002 A 
ATOM     76  C   UNL A   1      42.672  24.261  26.504  1.00  0.00     0.091 A 
ATOM     77  F   UNL A   1      41.282  24.517  28.428  1.00  0.00    -0.205 F 
ATOM     78  C   UNL A   1      43.538  24.838  25.562  1.00  0.00     0.022 A 
BRANCH  76  79
ATOM     79  S   UNL A   1      42.355  22.500  26.352  1.00  0.00     0.127 S 
ATOM     80  O   UNL A   1      42.895  21.988  27.606  1.00  0.00    -0.237 OA
ATOM     81  O   UNL A   1      40.896  22.465  26.246  1.00  0.00    -0.237 OA
ATOM     82  O   UNL A   1      43.053  22.079  25.142  1.00  0.00    -0.744 OA
ENDBRANCH  76  79
ENDBRANCH  48  72
BRANCH  60  83
ATOM     83  C   UNL A   1      44.848  27.639  34.140  1.00  0.00     0.023 A 
ATOM     84  C   UNL A   1      46.056  28.365  34.117  1.00  0.00     0.012 A 
ATOM     85  C   UNL A   1      44.758  26.478  34.934  1.00  0.00     0.148 A 
ATOM     86  C   UNL A   1      47.166  27.921  34.835  1.00  0.00     0.002 A 
ATOM     87  C   UNL A   1      45.851  26.070  35.688  1.00  0.00     0.091 A 
ATOM     88  F   UNL A   1      43.608  25.788  34.930  1.00  0.00    -0.205 F 
ATOM     89  C   UNL A   1      47.061  26.782  35.628  1.00  0.00     0.022 A 
BRANCH  87  90
ATOM     90  S   UNL A   1      45.775  24.671  36.812  1.00  0.00     0.127 S 
ATOM     91  O   UNL A   1      47.182  24.497  37.168  1.00  0.00    -0.237 OA
ATOM     92  O   UNL A   1      44.932  25.186  37.893  1.00  0.00    -0.237 OA
ATOM     93  O   UNL A   1      45.180  23.580  36.053  1.00  0.00    -0.744 OA
ENDBRANCH  87  90
ENDBRANCH  60  83
ENDBRANCH  34  35
ENDBRANCH  26  29
ENDBRANCH  24  25
ENDBRANCH  23  24
ENDBRANCH   1  23
TORSDOF 17
ENDMDL
