MODEL 1
REMARK VINA RESULT:     -11.5      0.000      0.000
REMARK SMILES COc1cc(N)ccc1SCc1ccc(C(=O)NCCCNC(=O)c2ccc(-c3c4nc(c(-c5cccc(S(=O)(=O)[O-])c5F)c5ccc([nH]5)c(-c5cccc(S(=O)(=O)[O-])c5F)c5nc(c(-c6cccc(S(=O)(=O)[O-])c6F)c6ccc3[nH]6)C=C5)C=C4)cc2)s1
REMARK SMILES IDX 19 1 18 2 16 3 17 4 15 6 12 7 13 8 88 9 14 10 11 11 10 12
REMARK SMILES IDX 9 13 3 14 4 15 5 16 8 17 7 18 2 19 1 20 6 21 20 24 21 25
REMARK SMILES IDX 22 26 23 27 24 29 25 30 26 31 87 32 27 33 86 34 28 35 29 36
REMARK SMILES IDX 30 37 80 38 31 39 85 40 79 41 81 42 32 43 84 44 78 45 77 46
REMARK SMILES IDX 33 48 65 49 45 50 64 51 46 52 49 53 63 54 82 55 47 56 48 57
REMARK SMILES IDX 62 59 83 60 50 61 34 62 35 63 43 64 36 65 38 66 44 67 37 68
REMARK SMILES IDX 39 69 40 70 41 71 42 72 66 73 67 74 75 75 68 76 70 77 76 78
REMARK SMILES IDX 69 79 71 80 72 81 73 82 74 83 51 84 52 85 60 86 53 87 55 88
REMARK SMILES IDX 61 89 54 90 56 91 57 92 58 93 59 94
REMARK H PARENT 18 5 6 22 6 23 22 28 81 47 49 58
REMARK Flexibility Score: inf
ROOT
ATOM      1  C   UNL A   1      31.518  30.722  26.096  1.00  0.00     0.118 C 
ENDROOT
BRANCH   1   2
ATOM      2  N   UNL A   1      30.951  30.472  24.784  1.00  0.00    -0.351 N 
ATOM      3  C   UNL A   1      30.851  29.314  24.047  1.00  0.00     0.261 C 
ATOM      4  O   UNL A   1      30.153  29.390  23.032  1.00  0.00    -0.268 OA
ATOM      5  H   UNL A   1      30.572  31.268  24.346  1.00  0.00     0.163 HD
BRANCH   3   6
ATOM      6  C   UNL A   1      31.520  28.093  24.475  1.00  0.00     0.092 A 
ATOM      7  C   UNL A   1      33.097  26.164  24.546  1.00  0.00     0.016 A 
ATOM      8  C   UNL A   1      32.184  26.147  25.582  1.00  0.00     0.017 A 
ATOM      9  S   UNL A   1      32.892  27.561  23.580  1.00  0.00    -0.134 S 
ATOM     10  C   UNL A   1      31.296  27.257  25.551  1.00  0.00     0.026 A 
BRANCH   7  11
ATOM     11  C   UNL A   1      34.194  25.162  24.321  1.00  0.00     0.121 C 
BRANCH  11  12
ATOM     12  S   UNL A   1      33.887  23.804  23.153  1.00  0.00    -0.117 SA
BRANCH  12  13
ATOM     13  C   UNL A   1      33.771  22.289  24.112  1.00  0.00     0.050 A 
ATOM     14  C   UNL A   1      34.804  21.483  24.617  1.00  0.00     0.134 A 
ATOM     15  C   UNL A   1      34.487  20.344  25.384  1.00  0.00     0.073 A 
ATOM     16  C   UNL A   1      33.164  19.963  25.621  1.00  0.00     0.035 A 
ATOM     17  C   UNL A   1      32.445  21.859  24.307  1.00  0.00     0.021 A 
ATOM     18  C   UNL A   1      32.147  20.702  25.030  1.00  0.00     0.027 A 
BRANCH  14  19
ATOM     19  O   UNL A   1      36.097  21.845  24.356  1.00  0.00    -0.496 OA
ATOM     20  C   UNL A   1      36.893  22.261  25.458  1.00  0.00     0.278 C 
ENDBRANCH  14  19
BRANCH  16  21
ATOM     21  N   UNL A   1      32.875  18.792  26.306  1.00  0.00    -0.399 N 
ATOM     22  H   UNL A   1      33.088  18.717  27.265  1.00  0.00     0.156 HD
ATOM     23  H   UNL A   1      32.458  18.036  25.835  1.00  0.00     0.156 HD
ENDBRANCH  16  21
ENDBRANCH  12  13
ENDBRANCH  11  12
ENDBRANCH   7  11
ENDBRANCH   3   6
ENDBRANCH   1   2
BRANCH   1  24
ATOM     24  C   UNL A   1      31.423  32.192  26.501  1.00  0.00     0.042 C 
BRANCH  24  25
ATOM     25  C   UNL A   1      32.685  32.741  27.163  1.00  0.00     0.118 C 
BRANCH  25  26
ATOM     26  N   UNL A   1      32.524  34.117  27.612  1.00  0.00    -0.352 N 
ATOM     27  C   UNL A   1      33.137  34.794  28.638  1.00  0.00     0.251 C 
ATOM     28  H   UNL A   1      31.872  34.645  27.099  1.00  0.00     0.163 HD
ATOM     29  O   UNL A   1      32.705  35.898  28.962  1.00  0.00    -0.269 OA
BRANCH  27  30
ATOM     30  C   UNL A   1      34.295  34.217  29.359  1.00  0.00     0.039 A 
ATOM     31  C   UNL A   1      34.054  33.403  30.471  1.00  0.00     0.014 A 
ATOM     32  C   UNL A   1      35.609  34.513  28.988  1.00  0.00     0.014 A 
ATOM     33  C   UNL A   1      35.126  32.850  31.178  1.00  0.00     0.010 A 
ATOM     34  C   UNL A   1      36.675  33.906  29.652  1.00  0.00     0.010 A 
ATOM     35  C   UNL A   1      36.447  33.077  30.760  1.00  0.00    -0.014 A 
BRANCH  35  36
ATOM     36  C   UNL A   1      37.597  32.453  31.464  1.00  0.00     0.031 A 
ATOM     37  C   UNL A   1      38.352  31.314  30.830  1.00  0.00     0.074 A 
ATOM     38  C   UNL A   1      37.910  32.854  32.712  1.00  0.00     0.049 A 
ATOM     39  N   UNL A   1      39.343  30.611  31.313  1.00  0.00    -0.248 NA
ATOM     40  C   UNL A   1      37.919  30.893  29.487  1.00  0.00     0.031 C 
ATOM     41  C   UNL A   1      37.207  33.895  33.465  1.00  0.00     0.029 A 
ATOM     42  N   UNL A   1      38.881  32.416  33.577  1.00  0.00    -0.354 N 
ATOM     43  C   UNL A   1      39.626  29.643  30.357  1.00  0.00     0.074 A 
ATOM     44  C   UNL A   1      38.684  29.831  29.275  1.00  0.00     0.031 C 
ATOM     45  C   UNL A   1      37.772  34.018  34.677  1.00  0.00     0.029 A 
ATOM     46  C   UNL A   1      38.859  33.051  34.798  1.00  0.00     0.049 A 
ATOM     47  H   UNL A   1      39.531  31.714  33.347  1.00  0.00     0.167 HD
ATOM     48  C   UNL A   1      40.602  28.702  30.362  1.00  0.00     0.034 A 
ATOM     49  C   UNL A   1      39.626  32.873  35.891  1.00  0.00     0.034 A 
ATOM     50  C   UNL A   1      41.572  28.553  31.413  1.00  0.00     0.049 A 
ATOM     51  C   UNL A   1      40.735  31.856  35.851  1.00  0.00     0.074 A 
ATOM     52  C   UNL A   1      42.656  27.694  31.469  1.00  0.00     0.029 A 
ATOM     53  N   UNL A   1      41.576  29.277  32.594  1.00  0.00    -0.354 N 
ATOM     54  N   UNL A   1      41.091  31.063  34.870  1.00  0.00    -0.248 NA
ATOM     55  C   UNL A   1      41.571  31.737  37.053  1.00  0.00     0.031 C 
ATOM     56  C   UNL A   1      43.309  27.893  32.691  1.00  0.00     0.029 A 
ATOM     57  C   UNL A   1      42.639  28.885  33.390  1.00  0.00     0.049 A 
ATOM     58  H   UNL A   1      40.919  29.970  32.834  1.00  0.00     0.167 HD
ATOM     59  C   UNL A   1      42.213  30.378  35.321  1.00  0.00     0.074 A 
ATOM     60  C   UNL A   1      42.489  30.865  36.657  1.00  0.00     0.031 C 
ATOM     61  C   UNL A   1      42.938  29.419  34.693  1.00  0.00     0.034 A 
BRANCH  48  62
ATOM     62  C   UNL A   1      40.708  27.799  29.160  1.00  0.00     0.023 A 
ATOM     63  C   UNL A   1      39.865  26.672  29.066  1.00  0.00     0.012 A 
ATOM     64  C   UNL A   1      41.593  28.088  28.104  1.00  0.00     0.148 A 
ATOM     65  C   UNL A   1      39.929  25.826  27.960  1.00  0.00     0.002 A 
ATOM     66  C   UNL A   1      41.621  27.263  26.984  1.00  0.00     0.091 A 
ATOM     67  F   UNL A   1      42.402  29.152  28.218  1.00  0.00    -0.205 F 
ATOM     68  C   UNL A   1      40.799  26.127  26.916  1.00  0.00     0.022 A 
BRANCH  66  69
ATOM     69  S   UNL A   1      42.653  27.612  25.555  1.00  0.00     0.127 S 
ATOM     70  O   UNL A   1      42.016  28.813  25.017  1.00  0.00    -0.237 OA
ATOM     71  O   UNL A   1      43.964  27.840  26.165  1.00  0.00    -0.237 OA
ATOM     72  O   UNL A   1      42.578  26.427  24.711  1.00  0.00    -0.744 OA
ENDBRANCH  66  69
ENDBRANCH  48  62
BRANCH  49  73
ATOM     73  C   UNL A   1      39.427  33.742  37.086  1.00  0.00     0.023 A 
ATOM     74  C   UNL A   1      39.878  35.075  37.045  1.00  0.00     0.012 A 
ATOM     75  C   UNL A   1      38.766  33.276  38.238  1.00  0.00     0.148 A 
ATOM     76  C   UNL A   1      39.699  35.922  38.139  1.00  0.00     0.002 A 
ATOM     77  C   UNL A   1      38.544  34.140  39.305  1.00  0.00     0.091 A 
ATOM     78  F   UNL A   1      38.357  32.000  38.264  1.00  0.00    -0.205 F 
ATOM     79  C   UNL A   1      39.024  35.458  39.265  1.00  0.00     0.022 A 
BRANCH  77  80
ATOM     80  S   UNL A   1      37.565  33.666  40.736  1.00  0.00     0.127 S 
ATOM     81  O   UNL A   1      37.526  34.911  41.498  1.00  0.00    -0.237 OA
ATOM     82  O   UNL A   1      36.294  33.280  40.121  1.00  0.00    -0.237 OA
ATOM     83  O   UNL A   1      38.287  32.562  41.354  1.00  0.00    -0.744 OA
ENDBRANCH  77  80
ENDBRANCH  49  73
BRANCH  61  84
ATOM     84  C   UNL A   1      44.124  28.850  35.426  1.00  0.00     0.023 A 
ATOM     85  C   UNL A   1      45.395  29.432  35.252  1.00  0.00     0.012 A 
ATOM     86  C   UNL A   1      43.968  27.789  36.338  1.00  0.00     0.148 A 
ATOM     87  C   UNL A   1      46.499  28.948  35.952  1.00  0.00     0.002 A 
ATOM     88  C   UNL A   1      45.063  27.340  37.067  1.00  0.00     0.091 A 
ATOM     89  F   UNL A   1      42.755  27.233  36.475  1.00  0.00    -0.205 F 
ATOM     90  C   UNL A   1      46.331  27.911  36.868  1.00  0.00     0.022 A 
BRANCH  88  91
ATOM     91  S   UNL A   1      44.918  26.073  38.332  1.00  0.00     0.127 S 
ATOM     92  O   UNL A   1      44.378  26.833  39.457  1.00  0.00    -0.237 OA
ATOM     93  O   UNL A   1      43.978  25.129  37.725  1.00  0.00    -0.237 OA
ATOM     94  O   UNL A   1      46.263  25.544  38.519  1.00  0.00    -0.744 OA
ENDBRANCH  88  91
ENDBRANCH  61  84
ENDBRANCH  35  36
ENDBRANCH  27  30
ENDBRANCH  25  26
ENDBRANCH  24  25
ENDBRANCH   1  24
TORSDOF 18
ENDMDL
MODEL 2
REMARK VINA RESULT:     -11.5      6.049     11.767
REMARK SMILES COc1cc(N)ccc1SCc1ccc(C(=O)NCCCNC(=O)c2ccc(-c3c4nc(c(-c5cccc(S(=O)(=O)[O-])c5F)c5ccc([nH]5)c(-c5cccc(S(=O)(=O)[O-])c5F)c5nc(c(-c6cccc(S(=O)(=O)[O-])c6F)c6ccc3[nH]6)C=C5)C=C4)cc2)s1
REMARK SMILES IDX 19 1 18 2 16 3 17 4 15 6 12 7 13 8 88 9 14 10 11 11 10 12
REMARK SMILES IDX 9 13 3 14 4 15 5 16 8 17 7 18 2 19 1 20 6 21 20 24 21 25
REMARK SMILES IDX 22 26 23 27 24 29 25 30 26 31 87 32 27 33 86 34 28 35 29 36
REMARK SMILES IDX 30 37 80 38 31 39 85 40 79 41 81 42 32 43 84 44 78 45 77 46
REMARK SMILES IDX 33 48 65 49 45 50 64 51 46 52 49 53 63 54 82 55 47 56 48 57
REMARK SMILES IDX 62 59 83 60 50 61 34 62 35 63 43 64 36 65 38 66 44 67 37 68
REMARK SMILES IDX 39 69 40 70 41 71 42 72 66 73 67 74 75 75 68 76 70 77 76 78
REMARK SMILES IDX 69 79 71 80 72 81 73 82 74 83 51 84 52 85 60 86 53 87 55 88
REMARK SMILES IDX 61 89 54 90 56 91 57 92 58 93 59 94
REMARK H PARENT 18 5 6 22 6 23 22 28 81 47 49 58
REMARK Flexibility Score: inf
ROOT
ATOM      1  C   UNL A   1      35.538  20.509  25.015  1.00  0.00     0.118 C 
ENDROOT
BRANCH   1   2
ATOM      2  N   UNL A   1      34.427  19.651  25.382  1.00  0.00    -0.351 N 
ATOM      3  C   UNL A   1      33.083  19.741  25.101  1.00  0.00     0.261 C 
ATOM      4  O   UNL A   1      32.410  18.754  25.409  1.00  0.00    -0.268 OA
ATOM      5  H   UNL A   1      34.679  18.870  25.926  1.00  0.00     0.163 HD
BRANCH   3   6
ATOM      6  C   UNL A   1      32.528  20.927  24.464  1.00  0.00     0.092 A 
ATOM      7  C   UNL A   1      31.391  23.122  24.141  1.00  0.00     0.016 A 
ATOM      8  C   UNL A   1      31.818  22.560  22.953  1.00  0.00     0.017 A 
ATOM      9  S   UNL A   1      31.853  22.150  25.471  1.00  0.00    -0.134 S 
ATOM     10  C   UNL A   1      32.482  21.317  23.140  1.00  0.00     0.026 A 
BRANCH   7  11
ATOM     11  C   UNL A   1      30.700  24.447  24.291  1.00  0.00     0.121 C 
BRANCH  11  12
ATOM     12  S   UNL A   1      30.597  25.176  25.953  1.00  0.00    -0.117 SA
BRANCH  12  13
ATOM     13  C   UNL A   1      31.794  26.513  26.026  1.00  0.00     0.050 A 
ATOM     14  C   UNL A   1      33.197  26.442  26.064  1.00  0.00     0.134 A 
ATOM     15  C   UNL A   1      33.954  27.629  26.082  1.00  0.00     0.073 A 
ATOM     16  C   UNL A   1      33.348  28.888  26.109  1.00  0.00     0.035 A 
ATOM     17  C   UNL A   1      31.197  27.785  26.115  1.00  0.00     0.021 A 
ATOM     18  C   UNL A   1      31.962  28.952  26.179  1.00  0.00     0.027 A 
BRANCH  14  19
ATOM     19  O   UNL A   1      33.784  25.206  26.067  1.00  0.00    -0.496 OA
ATOM     20  C   UNL A   1      34.576  24.858  24.939  1.00  0.00     0.278 C 
ENDBRANCH  14  19
BRANCH  16  21
ATOM     21  N   UNL A   1      34.112  30.041  26.213  1.00  0.00    -0.399 N 
ATOM     22  H   UNL A   1      34.282  30.592  25.415  1.00  0.00     0.156 HD
ATOM     23  H   UNL A   1      34.484  30.308  27.083  1.00  0.00     0.156 HD
ENDBRANCH  16  21
ENDBRANCH  12  13
ENDBRANCH  11  12
ENDBRANCH   7  11
ENDBRANCH   3   6
ENDBRANCH   1   2
BRANCH   1  24
ATOM     24  C   UNL A   1      36.839  19.731  24.830  1.00  0.00     0.042 C 
BRANCH  24  25
ATOM     25  C   UNL A   1      38.075  20.435  25.386  1.00  0.00     0.118 C 
BRANCH  25  26
ATOM     26  N   UNL A   1      39.141  19.503  25.726  1.00  0.00    -0.352 N 
ATOM     27  C   UNL A   1      40.447  19.738  26.079  1.00  0.00     0.251 C 
ATOM     28  H   UNL A   1      38.884  18.554  25.697  1.00  0.00     0.163 HD
ATOM     29  O   UNL A   1      41.227  18.790  26.135  1.00  0.00    -0.269 OA
BRANCH  27  30
ATOM     30  C   UNL A   1      40.929  21.105  26.382  1.00  0.00     0.039 A 
ATOM     31  C   UNL A   1      41.983  21.259  27.290  1.00  0.00     0.014 A 
ATOM     32  C   UNL A   1      40.320  22.236  25.830  1.00  0.00     0.014 A 
ATOM     33  C   UNL A   1      42.455  22.537  27.605  1.00  0.00     0.010 A 
ATOM     34  C   UNL A   1      40.837  23.504  26.092  1.00  0.00     0.010 A 
ATOM     35  C   UNL A   1      41.902  23.671  26.990  1.00  0.00    -0.014 A 
BRANCH  35  36
ATOM     36  C   UNL A   1      42.426  25.033  27.268  1.00  0.00     0.031 A 
ATOM     37  C   UNL A   1      41.590  26.032  28.024  1.00  0.00     0.074 A 
ATOM     38  C   UNL A   1      43.620  25.401  26.765  1.00  0.00     0.049 A 
ATOM     39  N   UNL A   1      41.855  27.280  28.312  1.00  0.00    -0.248 NA
ATOM     40  C   UNL A   1      40.272  25.576  28.497  1.00  0.00     0.031 C 
ATOM     41  C   UNL A   1      44.491  24.551  25.951  1.00  0.00     0.029 A 
ATOM     42  N   UNL A   1      44.296  26.593  26.839  1.00  0.00    -0.354 N 
ATOM     43  C   UNL A   1      40.728  27.769  28.961  1.00  0.00     0.074 A 
ATOM     44  C   UNL A   1      39.763  26.691  29.001  1.00  0.00     0.031 C 
ATOM     45  C   UNL A   1      45.587  25.248  25.605  1.00  0.00     0.029 A 
ATOM     46  C   UNL A   1      45.487  26.598  26.150  1.00  0.00     0.049 A 
ATOM     47  H   UNL A   1      43.960  27.373  27.339  1.00  0.00     0.167 HD
ATOM     48  C   UNL A   1      40.523  28.994  29.504  1.00  0.00     0.034 A 
ATOM     49  C   UNL A   1      46.394  27.578  25.975  1.00  0.00     0.034 A 
ATOM     50  C   UNL A   1      41.504  30.046  29.511  1.00  0.00     0.049 A 
ATOM     51  C   UNL A   1      46.165  28.913  26.632  1.00  0.00     0.074 A 
ATOM     52  C   UNL A   1      41.430  31.288  30.117  1.00  0.00     0.029 A 
ATOM     53  N   UNL A   1      42.738  29.981  28.883  1.00  0.00    -0.354 N 
ATOM     54  N   UNL A   1      45.164  29.302  27.383  1.00  0.00    -0.248 NA
ATOM     55  C   UNL A   1      47.209  29.931  26.448  1.00  0.00     0.031 C 
ATOM     56  C   UNL A   1      42.616  31.979  29.844  1.00  0.00     0.029 A 
ATOM     57  C   UNL A   1      43.434  31.162  29.081  1.00  0.00     0.049 A 
ATOM     58  H   UNL A   1      43.071  29.209  28.372  1.00  0.00     0.167 HD
ATOM     59  C   UNL A   1      45.473  30.594  27.791  1.00  0.00     0.074 A 
ATOM     60  C   UNL A   1      46.765  30.914  27.220  1.00  0.00     0.031 C 
ATOM     61  C   UNL A   1      44.745  31.445  28.556  1.00  0.00     0.034 A 
BRANCH  48  62
ATOM     62  C   UNL A   1      39.206  29.242  30.193  1.00  0.00     0.023 A 
ATOM     63  C   UNL A   1      38.944  28.614  31.429  1.00  0.00     0.012 A 
ATOM     64  C   UNL A   1      38.253  30.128  29.654  1.00  0.00     0.148 A 
ATOM     65  C   UNL A   1      37.741  28.834  32.098  1.00  0.00     0.002 A 
ATOM     66  C   UNL A   1      37.073  30.374  30.348  1.00  0.00     0.091 A 
ATOM     67  F   UNL A   1      38.508  30.699  28.468  1.00  0.00    -0.205 F 
ATOM     68  C   UNL A   1      36.811  29.721  31.563  1.00  0.00     0.022 A 
BRANCH  66  69
ATOM     69  S   UNL A   1      35.848  31.559  29.777  1.00  0.00     0.127 S 
ATOM     70  O   UNL A   1      35.169  30.798  28.729  1.00  0.00    -0.237 OA
ATOM     71  O   UNL A   1      35.047  31.785  30.981  1.00  0.00    -0.237 OA
ATOM     72  O   UNL A   1      36.599  32.721  29.325  1.00  0.00    -0.744 OA
ENDBRANCH  66  69
ENDBRANCH  48  62
BRANCH  49  73
ATOM     73  C   UNL A   1      47.646  27.303  25.215  1.00  0.00     0.023 A 
ATOM     74  C   UNL A   1      48.704  26.632  25.859  1.00  0.00     0.012 A 
ATOM     75  C   UNL A   1      47.785  27.661  23.861  1.00  0.00     0.148 A 
ATOM     76  C   UNL A   1      49.887  26.347  25.178  1.00  0.00     0.002 A 
ATOM     77  C   UNL A   1      48.945  27.326  23.172  1.00  0.00     0.091 A 
ATOM     78  F   UNL A   1      46.772  28.311  23.268  1.00  0.00    -0.205 F 
ATOM     79  C   UNL A   1      50.004  26.684  23.832  1.00  0.00     0.022 A 
BRANCH  77  80
ATOM     80  S   UNL A   1      49.125  27.601  21.405  1.00  0.00     0.127 S 
ATOM     81  O   UNL A   1      47.779  27.313  20.918  1.00  0.00    -0.237 OA
ATOM     82  O   UNL A   1      49.511  29.012  21.353  1.00  0.00    -0.237 OA
ATOM     83  O   UNL A   1      50.170  26.682  20.972  1.00  0.00    -0.744 OA
ENDBRANCH  77  80
ENDBRANCH  49  73
BRANCH  61  84
ATOM     84  C   UNL A   1      45.337  32.798  28.851  1.00  0.00     0.023 A 
ATOM     85  C   UNL A   1      46.150  32.968  29.990  1.00  0.00     0.012 A 
ATOM     86  C   UNL A   1      45.149  33.878  27.968  1.00  0.00     0.148 A 
ATOM     87  C   UNL A   1      46.742  34.201  30.260  1.00  0.00     0.002 A 
ATOM     88  C   UNL A   1      45.779  35.091  28.218  1.00  0.00     0.091 A 
ATOM     89  F   UNL A   1      44.355  33.703  26.901  1.00  0.00    -0.205 F 
ATOM     90  C   UNL A   1      46.568  35.258  29.368  1.00  0.00     0.022 A 
BRANCH  88  91
ATOM     91  S   UNL A   1      45.682  36.475  27.075  1.00  0.00     0.127 S 
ATOM     92  O   UNL A   1      44.240  36.597  26.876  1.00  0.00    -0.237 OA
ATOM     93  O   UNL A   1      46.286  37.562  27.847  1.00  0.00    -0.237 OA
ATOM     94  O   UNL A   1      46.448  36.074  25.902  1.00  0.00    -0.744 OA
ENDBRANCH  88  91
ENDBRANCH  61  84
ENDBRANCH  35  36
ENDBRANCH  27  30
ENDBRANCH  25  26
ENDBRANCH  24  25
ENDBRANCH   1  24
TORSDOF 18
ENDMDL
MODEL 3
REMARK VINA RESULT:     -11.2      5.555      9.357
REMARK SMILES COc1cc(N)ccc1SCc1ccc(C(=O)NCCCNC(=O)c2ccc(-c3c4nc(c(-c5cccc(S(=O)(=O)[O-])c5F)c5ccc([nH]5)c(-c5cccc(S(=O)(=O)[O-])c5F)c5nc(c(-c6cccc(S(=O)(=O)[O-])c6F)c6ccc3[nH]6)C=C5)C=C4)cc2)s1
REMARK SMILES IDX 19 1 18 2 16 3 17 4 15 6 12 7 13 8 88 9 14 10 11 11 10 12
REMARK SMILES IDX 9 13 3 14 4 15 5 16 8 17 7 18 2 19 1 20 6 21 20 24 21 25
REMARK SMILES IDX 22 26 23 27 24 29 25 30 26 31 87 32 27 33 86 34 28 35 29 36
REMARK SMILES IDX 30 37 80 38 31 39 85 40 79 41 81 42 32 43 84 44 78 45 77 46
REMARK SMILES IDX 33 48 65 49 45 50 64 51 46 52 49 53 63 54 82 55 47 56 48 57
REMARK SMILES IDX 62 59 83 60 50 61 34 62 35 63 43 64 36 65 38 66 44 67 37 68
REMARK SMILES IDX 39 69 40 70 41 71 42 72 66 73 67 74 75 75 68 76 70 77 76 78
REMARK SMILES IDX 69 79 71 80 72 81 73 82 74 83 51 84 52 85 60 86 53 87 55 88
REMARK SMILES IDX 61 89 54 90 56 91 57 92 58 93 59 94
REMARK H PARENT 18 5 6 22 6 23 22 28 81 47 49 58
REMARK Flexibility Score: inf
ROOT
ATOM      1  C   UNL A   1      35.060  21.170  25.925  1.00  0.00     0.118 C 
ENDROOT
BRANCH   1   2
ATOM      2  N   UNL A   1      34.035  20.158  25.750  1.00  0.00    -0.351 N 
ATOM      3  C   UNL A   1      32.729  20.257  25.328  1.00  0.00     0.261 C 
ATOM      4  O   UNL A   1      32.158  19.184  25.116  1.00  0.00    -0.268 OA
ATOM      5  H   UNL A   1      34.324  19.244  25.972  1.00  0.00     0.163 HD
BRANCH   3   6
ATOM      6  C   UNL A   1      32.100  21.556  25.136  1.00  0.00     0.092 A 
ATOM      7  C   UNL A   1      31.376  23.698  24.086  1.00  0.00     0.016 A 
ATOM      8  C   UNL A   1      30.928  23.561  25.386  1.00  0.00     0.017 A 
ATOM      9  S   UNL A   1      32.231  22.303  23.589  1.00  0.00    -0.134 S 
ATOM     10  C   UNL A   1      31.327  22.331  25.978  1.00  0.00     0.026 A 
BRANCH   7  11
ATOM     11  C   UNL A   1      31.089  24.856  23.173  1.00  0.00     0.121 C 
BRANCH  11  12
ATOM     12  S   UNL A   1      30.048  26.207  23.805  1.00  0.00    -0.117 SA
BRANCH  12  13
ATOM     13  C   UNL A   1      31.146  27.458  24.480  1.00  0.00     0.050 A 
ATOM     14  C   UNL A   1      31.039  28.857  24.410  1.00  0.00     0.134 A 
ATOM     15  C   UNL A   1      32.004  29.662  25.049  1.00  0.00     0.073 A 
ATOM     16  C   UNL A   1      33.099  29.107  25.717  1.00  0.00     0.035 A 
ATOM     17  C   UNL A   1      32.285  26.915  25.103  1.00  0.00     0.021 A 
ATOM     18  C   UNL A   1      33.257  27.727  25.692  1.00  0.00     0.027 A 
BRANCH  14  19
ATOM     19  O   UNL A   1      29.981  29.395  23.730  1.00  0.00    -0.496 OA
ATOM     20  C   UNL A   1      30.179  29.706  22.357  1.00  0.00     0.278 C 
ENDBRANCH  14  19
BRANCH  16  21
ATOM     21  N   UNL A   1      34.080  29.919  26.265  1.00  0.00    -0.399 N 
ATOM     22  H   UNL A   1      33.841  30.800  26.634  1.00  0.00     0.156 HD
ATOM     23  H   UNL A   1      35.016  29.615  26.285  1.00  0.00     0.156 HD
ENDBRANCH  16  21
ENDBRANCH  12  13
ENDBRANCH  11  12
ENDBRANCH   7  11
ENDBRANCH   3   6
ENDBRANCH   1   2
BRANCH   1  24
ATOM     24  C   UNL A   1      35.724  21.559  24.605  1.00  0.00     0.042 C 
BRANCH  24  25
ATOM     25  C   UNL A   1      37.218  21.856  24.720  1.00  0.00     0.118 C 
BRANCH  25  26
ATOM     26  N   UNL A   1      37.940  20.814  25.436  1.00  0.00    -0.352 N 
ATOM     27  C   UNL A   1      39.103  20.877  26.162  1.00  0.00     0.251 C 
ATOM     28  H   UNL A   1      37.528  19.921  25.391  1.00  0.00     0.163 HD
ATOM     29  O   UNL A   1      39.637  19.830  26.521  1.00  0.00    -0.269 OA
BRANCH  27  30
ATOM     30  C   UNL A   1      39.724  22.176  26.510  1.00  0.00     0.039 A 
ATOM     31  C   UNL A   1      39.266  23.332  25.868  1.00  0.00     0.014 A 
ATOM     32  C   UNL A   1      40.786  22.261  27.416  1.00  0.00     0.014 A 
ATOM     33  C   UNL A   1      39.837  24.572  26.168  1.00  0.00     0.010 A 
ATOM     34  C   UNL A   1      41.308  23.506  27.764  1.00  0.00     0.010 A 
ATOM     35  C   UNL A   1      40.848  24.674  27.137  1.00  0.00    -0.014 A 
BRANCH  35  36
ATOM     36  C   UNL A   1      41.429  25.989  27.511  1.00  0.00     0.031 A 
ATOM     37  C   UNL A   1      42.866  26.308  27.188  1.00  0.00     0.074 A 
ATOM     38  C   UNL A   1      40.690  26.866  28.219  1.00  0.00     0.049 A 
ATOM     39  N   UNL A   1      43.560  27.376  27.482  1.00  0.00    -0.248 NA
ATOM     40  C   UNL A   1      43.628  25.280  26.460  1.00  0.00     0.031 C 
ATOM     41  C   UNL A   1      39.311  26.644  28.660  1.00  0.00     0.029 A 
ATOM     42  N   UNL A   1      41.002  28.106  28.716  1.00  0.00    -0.354 N 
ATOM     43  C   UNL A   1      44.847  27.135  27.015  1.00  0.00     0.074 A 
ATOM     44  C   UNL A   1      44.844  25.807  26.441  1.00  0.00     0.031 C 
ATOM     45  C   UNL A   1      38.896  27.714  29.358  1.00  0.00     0.029 A 
ATOM     46  C   UNL A   1      39.982  28.686  29.436  1.00  0.00     0.049 A 
ATOM     47  H   UNL A   1      41.873  28.541  28.571  1.00  0.00     0.167 HD
ATOM     48  C   UNL A   1      45.925  27.955  27.033  1.00  0.00     0.034 A 
ATOM     49  C   UNL A   1      39.929  29.865  30.086  1.00  0.00     0.034 A 
ATOM     50  C   UNL A   1      45.910  29.295  27.555  1.00  0.00     0.049 A 
ATOM     51  C   UNL A   1      41.125  30.778  30.045  1.00  0.00     0.074 A 
ATOM     52  C   UNL A   1      46.922  30.239  27.534  1.00  0.00     0.029 A 
ATOM     53  N   UNL A   1      44.830  29.883  28.193  1.00  0.00    -0.354 N 
ATOM     54  N   UNL A   1      42.280  30.598  29.453  1.00  0.00    -0.248 NA
ATOM     55  C   UNL A   1      40.996  32.072  30.731  1.00  0.00     0.031 C 
ATOM     56  C   UNL A   1      46.456  31.395  28.171  1.00  0.00     0.029 A 
ATOM     57  C   UNL A   1      45.149  31.175  28.576  1.00  0.00     0.049 A 
ATOM     58  H   UNL A   1      43.962  29.447  28.352  1.00  0.00     0.167 HD
ATOM     59  C   UNL A   1      43.002  31.768  29.662  1.00  0.00     0.074 A 
ATOM     60  C   UNL A   1      42.144  32.657  30.418  1.00  0.00     0.031 C 
ATOM     61  C   UNL A   1      44.266  32.071  29.277  1.00  0.00     0.034 A 
BRANCH  48  62
ATOM     62  C   UNL A   1      47.200  27.446  26.410  1.00  0.00     0.023 A 
ATOM     63  C   UNL A   1      47.503  27.791  25.076  1.00  0.00     0.012 A 
ATOM     64  C   UNL A   1      48.119  26.677  27.149  1.00  0.00     0.148 A 
ATOM     65  C   UNL A   1      48.681  27.348  24.477  1.00  0.00     0.002 A 
ATOM     66  C   UNL A   1      49.311  26.273  26.558  1.00  0.00     0.091 A 
ATOM     67  F   UNL A   1      47.805  26.339  28.409  1.00  0.00    -0.205 F 
ATOM     68  C   UNL A   1      49.589  26.598  25.219  1.00  0.00     0.022 A 
BRANCH  66  69
ATOM     69  S   UNL A   1      50.577  25.370  27.458  1.00  0.00     0.127 S 
ATOM     70  O   UNL A   1      49.823  24.219  27.952  1.00  0.00    -0.237 OA
ATOM     71  O   UNL A   1      51.545  25.056  26.405  1.00  0.00    -0.237 OA
ATOM     72  O   UNL A   1      51.070  26.285  28.477  1.00  0.00    -0.744 OA
ENDBRANCH  66  69
ENDBRANCH  48  62
BRANCH  49  73
ATOM     73  C   UNL A   1      38.666  30.286  30.755  1.00  0.00     0.023 A 
ATOM     74  C   UNL A   1      38.497  30.019  32.128  1.00  0.00     0.012 A 
ATOM     75  C   UNL A   1      37.655  30.977  30.062  1.00  0.00     0.148 A 
ATOM     76  C   UNL A   1      37.334  30.408  32.791  1.00  0.00     0.002 A 
ATOM     77  C   UNL A   1      36.521  31.409  30.741  1.00  0.00     0.091 A 
ATOM     78  F   UNL A   1      37.827  31.210  28.752  1.00  0.00    -0.205 F 
ATOM     79  C   UNL A   1      36.350  31.112  32.101  1.00  0.00     0.022 A 
BRANCH  77  80
ATOM     80  S   UNL A   1      35.270  32.439  29.962  1.00  0.00     0.127 S 
ATOM     81  O   UNL A   1      34.345  32.674  31.068  1.00  0.00    -0.237 OA
ATOM     82  O   UNL A   1      36.050  33.608  29.551  1.00  0.00    -0.237 OA
ATOM     83  O   UNL A   1      34.751  31.650  28.854  1.00  0.00    -0.744 OA
ENDBRANCH  77  80
ENDBRANCH  49  73
BRANCH  61  84
ATOM     84  C   UNL A   1      44.796  33.434  29.637  1.00  0.00     0.023 A 
ATOM     85  C   UNL A   1      45.506  33.609  30.841  1.00  0.00     0.012 A 
ATOM     86  C   UNL A   1      44.655  34.521  28.753  1.00  0.00     0.148 A 
ATOM     87  C   UNL A   1      46.041  34.852  31.174  1.00  0.00     0.002 A 
ATOM     88  C   UNL A   1      45.230  35.746  29.069  1.00  0.00     0.091 A 
ATOM     89  F   UNL A   1      43.958  34.341  27.621  1.00  0.00    -0.205 F 
ATOM     90  C   UNL A   1      45.915  35.916  30.284  1.00  0.00     0.022 A 
BRANCH  88  91
ATOM     91  S   UNL A   1      45.193  37.142  27.939  1.00  0.00     0.127 S 
ATOM     92  O   UNL A   1      43.794  37.555  28.019  1.00  0.00    -0.237 OA
ATOM     93  O   UNL A   1      46.141  38.071  28.556  1.00  0.00    -0.237 OA
ATOM     94  O   UNL A   1      45.621  36.619  26.648  1.00  0.00    -0.744 OA
ENDBRANCH  88  91
ENDBRANCH  61  84
ENDBRANCH  35  36
ENDBRANCH  27  30
ENDBRANCH  25  26
ENDBRANCH  24  25
ENDBRANCH   1  24
TORSDOF 18
ENDMDL
