MODEL 1
REMARK VINA RESULT:     -11.3      0.000      0.000
REMARK SMILES O=C(CNC(=O)CNC(=O)OCc1ccccc1)NCCCNC(=O)c1ccc(-c2c3nc(c(-c4cccc(S(=O)(=O)[O-])c4F)c4ccc([nH]4)c(-c4cccc(S(=O)(=O)[O-])c4F)c4nc(c(-c5cccc(S(=O)(=O)[O-])c5F)c5ccc2[nH]5)C=C4)C=C3)cc1
REMARK SMILES IDX 1 1 2 2 19 3 3 5 4 6 5 7 6 9 7 10 8 11 9 12 10 14 11 15
REMARK SMILES IDX 12 16 13 17 14 18 18 19 15 20 17 21 16 22 20 23 21 24 22 25
REMARK SMILES IDX 23 26 24 27 25 29 26 30 27 31 88 32 28 33 87 34 29 35 30 36
REMARK SMILES IDX 31 37 81 38 32 39 86 40 80 41 82 42 33 43 85 44 79 45 78 46
REMARK SMILES IDX 34 48 66 49 46 50 65 51 47 52 50 53 64 54 83 55 48 56 49 57
REMARK SMILES IDX 63 59 84 60 51 61 35 62 36 63 44 64 37 65 39 66 45 67 38 68
REMARK SMILES IDX 40 69 41 70 42 71 43 72 67 73 68 74 76 75 69 76 71 77 77 78
REMARK SMILES IDX 70 79 72 80 73 81 74 82 75 83 52 84 53 85 61 86 54 87 56 88
REMARK SMILES IDX 62 89 55 90 57 91 58 92 59 93 60 94
REMARK H PARENT 19 4 4 8 8 13 23 28 82 47 50 58
REMARK Flexibility Score: inf
ROOT
ATOM      1  O   UNL A   1      31.522  27.015  27.002  1.00  0.00    -0.273 OA
ATOM      2  C   UNL A   1      31.019  26.986  25.882  1.00  0.00     0.239 C 
ATOM      3  N   UNL A   1      31.427  27.798  24.845  1.00  0.00    -0.355 N 
ATOM      4  H   UNL A   1      31.051  27.644  23.948  1.00  0.00     0.163 HD
ENDROOT
BRANCH   2   5
ATOM      5  C   UNL A   1      29.952  25.944  25.520  1.00  0.00     0.216 C 
BRANCH   5   6
ATOM      6  N   UNL A   1      29.729  24.942  26.556  1.00  0.00    -0.346 N 
ATOM      7  C   UNL A   1      30.111  23.633  26.598  1.00  0.00     0.239 C 
ATOM      8  H   UNL A   1      29.228  25.257  27.342  1.00  0.00     0.164 HD
ATOM      9  O   UNL A   1      29.856  22.988  27.616  1.00  0.00    -0.273 OA
BRANCH   7  10
ATOM     10  C   UNL A   1      30.792  22.988  25.391  1.00  0.00     0.219 C 
BRANCH  10  11
ATOM     11  N   UNL A   1      31.411  21.755  25.835  1.00  0.00    -0.312 N 
ATOM     12  C   UNL A   1      32.117  20.884  25.071  1.00  0.00     0.407 C 
ATOM     13  H   UNL A   1      31.310  21.528  26.787  1.00  0.00     0.167 HD
ATOM     14  O   UNL A   1      32.323  19.743  25.474  1.00  0.00    -0.225 OA
BRANCH  12  15
ATOM     15  O   UNL A   1      32.485  21.384  23.871  1.00  0.00    -0.445 OA
BRANCH  15  16
ATOM     16  C   UNL A   1      33.762  22.045  23.840  1.00  0.00     0.270 C 
BRANCH  16  17
ATOM     17  C   UNL A   1      33.676  23.471  23.355  1.00  0.00    -0.011 A 
ATOM     18  C   UNL A   1      34.209  24.527  24.107  1.00  0.00     0.007 A 
ATOM     19  C   UNL A   1      33.052  23.762  22.133  1.00  0.00     0.007 A 
ATOM     20  C   UNL A   1      34.109  25.843  23.644  1.00  0.00     0.000 A 
ATOM     21  C   UNL A   1      32.970  25.072  21.664  1.00  0.00     0.000 A 
ATOM     22  C   UNL A   1      33.494  26.114  22.423  1.00  0.00     0.000 A 
ENDBRANCH  16  17
ENDBRANCH  15  16
ENDBRANCH  12  15
ENDBRANCH  10  11
ENDBRANCH   7  10
ENDBRANCH   5   6
ENDBRANCH   2   5
BRANCH   3  23
ATOM     23  C   UNL A   1      32.388  28.870  25.024  1.00  0.00     0.117 C 
BRANCH  23  24
ATOM     24  C   UNL A   1      31.806  30.132  25.653  1.00  0.00     0.042 C 
BRANCH  24  25
ATOM     25  C   UNL A   1      32.413  30.532  26.997  1.00  0.00     0.118 C 
BRANCH  25  26
ATOM     26  N   UNL A   1      32.634  31.964  27.143  1.00  0.00    -0.352 N 
ATOM     27  C   UNL A   1      33.695  32.664  27.662  1.00  0.00     0.251 C 
ATOM     28  H   UNL A   1      31.896  32.526  26.811  1.00  0.00     0.163 HD
ATOM     29  O   UNL A   1      33.620  33.891  27.710  1.00  0.00    -0.269 OA
BRANCH  27  30
ATOM     30  C   UNL A   1      34.900  31.985  28.197  1.00  0.00     0.039 A 
ATOM     31  C   UNL A   1      36.094  32.715  28.252  1.00  0.00     0.014 A 
ATOM     32  C   UNL A   1      34.894  30.649  28.607  1.00  0.00     0.014 A 
ATOM     33  C   UNL A   1      37.253  32.136  28.779  1.00  0.00     0.010 A 
ATOM     34  C   UNL A   1      36.035  30.091  29.191  1.00  0.00     0.010 A 
ATOM     35  C   UNL A   1      37.225  30.828  29.289  1.00  0.00    -0.014 A 
BRANCH  35  36
ATOM     36  C   UNL A   1      38.416  30.238  29.957  1.00  0.00     0.031 A 
ATOM     37  C   UNL A   1      38.859  30.722  31.312  1.00  0.00     0.074 A 
ATOM     38  C   UNL A   1      39.154  29.318  29.304  1.00  0.00     0.049 A 
ATOM     39  N   UNL A   1      39.904  30.363  32.015  1.00  0.00    -0.248 NA
ATOM     40  C   UNL A   1      38.035  31.760  31.952  1.00  0.00     0.031 C 
ATOM     41  C   UNL A   1      38.878  28.815  27.957  1.00  0.00     0.029 A 
ATOM     42  N   UNL A   1      40.304  28.663  29.672  1.00  0.00    -0.354 N 
ATOM     43  C   UNL A   1      39.884  31.153  33.157  1.00  0.00     0.074 A 
ATOM     44  C   UNL A   1      38.736  32.027  33.045  1.00  0.00     0.031 C 
ATOM     45  C   UNL A   1      39.833  27.936  27.610  1.00  0.00     0.029 A 
ATOM     46  C   UNL A   1      40.801  27.829  28.697  1.00  0.00     0.049 A 
ATOM     47  H   UNL A   1      40.734  28.781  30.550  1.00  0.00     0.167 HD
ATOM     48  C   UNL A   1      40.727  31.134  34.218  1.00  0.00     0.034 A 
ATOM     49  C   UNL A   1      41.913  27.067  28.674  1.00  0.00     0.034 A 
ATOM     50  C   UNL A   1      41.839  30.231  34.356  1.00  0.00     0.049 A 
ATOM     51  C   UNL A   1      42.805  27.030  29.886  1.00  0.00     0.074 A 
ATOM     52  C   UNL A   1      42.693  30.076  35.434  1.00  0.00     0.029 A 
ATOM     53  N   UNL A   1      42.254  29.331  33.387  1.00  0.00    -0.354 N 
ATOM     54  N   UNL A   1      42.675  27.665  31.025  1.00  0.00    -0.248 NA
ATOM     55  C   UNL A   1      43.978  26.145  29.822  1.00  0.00     0.031 C 
ATOM     56  C   UNL A   1      43.632  29.089  35.113  1.00  0.00     0.029 A 
ATOM     57  C   UNL A   1      43.355  28.621  33.839  1.00  0.00     0.049 A 
ATOM     58  H   UNL A   1      41.829  29.213  32.507  1.00  0.00     0.167 HD
ATOM     59  C   UNL A   1      43.727  27.232  31.824  1.00  0.00     0.074 A 
ATOM     60  C   UNL A   1      44.473  26.264  31.047  1.00  0.00     0.031 C 
ATOM     61  C   UNL A   1      44.055  27.617  33.082  1.00  0.00     0.034 A 
BRANCH  48  62
ATOM     62  C   UNL A   1      40.444  32.081  35.355  1.00  0.00     0.023 A 
ATOM     63  C   UNL A   1      41.240  33.234  35.505  1.00  0.00     0.012 A 
ATOM     64  C   UNL A   1      39.358  31.872  36.229  1.00  0.00     0.148 A 
ATOM     65  C   UNL A   1      40.981  34.149  36.524  1.00  0.00     0.002 A 
ATOM     66  C   UNL A   1      39.083  32.809  37.219  1.00  0.00     0.091 A 
ATOM     67  F   UNL A   1      38.625  30.759  36.085  1.00  0.00    -0.205 F 
ATOM     68  C   UNL A   1      39.898  33.943  37.373  1.00  0.00     0.022 A 
BRANCH  66  69
ATOM     69  S   UNL A   1      37.665  32.667  38.314  1.00  0.00     0.127 S 
ATOM     70  O   UNL A   1      36.553  32.855  37.383  1.00  0.00    -0.237 OA
ATOM     71  O   UNL A   1      37.805  31.305  38.828  1.00  0.00    -0.237 OA
ATOM     72  O   UNL A   1      37.830  33.711  39.316  1.00  0.00    -0.744 OA
ENDBRANCH  66  69
ENDBRANCH  48  62
BRANCH  49  73
ATOM     73  C   UNL A   1      42.202  26.214  27.487  1.00  0.00     0.023 A 
ATOM     74  C   UNL A   1      42.858  26.782  26.376  1.00  0.00     0.012 A 
ATOM     75  C   UNL A   1      41.869  24.846  27.463  1.00  0.00     0.148 A 
ATOM     76  C   UNL A   1      43.152  26.010  25.252  1.00  0.00     0.002 A 
ATOM     77  C   UNL A   1      42.211  24.071  26.360  1.00  0.00     0.091 A 
ATOM     78  F   UNL A   1      41.230  24.328  28.521  1.00  0.00    -0.205 F 
ATOM     79  C   UNL A   1      42.838  24.653  25.248  1.00  0.00     0.022 A 
BRANCH  77  80
ATOM     80  S   UNL A   1      41.962  22.292  26.325  1.00  0.00     0.127 S 
ATOM     81  O   UNL A   1      40.526  22.196  26.080  1.00  0.00    -0.237 OA
ATOM     82  O   UNL A   1      42.808  21.886  25.202  1.00  0.00    -0.237 OA
ATOM     83  O   UNL A   1      42.420  21.810  27.622  1.00  0.00    -0.744 OA
ENDBRANCH  77  80
ENDBRANCH  49  73
BRANCH  61  84
ATOM     84  C   UNL A   1      45.260  26.974  33.719  1.00  0.00     0.023 A 
ATOM     85  C   UNL A   1      46.522  27.588  33.596  1.00  0.00     0.012 A 
ATOM     86  C   UNL A   1      45.130  25.809  34.500  1.00  0.00     0.148 A 
ATOM     87  C   UNL A   1      47.641  27.038  34.218  1.00  0.00     0.002 A 
ATOM     88  C   UNL A   1      46.243  25.291  35.153  1.00  0.00     0.091 A 
ATOM     89  F   UNL A   1      43.926  25.226  34.587  1.00  0.00    -0.205 F 
ATOM     90  C   UNL A   1      47.501  25.898  35.006  1.00  0.00     0.022 A 
BRANCH  88  91
ATOM     91  S   UNL A   1      46.134  23.878  36.259  1.00  0.00     0.127 S 
ATOM     92  O   UNL A   1      47.537  23.652  36.595  1.00  0.00    -0.237 OA
ATOM     93  O   UNL A   1      45.320  24.401  37.357  1.00  0.00    -0.237 OA
ATOM     94  O   UNL A   1      45.493  22.819  35.489  1.00  0.00    -0.744 OA
ENDBRANCH  88  91
ENDBRANCH  61  84
ENDBRANCH  35  36
ENDBRANCH  27  30
ENDBRANCH  25  26
ENDBRANCH  24  25
ENDBRANCH  23  24
ENDBRANCH   3  23
TORSDOF 19
ENDMDL
MODEL 2
REMARK VINA RESULT:     -11.2      1.484      7.859
REMARK SMILES O=C(CNC(=O)CNC(=O)OCc1ccccc1)NCCCNC(=O)c1ccc(-c2c3nc(c(-c4cccc(S(=O)(=O)[O-])c4F)c4ccc([nH]4)c(-c4cccc(S(=O)(=O)[O-])c4F)c4nc(c(-c5cccc(S(=O)(=O)[O-])c5F)c5ccc2[nH]5)C=C4)C=C3)cc1
REMARK SMILES IDX 1 1 2 2 19 3 3 5 4 6 5 7 6 9 7 10 8 11 9 12 10 14 11 15
REMARK SMILES IDX 12 16 13 17 14 18 18 19 15 20 17 21 16 22 20 23 21 24 22 25
REMARK SMILES IDX 23 26 24 27 25 29 26 30 27 31 88 32 28 33 87 34 29 35 30 36
REMARK SMILES IDX 31 37 81 38 32 39 86 40 80 41 82 42 33 43 85 44 79 45 78 46
REMARK SMILES IDX 34 48 66 49 46 50 65 51 47 52 50 53 64 54 83 55 48 56 49 57
REMARK SMILES IDX 63 59 84 60 51 61 35 62 36 63 44 64 37 65 39 66 45 67 38 68
REMARK SMILES IDX 40 69 41 70 42 71 43 72 67 73 68 74 76 75 69 76 71 77 77 78
REMARK SMILES IDX 70 79 72 80 73 81 74 82 75 83 52 84 53 85 61 86 54 87 56 88
REMARK SMILES IDX 62 89 55 90 57 91 58 92 59 93 60 94
REMARK H PARENT 19 4 4 8 8 13 23 28 82 47 50 58
REMARK Flexibility Score: inf
ROOT
ATOM      1  O   UNL A   1      31.974  26.495  26.349  1.00  0.00    -0.273 OA
ATOM      2  C   UNL A   1      31.157  26.707  25.456  1.00  0.00     0.239 C 
ATOM      3  N   UNL A   1      31.294  27.711  24.524  1.00  0.00    -0.355 N 
ATOM      4  H   UNL A   1      30.656  27.752  23.775  1.00  0.00     0.163 HD
ENDROOT
BRANCH   2   5
ATOM      5  C   UNL A   1      29.954  25.776  25.247  1.00  0.00     0.216 C 
BRANCH   5   6
ATOM      6  N   UNL A   1      29.710  24.866  26.360  1.00  0.00    -0.346 N 
ATOM      7  C   UNL A   1      30.212  23.619  26.592  1.00  0.00     0.239 C 
ATOM      8  H   UNL A   1      29.091  25.202  27.047  1.00  0.00     0.164 HD
ATOM      9  O   UNL A   1      29.903  23.056  27.644  1.00  0.00    -0.273 OA
BRANCH   7  10
ATOM     10  C   UNL A   1      31.091  22.934  25.547  1.00  0.00     0.219 C 
BRANCH  10  11
ATOM     11  N   UNL A   1      32.458  23.364  25.764  1.00  0.00    -0.312 N 
ATOM     12  C   UNL A   1      33.575  22.601  25.651  1.00  0.00     0.407 C 
ATOM     13  H   UNL A   1      32.590  24.306  26.018  1.00  0.00     0.167 HD
ATOM     14  O   UNL A   1      34.629  22.979  26.152  1.00  0.00    -0.225 OA
BRANCH  12  15
ATOM     15  O   UNL A   1      33.371  21.428  25.012  1.00  0.00    -0.445 OA
BRANCH  15  16
ATOM     16  C   UNL A   1      34.518  20.567  24.916  1.00  0.00     0.270 C 
BRANCH  16  17
ATOM     17  C   UNL A   1      34.179  19.189  24.400  1.00  0.00    -0.011 A 
ATOM     18  C   UNL A   1      33.012  18.958  23.660  1.00  0.00     0.007 A 
ATOM     19  C   UNL A   1      35.036  18.110  24.660  1.00  0.00     0.007 A 
ATOM     20  C   UNL A   1      32.711  17.672  23.201  1.00  0.00     0.000 A 
ATOM     21  C   UNL A   1      34.745  16.833  24.186  1.00  0.00     0.000 A 
ATOM     22  C   UNL A   1      33.579  16.612  23.460  1.00  0.00     0.000 A 
ENDBRANCH  16  17
ENDBRANCH  15  16
ENDBRANCH  12  15
ENDBRANCH  10  11
ENDBRANCH   7  10
ENDBRANCH   5   6
ENDBRANCH   2   5
BRANCH   3  23
ATOM     23  C   UNL A   1      32.344  28.711  24.601  1.00  0.00     0.117 C 
BRANCH  23  24
ATOM     24  C   UNL A   1      31.854  30.099  25.005  1.00  0.00     0.042 C 
BRANCH  24  25
ATOM     25  C   UNL A   1      31.994  30.435  26.488  1.00  0.00     0.118 C 
BRANCH  25  26
ATOM     26  N   UNL A   1      31.968  31.863  26.775  1.00  0.00    -0.352 N 
ATOM     27  C   UNL A   1      32.859  32.662  27.449  1.00  0.00     0.251 C 
ATOM     28  H   UNL A   1      31.179  32.335  26.425  1.00  0.00     0.163 HD
ATOM     29  O   UNL A   1      32.584  33.853  27.593  1.00  0.00    -0.269 OA
BRANCH  27  30
ATOM     30  C   UNL A   1      34.112  32.127  28.034  1.00  0.00     0.039 A 
ATOM     31  C   UNL A   1      35.191  33.006  28.191  1.00  0.00     0.014 A 
ATOM     32  C   UNL A   1      34.263  30.785  28.394  1.00  0.00     0.014 A 
ATOM     33  C   UNL A   1      36.385  32.563  28.770  1.00  0.00     0.010 A 
ATOM     34  C   UNL A   1      35.433  30.359  29.028  1.00  0.00     0.010 A 
ATOM     35  C   UNL A   1      36.505  31.242  29.229  1.00  0.00    -0.014 A 
BRANCH  35  36
ATOM     36  C   UNL A   1      37.724  30.786  29.950  1.00  0.00     0.031 A 
ATOM     37  C   UNL A   1      38.668  29.797  29.319  1.00  0.00     0.074 A 
ATOM     38  C   UNL A   1      37.938  31.199  31.215  1.00  0.00     0.049 A 
ATOM     39  N   UNL A   1      39.743  29.247  29.823  1.00  0.00    -0.248 NA
ATOM     40  C   UNL A   1      38.352  29.351  27.953  1.00  0.00     0.031 C 
ATOM     41  C   UNL A   1      37.064  32.098  31.970  1.00  0.00     0.029 A 
ATOM     42  N   UNL A   1      38.944  30.895  32.101  1.00  0.00    -0.354 N 
ATOM     43  C   UNL A   1      40.211  28.366  28.857  1.00  0.00     0.074 A 
ATOM     44  C   UNL A   1      39.290  28.438  27.742  1.00  0.00     0.031 C 
ATOM     45  C   UNL A   1      37.566  32.269  33.204  1.00  0.00     0.029 A 
ATOM     46  C   UNL A   1      38.784  31.476  33.337  1.00  0.00     0.049 A 
ATOM     47  H   UNL A   1      39.706  30.315  31.872  1.00  0.00     0.167 HD
ATOM     48  C   UNL A   1      41.321  27.590  28.879  1.00  0.00     0.034 A 
ATOM     49  C   UNL A   1      39.527  31.378  34.457  1.00  0.00     0.034 A 
ATOM     50  C   UNL A   1      42.266  27.555  29.964  1.00  0.00     0.049 A 
ATOM     51  C   UNL A   1      40.781  30.545  34.439  1.00  0.00     0.074 A 
ATOM     52  C   UNL A   1      43.466  26.870  30.039  1.00  0.00     0.029 A 
ATOM     53  N   UNL A   1      42.120  28.233  31.165  1.00  0.00    -0.354 N 
ATOM     54  N   UNL A   1      41.293  29.848  33.454  1.00  0.00    -0.248 NA
ATOM     55  C   UNL A   1      41.578  30.514  35.674  1.00  0.00     0.031 C 
ATOM     56  C   UNL A   1      44.041  27.124  31.289  1.00  0.00     0.029 A 
ATOM     57  C   UNL A   1      43.204  27.978  31.989  1.00  0.00     0.049 A 
ATOM     58  H   UNL A   1      41.358  28.811  31.397  1.00  0.00     0.167 HD
ATOM     59  C   UNL A   1      42.486  29.324  33.938  1.00  0.00     0.074 A 
ATOM     60  C   UNL A   1      42.632  29.801  35.298  1.00  0.00     0.031 C 
ATOM     61  C   UNL A   1      43.371  28.506  33.317  1.00  0.00     0.034 A 
BRANCH  48  62
ATOM     62  C   UNL A   1      41.615  26.753  27.662  1.00  0.00     0.023 A 
ATOM     63  C   UNL A   1      42.193  27.363  26.530  1.00  0.00     0.012 A 
ATOM     64  C   UNL A   1      41.386  25.363  27.657  1.00  0.00     0.148 A 
ATOM     65  C   UNL A   1      42.510  26.611  25.401  1.00  0.00     0.002 A 
ATOM     66  C   UNL A   1      41.742  24.612  26.541  1.00  0.00     0.091 A 
ATOM     67  F   UNL A   1      40.816  24.803  28.733  1.00  0.00    -0.205 F 
ATOM     68  C   UNL A   1      42.295  25.235  25.410  1.00  0.00     0.022 A 
BRANCH  66  69
ATOM     69  S   UNL A   1      41.571  22.824  26.486  1.00  0.00     0.127 S 
ATOM     70  O   UNL A   1      42.274  22.498  25.247  1.00  0.00    -0.237 OA
ATOM     71  O   UNL A   1      42.263  22.408  27.706  1.00  0.00    -0.237 OA
ATOM     72  O   UNL A   1      40.138  22.561  26.485  1.00  0.00    -0.744 OA
ENDBRANCH  66  69
ENDBRANCH  48  62
BRANCH  49  73
ATOM     73  C   UNL A   1      39.145  32.154  35.671  1.00  0.00     0.023 A 
ATOM     74  C   UNL A   1      39.535  33.504  35.774  1.00  0.00     0.012 A 
ATOM     75  C   UNL A   1      38.375  31.581  36.701  1.00  0.00     0.148 A 
ATOM     76  C   UNL A   1      39.187  34.262  36.892  1.00  0.00     0.002 A 
ATOM     77  C   UNL A   1      37.988  32.357  37.788  1.00  0.00     0.091 A 
ATOM     78  F   UNL A   1      38.030  30.290  36.594  1.00  0.00    -0.205 F 
ATOM     79  C   UNL A   1      38.406  33.692  37.894  1.00  0.00     0.022 A 
BRANCH  77  80
ATOM     80  S   UNL A   1      36.875  31.740  39.057  1.00  0.00     0.127 S 
ATOM     81  O   UNL A   1      36.808  30.319  38.731  1.00  0.00    -0.237 OA
ATOM     82  O   UNL A   1      37.606  32.057  40.285  1.00  0.00    -0.237 OA
ATOM     83  O   UNL A   1      35.639  32.492  38.887  1.00  0.00    -0.744 OA
ENDBRANCH  77  80
ENDBRANCH  49  73
BRANCH  61  84
ATOM     84  C   UNL A   1      44.598  28.089  34.087  1.00  0.00     0.023 A 
ATOM     85  C   UNL A   1      45.748  28.902  34.056  1.00  0.00     0.012 A 
ATOM     86  C   UNL A   1      44.585  26.938  34.899  1.00  0.00     0.148 A 
ATOM     87  C   UNL A   1      46.876  28.561  34.799  1.00  0.00     0.002 A 
ATOM     88  C   UNL A   1      45.699  26.629  35.672  1.00  0.00     0.091 A 
ATOM     89  F   UNL A   1      43.490  26.165  34.899  1.00  0.00    -0.205 F 
ATOM     90  C   UNL A   1      46.848  27.433  35.616  1.00  0.00     0.022 A 
BRANCH  88  91
ATOM     91  S   UNL A   1      45.715  25.245  36.819  1.00  0.00     0.127 S 
ATOM     92  O   UNL A   1      47.117  25.214  37.230  1.00  0.00    -0.237 OA
ATOM     93  O   UNL A   1      44.785  25.688  37.858  1.00  0.00    -0.237 OA
ATOM     94  O   UNL A   1      45.258  24.091  36.055  1.00  0.00    -0.744 OA
ENDBRANCH  88  91
ENDBRANCH  61  84
ENDBRANCH  35  36
ENDBRANCH  27  30
ENDBRANCH  25  26
ENDBRANCH  24  25
ENDBRANCH  23  24
ENDBRANCH   3  23
TORSDOF 19
ENDMDL
MODEL 3
REMARK VINA RESULT:     -11.1      5.198     10.242
REMARK SMILES O=C(CNC(=O)CNC(=O)OCc1ccccc1)NCCCNC(=O)c1ccc(-c2c3nc(c(-c4cccc(S(=O)(=O)[O-])c4F)c4ccc([nH]4)c(-c4cccc(S(=O)(=O)[O-])c4F)c4nc(c(-c5cccc(S(=O)(=O)[O-])c5F)c5ccc2[nH]5)C=C4)C=C3)cc1
REMARK SMILES IDX 1 1 2 2 19 3 3 5 4 6 5 7 6 9 7 10 8 11 9 12 10 14 11 15
REMARK SMILES IDX 12 16 13 17 14 18 18 19 15 20 17 21 16 22 20 23 21 24 22 25
REMARK SMILES IDX 23 26 24 27 25 29 26 30 27 31 88 32 28 33 87 34 29 35 30 36
REMARK SMILES IDX 31 37 81 38 32 39 86 40 80 41 82 42 33 43 85 44 79 45 78 46
REMARK SMILES IDX 34 48 66 49 46 50 65 51 47 52 50 53 64 54 83 55 48 56 49 57
REMARK SMILES IDX 63 59 84 60 51 61 35 62 36 63 44 64 37 65 39 66 45 67 38 68
REMARK SMILES IDX 40 69 41 70 42 71 43 72 67 73 68 74 76 75 69 76 71 77 77 78
REMARK SMILES IDX 70 79 72 80 73 81 74 82 75 83 52 84 53 85 61 86 54 87 56 88
REMARK SMILES IDX 62 89 55 90 57 91 58 92 59 93 60 94
REMARK H PARENT 19 4 4 8 8 13 23 28 82 47 50 58
REMARK Flexibility Score: inf
ROOT
ATOM      1  O   UNL A   1      32.853  23.923  23.867  1.00  0.00    -0.273 OA
ATOM      2  C   UNL A   1      33.570  24.162  24.835  1.00  0.00     0.239 C 
ATOM      3  N   UNL A   1      34.141  23.183  25.618  1.00  0.00    -0.355 N 
ATOM      4  H   UNL A   1      34.789  23.449  26.310  1.00  0.00     0.163 HD
ENDROOT
BRANCH   2   5
ATOM      5  C   UNL A   1      33.977  25.602  25.182  1.00  0.00     0.216 C 
BRANCH   5   6
ATOM      6  N   UNL A   1      33.177  26.203  26.242  1.00  0.00    -0.346 N 
ATOM      7  C   UNL A   1      32.029  26.936  26.159  1.00  0.00     0.239 C 
ATOM      8  H   UNL A   1      33.517  26.060  27.155  1.00  0.00     0.164 HD
ATOM      9  O   UNL A   1      31.494  27.295  27.209  1.00  0.00    -0.273 OA
BRANCH   7  10
ATOM     10  C   UNL A   1      31.462  27.330  24.796  1.00  0.00     0.219 C 
BRANCH  10  11
ATOM     11  N   UNL A   1      30.339  26.459  24.512  1.00  0.00    -0.312 N 
ATOM     12  C   UNL A   1      29.196  26.797  23.863  1.00  0.00     0.407 C 
ATOM     13  H   UNL A   1      30.413  25.527  24.821  1.00  0.00     0.167 HD
ATOM     14  O   UNL A   1      28.204  26.080  23.954  1.00  0.00    -0.225 OA
BRANCH  12  15
ATOM     15  O   UNL A   1      29.273  27.973  23.202  1.00  0.00    -0.445 OA
BRANCH  15  16
ATOM     16  C   UNL A   1      28.013  28.587  22.881  1.00  0.00     0.270 C 
BRANCH  16  17
ATOM     17  C   UNL A   1      28.145  30.044  22.510  1.00  0.00    -0.011 A 
ATOM     18  C   UNL A   1      28.028  30.468  21.180  1.00  0.00     0.007 A 
ATOM     19  C   UNL A   1      28.392  31.003  23.504  1.00  0.00     0.007 A 
ATOM     20  C   UNL A   1      28.164  31.822  20.856  1.00  0.00     0.000 A 
ATOM     21  C   UNL A   1      28.509  32.354  23.183  1.00  0.00     0.000 A 
ATOM     22  C   UNL A   1      28.400  32.763  21.857  1.00  0.00     0.000 A 
ENDBRANCH  16  17
ENDBRANCH  15  16
ENDBRANCH  12  15
ENDBRANCH  10  11
ENDBRANCH   7  10
ENDBRANCH   5   6
ENDBRANCH   2   5
BRANCH   3  23
ATOM     23  C   UNL A   1      33.826  21.775  25.463  1.00  0.00     0.117 C 
BRANCH  23  24
ATOM     24  C   UNL A   1      35.047  20.878  25.288  1.00  0.00     0.042 C 
BRANCH  24  25
ATOM     25  C   UNL A   1      36.398  21.575  25.442  1.00  0.00     0.118 C 
BRANCH  25  26
ATOM     26  N   UNL A   1      37.531  20.661  25.497  1.00  0.00    -0.352 N 
ATOM     27  C   UNL A   1      38.843  20.874  25.841  1.00  0.00     0.251 C 
ATOM     28  H   UNL A   1      37.319  19.733  25.247  1.00  0.00     0.163 HD
ATOM     29  O   UNL A   1      39.628  19.930  25.767  1.00  0.00    -0.269 OA
BRANCH  27  30
ATOM     30  C   UNL A   1      39.342  22.207  26.258  1.00  0.00     0.039 A 
ATOM     31  C   UNL A   1      40.366  22.255  27.212  1.00  0.00     0.014 A 
ATOM     32  C   UNL A   1      38.807  23.401  25.768  1.00  0.00     0.014 A 
ATOM     33  C   UNL A   1      40.899  23.483  27.617  1.00  0.00     0.010 A 
ATOM     34  C   UNL A   1      39.380  24.624  26.125  1.00  0.00     0.010 A 
ATOM     35  C   UNL A   1      40.435  24.680  27.048  1.00  0.00    -0.014 A 
BRANCH  35  36
ATOM     36  C   UNL A   1      41.068  25.985  27.380  1.00  0.00     0.031 A 
ATOM     37  C   UNL A   1      42.493  26.273  26.988  1.00  0.00     0.074 A 
ATOM     38  C   UNL A   1      40.384  26.885  28.115  1.00  0.00     0.049 A 
ATOM     39  N   UNL A   1      43.221  27.331  27.245  1.00  0.00    -0.248 NA
ATOM     40  C   UNL A   1      43.199  25.231  26.226  1.00  0.00     0.031 C 
ATOM     41  C   UNL A   1      39.024  26.701  28.624  1.00  0.00     0.029 A 
ATOM     42  N   UNL A   1      40.749  28.122  28.588  1.00  0.00    -0.354 N 
ATOM     43  C   UNL A   1      44.476  27.068  26.712  1.00  0.00     0.074 A 
ATOM     44  C   UNL A   1      44.419  25.742  26.135  1.00  0.00     0.031 C 
ATOM     45  C   UNL A   1      38.670  27.781  29.340  1.00  0.00     0.029 A 
ATOM     46  C   UNL A   1      39.784  28.724  29.362  1.00  0.00     0.049 A 
ATOM     47  H   UNL A   1      41.619  28.538  28.392  1.00  0.00     0.167 HD
ATOM     48  C   UNL A   1      45.570  27.867  26.679  1.00  0.00     0.034 A 
ATOM     49  C   UNL A   1      39.793  29.898  30.023  1.00  0.00     0.034 A 
ATOM     50  C   UNL A   1      45.614  29.206  27.206  1.00  0.00     0.049 A 
ATOM     51  C   UNL A   1      41.005  30.787  29.930  1.00  0.00     0.074 A 
ATOM     52  C   UNL A   1      46.648  30.123  27.138  1.00  0.00     0.029 A 
ATOM     53  N   UNL A   1      44.583  29.818  27.901  1.00  0.00    -0.354 N 
ATOM     54  N   UNL A   1      42.125  30.587  29.279  1.00  0.00    -0.248 NA
ATOM     55  C   UNL A   1      40.940  32.077  30.631  1.00  0.00     0.031 C 
ATOM     56  C   UNL A   1      46.245  31.289  27.801  1.00  0.00     0.029 A 
ATOM     57  C   UNL A   1      44.956  31.100  28.271  1.00  0.00     0.049 A 
ATOM     58  H   UNL A   1      43.713  29.404  28.100  1.00  0.00     0.167 HD
ATOM     59  C   UNL A   1      42.883  31.737  29.464  1.00  0.00     0.074 A 
ATOM     60  C   UNL A   1      42.086  32.639  30.270  1.00  0.00     0.031 C 
ATOM     61  C   UNL A   1      44.134  32.013  29.021  1.00  0.00     0.034 A 
BRANCH  48  62
ATOM     62  C   UNL A   1      46.802  27.340  25.991  1.00  0.00     0.023 A 
ATOM     63  C   UNL A   1      46.947  27.527  24.601  1.00  0.00     0.012 A 
ATOM     64  C   UNL A   1      47.840  26.725  26.718  1.00  0.00     0.148 A 
ATOM     65  C   UNL A   1      48.090  27.082  23.939  1.00  0.00     0.002 A 
ATOM     66  C   UNL A   1      48.995  26.319  26.056  1.00  0.00     0.091 A 
ATOM     67  F   UNL A   1      47.676  26.536  28.034  1.00  0.00    -0.205 F 
ATOM     68  C   UNL A   1      49.118  26.490  24.668  1.00  0.00     0.022 A 
BRANCH  66  69
ATOM     69  S   UNL A   1      50.404  25.612  26.920  1.00  0.00     0.127 S 
ATOM     70  O   UNL A   1      50.775  26.703  27.820  1.00  0.00    -0.237 OA
ATOM     71  O   UNL A   1      49.810  24.451  27.584  1.00  0.00    -0.237 OA
ATOM     72  O   UNL A   1      51.379  25.285  25.890  1.00  0.00    -0.744 OA
ENDBRANCH  66  69
ENDBRANCH  48  62
BRANCH  49  73
ATOM     73  C   UNL A   1      38.581  30.338  30.770  1.00  0.00     0.023 A 
ATOM     74  C   UNL A   1      38.466  30.024  32.139  1.00  0.00     0.012 A 
ATOM     75  C   UNL A   1      37.565  31.090  30.150  1.00  0.00     0.148 A 
ATOM     76  C   UNL A   1      37.349  30.427  32.871  1.00  0.00     0.002 A 
ATOM     77  C   UNL A   1      36.479  31.533  30.898  1.00  0.00     0.091 A 
ATOM     78  F   UNL A   1      37.683  31.364  28.844  1.00  0.00    -0.205 F 
ATOM     79  C   UNL A   1      36.361  31.190  32.253  1.00  0.00     0.022 A 
BRANCH  77  80
ATOM     80  S   UNL A   1      35.229  32.628  30.215  1.00  0.00     0.127 S 
ATOM     81  O   UNL A   1      36.017  33.813  29.887  1.00  0.00    -0.237 OA
ATOM     82  O   UNL A   1      34.752  31.866  29.060  1.00  0.00    -0.237 OA
ATOM     83  O   UNL A   1      34.239  32.794  31.271  1.00  0.00    -0.744 OA
ENDBRANCH  77  80
ENDBRANCH  49  73
BRANCH  61  84
ATOM     84  C   UNL A   1      44.720  33.357  29.371  1.00  0.00     0.023 A 
ATOM     85  C   UNL A   1      45.481  33.498  30.549  1.00  0.00     0.012 A 
ATOM     86  C   UNL A   1      44.584  34.455  28.499  1.00  0.00     0.148 A 
ATOM     87  C   UNL A   1      46.074  34.718  30.867  1.00  0.00     0.002 A 
ATOM     88  C   UNL A   1      45.215  35.656  28.802  1.00  0.00     0.091 A 
ATOM     89  F   UNL A   1      43.839  34.308  27.395  1.00  0.00    -0.205 F 
ATOM     90  C   UNL A   1      45.952  35.793  29.989  1.00  0.00     0.022 A 
BRANCH  88  91
ATOM     91  S   UNL A   1      45.184  37.063  27.684  1.00  0.00     0.127 S 
ATOM     92  O   UNL A   1      45.967  38.051  28.424  1.00  0.00    -0.237 OA
ATOM     93  O   UNL A   1      45.845  36.530  26.491  1.00  0.00    -0.237 OA
ATOM     94  O   UNL A   1      43.776  37.389  27.495  1.00  0.00    -0.744 OA
ENDBRANCH  88  91
ENDBRANCH  61  84
ENDBRANCH  35  36
ENDBRANCH  27  30
ENDBRANCH  25  26
ENDBRANCH  24  25
ENDBRANCH  23  24
ENDBRANCH   3  23
TORSDOF 19
ENDMDL
