MODEL 1
REMARK VINA RESULT:     -11.9      0.000      0.000
REMARK SMILES Cc1nn(Cc2nc(C(C)(C)C)cs2)c(C)c1C(=O)NCCCNC(=O)c1ccc(-c2c3nc(c(-c4cccc(S(=O)(=O)[O-])c4F)c4ccc([nH]4)c(-c4cccc(S(=O)(=O)[O-])c4F)c4nc(c(-c5cccc(S(=O)(=O)[O-])c5F)c5ccc2[nH]5)C=C4)C=C3)cc1
REMARK SMILES IDX 22 1 21 2 20 3 18 4 19 5 17 7 1 8 2 9 3 10 4 11 15 12 16 13
REMARK SMILES IDX 5 14 6 15 7 16 14 17 8 18 13 19 9 20 10 21 11 22 12 23 23 24
REMARK SMILES IDX 24 25 25 26 26 28 27 29 28 30 89 31 29 32 88 33 30 34 31 35
REMARK SMILES IDX 32 36 82 37 33 38 87 39 81 40 83 41 34 42 86 43 80 44 79 45
REMARK SMILES IDX 35 47 67 48 47 49 66 50 48 51 51 52 65 53 84 54 49 55 50 56
REMARK SMILES IDX 64 58 85 59 52 60 36 61 37 62 45 63 38 64 40 65 46 66 39 67
REMARK SMILES IDX 41 68 42 69 43 70 44 71 68 72 69 73 77 74 70 75 72 76 78 77
REMARK SMILES IDX 71 78 73 79 74 80 75 81 76 82 53 83 54 84 62 85 55 86 57 87
REMARK SMILES IDX 63 88 56 89 58 90 59 91 60 92 61 93
REMARK H PARENT 20 6 24 27 83 46 51 57
REMARK Flexibility Score: inf
ROOT
ATOM      1  C   UNL A   1      37.720  19.647  24.934  1.00  0.00     0.042 C 
ENDROOT
BRANCH   1   2
ATOM      2  C   UNL A   1      36.668  20.740  24.713  1.00  0.00     0.118 C 
BRANCH   2   3
ATOM      3  N   UNL A   1      35.438  20.427  25.404  1.00  0.00    -0.352 N 
ATOM      4  C   UNL A   1      34.165  20.930  25.362  1.00  0.00     0.255 C 
ATOM      5  O   UNL A   1      33.381  20.368  26.127  1.00  0.00    -0.269 OA
ATOM      6  H   UNL A   1      35.537  19.690  26.048  1.00  0.00     0.163 HD
BRANCH   4   7
ATOM      7  C   UNL A   1      33.707  21.990  24.453  1.00  0.00     0.083 A 
ATOM      8  C   UNL A   1      32.167  20.993  22.508  1.00  0.00     0.069 C 
ATOM      9  C   UNL A   1      32.840  22.038  23.313  1.00  0.00     0.072 A 
ATOM     10  N   UNL A   1      32.661  23.285  22.871  1.00  0.00    -0.177 NA
ATOM     11  N   UNL A   1      33.594  24.004  23.505  1.00  0.00    -0.262 N 
ATOM     12  C   UNL A   1      34.205  23.304  24.514  1.00  0.00     0.049 A 
ATOM     13  C   UNL A   1      35.229  23.942  25.396  1.00  0.00     0.067 C 
BRANCH  11  14
ATOM     14  C   UNL A   1      33.783  25.394  23.108  1.00  0.00     0.212 C 
BRANCH  14  15
ATOM     15  C   UNL A   1      32.857  26.298  23.862  1.00  0.00     0.114 A 
ATOM     16  N   UNL A   1      33.228  27.150  24.797  1.00  0.00    -0.244 NA
ATOM     17  S   UNL A   1      31.178  26.335  23.487  1.00  0.00    -0.125 S 
ATOM     18  C   UNL A   1      32.131  27.796  25.352  1.00  0.00     0.057 A 
ATOM     19  C   UNL A   1      30.935  27.496  24.724  1.00  0.00     0.091 A 
BRANCH  18  20
ATOM     20  C   UNL A   1      32.369  28.699  26.554  1.00  0.00     0.005 C 
ATOM     21  C   UNL A   1      31.938  30.139  26.207  1.00  0.00     0.017 C 
ATOM     22  C   UNL A   1      31.539  28.210  27.758  1.00  0.00     0.017 C 
ATOM     23  C   UNL A   1      33.851  28.730  26.978  1.00  0.00     0.017 C 
ENDBRANCH  18  20
ENDBRANCH  14  15
ENDBRANCH  11  14
ENDBRANCH   4   7
ENDBRANCH   2   3
ENDBRANCH   1   2
BRANCH   1  24
ATOM     24  C   UNL A   1      38.954  20.140  25.668  1.00  0.00     0.118 C 
BRANCH  24  25
ATOM     25  N   UNL A   1      40.014  19.133  25.716  1.00  0.00    -0.352 N 
ATOM     26  C   UNL A   1      41.368  19.330  25.930  1.00  0.00     0.251 C 
ATOM     27  H   UNL A   1      39.730  18.200  25.579  1.00  0.00     0.163 HD
ATOM     28  O   UNL A   1      42.181  18.481  25.617  1.00  0.00    -0.269 OA
BRANCH  26  29
ATOM     29  C   UNL A   1      41.796  20.605  26.535  1.00  0.00     0.039 A 
ATOM     30  C   UNL A   1      42.244  21.667  25.743  1.00  0.00     0.014 A 
ATOM     31  C   UNL A   1      41.670  20.744  27.912  1.00  0.00     0.014 A 
ATOM     32  C   UNL A   1      42.474  22.903  26.344  1.00  0.00     0.010 A 
ATOM     33  C   UNL A   1      41.720  21.996  28.464  1.00  0.00     0.010 A 
ATOM     34  C   UNL A   1      42.186  23.068  27.705  1.00  0.00    -0.014 A 
BRANCH  34  35
ATOM     35  C   UNL A   1      42.284  24.373  28.352  1.00  0.00     0.031 A 
ATOM     36  C   UNL A   1      41.121  25.286  28.167  1.00  0.00     0.074 A 
ATOM     37  C   UNL A   1      43.241  24.639  29.268  1.00  0.00     0.049 A 
ATOM     38  N   UNL A   1      41.115  26.440  27.584  1.00  0.00    -0.248 NA
ATOM     39  C   UNL A   1      39.791  24.827  28.588  1.00  0.00     0.031 C 
ATOM     40  C   UNL A   1      44.270  23.729  29.790  1.00  0.00     0.029 A 
ATOM     41  N   UNL A   1      43.374  25.730  30.069  1.00  0.00    -0.354 N 
ATOM     42  C   UNL A   1      39.830  26.953  27.763  1.00  0.00     0.074 A 
ATOM     43  C   UNL A   1      39.020  25.850  28.212  1.00  0.00     0.031 C 
ATOM     44  C   UNL A   1      44.700  24.181  30.987  1.00  0.00     0.029 A 
ATOM     45  C   UNL A   1      44.126  25.491  31.215  1.00  0.00     0.049 A 
ATOM     46  H   UNL A   1      42.976  26.606  29.858  1.00  0.00     0.167 HD
ATOM     47  C   UNL A   1      39.589  28.294  27.749  1.00  0.00     0.034 A 
ATOM     48  C   UNL A   1      44.234  26.295  32.299  1.00  0.00     0.034 A 
ATOM     49  C   UNL A   1      40.724  29.030  27.255  1.00  0.00     0.049 A 
ATOM     50  C   UNL A   1      43.846  27.657  31.867  1.00  0.00     0.074 A 
ATOM     51  C   UNL A   1      41.464  29.025  26.090  1.00  0.00     0.029 A 
ATOM     52  N   UNL A   1      41.493  29.689  28.186  1.00  0.00    -0.354 N 
ATOM     53  N   UNL A   1      44.541  28.366  31.021  1.00  0.00    -0.248 NA
ATOM     54  C   UNL A   1      42.462  28.069  32.038  1.00  0.00     0.031 C 
ATOM     55  C   UNL A   1      42.811  29.226  26.515  1.00  0.00     0.029 A 
ATOM     56  C   UNL A   1      42.802  29.407  27.900  1.00  0.00     0.049 A 
ATOM     57  H   UNL A   1      41.165  30.256  28.921  1.00  0.00     0.167 HD
ATOM     58  C   UNL A   1      43.586  28.984  30.224  1.00  0.00     0.074 A 
ATOM     59  C   UNL A   1      42.338  28.872  30.977  1.00  0.00     0.031 C 
ATOM     60  C   UNL A   1      43.831  29.253  28.905  1.00  0.00     0.034 A 
BRANCH  47  61
ATOM     61  C   UNL A   1      38.480  29.006  28.494  1.00  0.00     0.023 A 
ATOM     62  C   UNL A   1      37.632  29.851  27.739  1.00  0.00     0.012 A 
ATOM     63  C   UNL A   1      38.398  29.114  29.900  1.00  0.00     0.148 A 
ATOM     64  C   UNL A   1      36.796  30.794  28.347  1.00  0.00     0.002 A 
ATOM     65  C   UNL A   1      37.504  29.995  30.502  1.00  0.00     0.091 A 
ATOM     66  F   UNL A   1      39.277  28.471  30.673  1.00  0.00    -0.205 F 
ATOM     67  C   UNL A   1      36.726  30.861  29.731  1.00  0.00     0.022 A 
BRANCH  65  68
ATOM     68  S   UNL A   1      37.333  30.076  32.289  1.00  0.00     0.127 S 
ATOM     69  O   UNL A   1      38.604  30.678  32.678  1.00  0.00    -0.237 OA
ATOM     70  O   UNL A   1      36.163  30.940  32.443  1.00  0.00    -0.237 OA
ATOM     71  O   UNL A   1      37.115  28.698  32.715  1.00  0.00    -0.744 OA
ENDBRANCH  65  68
ENDBRANCH  47  61
BRANCH  48  72
ATOM     72  C   UNL A   1      44.496  25.944  33.711  1.00  0.00     0.023 A 
ATOM     73  C   UNL A   1      43.417  25.756  34.594  1.00  0.00     0.012 A 
ATOM     74  C   UNL A   1      45.785  25.552  34.140  1.00  0.00     0.148 A 
ATOM     75  C   UNL A   1      43.607  25.170  35.851  1.00  0.00     0.002 A 
ATOM     76  C   UNL A   1      45.972  24.981  35.395  1.00  0.00     0.091 A 
ATOM     77  F   UNL A   1      46.811  25.655  33.284  1.00  0.00    -0.205 F 
ATOM     78  C   UNL A   1      44.882  24.777  36.250  1.00  0.00     0.022 A 
BRANCH  76  79
ATOM     79  S   UNL A   1      47.588  24.439  35.968  1.00  0.00     0.127 S 
ATOM     80  O   UNL A   1      48.487  25.358  35.270  1.00  0.00    -0.237 OA
ATOM     81  O   UNL A   1      47.486  24.657  37.408  1.00  0.00    -0.237 OA
ATOM     82  O   UNL A   1      47.706  23.051  35.540  1.00  0.00    -0.744 OA
ENDBRANCH  76  79
ENDBRANCH  48  72
BRANCH  60  83
ATOM     83  C   UNL A   1      45.240  29.081  28.384  1.00  0.00     0.023 A 
ATOM     84  C   UNL A   1      46.225  30.076  28.550  1.00  0.00     0.012 A 
ATOM     85  C   UNL A   1      45.631  27.818  27.904  1.00  0.00     0.148 A 
ATOM     86  C   UNL A   1      47.562  29.829  28.226  1.00  0.00     0.002 A 
ATOM     87  C   UNL A   1      46.969  27.560  27.630  1.00  0.00     0.091 A 
ATOM     88  F   UNL A   1      44.689  26.875  27.755  1.00  0.00    -0.205 F 
ATOM     89  C   UNL A   1      47.937  28.566  27.780  1.00  0.00     0.022 A 
BRANCH  87  90
ATOM     90  S   UNL A   1      47.533  25.914  27.190  1.00  0.00     0.127 S 
ATOM     91  O   UNL A   1      47.122  25.128  28.351  1.00  0.00    -0.237 OA
ATOM     92  O   UNL A   1      46.781  25.637  25.964  1.00  0.00    -0.237 OA
ATOM     93  O   UNL A   1      48.973  26.030  26.984  1.00  0.00    -0.744 OA
ENDBRANCH  87  90
ENDBRANCH  60  83
ENDBRANCH  34  35
ENDBRANCH  26  29
ENDBRANCH  24  25
ENDBRANCH   1  24
TORSDOF 16
ENDMDL
MODEL 2
REMARK VINA RESULT:     -11.8      3.102      7.794
REMARK SMILES Cc1nn(Cc2nc(C(C)(C)C)cs2)c(C)c1C(=O)NCCCNC(=O)c1ccc(-c2c3nc(c(-c4cccc(S(=O)(=O)[O-])c4F)c4ccc([nH]4)c(-c4cccc(S(=O)(=O)[O-])c4F)c4nc(c(-c5cccc(S(=O)(=O)[O-])c5F)c5ccc2[nH]5)C=C4)C=C3)cc1
REMARK SMILES IDX 22 1 21 2 20 3 18 4 19 5 17 7 1 8 2 9 3 10 4 11 15 12 16 13
REMARK SMILES IDX 5 14 6 15 7 16 14 17 8 18 13 19 9 20 10 21 11 22 12 23 23 24
REMARK SMILES IDX 24 25 25 26 26 28 27 29 28 30 89 31 29 32 88 33 30 34 31 35
REMARK SMILES IDX 32 36 82 37 33 38 87 39 81 40 83 41 34 42 86 43 80 44 79 45
REMARK SMILES IDX 35 47 67 48 47 49 66 50 48 51 51 52 65 53 84 54 49 55 50 56
REMARK SMILES IDX 64 58 85 59 52 60 36 61 37 62 45 63 38 64 40 65 46 66 39 67
REMARK SMILES IDX 41 68 42 69 43 70 44 71 68 72 69 73 77 74 70 75 72 76 78 77
REMARK SMILES IDX 71 78 73 79 74 80 75 81 76 82 53 83 54 84 62 85 55 86 57 87
REMARK SMILES IDX 63 88 56 89 58 90 59 91 60 92 61 93
REMARK H PARENT 20 6 24 27 83 46 51 57
REMARK Flexibility Score: inf
ROOT
ATOM      1  C   UNL A   1      33.531  29.001  25.172  1.00  0.00     0.042 C 
ENDROOT
BRANCH   1   2
ATOM      2  C   UNL A   1      32.059  28.579  25.238  1.00  0.00     0.118 C 
BRANCH   2   3
ATOM      3  N   UNL A   1      31.457  28.579  23.925  1.00  0.00    -0.352 N 
ATOM      4  C   UNL A   1      30.991  27.600  23.087  1.00  0.00     0.255 C 
ATOM      5  O   UNL A   1      30.534  28.028  22.026  1.00  0.00    -0.269 OA
ATOM      6  H   UNL A   1      31.360  29.483  23.548  1.00  0.00     0.163 HD
BRANCH   4   7
ATOM      7  C   UNL A   1      30.949  26.167  23.408  1.00  0.00     0.083 A 
ATOM      8  C   UNL A   1      29.870  25.750  25.818  1.00  0.00     0.069 C 
ATOM      9  C   UNL A   1      30.438  25.391  24.499  1.00  0.00     0.072 A 
ATOM     10  N   UNL A   1      30.561  24.079  24.281  1.00  0.00    -0.177 NA
ATOM     11  N   UNL A   1      31.378  23.988  23.226  1.00  0.00    -0.262 N 
ATOM     12  C   UNL A   1      31.589  25.197  22.615  1.00  0.00     0.049 A 
ATOM     13  C   UNL A   1      32.415  25.310  21.374  1.00  0.00     0.067 C 
BRANCH  11  14
ATOM     14  C   UNL A   1      31.859  22.667  22.838  1.00  0.00     0.212 C 
BRANCH  14  15
ATOM     15  C   UNL A   1      32.959  22.208  23.744  1.00  0.00     0.114 A 
ATOM     16  N   UNL A   1      34.206  22.635  23.697  1.00  0.00    -0.244 NA
ATOM     17  S   UNL A   1      32.633  21.092  25.013  1.00  0.00    -0.125 S 
ATOM     18  C   UNL A   1      34.998  21.972  24.624  1.00  0.00     0.057 A 
ATOM     19  C   UNL A   1      34.289  21.122  25.454  1.00  0.00     0.091 A 
BRANCH  18  20
ATOM     20  C   UNL A   1      36.498  22.234  24.595  1.00  0.00     0.005 C 
ATOM     21  C   UNL A   1      36.878  22.888  23.250  1.00  0.00     0.017 C 
ATOM     22  C   UNL A   1      36.891  23.191  25.739  1.00  0.00     0.017 C 
ATOM     23  C   UNL A   1      37.322  20.941  24.752  1.00  0.00     0.017 C 
ENDBRANCH  18  20
ENDBRANCH  14  15
ENDBRANCH  11  14
ENDBRANCH   4   7
ENDBRANCH   2   3
ENDBRANCH   1   2
BRANCH   1  24
ATOM     24  C   UNL A   1      34.128  29.310  26.533  1.00  0.00     0.118 C 
BRANCH  24  25
ATOM     25  N   UNL A   1      34.038  30.730  26.872  1.00  0.00    -0.352 N 
ATOM     26  C   UNL A   1      34.773  31.429  27.815  1.00  0.00     0.251 C 
ATOM     27  H   UNL A   1      33.372  31.253  26.369  1.00  0.00     0.163 HD
ATOM     28  O   UNL A   1      34.386  32.502  28.240  1.00  0.00    -0.269 OA
BRANCH  26  29
ATOM     29  C   UNL A   1      36.031  30.830  28.299  1.00  0.00     0.039 A 
ATOM     30  C   UNL A   1      36.252  29.452  28.224  1.00  0.00     0.014 A 
ATOM     31  C   UNL A   1      37.020  31.688  28.764  1.00  0.00     0.014 A 
ATOM     32  C   UNL A   1      37.516  28.955  28.534  1.00  0.00     0.010 A 
ATOM     33  C   UNL A   1      38.302  31.223  28.891  1.00  0.00     0.010 A 
ATOM     34  C   UNL A   1      38.547  29.852  28.844  1.00  0.00    -0.014 A 
BRANCH  34  35
ATOM     35  C   UNL A   1      39.918  29.394  29.047  1.00  0.00     0.031 A 
ATOM     36  C   UNL A   1      40.361  29.253  30.462  1.00  0.00     0.074 A 
ATOM     37  C   UNL A   1      40.651  28.884  28.032  1.00  0.00     0.049 A 
ATOM     38  N   UNL A   1      41.312  29.896  31.056  1.00  0.00    -0.248 NA
ATOM     39  C   UNL A   1      39.599  28.366  31.353  1.00  0.00     0.031 C 
ATOM     40  C   UNL A   1      40.237  28.665  26.640  1.00  0.00     0.029 A 
ATOM     41  N   UNL A   1      41.866  28.274  28.082  1.00  0.00    -0.354 N 
ATOM     42  C   UNL A   1      41.418  29.337  32.329  1.00  0.00     0.074 A 
ATOM     43  C   UNL A   1      40.230  28.546  32.516  1.00  0.00     0.031 C 
ATOM     44  C   UNL A   1      41.032  27.730  26.079  1.00  0.00     0.029 A 
ATOM     45  C   UNL A   1      42.112  27.435  26.999  1.00  0.00     0.049 A 
ATOM     46  H   UNL A   1      42.510  28.413  28.814  1.00  0.00     0.167 HD
ATOM     47  C   UNL A   1      42.583  29.385  33.035  1.00  0.00     0.034 A 
ATOM     48  C   UNL A   1      43.108  26.527  26.885  1.00  0.00     0.034 A 
ATOM     49  C   UNL A   1      43.525  30.298  32.438  1.00  0.00     0.049 A 
ATOM     50  C   UNL A   1      44.162  26.918  27.848  1.00  0.00     0.074 A 
ATOM     51  C   UNL A   1      43.519  31.640  32.115  1.00  0.00     0.029 A 
ATOM     52  N   UNL A   1      44.565  29.745  31.729  1.00  0.00    -0.354 N 
ATOM     53  N   UNL A   1      44.870  28.009  27.733  1.00  0.00    -0.248 NA
ATOM     54  C   UNL A   1      44.142  26.325  29.174  1.00  0.00     0.031 C 
ATOM     55  C   UNL A   1      44.216  31.717  30.873  1.00  0.00     0.029 A 
ATOM     56  C   UNL A   1      44.659  30.432  30.549  1.00  0.00     0.049 A 
ATOM     57  H   UNL A   1      45.135  28.995  32.015  1.00  0.00     0.167 HD
ATOM     58  C   UNL A   1      44.981  28.485  29.033  1.00  0.00     0.074 A 
ATOM     59  C   UNL A   1      44.635  27.346  29.882  1.00  0.00     0.031 C 
ATOM     60  C   UNL A   1      45.043  29.827  29.292  1.00  0.00     0.034 A 
BRANCH  47  61
ATOM     61  C   UNL A   1      43.043  28.374  34.062  1.00  0.00     0.023 A 
ATOM     62  C   UNL A   1      43.450  28.871  35.323  1.00  0.00     0.012 A 
ATOM     63  C   UNL A   1      43.359  27.027  33.777  1.00  0.00     0.148 A 
ATOM     64  C   UNL A   1      44.186  28.092  36.223  1.00  0.00     0.002 A 
ATOM     65  C   UNL A   1      44.018  26.231  34.709  1.00  0.00     0.091 A 
ATOM     66  F   UNL A   1      43.154  26.536  32.551  1.00  0.00    -0.205 F 
ATOM     67  C   UNL A   1      44.464  26.767  35.919  1.00  0.00     0.022 A 
BRANCH  65  68
ATOM     68  S   UNL A   1      44.347  24.494  34.387  1.00  0.00     0.127 S 
ATOM     69  O   UNL A   1      45.256  24.161  35.479  1.00  0.00    -0.237 OA
ATOM     70  O   UNL A   1      43.011  23.908  34.490  1.00  0.00    -0.237 OA
ATOM     71  O   UNL A   1      44.911  24.454  33.043  1.00  0.00    -0.744 OA
ENDBRANCH  65  68
ENDBRANCH  47  61
BRANCH  48  72
ATOM     72  C   UNL A   1      43.150  25.263  26.119  1.00  0.00     0.023 A 
ATOM     73  C   UNL A   1      44.113  25.092  25.107  1.00  0.00     0.012 A 
ATOM     74  C   UNL A   1      42.414  24.130  26.538  1.00  0.00     0.148 A 
ATOM     75  C   UNL A   1      44.358  23.831  24.551  1.00  0.00     0.002 A 
ATOM     76  C   UNL A   1      42.653  22.881  25.973  1.00  0.00     0.091 A 
ATOM     77  F   UNL A   1      41.547  24.260  27.551  1.00  0.00    -0.205 F 
ATOM     78  C   UNL A   1      43.633  22.725  24.986  1.00  0.00     0.022 A 
BRANCH  76  79
ATOM     79  S   UNL A   1      41.763  21.408  26.498  1.00  0.00     0.127 S 
ATOM     80  O   UNL A   1      42.131  21.313  27.911  1.00  0.00    -0.237 OA
ATOM     81  O   UNL A   1      40.376  21.790  26.252  1.00  0.00    -0.237 OA
ATOM     82  O   UNL A   1      42.283  20.325  25.673  1.00  0.00    -0.744 OA
ENDBRANCH  76  79
ENDBRANCH  48  72
BRANCH  60  83
ATOM     83  C   UNL A   1      45.223  30.778  28.132  1.00  0.00     0.023 A 
ATOM     84  C   UNL A   1      44.126  31.298  27.414  1.00  0.00     0.012 A 
ATOM     85  C   UNL A   1      46.500  31.318  27.893  1.00  0.00     0.148 A 
ATOM     86  C   UNL A   1      44.297  32.311  26.467  1.00  0.00     0.002 A 
ATOM     87  C   UNL A   1      46.660  32.360  26.988  1.00  0.00     0.091 A 
ATOM     88  F   UNL A   1      47.538  30.823  28.586  1.00  0.00    -0.205 F 
ATOM     89  C   UNL A   1      45.562  32.853  26.265  1.00  0.00     0.022 A 
BRANCH  87  90
ATOM     90  S   UNL A   1      48.237  33.194  26.790  1.00  0.00     0.127 S 
ATOM     91  O   UNL A   1      49.121  32.093  26.414  1.00  0.00    -0.237 OA
ATOM     92  O   UNL A   1      47.958  34.150  25.715  1.00  0.00    -0.237 OA
ATOM     93  O   UNL A   1      48.519  33.819  28.077  1.00  0.00    -0.744 OA
ENDBRANCH  87  90
ENDBRANCH  60  83
ENDBRANCH  34  35
ENDBRANCH  26  29
ENDBRANCH  24  25
ENDBRANCH   1  24
TORSDOF 16
ENDMDL
MODEL 3
REMARK VINA RESULT:     -11.7      3.011      8.060
REMARK SMILES Cc1nn(Cc2nc(C(C)(C)C)cs2)c(C)c1C(=O)NCCCNC(=O)c1ccc(-c2c3nc(c(-c4cccc(S(=O)(=O)[O-])c4F)c4ccc([nH]4)c(-c4cccc(S(=O)(=O)[O-])c4F)c4nc(c(-c5cccc(S(=O)(=O)[O-])c5F)c5ccc2[nH]5)C=C4)C=C3)cc1
REMARK SMILES IDX 22 1 21 2 20 3 18 4 19 5 17 7 1 8 2 9 3 10 4 11 15 12 16 13
REMARK SMILES IDX 5 14 6 15 7 16 14 17 8 18 13 19 9 20 10 21 11 22 12 23 23 24
REMARK SMILES IDX 24 25 25 26 26 28 27 29 28 30 89 31 29 32 88 33 30 34 31 35
REMARK SMILES IDX 32 36 82 37 33 38 87 39 81 40 83 41 34 42 86 43 80 44 79 45
REMARK SMILES IDX 35 47 67 48 47 49 66 50 48 51 51 52 65 53 84 54 49 55 50 56
REMARK SMILES IDX 64 58 85 59 52 60 36 61 37 62 45 63 38 64 40 65 46 66 39 67
REMARK SMILES IDX 41 68 42 69 43 70 44 71 68 72 69 73 77 74 70 75 72 76 78 77
REMARK SMILES IDX 71 78 73 79 74 80 75 81 76 82 53 83 54 84 62 85 55 86 57 87
REMARK SMILES IDX 63 88 56 89 58 90 59 91 60 92 61 93
REMARK H PARENT 20 6 24 27 83 46 51 57
REMARK Flexibility Score: inf
ROOT
ATOM      1  C   UNL A   1      33.428  28.738  27.192  1.00  0.00     0.042 C 
ENDROOT
BRANCH   1   2
ATOM      2  C   UNL A   1      32.295  28.790  26.161  1.00  0.00     0.118 C 
BRANCH   2   3
ATOM      3  N   UNL A   1      31.345  27.723  26.376  1.00  0.00    -0.352 N 
ATOM      4  C   UNL A   1      31.347  26.377  26.120  1.00  0.00     0.255 C 
ATOM      5  O   UNL A   1      30.316  25.802  26.471  1.00  0.00    -0.269 OA
ATOM      6  H   UNL A   1      30.512  28.031  26.800  1.00  0.00     0.163 HD
BRANCH   4   7
ATOM      7  C   UNL A   1      32.476  25.629  25.553  1.00  0.00     0.083 A 
ATOM      8  C   UNL A   1      33.316  26.737  23.269  1.00  0.00     0.069 C 
ATOM      9  C   UNL A   1      33.331  25.799  24.415  1.00  0.00     0.072 A 
ATOM     10  N   UNL A   1      34.297  24.879  24.372  1.00  0.00    -0.177 NA
ATOM     11  N   UNL A   1      33.932  23.964  25.276  1.00  0.00    -0.262 N 
ATOM     12  C   UNL A   1      32.892  24.386  26.064  1.00  0.00     0.049 A 
ATOM     13  C   UNL A   1      32.373  23.546  27.186  1.00  0.00     0.067 C 
BRANCH  11  14
ATOM     14  C   UNL A   1      34.696  22.724  25.351  1.00  0.00     0.212 C 
BRANCH  14  15
ATOM     15  C   UNL A   1      33.931  21.585  24.749  1.00  0.00     0.114 A 
ATOM     16  N   UNL A   1      34.158  20.309  24.995  1.00  0.00    -0.244 NA
ATOM     17  S   UNL A   1      32.599  21.886  23.704  1.00  0.00    -0.125 S 
ATOM     18  C   UNL A   1      33.326  19.497  24.235  1.00  0.00     0.057 A 
ATOM     19  C   UNL A   1      32.385  20.198  23.503  1.00  0.00     0.091 A 
BRANCH  18  20
ATOM     20  C   UNL A   1      33.564  17.994  24.282  1.00  0.00     0.005 C 
ATOM     21  C   UNL A   1      32.737  17.380  25.430  1.00  0.00     0.017 C 
ATOM     22  C   UNL A   1      33.125  17.346  22.953  1.00  0.00     0.017 C 
ATOM     23  C   UNL A   1      35.046  17.643  24.516  1.00  0.00     0.017 C 
ENDBRANCH  18  20
ENDBRANCH  14  15
ENDBRANCH  11  14
ENDBRANCH   4   7
ENDBRANCH   2   3
ENDBRANCH   1   2
BRANCH   1  24
ATOM     24  C   UNL A   1      34.515  29.768  26.941  1.00  0.00     0.118 C 
BRANCH  24  25
ATOM     25  N   UNL A   1      34.245  31.038  27.613  1.00  0.00    -0.352 N 
ATOM     26  C   UNL A   1      34.846  31.544  28.754  1.00  0.00     0.251 C 
ATOM     27  H   UNL A   1      33.551  31.605  27.204  1.00  0.00     0.163 HD
ATOM     28  O   UNL A   1      34.317  32.429  29.400  1.00  0.00    -0.269 OA
BRANCH  26  29
ATOM     29  C   UNL A   1      36.137  30.967  29.173  1.00  0.00     0.039 A 
ATOM     30  C   UNL A   1      36.243  29.624  29.546  1.00  0.00     0.014 A 
ATOM     31  C   UNL A   1      37.261  31.783  29.112  1.00  0.00     0.014 A 
ATOM     32  C   UNL A   1      37.508  29.085  29.768  1.00  0.00     0.010 A 
ATOM     33  C   UNL A   1      38.505  31.210  29.151  1.00  0.00     0.010 A 
ATOM     34  C   UNL A   1      38.640  29.880  29.544  1.00  0.00    -0.014 A 
BRANCH  34  35
ATOM     35  C   UNL A   1      39.989  29.327  29.633  1.00  0.00     0.031 A 
ATOM     36  C   UNL A   1      40.535  29.149  31.007  1.00  0.00     0.074 A 
ATOM     37  C   UNL A   1      40.598  28.771  28.562  1.00  0.00     0.049 A 
ATOM     38  N   UNL A   1      41.575  29.722  31.519  1.00  0.00    -0.248 NA
ATOM     39  C   UNL A   1      39.790  28.314  31.960  1.00  0.00     0.031 C 
ATOM     40  C   UNL A   1      40.055  28.587  27.209  1.00  0.00     0.029 A 
ATOM     41  N   UNL A   1      41.767  28.079  28.512  1.00  0.00    -0.354 N 
ATOM     42  C   UNL A   1      41.747  29.152  32.780  1.00  0.00     0.074 A 
ATOM     43  C   UNL A   1      40.526  28.444  33.066  1.00  0.00     0.031 C 
ATOM     44  C   UNL A   1      40.735  27.602  26.586  1.00  0.00     0.029 A 
ATOM     45  C   UNL A   1      41.863  27.229  27.414  1.00  0.00     0.049 A 
ATOM     46  H   UNL A   1      42.477  28.169  29.188  1.00  0.00     0.167 HD
ATOM     47  C   UNL A   1      42.967  29.116  33.387  1.00  0.00     0.034 A 
ATOM     48  C   UNL A   1      42.781  26.254  27.219  1.00  0.00     0.034 A 
ATOM     49  C   UNL A   1      43.917  29.963  32.713  1.00  0.00     0.049 A 
ATOM     50  C   UNL A   1      43.936  26.567  28.091  1.00  0.00     0.074 A 
ATOM     51  C   UNL A   1      43.979  31.304  32.389  1.00  0.00     0.029 A 
ATOM     52  N   UNL A   1      44.854  29.342  31.921  1.00  0.00    -0.354 N 
ATOM     53  N   UNL A   1      44.706  27.606  27.916  1.00  0.00    -0.248 NA
ATOM     54  C   UNL A   1      43.984  25.971  29.415  1.00  0.00     0.031 C 
ATOM     55  C   UNL A   1      44.574  31.337  31.094  1.00  0.00     0.029 A 
ATOM     56  C   UNL A   1      44.898  30.026  30.736  1.00  0.00     0.049 A 
ATOM     57  H   UNL A   1      45.392  28.553  32.160  1.00  0.00     0.167 HD
ATOM     58  C   UNL A   1      44.957  28.068  29.201  1.00  0.00     0.074 A 
ATOM     59  C   UNL A   1      44.604  26.952  30.078  1.00  0.00     0.031 C 
ATOM     60  C   UNL A   1      45.134  29.401  29.452  1.00  0.00     0.034 A 
BRANCH  47  61
ATOM     61  C   UNL A   1      43.438  28.070  34.374  1.00  0.00     0.023 A 
ATOM     62  C   UNL A   1      43.999  28.533  35.589  1.00  0.00     0.012 A 
ATOM     63  C   UNL A   1      43.619  26.703  34.070  1.00  0.00     0.148 A 
ATOM     64  C   UNL A   1      44.751  27.698  36.422  1.00  0.00     0.002 A 
ATOM     65  C   UNL A   1      44.297  25.857  34.943  1.00  0.00     0.091 A 
ATOM     66  F   UNL A   1      43.263  26.231  32.872  1.00  0.00    -0.205 F 
ATOM     67  C   UNL A   1      44.894  26.355  36.102  1.00  0.00     0.022 A 
BRANCH  65  68
ATOM     68  S   UNL A   1      44.456  24.099  34.604  1.00  0.00     0.127 S 
ATOM     69  O   UNL A   1      43.107  23.623  34.889  1.00  0.00    -0.237 OA
ATOM     70  O   UNL A   1      44.830  24.096  33.190  1.00  0.00    -0.237 OA
ATOM     71  O   UNL A   1      45.509  23.631  35.498  1.00  0.00    -0.744 OA
ENDBRANCH  65  68
ENDBRANCH  47  61
BRANCH  48  72
ATOM     72  C   UNL A   1      42.671  24.993  26.454  1.00  0.00     0.023 A 
ATOM     73  C   UNL A   1      43.660  24.662  25.510  1.00  0.00     0.012 A 
ATOM     74  C   UNL A   1      41.737  23.996  26.819  1.00  0.00     0.148 A 
ATOM     75  C   UNL A   1      43.736  23.373  24.968  1.00  0.00     0.002 A 
ATOM     76  C   UNL A   1      41.809  22.720  26.268  1.00  0.00     0.091 A 
ATOM     77  F   UNL A   1      40.835  24.272  27.772  1.00  0.00    -0.205 F 
ATOM     78  C   UNL A   1      42.816  22.401  25.350  1.00  0.00     0.022 A 
BRANCH  76  79
ATOM     79  S   UNL A   1      40.662  21.414  26.728  1.00  0.00     0.127 S 
ATOM     80  O   UNL A   1      41.195  20.264  25.997  1.00  0.00    -0.237 OA
ATOM     81  O   UNL A   1      40.837  21.353  28.176  1.00  0.00    -0.237 OA
ATOM     82  O   UNL A   1      39.356  21.862  26.261  1.00  0.00    -0.744 OA
ENDBRANCH  76  79
ENDBRANCH  48  72
BRANCH  60  83
ATOM     83  C   UNL A   1      45.283  30.342  28.280  1.00  0.00     0.023 A 
ATOM     84  C   UNL A   1      44.169  30.830  27.566  1.00  0.00     0.012 A 
ATOM     85  C   UNL A   1      46.546  30.906  28.024  1.00  0.00     0.148 A 
ATOM     86  C   UNL A   1      44.310  31.835  26.605  1.00  0.00     0.002 A 
ATOM     87  C   UNL A   1      46.676  31.941  27.105  1.00  0.00     0.091 A 
ATOM     88  F   UNL A   1      47.600  30.443  28.713  1.00  0.00    -0.205 F 
ATOM     89  C   UNL A   1      45.561  32.402  26.386  1.00  0.00     0.022 A 
BRANCH  87  90
ATOM     90  S   UNL A   1      48.232  32.807  26.883  1.00  0.00     0.127 S 
ATOM     91  O   UNL A   1      49.126  31.729  26.467  1.00  0.00    -0.237 OA
ATOM     92  O   UNL A   1      47.910  33.776  25.833  1.00  0.00    -0.237 OA
ATOM     93  O   UNL A   1      48.535  33.414  28.174  1.00  0.00    -0.744 OA
ENDBRANCH  87  90
ENDBRANCH  60  83
ENDBRANCH  34  35
ENDBRANCH  26  29
ENDBRANCH  24  25
ENDBRANCH   1  24
TORSDOF 16
ENDMDL
