MODEL 1
REMARK VINA RESULT:     -13.0      0.000      0.000
REMARK SMILES C[N@@H+](Cc1ccc2nsnc2c1)Cc1ccccc1C(=O)NCCCNC(=O)c1ccc(-c2c3nc(c(-c4cccc(S(=O)(=O)[O-])c4F)c4ccc([nH]4)c(-c4cccc(S(=O)(=O)[O-])c4F)c4nc(c(-c5cccc(S(=O)(=O)[O-])c5F)c5ccc2[nH]5)C=C4)C=C3)cc1
REMARK SMILES IDX 23 1 22 2 20 3 21 4 19 6 14 7 15 8 16 9 18 10 17 11 13 12
REMARK SMILES IDX 2 13 1 14 3 16 4 17 5 18 12 19 6 20 11 21 7 22 10 23 8 24
REMARK SMILES IDX 9 25 24 26 25 27 26 28 27 29 28 31 29 32 30 33 91 34 31 35
REMARK SMILES IDX 90 36 32 37 33 38 34 39 84 40 35 41 89 42 83 43 85 44 36 45
REMARK SMILES IDX 88 46 82 47 81 48 37 50 69 51 49 52 68 53 50 54 53 55 67 56
REMARK SMILES IDX 86 57 51 58 52 59 66 61 87 62 54 63 38 64 39 65 47 66 40 67
REMARK SMILES IDX 42 68 48 69 41 70 43 71 44 72 45 73 46 74 70 75 71 76 79 77
REMARK SMILES IDX 72 78 74 79 80 80 73 81 75 82 76 83 77 84 78 85 55 86 56 87
REMARK SMILES IDX 64 88 57 89 59 90 65 91 58 92 60 93 61 94 62 95 63 96
REMARK H PARENT 22 5 2 15 26 30 85 49 53 60
REMARK Flexibility Score: inf
ROOT
ATOM      1  C   UNL A   1      35.514  23.098  26.234  1.00  0.00     0.118 C 
ENDROOT
BRANCH   1   2
ATOM      2  N   UNL A   1      34.185  23.175  26.787  1.00  0.00    -0.352 N 
ATOM      3  C   UNL A   1      33.139  23.957  26.371  1.00  0.00     0.251 C 
ATOM      4  O   UNL A   1      32.032  23.776  26.884  1.00  0.00    -0.269 OA
ATOM      5  H   UNL A   1      34.007  22.593  27.560  1.00  0.00     0.163 HD
BRANCH   3   6
ATOM      6  C   UNL A   1      33.317  25.088  25.421  1.00  0.00     0.048 A 
ATOM      7  C   UNL A   1      33.348  25.060  24.010  1.00  0.00     0.019 A 
ATOM      8  C   UNL A   1      33.615  26.290  23.354  1.00  0.00     0.010 A 
ATOM      9  C   UNL A   1      33.742  27.499  24.038  1.00  0.00     0.001 A 
ATOM     10  C   UNL A   1      33.422  26.328  26.099  1.00  0.00     0.014 A 
ATOM     11  C   UNL A   1      33.620  27.524  25.415  1.00  0.00     0.001 A 
BRANCH   7  12
ATOM     12  C   UNL A   1      33.138  23.870  23.085  1.00  0.00     0.299 C 
BRANCH  12  13
ATOM     13  N   UNL A   1      31.936  23.052  23.196  1.00  0.00    -0.330 N 
ATOM     14  C   UNL A   1      30.646  23.681  23.352  1.00  0.00     0.333 C 
ATOM     15  H   UNL A   1      32.083  22.803  24.173  1.00  0.00     0.348 HD
BRANCH  13  16
ATOM     16  C   UNL A   1      31.942  21.760  22.527  1.00  0.00     0.299 C 
BRANCH  16  17
ATOM     17  C   UNL A   1      32.346  20.576  23.379  1.00  0.00     0.009 A 
ATOM     18  C   UNL A   1      32.480  20.721  24.791  1.00  0.00     0.012 A 
ATOM     19  C   UNL A   1      32.545  19.332  22.736  1.00  0.00     0.041 A 
ATOM     20  C   UNL A   1      32.751  19.655  25.667  1.00  0.00     0.032 A 
ATOM     21  C   UNL A   1      32.822  18.228  23.571  1.00  0.00     0.105 A 
ATOM     22  C   UNL A   1      32.919  18.390  25.064  1.00  0.00     0.104 A 
ATOM     23  N   UNL A   1      33.014  16.963  23.160  1.00  0.00    -0.173 NA
ATOM     24  N   UNL A   1      33.174  17.238  25.704  1.00  0.00    -0.173 NA
ATOM     25  S   UNL A   1      33.270  16.065  24.533  1.00  0.00     0.069 S 
ENDBRANCH  16  17
ENDBRANCH  13  16
ENDBRANCH  12  13
ENDBRANCH   7  12
ENDBRANCH   3   6
ENDBRANCH   1   2
BRANCH   1  26
ATOM     26  C   UNL A   1      35.917  21.753  25.680  1.00  0.00     0.042 C 
BRANCH  26  27
ATOM     27  C   UNL A   1      37.172  21.791  24.815  1.00  0.00     0.118 C 
BRANCH  27  28
ATOM     28  N   UNL A   1      38.237  20.858  25.198  1.00  0.00    -0.352 N 
ATOM     29  C   UNL A   1      39.348  20.998  26.008  1.00  0.00     0.251 C 
ATOM     30  H   UNL A   1      38.142  19.961  24.803  1.00  0.00     0.163 HD
ATOM     31  O   UNL A   1      40.122  20.068  26.154  1.00  0.00    -0.269 OA
BRANCH  29  32
ATOM     32  C   UNL A   1      39.620  22.301  26.651  1.00  0.00     0.039 A 
ATOM     33  C   UNL A   1      40.572  22.383  27.670  1.00  0.00     0.014 A 
ATOM     34  C   UNL A   1      39.006  23.453  26.175  1.00  0.00     0.014 A 
ATOM     35  C   UNL A   1      41.018  23.640  28.091  1.00  0.00     0.010 A 
ATOM     36  C   UNL A   1      39.571  24.682  26.464  1.00  0.00     0.010 A 
ATOM     37  C   UNL A   1      40.583  24.798  27.428  1.00  0.00    -0.014 A 
BRANCH  37  38
ATOM     38  C   UNL A   1      41.161  26.144  27.690  1.00  0.00     0.031 A 
ATOM     39  C   UNL A   1      42.558  26.458  27.215  1.00  0.00     0.074 A 
ATOM     40  C   UNL A   1      40.507  27.018  28.484  1.00  0.00     0.049 A 
ATOM     41  N   UNL A   1      43.320  27.479  27.507  1.00  0.00    -0.248 NA
ATOM     42  C   UNL A   1      43.213  25.457  26.354  1.00  0.00     0.031 C 
ATOM     43  C   UNL A   1      39.201  26.793  29.111  1.00  0.00     0.029 A 
ATOM     44  N   UNL A   1      40.870  28.266  28.928  1.00  0.00    -0.354 N 
ATOM     45  C   UNL A   1      44.558  27.201  26.938  1.00  0.00     0.074 A 
ATOM     46  C   UNL A   1      44.462  25.893  26.331  1.00  0.00     0.031 C 
ATOM     47  C   UNL A   1      38.863  27.875  29.832  1.00  0.00     0.029 A 
ATOM     48  C   UNL A   1      39.939  28.855  29.753  1.00  0.00     0.049 A 
ATOM     49  H   UNL A   1      41.717  28.700  28.678  1.00  0.00     0.167 HD
ATOM     50  C   UNL A   1      45.663  27.981  26.879  1.00  0.00     0.034 A 
ATOM     51  C   UNL A   1      39.951  30.051  30.375  1.00  0.00     0.034 A 
ATOM     52  C   UNL A   1      45.710  29.328  27.372  1.00  0.00     0.049 A 
ATOM     53  C   UNL A   1      41.135  30.958  30.173  1.00  0.00     0.074 A 
ATOM     54  C   UNL A   1      46.729  30.255  27.248  1.00  0.00     0.029 A 
ATOM     55  N   UNL A   1      44.681  29.948  28.061  1.00  0.00    -0.354 N 
ATOM     56  N   UNL A   1      42.236  30.739  29.496  1.00  0.00    -0.248 NA
ATOM     57  C   UNL A   1      41.064  32.293  30.784  1.00  0.00     0.031 C 
ATOM     58  C   UNL A   1      46.310  31.442  27.858  1.00  0.00     0.029 A 
ATOM     59  C   UNL A   1      45.030  31.253  28.356  1.00  0.00     0.049 A 
ATOM     60  H   UNL A   1      43.826  29.523  28.305  1.00  0.00     0.167 HD
ATOM     61  C   UNL A   1      42.969  31.917  29.566  1.00  0.00     0.074 A 
ATOM     62  C   UNL A   1      42.178  32.856  30.335  1.00  0.00     0.031 C 
ATOM     63  C   UNL A   1      44.195  32.193  29.057  1.00  0.00     0.034 A 
BRANCH  50  64
ATOM     64  C   UNL A   1      46.873  27.427  26.171  1.00  0.00     0.023 A 
ATOM     65  C   UNL A   1      47.726  26.534  26.852  1.00  0.00     0.012 A 
ATOM     66  C   UNL A   1      47.150  27.759  24.831  1.00  0.00     0.148 A 
ATOM     67  C   UNL A   1      48.861  26.018  26.229  1.00  0.00     0.002 A 
ATOM     68  C   UNL A   1      48.257  27.202  24.201  1.00  0.00     0.091 A 
ATOM     69  F   UNL A   1      46.342  28.627  24.204  1.00  0.00    -0.205 F 
ATOM     70  C   UNL A   1      49.120  26.344  24.902  1.00  0.00     0.022 A 
BRANCH  68  71
ATOM     71  S   UNL A   1      48.632  27.492  22.468  1.00  0.00     0.127 S 
ATOM     72  O   UNL A   1      48.693  26.128  21.946  1.00  0.00    -0.237 OA
ATOM     73  O   UNL A   1      47.469  28.263  22.025  1.00  0.00    -0.237 OA
ATOM     74  O   UNL A   1      49.888  28.228  22.449  1.00  0.00    -0.744 OA
ENDBRANCH  68  71
ENDBRANCH  50  64
BRANCH  51  75
ATOM     75  C   UNL A   1      38.762  30.504  31.151  1.00  0.00     0.023 A 
ATOM     76  C   UNL A   1      38.735  30.288  32.545  1.00  0.00     0.012 A 
ATOM     77  C   UNL A   1      37.681  31.169  30.541  1.00  0.00     0.148 A 
ATOM     78  C   UNL A   1      37.640  30.691  33.309  1.00  0.00     0.002 A 
ATOM     79  C   UNL A   1      36.616  31.615  31.317  1.00  0.00     0.091 A 
ATOM     80  F   UNL A   1      37.719  31.359  29.214  1.00  0.00    -0.205 F 
ATOM     81  C   UNL A   1      36.585  31.363  32.697  1.00  0.00     0.022 A 
BRANCH  79  82
ATOM     82  S   UNL A   1      35.277  32.601  30.634  1.00  0.00     0.127 S 
ATOM     83  O   UNL A   1      35.965  33.839  30.282  1.00  0.00    -0.237 OA
ATOM     84  O   UNL A   1      34.849  31.786  29.495  1.00  0.00    -0.237 OA
ATOM     85  O   UNL A   1      34.288  32.701  31.699  1.00  0.00    -0.744 OA
ENDBRANCH  79  82
ENDBRANCH  51  75
BRANCH  63  86
ATOM     86  C   UNL A   1      44.745  33.576  29.269  1.00  0.00     0.023 A 
ATOM     87  C   UNL A   1      45.579  33.832  30.374  1.00  0.00     0.012 A 
ATOM     88  C   UNL A   1      44.513  34.593  28.323  1.00  0.00     0.148 A 
ATOM     89  C   UNL A   1      46.156  35.090  30.548  1.00  0.00     0.002 A 
ATOM     90  C   UNL A   1      45.127  35.829  28.478  1.00  0.00     0.091 A 
ATOM     91  F   UNL A   1      43.698  34.333  27.290  1.00  0.00    -0.205 F 
ATOM     92  C   UNL A   1      45.940  36.082  29.594  1.00  0.00     0.022 A 
BRANCH  90  93
ATOM     93  S   UNL A   1      44.982  37.129  27.247  1.00  0.00     0.127 S 
ATOM     94  O   UNL A   1      45.916  36.672  26.219  1.00  0.00    -0.237 OA
ATOM     95  O   UNL A   1      43.570  37.046  26.869  1.00  0.00    -0.237 OA
ATOM     96  O   UNL A   1      45.350  38.364  27.928  1.00  0.00    -0.744 OA
ENDBRANCH  90  93
ENDBRANCH  63  86
ENDBRANCH  37  38
ENDBRANCH  29  32
ENDBRANCH  27  28
ENDBRANCH  26  27
ENDBRANCH   1  26
TORSDOF 17
ENDMDL
MODEL 2
REMARK VINA RESULT:     -13.0      5.456     10.588
REMARK SMILES C[N@@H+](Cc1ccc2nsnc2c1)Cc1ccccc1C(=O)NCCCNC(=O)c1ccc(-c2c3nc(c(-c4cccc(S(=O)(=O)[O-])c4F)c4ccc([nH]4)c(-c4cccc(S(=O)(=O)[O-])c4F)c4nc(c(-c5cccc(S(=O)(=O)[O-])c5F)c5ccc2[nH]5)C=C4)C=C3)cc1
REMARK SMILES IDX 23 1 22 2 20 3 21 4 19 6 14 7 15 8 16 9 18 10 17 11 13 12
REMARK SMILES IDX 2 13 1 14 3 16 4 17 5 18 12 19 6 20 11 21 7 22 10 23 8 24
REMARK SMILES IDX 9 25 24 26 25 27 26 28 27 29 28 31 29 32 30 33 91 34 31 35
REMARK SMILES IDX 90 36 32 37 33 38 34 39 84 40 35 41 89 42 83 43 85 44 36 45
REMARK SMILES IDX 88 46 82 47 81 48 37 50 69 51 49 52 68 53 50 54 53 55 67 56
REMARK SMILES IDX 86 57 51 58 52 59 66 61 87 62 54 63 38 64 39 65 47 66 40 67
REMARK SMILES IDX 42 68 48 69 41 70 43 71 44 72 45 73 46 74 70 75 71 76 79 77
REMARK SMILES IDX 72 78 74 79 80 80 73 81 75 82 76 83 77 84 78 85 55 86 56 87
REMARK SMILES IDX 64 88 57 89 59 90 65 91 58 92 60 93 61 94 62 95 63 96
REMARK H PARENT 22 5 2 15 26 30 85 49 53 60
REMARK Flexibility Score: inf
ROOT
ATOM      1  C   UNL A   1      32.310  27.690  27.069  1.00  0.00     0.118 C 
ENDROOT
BRANCH   1   2
ATOM      2  N   UNL A   1      31.359  26.622  26.890  1.00  0.00    -0.352 N 
ATOM      3  C   UNL A   1      31.599  25.332  26.492  1.00  0.00     0.251 C 
ATOM      4  O   UNL A   1      30.671  24.523  26.535  1.00  0.00    -0.269 OA
ATOM      5  H   UNL A   1      30.419  26.847  27.076  1.00  0.00     0.163 HD
BRANCH   3   6
ATOM      6  C   UNL A   1      32.896  24.910  25.897  1.00  0.00     0.048 A 
ATOM      7  C   UNL A   1      33.537  25.400  24.738  1.00  0.00     0.019 A 
ATOM      8  C   UNL A   1      34.741  24.753  24.354  1.00  0.00     0.010 A 
ATOM      9  C   UNL A   1      35.337  23.751  25.120  1.00  0.00     0.001 A 
ATOM     10  C   UNL A   1      33.528  23.909  26.676  1.00  0.00     0.014 A 
ATOM     11  C   UNL A   1      34.743  23.343  26.299  1.00  0.00     0.001 A 
BRANCH   7  12
ATOM     12  C   UNL A   1      33.101  26.540  23.829  1.00  0.00     0.299 C 
BRANCH  12  13
ATOM     13  N   UNL A   1      32.078  26.324  22.813  1.00  0.00    -0.330 N 
ATOM     14  C   UNL A   1      32.435  25.744  21.541  1.00  0.00     0.333 C 
ATOM     15  H   UNL A   1      32.041  27.297  22.511  1.00  0.00     0.348 HD
BRANCH  13  16
ATOM     16  C   UNL A   1      30.721  26.075  23.272  1.00  0.00     0.299 C 
BRANCH  16  17
ATOM     17  C   UNL A   1      29.744  27.219  23.100  1.00  0.00     0.009 A 
ATOM     18  C   UNL A   1      28.408  27.101  23.583  1.00  0.00     0.012 A 
ATOM     19  C   UNL A   1      30.212  28.405  22.485  1.00  0.00     0.041 A 
ATOM     20  C   UNL A   1      27.469  28.147  23.557  1.00  0.00     0.032 A 
ATOM     21  C   UNL A   1      29.306  29.486  22.431  1.00  0.00     0.105 A 
ATOM     22  C   UNL A   1      27.912  29.358  22.984  1.00  0.00     0.104 A 
ATOM     23  N   UNL A   1      29.564  30.700  21.916  1.00  0.00    -0.173 NA
ATOM     24  N   UNL A   1      27.191  30.484  22.863  1.00  0.00    -0.173 NA
ATOM     25  S   UNL A   1      28.184  31.597  22.132  1.00  0.00     0.069 S 
ENDBRANCH  16  17
ENDBRANCH  13  16
ENDBRANCH  12  13
ENDBRANCH   7  12
ENDBRANCH   3   6
ENDBRANCH   1   2
BRANCH   1  26
ATOM     26  C   UNL A   1      31.732  29.084  27.101  1.00  0.00     0.042 C 
BRANCH  26  27
ATOM     27  C   UNL A   1      32.564  30.116  26.347  1.00  0.00     0.118 C 
BRANCH  27  28
ATOM     28  N   UNL A   1      32.563  31.469  26.913  1.00  0.00    -0.352 N 
ATOM     29  C   UNL A   1      33.526  32.193  27.590  1.00  0.00     0.251 C 
ATOM     30  H   UNL A   1      31.715  31.954  26.787  1.00  0.00     0.163 HD
ATOM     31  O   UNL A   1      33.277  33.314  27.999  1.00  0.00    -0.269 OA
BRANCH  29  32
ATOM     32  C   UNL A   1      34.842  31.577  27.863  1.00  0.00     0.039 A 
ATOM     33  C   UNL A   1      35.969  32.389  28.008  1.00  0.00     0.014 A 
ATOM     34  C   UNL A   1      34.937  30.207  28.076  1.00  0.00     0.014 A 
ATOM     35  C   UNL A   1      37.147  31.841  28.523  1.00  0.00     0.010 A 
ATOM     36  C   UNL A   1      36.040  29.708  28.746  1.00  0.00     0.010 A 
ATOM     37  C   UNL A   1      37.164  30.513  28.979  1.00  0.00    -0.014 A 
BRANCH  37  38
ATOM     38  C   UNL A   1      38.317  29.926  29.714  1.00  0.00     0.031 A 
ATOM     39  C   UNL A   1      38.612  30.383  31.121  1.00  0.00     0.074 A 
ATOM     40  C   UNL A   1      39.185  29.114  29.074  1.00  0.00     0.049 A 
ATOM     41  N   UNL A   1      39.667  30.158  31.859  1.00  0.00    -0.248 NA
ATOM     42  C   UNL A   1      37.622  31.272  31.757  1.00  0.00     0.031 C 
ATOM     43  C   UNL A   1      39.085  28.687  27.675  1.00  0.00     0.029 A 
ATOM     44  N   UNL A   1      40.345  28.525  29.511  1.00  0.00    -0.354 N 
ATOM     45  C   UNL A   1      39.503  30.937  32.999  1.00  0.00     0.074 A 
ATOM     46  C   UNL A   1      38.277  31.682  32.832  1.00  0.00     0.031 C 
ATOM     47  C   UNL A   1      40.122  27.886  27.380  1.00  0.00     0.029 A 
ATOM     48  C   UNL A   1      40.981  27.770  28.551  1.00  0.00     0.049 A 
ATOM     49  H   UNL A   1      40.690  28.631  30.427  1.00  0.00     0.167 HD
ATOM     50  C   UNL A   1      40.275  30.993  34.110  1.00  0.00     0.034 A 
ATOM     51  C   UNL A   1      42.127  27.063  28.610  1.00  0.00     0.034 A 
ATOM     52  C   UNL A   1      41.421  30.157  34.323  1.00  0.00     0.049 A 
ATOM     53  C   UNL A   1      42.890  27.029  29.907  1.00  0.00     0.074 A 
ATOM     54  C   UNL A   1      42.197  30.032  35.460  1.00  0.00     0.029 A 
ATOM     55  N   UNL A   1      41.939  29.280  33.383  1.00  0.00    -0.354 N 
ATOM     56  N   UNL A   1      42.632  27.651  31.032  1.00  0.00    -0.248 NA
ATOM     57  C   UNL A   1      44.078  26.165  29.960  1.00  0.00     0.031 C 
ATOM     58  C   UNL A   1      43.183  29.072  35.210  1.00  0.00     0.029 A 
ATOM     59  C   UNL A   1      43.016  28.597  33.918  1.00  0.00     0.049 A 
ATOM     60  H   UNL A   1      41.592  29.161  32.469  1.00  0.00     0.167 HD
ATOM     61  C   UNL A   1      43.598  27.226  31.935  1.00  0.00     0.074 A 
ATOM     62  C   UNL A   1      44.437  26.276  31.232  1.00  0.00     0.031 C 
ATOM     63  C   UNL A   1      43.789  27.600  33.224  1.00  0.00     0.034 A 
BRANCH  50  64
ATOM     64  C   UNL A   1      39.841  31.922  35.215  1.00  0.00     0.023 A 
ATOM     65  C   UNL A   1      40.280  33.262  35.206  1.00  0.00     0.012 A 
ATOM     66  C   UNL A   1      38.981  31.484  36.240  1.00  0.00     0.148 A 
ATOM     67  C   UNL A   1      39.910  34.139  36.224  1.00  0.00     0.002 A 
ATOM     68  C   UNL A   1      38.576  32.379  37.225  1.00  0.00     0.091 A 
ATOM     69  F   UNL A   1      38.591  30.201  36.247  1.00  0.00    -0.205 F 
ATOM     70  C   UNL A   1      39.050  33.701  37.226  1.00  0.00     0.022 A 
BRANCH  68  71
ATOM     71  S   UNL A   1      37.405  31.935  38.513  1.00  0.00     0.127 S 
ATOM     72  O   UNL A   1      36.320  32.884  38.265  1.00  0.00    -0.237 OA
ATOM     73  O   UNL A   1      37.089  30.546  38.178  1.00  0.00    -0.237 OA
ATOM     74  O   UNL A   1      38.114  32.107  39.774  1.00  0.00    -0.744 OA
ENDBRANCH  68  71
ENDBRANCH  50  64
BRANCH  51  75
ATOM     75  C   UNL A   1      42.562  26.242  27.444  1.00  0.00     0.023 A 
ATOM     76  C   UNL A   1      43.384  26.834  26.462  1.00  0.00     0.012 A 
ATOM     77  C   UNL A   1      42.205  24.887  27.310  1.00  0.00     0.148 A 
ATOM     78  C   UNL A   1      43.809  26.104  25.352  1.00  0.00     0.002 A 
ATOM     79  C   UNL A   1      42.676  24.150  26.228  1.00  0.00     0.091 A 
ATOM     80  F   UNL A   1      41.417  24.342  28.248  1.00  0.00    -0.205 F 
ATOM     81  C   UNL A   1      43.463  24.761  25.239  1.00  0.00     0.022 A 
BRANCH  79  82
ATOM     82  S   UNL A   1      42.387  22.383  26.070  1.00  0.00     0.127 S 
ATOM     83  O   UNL A   1      40.930  22.321  26.012  1.00  0.00    -0.237 OA
ATOM     84  O   UNL A   1      43.068  22.075  24.811  1.00  0.00    -0.237 OA
ATOM     85  O   UNL A   1      43.006  21.784  27.244  1.00  0.00    -0.744 OA
ENDBRANCH  79  82
ENDBRANCH  51  75
BRANCH  63  86
ATOM     86  C   UNL A   1      44.915  26.954  33.981  1.00  0.00     0.023 A 
ATOM     87  C   UNL A   1      46.195  27.538  33.958  1.00  0.00     0.012 A 
ATOM     88  C   UNL A   1      44.681  25.826  34.790  1.00  0.00     0.148 A 
ATOM     89  C   UNL A   1      47.235  26.993  34.711  1.00  0.00     0.002 A 
ATOM     90  C   UNL A   1      45.708  25.315  35.573  1.00  0.00     0.091 A 
ATOM     91  F   UNL A   1      43.458  25.272  34.780  1.00  0.00    -0.205 F 
ATOM     92  C   UNL A   1      46.988  25.891  35.527  1.00  0.00     0.022 A 
BRANCH  90  93
ATOM     93  S   UNL A   1      45.450  23.961  36.724  1.00  0.00     0.127 S 
ATOM     94  O   UNL A   1      46.788  23.786  37.285  1.00  0.00    -0.237 OA
ATOM     95  O   UNL A   1      44.468  24.523  37.653  1.00  0.00    -0.237 OA
ATOM     96  O   UNL A   1      44.952  22.849  35.924  1.00  0.00    -0.744 OA
ENDBRANCH  90  93
ENDBRANCH  63  86
ENDBRANCH  37  38
ENDBRANCH  29  32
ENDBRANCH  27  28
ENDBRANCH  26  27
ENDBRANCH   1  26
TORSDOF 17
ENDMDL
MODEL 3
REMARK VINA RESULT:     -12.8      5.080      7.135
REMARK SMILES C[N@@H+](Cc1ccc2nsnc2c1)Cc1ccccc1C(=O)NCCCNC(=O)c1ccc(-c2c3nc(c(-c4cccc(S(=O)(=O)[O-])c4F)c4ccc([nH]4)c(-c4cccc(S(=O)(=O)[O-])c4F)c4nc(c(-c5cccc(S(=O)(=O)[O-])c5F)c5ccc2[nH]5)C=C4)C=C3)cc1
REMARK SMILES IDX 23 1 22 2 20 3 21 4 19 6 14 7 15 8 16 9 18 10 17 11 13 12
REMARK SMILES IDX 2 13 1 14 3 16 4 17 5 18 12 19 6 20 11 21 7 22 10 23 8 24
REMARK SMILES IDX 9 25 24 26 25 27 26 28 27 29 28 31 29 32 30 33 91 34 31 35
REMARK SMILES IDX 90 36 32 37 33 38 34 39 84 40 35 41 89 42 83 43 85 44 36 45
REMARK SMILES IDX 88 46 82 47 81 48 37 50 69 51 49 52 68 53 50 54 53 55 67 56
REMARK SMILES IDX 86 57 51 58 52 59 66 61 87 62 54 63 38 64 39 65 47 66 40 67
REMARK SMILES IDX 42 68 48 69 41 70 43 71 44 72 45 73 46 74 70 75 71 76 79 77
REMARK SMILES IDX 72 78 74 79 80 80 73 81 75 82 76 83 77 84 78 85 55 86 56 87
REMARK SMILES IDX 64 88 57 89 59 90 65 91 58 92 60 93 61 94 62 95 63 96
REMARK H PARENT 22 5 2 15 26 30 85 49 53 60
REMARK Flexibility Score: inf
ROOT
ATOM      1  C   UNL A   1      33.549  27.026  25.373  1.00  0.00     0.118 C 
ENDROOT
BRANCH   1   2
ATOM      2  N   UNL A   1      32.835  25.893  25.907  1.00  0.00    -0.352 N 
ATOM      3  C   UNL A   1      33.208  24.574  25.895  1.00  0.00     0.251 C 
ATOM      4  O   UNL A   1      32.529  23.767  26.532  1.00  0.00    -0.269 OA
ATOM      5  H   UNL A   1      31.970  26.092  26.333  1.00  0.00     0.163 HD
BRANCH   3   6
ATOM      6  C   UNL A   1      34.323  24.069  25.048  1.00  0.00     0.048 A 
ATOM      7  C   UNL A   1      34.294  23.680  23.691  1.00  0.00     0.019 A 
ATOM      8  C   UNL A   1      35.499  23.157  23.153  1.00  0.00     0.010 A 
ATOM      9  C   UNL A   1      36.692  23.113  23.874  1.00  0.00     0.001 A 
ATOM     10  C   UNL A   1      35.549  24.042  25.758  1.00  0.00     0.014 A 
ATOM     11  C   UNL A   1      36.725  23.581  25.175  1.00  0.00     0.001 A 
BRANCH   7  12
ATOM     12  C   UNL A   1      33.127  23.741  22.716  1.00  0.00     0.299 C 
BRANCH  12  13
ATOM     13  N   UNL A   1      31.896  23.009  22.991  1.00  0.00    -0.330 N 
ATOM     14  C   UNL A   1      30.664  23.728  23.214  1.00  0.00     0.333 C 
ATOM     15  H   UNL A   1      32.118  22.818  23.967  1.00  0.00     0.348 HD
BRANCH  13  16
ATOM     16  C   UNL A   1      31.767  21.678  22.420  1.00  0.00     0.299 C 
BRANCH  16  17
ATOM     17  C   UNL A   1      32.261  20.537  23.284  1.00  0.00     0.009 A 
ATOM     18  C   UNL A   1      32.411  20.715  24.690  1.00  0.00     0.012 A 
ATOM     19  C   UNL A   1      32.528  19.297  22.657  1.00  0.00     0.041 A 
ATOM     20  C   UNL A   1      32.765  19.684  25.578  1.00  0.00     0.032 A 
ATOM     21  C   UNL A   1      32.890  18.227  23.504  1.00  0.00     0.105 A 
ATOM     22  C   UNL A   1      33.003  18.422  24.993  1.00  0.00     0.104 A 
ATOM     23  N   UNL A   1      33.155  16.971  23.111  1.00  0.00    -0.173 NA
ATOM     24  N   UNL A   1      33.342  17.299  25.647  1.00  0.00    -0.173 NA
ATOM     25  S   UNL A   1      33.491  16.114  24.493  1.00  0.00     0.069 S 
ENDBRANCH  16  17
ENDBRANCH  13  16
ENDBRANCH  12  13
ENDBRANCH   7  12
ENDBRANCH   3   6
ENDBRANCH   1   2
BRANCH   1  26
ATOM     26  C   UNL A   1      32.790  28.330  25.357  1.00  0.00     0.042 C 
BRANCH  26  27
ATOM     27  C   UNL A   1      32.391  28.831  26.741  1.00  0.00     0.118 C 
BRANCH  27  28
ATOM     28  N   UNL A   1      32.153  30.274  26.852  1.00  0.00    -0.352 N 
ATOM     29  C   UNL A   1      32.977  31.326  27.201  1.00  0.00     0.251 C 
ATOM     30  H   UNL A   1      31.231  30.543  26.636  1.00  0.00     0.163 HD
ATOM     31  O   UNL A   1      32.534  32.462  27.252  1.00  0.00    -0.269 OA
BRANCH  29  32
ATOM     32  C   UNL A   1      34.385  31.059  27.565  1.00  0.00     0.039 A 
ATOM     33  C   UNL A   1      35.249  32.128  27.813  1.00  0.00     0.014 A 
ATOM     34  C   UNL A   1      34.816  29.754  27.759  1.00  0.00     0.014 A 
ATOM     35  C   UNL A   1      36.490  31.882  28.409  1.00  0.00     0.010 A 
ATOM     36  C   UNL A   1      35.960  29.529  28.503  1.00  0.00     0.010 A 
ATOM     37  C   UNL A   1      36.818  30.586  28.839  1.00  0.00    -0.014 A 
BRANCH  37  38
ATOM     38  C   UNL A   1      38.028  30.288  29.651  1.00  0.00     0.031 A 
ATOM     39  C   UNL A   1      39.069  29.337  29.113  1.00  0.00     0.074 A 
ATOM     40  C   UNL A   1      38.118  30.735  30.922  1.00  0.00     0.049 A 
ATOM     41  N   UNL A   1      40.083  28.788  29.728  1.00  0.00    -0.248 NA
ATOM     42  C   UNL A   1      38.905  28.887  27.719  1.00  0.00     0.031 C 
ATOM     43  C   UNL A   1      37.123  31.564  31.609  1.00  0.00     0.029 A 
ATOM     44  N   UNL A   1      39.082  30.527  31.876  1.00  0.00    -0.354 N 
ATOM     45  C   UNL A   1      40.621  27.876  28.827  1.00  0.00     0.074 A 
ATOM     46  C   UNL A   1      39.790  27.904  27.646  1.00  0.00     0.031 C 
ATOM     47  C   UNL A   1      37.542  31.815  32.861  1.00  0.00     0.029 A 
ATOM     48  C   UNL A   1      38.813  31.137  33.081  1.00  0.00     0.049 A 
ATOM     49  H   UNL A   1      39.892  29.992  31.714  1.00  0.00     0.167 HD
ATOM     50  C   UNL A   1      41.735  27.116  28.947  1.00  0.00     0.034 A 
ATOM     51  C   UNL A   1      39.513  31.149  34.233  1.00  0.00     0.034 A 
ATOM     52  C   UNL A   1      42.626  27.187  30.070  1.00  0.00     0.049 A 
ATOM     53  C   UNL A   1      40.824  30.410  34.289  1.00  0.00     0.074 A 
ATOM     54  C   UNL A   1      43.849  26.565  30.239  1.00  0.00     0.029 A 
ATOM     55  N   UNL A   1      42.399  27.948  31.206  1.00  0.00    -0.354 N 
ATOM     56  N   UNL A   1      41.398  29.677  33.366  1.00  0.00    -0.248 NA
ATOM     57  C   UNL A   1      41.605  30.532  35.528  1.00  0.00     0.031 C 
ATOM     58  C   UNL A   1      44.367  26.958  31.478  1.00  0.00     0.029 A 
ATOM     59  C   UNL A   1      43.467  27.826  32.076  1.00  0.00     0.049 A 
ATOM     60  H   UNL A   1      41.596  28.494  31.369  1.00  0.00     0.167 HD
ATOM     61  C   UNL A   1      42.620  29.283  33.896  1.00  0.00     0.074 A 
ATOM     62  C   UNL A   1      42.715  29.877  35.214  1.00  0.00     0.031 C 
ATOM     63  C   UNL A   1      43.573  28.487  33.351  1.00  0.00     0.034 A 
BRANCH  50  64
ATOM     64  C   UNL A   1      42.099  26.222  27.790  1.00  0.00     0.023 A 
ATOM     65  C   UNL A   1      42.900  26.730  26.746  1.00  0.00     0.012 A 
ATOM     66  C   UNL A   1      41.680  24.878  27.747  1.00  0.00     0.148 A 
ATOM     67  C   UNL A   1      43.239  25.932  25.655  1.00  0.00     0.002 A 
ATOM     68  C   UNL A   1      42.064  24.074  26.679  1.00  0.00     0.091 A 
ATOM     69  F   UNL A   1      40.901  24.417  28.736  1.00  0.00    -0.205 F 
ATOM     70  C   UNL A   1      42.830  24.602  25.627  1.00  0.00     0.022 A 
BRANCH  68  71
ATOM     71  S   UNL A   1      41.658  22.326  26.590  1.00  0.00     0.127 S 
ATOM     72  O   UNL A   1      42.226  21.827  27.842  1.00  0.00    -0.237 OA
ATOM     73  O   UNL A   1      40.195  22.350  26.551  1.00  0.00    -0.237 OA
ATOM     74  O   UNL A   1      42.288  21.831  25.374  1.00  0.00    -0.744 OA
ENDBRANCH  68  71
ENDBRANCH  50  64
BRANCH  51  75
ATOM     75  C   UNL A   1      39.048  31.973  35.385  1.00  0.00     0.023 A 
ATOM     76  C   UNL A   1      39.245  33.369  35.348  1.00  0.00     0.012 A 
ATOM     77  C   UNL A   1      38.391  31.404  36.492  1.00  0.00     0.148 A 
ATOM     78  C   UNL A   1      38.831  34.177  36.406  1.00  0.00     0.002 A 
ATOM     79  C   UNL A   1      37.933  32.221  37.521  1.00  0.00     0.091 A 
ATOM     80  F   UNL A   1      38.220  30.074  36.516  1.00  0.00    -0.205 F 
ATOM     81  C   UNL A   1      38.167  33.605  37.488  1.00  0.00     0.022 A 
BRANCH  79  82
ATOM     82  S   UNL A   1      36.956  31.588  38.889  1.00  0.00     0.127 S 
ATOM     83  O   UNL A   1      37.884  31.724  40.009  1.00  0.00    -0.237 OA
ATOM     84  O   UNL A   1      35.823  32.515  38.910  1.00  0.00    -0.237 OA
ATOM     85  O   UNL A   1      36.604  30.225  38.515  1.00  0.00    -0.744 OA
ENDBRANCH  79  82
ENDBRANCH  51  75
BRANCH  63  86
ATOM     86  C   UNL A   1      44.823  28.244  34.149  1.00  0.00     0.023 A 
ATOM     87  C   UNL A   1      45.914  29.124  34.021  1.00  0.00     0.012 A 
ATOM     88  C   UNL A   1      44.879  27.201  35.093  1.00  0.00     0.148 A 
ATOM     89  C   UNL A   1      47.054  28.955  34.805  1.00  0.00     0.002 A 
ATOM     90  C   UNL A   1      45.999  27.065  35.903  1.00  0.00     0.091 A 
ATOM     91  F   UNL A   1      43.836  26.361  35.183  1.00  0.00    -0.205 F 
ATOM     92  C   UNL A   1      47.091  27.935  35.754  1.00  0.00     0.022 A 
BRANCH  90  93
ATOM     93  S   UNL A   1      46.088  25.842  37.215  1.00  0.00     0.127 S 
ATOM     94  O   UNL A   1      44.836  26.082  37.932  1.00  0.00    -0.237 OA
ATOM     95  O   UNL A   1      46.132  24.584  36.469  1.00  0.00    -0.237 OA
ATOM     96  O   UNL A   1      47.305  26.144  37.958  1.00  0.00    -0.744 OA
ENDBRANCH  90  93
ENDBRANCH  63  86
ENDBRANCH  37  38
ENDBRANCH  29  32
ENDBRANCH  27  28
ENDBRANCH  26  27
ENDBRANCH   1  26
TORSDOF 17
ENDMDL
