MODEL 1
REMARK VINA RESULT:     -11.5      0.000      0.000
REMARK SMILES CC1(CNS(=O)(=O)Cc2ccc(C(=O)NCCCNC(=O)c3ccc(-c4c5nc(c(-c6cccc(S(=O)(=O)[O-])c6F)c6ccc([nH]6)c(-c6cccc(S(=O)(=O)[O-])c6F)c6nc(c(-c7cccc(S(=O)(=O)[O-])c7F)c7ccc4[nH]7)C=C6)C=C5)cc3)cc2)COC1
REMARK SMILES IDX 16 1 15 2 13 3 14 4 12 6 9 7 10 8 86 9 11 10 85 11 8 12 5 13
REMARK SMILES IDX 6 14 7 15 4 16 3 18 2 19 1 20 87 21 89 22 88 23 17 24 18 25
REMARK SMILES IDX 19 26 20 27 21 29 22 30 23 31 84 32 24 33 83 34 25 35 26 36
REMARK SMILES IDX 27 37 77 38 28 39 82 40 76 41 78 42 29 43 81 44 75 45 74 46
REMARK SMILES IDX 30 48 62 49 42 50 61 51 43 52 46 53 60 54 79 55 44 56 45 57
REMARK SMILES IDX 59 59 80 60 47 61 31 62 32 63 40 64 33 65 35 66 41 67 34 68
REMARK SMILES IDX 36 69 37 70 38 71 39 72 63 73 64 74 72 75 65 76 67 77 73 78
REMARK SMILES IDX 66 79 68 80 69 81 70 82 71 83 48 84 49 85 57 86 50 87 52 88
REMARK SMILES IDX 58 89 51 90 53 91 54 92 55 93 56 94
REMARK H PARENT 15 5 4 17 19 28 78 47 46 58
REMARK Flexibility Score: inf
ROOT
ATOM      1  C   UNL A   1      31.986  27.390  23.792  1.00  0.00     0.118 C 
ENDROOT
BRANCH   1   2
ATOM      2  N   UNL A   1      30.989  27.066  24.799  1.00  0.00    -0.352 N 
ATOM      3  C   UNL A   1      30.992  26.155  25.826  1.00  0.00     0.251 C 
ATOM      4  O   UNL A   1      30.057  26.177  26.627  1.00  0.00    -0.269 OA
ATOM      5  H   UNL A   1      30.162  27.597  24.733  1.00  0.00     0.163 HD
BRANCH   3   6
ATOM      6  C   UNL A   1      32.098  25.185  26.033  1.00  0.00     0.039 A 
ATOM      7  C   UNL A   1      34.275  23.398  26.312  1.00  0.00    -0.032 A 
ATOM      8  C   UNL A   1      34.488  24.719  25.899  1.00  0.00     0.005 A 
ATOM      9  C   UNL A   1      32.978  23.027  26.672  1.00  0.00     0.005 A 
ATOM     10  C   UNL A   1      33.409  25.606  25.769  1.00  0.00     0.014 A 
ATOM     11  C   UNL A   1      31.901  23.903  26.536  1.00  0.00     0.014 A 
BRANCH   7  12
ATOM     12  C   UNL A   1      35.412  22.422  26.458  1.00  0.00     0.189 C 
BRANCH  12  13
ATOM     13  S   UNL A   1      35.651  21.395  24.988  1.00  0.00     0.215 S 
ATOM     14  O   UNL A   1      37.076  21.248  24.767  1.00  0.00    -0.212 OA
ATOM     15  O   UNL A   1      34.801  21.878  23.922  1.00  0.00    -0.212 OA
BRANCH  13  16
ATOM     16  N   UNL A   1      35.066  19.862  25.368  1.00  0.00    -0.214 NA
ATOM     17  H   UNL A   1      35.651  19.498  26.121  1.00  0.00     0.141 HD
BRANCH  16  18
ATOM     18  C   UNL A   1      35.024  18.825  24.313  1.00  0.00     0.110 C 
BRANCH  18  19
ATOM     19  C   UNL A   1      33.656  18.123  24.248  1.00  0.00     0.028 C 
ATOM     20  C   UNL A   1      33.636  16.784  23.523  1.00  0.00     0.018 C 
ATOM     21  C   UNL A   1      32.534  19.078  23.783  1.00  0.00     0.170 C 
ATOM     22  C   UNL A   1      32.883  18.148  25.582  1.00  0.00     0.170 C 
ATOM     23  O   UNL A   1      32.150  19.327  25.162  1.00  0.00    -0.380 OA
ENDBRANCH  18  19
ENDBRANCH  16  18
ENDBRANCH  13  16
ENDBRANCH  12  13
ENDBRANCH   7  12
ENDBRANCH   3   6
ENDBRANCH   1   2
BRANCH   1  24
ATOM     24  C   UNL A   1      32.430  28.849  23.886  1.00  0.00     0.042 C 
BRANCH  24  25
ATOM     25  C   UNL A   1      33.056  29.212  25.230  1.00  0.00     0.118 C 
BRANCH  25  26
ATOM     26  N   UNL A   1      32.549  30.476  25.746  1.00  0.00    -0.352 N 
ATOM     27  C   UNL A   1      32.944  31.208  26.838  1.00  0.00     0.251 C 
ATOM     28  H   UNL A   1      31.806  30.867  25.231  1.00  0.00     0.163 HD
ATOM     29  O   UNL A   1      32.233  32.129  27.229  1.00  0.00    -0.269 OA
BRANCH  27  30
ATOM     30  C   UNL A   1      34.206  30.895  27.545  1.00  0.00     0.039 A 
ATOM     31  C   UNL A   1      35.145  31.915  27.727  1.00  0.00     0.014 A 
ATOM     32  C   UNL A   1      34.490  29.599  27.984  1.00  0.00     0.014 A 
ATOM     33  C   UNL A   1      36.344  31.645  28.389  1.00  0.00     0.010 A 
ATOM     34  C   UNL A   1      35.651  29.350  28.713  1.00  0.00     0.010 A 
ATOM     35  C   UNL A   1      36.597  30.367  28.913  1.00  0.00    -0.014 A 
BRANCH  35  36
ATOM     36  C   UNL A   1      37.839  30.080  29.677  1.00  0.00     0.031 A 
ATOM     37  C   UNL A   1      38.879  29.145  29.120  1.00  0.00     0.074 A 
ATOM     38  C   UNL A   1      37.994  30.606  30.909  1.00  0.00     0.049 A 
ATOM     39  N   UNL A   1      39.998  28.742  29.662  1.00  0.00    -0.248 NA
ATOM     40  C   UNL A   1      38.616  28.568  27.791  1.00  0.00     0.031 C 
ATOM     41  C   UNL A   1      37.024  31.469  31.587  1.00  0.00     0.029 A 
ATOM     42  N   UNL A   1      39.013  30.474  31.818  1.00  0.00    -0.354 N 
ATOM     43  C   UNL A   1      40.556  27.842  28.762  1.00  0.00     0.074 A 
ATOM     44  C   UNL A   1      39.633  27.730  27.652  1.00  0.00     0.031 C 
ATOM     45  C   UNL A   1      37.497  31.794  32.800  1.00  0.00     0.029 A 
ATOM     46  C   UNL A   1      38.784  31.136  33.002  1.00  0.00     0.049 A 
ATOM     47  H   UNL A   1      39.830  29.955  31.641  1.00  0.00     0.167 HD
ATOM     48  C   UNL A   1      41.741  27.188  28.835  1.00  0.00     0.034 A 
ATOM     49  C   UNL A   1      39.520  31.197  34.129  1.00  0.00     0.034 A 
ATOM     50  C   UNL A   1      42.668  27.326  29.926  1.00  0.00     0.049 A 
ATOM     51  C   UNL A   1      40.842  30.480  34.175  1.00  0.00     0.074 A 
ATOM     52  C   UNL A   1      43.927  26.770  30.059  1.00  0.00     0.029 A 
ATOM     53  N   UNL A   1      42.433  28.063  31.076  1.00  0.00    -0.354 N 
ATOM     54  N   UNL A   1      41.420  29.753  33.250  1.00  0.00    -0.248 NA
ATOM     55  C   UNL A   1      41.631  30.622  35.408  1.00  0.00     0.031 C 
ATOM     56  C   UNL A   1      44.440  27.142  31.306  1.00  0.00     0.029 A 
ATOM     57  C   UNL A   1      43.518  27.966  31.931  1.00  0.00     0.049 A 
ATOM     58  H   UNL A   1      41.616  28.580  31.259  1.00  0.00     0.167 HD
ATOM     59  C   UNL A   1      42.655  29.385  33.770  1.00  0.00     0.074 A 
ATOM     60  C   UNL A   1      42.749  29.986  35.085  1.00  0.00     0.031 C 
ATOM     61  C   UNL A   1      43.620  28.609  33.216  1.00  0.00     0.034 A 
BRANCH  48  62
ATOM     62  C   UNL A   1      42.121  26.293  27.683  1.00  0.00     0.023 A 
ATOM     63  C   UNL A   1      42.912  26.802  26.633  1.00  0.00     0.012 A 
ATOM     64  C   UNL A   1      41.747  24.934  27.666  1.00  0.00     0.148 A 
ATOM     65  C   UNL A   1      43.291  25.987  25.567  1.00  0.00     0.002 A 
ATOM     66  C   UNL A   1      42.171  24.116  26.626  1.00  0.00     0.091 A 
ATOM     67  F   UNL A   1      40.980  24.470  28.664  1.00  0.00    -0.205 F 
ATOM     68  C   UNL A   1      42.930  24.644  25.569  1.00  0.00     0.022 A 
BRANCH  66  69
ATOM     69  S   UNL A   1      41.829  22.353  26.576  1.00  0.00     0.127 S 
ATOM     70  O   UNL A   1      42.599  21.938  25.404  1.00  0.00    -0.237 OA
ATOM     71  O   UNL A   1      42.375  21.899  27.855  1.00  0.00    -0.237 OA
ATOM     72  O   UNL A   1      40.384  22.226  26.451  1.00  0.00    -0.744 OA
ENDBRANCH  66  69
ENDBRANCH  48  62
BRANCH  49  73
ATOM     73  C   UNL A   1      39.050  32.011  35.285  1.00  0.00     0.023 A 
ATOM     74  C   UNL A   1      39.204  33.411  35.257  1.00  0.00     0.012 A 
ATOM     75  C   UNL A   1      38.434  31.411  36.400  1.00  0.00     0.148 A 
ATOM     76  C   UNL A   1      38.789  34.193  36.336  1.00  0.00     0.002 A 
ATOM     77  C   UNL A   1      37.969  32.201  37.445  1.00  0.00     0.091 A 
ATOM     78  F   UNL A   1      38.303  30.076  36.411  1.00  0.00    -0.205 F 
ATOM     79  C   UNL A   1      38.164  33.591  37.424  1.00  0.00     0.022 A 
BRANCH  77  80
ATOM     80  S   UNL A   1      37.032  31.527  38.820  1.00  0.00     0.127 S 
ATOM     81  O   UNL A   1      37.989  31.635  39.917  1.00  0.00    -0.237 OA
ATOM     82  O   UNL A   1      35.899  32.450  38.894  1.00  0.00    -0.237 OA
ATOM     83  O   UNL A   1      36.673  30.171  38.427  1.00  0.00    -0.744 OA
ENDBRANCH  77  80
ENDBRANCH  49  73
BRANCH  61  84
ATOM     84  C   UNL A   1      44.887  28.402  34.004  1.00  0.00     0.023 A 
ATOM     85  C   UNL A   1      45.970  29.289  33.853  1.00  0.00     0.012 A 
ATOM     86  C   UNL A   1      44.975  27.358  34.948  1.00  0.00     0.148 A 
ATOM     87  C   UNL A   1      47.135  29.120  34.599  1.00  0.00     0.002 A 
ATOM     88  C   UNL A   1      46.118  27.228  35.726  1.00  0.00     0.091 A 
ATOM     89  F   UNL A   1      43.941  26.512  35.065  1.00  0.00    -0.205 F 
ATOM     90  C   UNL A   1      47.205  28.098  35.543  1.00  0.00     0.022 A 
BRANCH  88  91
ATOM     91  S   UNL A   1      46.258  26.006  37.036  1.00  0.00     0.127 S 
ATOM     92  O   UNL A   1      47.575  26.314  37.590  1.00  0.00    -0.237 OA
ATOM     93  O   UNL A   1      45.135  26.355  37.905  1.00  0.00    -0.237 OA
ATOM     94  O   UNL A   1      46.141  24.707  36.388  1.00  0.00    -0.744 OA
ENDBRANCH  88  91
ENDBRANCH  61  84
ENDBRANCH  35  36
ENDBRANCH  27  30
ENDBRANCH  25  26
ENDBRANCH  24  25
ENDBRANCH   1  24
TORSDOF 18
ENDMDL
MODEL 2
REMARK VINA RESULT:     -11.5      5.591      8.914
REMARK SMILES CC1(CNS(=O)(=O)Cc2ccc(C(=O)NCCCNC(=O)c3ccc(-c4c5nc(c(-c6cccc(S(=O)(=O)[O-])c6F)c6ccc([nH]6)c(-c6cccc(S(=O)(=O)[O-])c6F)c6nc(c(-c7cccc(S(=O)(=O)[O-])c7F)c7ccc4[nH]7)C=C6)C=C5)cc3)cc2)COC1
REMARK SMILES IDX 16 1 15 2 13 3 14 4 12 6 9 7 10 8 86 9 11 10 85 11 8 12 5 13
REMARK SMILES IDX 6 14 7 15 4 16 3 18 2 19 1 20 87 21 89 22 88 23 17 24 18 25
REMARK SMILES IDX 19 26 20 27 21 29 22 30 23 31 84 32 24 33 83 34 25 35 26 36
REMARK SMILES IDX 27 37 77 38 28 39 82 40 76 41 78 42 29 43 81 44 75 45 74 46
REMARK SMILES IDX 30 48 62 49 42 50 61 51 43 52 46 53 60 54 79 55 44 56 45 57
REMARK SMILES IDX 59 59 80 60 47 61 31 62 32 63 40 64 33 65 35 66 41 67 34 68
REMARK SMILES IDX 36 69 37 70 38 71 39 72 63 73 64 74 72 75 65 76 67 77 73 78
REMARK SMILES IDX 66 79 68 80 69 81 70 82 71 83 48 84 49 85 57 86 50 87 52 88
REMARK SMILES IDX 58 89 51 90 53 91 54 92 55 93 56 94
REMARK H PARENT 15 5 4 17 19 28 78 47 46 58
REMARK Flexibility Score: inf
ROOT
ATOM      1  C   UNL A   1      37.691  20.793  24.725  1.00  0.00     0.118 C 
ENDROOT
BRANCH   1   2
ATOM      2  N   UNL A   1      38.156  21.999  25.391  1.00  0.00    -0.352 N 
ATOM      3  C   UNL A   1      37.593  23.244  25.521  1.00  0.00     0.251 C 
ATOM      4  O   UNL A   1      38.145  24.059  26.260  1.00  0.00    -0.269 OA
ATOM      5  H   UNL A   1      39.033  21.904  25.829  1.00  0.00     0.163 HD
BRANCH   3   6
ATOM      6  C   UNL A   1      36.325  23.624  24.846  1.00  0.00     0.039 A 
ATOM      7  C   UNL A   1      33.842  24.336  23.690  1.00  0.00    -0.032 A 
ATOM      8  C   UNL A   1      34.167  24.750  24.987  1.00  0.00     0.005 A 
ATOM      9  C   UNL A   1      34.815  23.652  22.959  1.00  0.00     0.005 A 
ATOM     10  C   UNL A   1      35.401  24.403  25.556  1.00  0.00     0.014 A 
ATOM     11  C   UNL A   1      36.040  23.297  23.524  1.00  0.00     0.014 A 
BRANCH   7  12
ATOM     12  C   UNL A   1      32.523  24.690  23.054  1.00  0.00     0.189 C 
BRANCH  12  13
ATOM     13  S   UNL A   1      32.633  26.130  21.965  1.00  0.00     0.215 S 
ATOM     14  O   UNL A   1      31.680  25.954  20.887  1.00  0.00    -0.212 OA
ATOM     15  O   UNL A   1      34.021  26.400  21.664  1.00  0.00    -0.212 OA
BRANCH  13  16
ATOM     16  N   UNL A   1      32.102  27.456  22.859  1.00  0.00    -0.214 NA
ATOM     17  H   UNL A   1      32.931  27.990  23.120  1.00  0.00     0.141 HD
BRANCH  16  18
ATOM     18  C   UNL A   1      31.328  27.226  24.099  1.00  0.00     0.110 C 
BRANCH  18  19
ATOM     19  C   UNL A   1      32.003  27.865  25.326  1.00  0.00     0.028 C 
ATOM     20  C   UNL A   1      31.812  27.125  26.643  1.00  0.00     0.018 C 
ATOM     21  C   UNL A   1      31.703  29.377  25.434  1.00  0.00     0.170 C 
ATOM     22  C   UNL A   1      33.442  28.349  25.060  1.00  0.00     0.170 C 
ATOM     23  O   UNL A   1      32.965  29.692  24.789  1.00  0.00    -0.380 OA
ENDBRANCH  18  19
ENDBRANCH  16  18
ENDBRANCH  13  16
ENDBRANCH  12  13
ENDBRANCH   7  12
ENDBRANCH   3   6
ENDBRANCH   1   2
BRANCH   1  24
ATOM     24  C   UNL A   1      38.588  19.595  25.036  1.00  0.00     0.042 C 
BRANCH  24  25
ATOM     25  C   UNL A   1      39.466  19.794  26.269  1.00  0.00     0.118 C 
BRANCH  25  26
ATOM     26  N   UNL A   1      40.763  19.148  26.125  1.00  0.00    -0.352 N 
ATOM     27  C   UNL A   1      42.020  19.695  26.047  1.00  0.00     0.251 C 
ATOM     28  H   UNL A   1      40.735  18.165  26.074  1.00  0.00     0.163 HD
ATOM     29  O   UNL A   1      42.959  18.986  25.696  1.00  0.00    -0.269 OA
BRANCH  27  30
ATOM     30  C   UNL A   1      42.249  21.120  26.375  1.00  0.00     0.039 A 
ATOM     31  C   UNL A   1      42.415  21.482  27.716  1.00  0.00     0.014 A 
ATOM     32  C   UNL A   1      42.253  22.102  25.381  1.00  0.00     0.014 A 
ATOM     33  C   UNL A   1      42.630  22.820  28.051  1.00  0.00     0.010 A 
ATOM     34  C   UNL A   1      42.546  23.423  25.711  1.00  0.00     0.010 A 
ATOM     35  C   UNL A   1      42.726  23.800  27.050  1.00  0.00    -0.014 A 
BRANCH  35  36
ATOM     36  C   UNL A   1      43.019  25.217  27.386  1.00  0.00     0.031 A 
ATOM     37  C   UNL A   1      44.414  25.764  27.235  1.00  0.00     0.074 A 
ATOM     38  C   UNL A   1      42.043  25.992  27.899  1.00  0.00     0.049 A 
ATOM     39  N   UNL A   1      44.866  26.957  27.521  1.00  0.00    -0.248 NA
ATOM     40  C   UNL A   1      45.440  24.844  26.717  1.00  0.00     0.031 C 
ATOM     41  C   UNL A   1      40.669  25.556  28.161  1.00  0.00     0.029 A 
ATOM     42  N   UNL A   1      42.060  27.300  28.315  1.00  0.00    -0.354 N 
ATOM     43  C   UNL A   1      46.229  26.923  27.253  1.00  0.00     0.074 A 
ATOM     44  C   UNL A   1      46.539  25.579  26.814  1.00  0.00     0.031 C 
ATOM     45  C   UNL A   1      39.975  26.578  28.685  1.00  0.00     0.029 A 
ATOM     46  C   UNL A   1      40.860  27.729  28.831  1.00  0.00     0.049 A 
ATOM     47  H   UNL A   1      42.856  27.875  28.251  1.00  0.00     0.167 HD
ATOM     48  C   UNL A   1      47.138  27.925  27.336  1.00  0.00     0.034 A 
ATOM     49  C   UNL A   1      40.513  28.913  29.373  1.00  0.00     0.034 A 
ATOM     50  C   UNL A   1      46.820  29.266  27.745  1.00  0.00     0.049 A 
ATOM     51  C   UNL A   1      41.536  30.015  29.433  1.00  0.00     0.074 A 
ATOM     52  C   UNL A   1      47.650  30.372  27.787  1.00  0.00     0.029 A 
ATOM     53  N   UNL A   1      45.576  29.684  28.192  1.00  0.00    -0.354 N 
ATOM     54  N   UNL A   1      42.784  30.005  29.033  1.00  0.00    -0.248 NA
ATOM     55  C   UNL A   1      41.091  31.303  29.985  1.00  0.00     0.031 C 
ATOM     56  C   UNL A   1      46.917  31.450  28.294  1.00  0.00     0.029 A 
ATOM     57  C   UNL A   1      45.618  31.027  28.526  1.00  0.00     0.049 A 
ATOM     58  H   UNL A   1      44.779  29.110  28.262  1.00  0.00     0.167 HD
ATOM     59  C   UNL A   1      43.262  31.293  29.247  1.00  0.00     0.074 A 
ATOM     60  C   UNL A   1      42.162  32.061  29.793  1.00  0.00     0.031 C 
ATOM     61  C   UNL A   1      44.503  31.792  29.022  1.00  0.00     0.034 A 
BRANCH  48  62
ATOM     62  C   UNL A   1      48.560  27.617  26.939  1.00  0.00     0.023 A 
ATOM     63  C   UNL A   1      49.465  27.128  27.903  1.00  0.00     0.012 A 
ATOM     64  C   UNL A   1      48.986  27.755  25.603  1.00  0.00     0.148 A 
ATOM     65  C   UNL A   1      50.779  26.819  27.554  1.00  0.00     0.002 A 
ATOM     66  C   UNL A   1      50.282  27.398  25.253  1.00  0.00     0.091 A 
ATOM     67  F   UNL A   1      48.118  28.239  24.702  1.00  0.00    -0.205 F 
ATOM     68  C   UNL A   1      51.184  26.944  26.230  1.00  0.00     0.022 A 
BRANCH  66  69
ATOM     69  S   UNL A   1      50.878  27.443  23.559  1.00  0.00     0.127 S 
ATOM     70  O   UNL A   1      49.830  26.703  22.858  1.00  0.00    -0.237 OA
ATOM     71  O   UNL A   1      50.900  28.879  23.280  1.00  0.00    -0.237 OA
ATOM     72  O   UNL A   1      52.187  26.806  23.576  1.00  0.00    -0.744 OA
ENDBRANCH  66  69
ENDBRANCH  48  62
BRANCH  49  73
ATOM     73  C   UNL A   1      39.119  29.135  29.852  1.00  0.00     0.023 A 
ATOM     74  C   UNL A   1      38.770  28.769  31.167  1.00  0.00     0.012 A 
ATOM     75  C   UNL A   1      38.145  29.723  29.022  1.00  0.00     0.148 A 
ATOM     76  C   UNL A   1      37.467  28.949  31.633  1.00  0.00     0.002 A 
ATOM     77  C   UNL A   1      36.865  29.954  29.512  1.00  0.00     0.091 A 
ATOM     78  F   UNL A   1      38.495  30.058  27.772  1.00  0.00    -0.205 F 
ATOM     79  C   UNL A   1      36.518  29.549  30.810  1.00  0.00     0.022 A 
BRANCH  77  80
ATOM     80  S   UNL A   1      35.620  30.844  28.572  1.00  0.00     0.127 S 
ATOM     81  O   UNL A   1      34.849  29.751  27.987  1.00  0.00    -0.237 OA
ATOM     82  O   UNL A   1      34.929  31.595  29.621  1.00  0.00    -0.237 OA
ATOM     83  O   UNL A   1      36.356  31.675  27.628  1.00  0.00    -0.744 OA
ENDBRANCH  77  80
ENDBRANCH  49  73
BRANCH  61  84
ATOM     84  C   UNL A   1      44.733  33.251  29.319  1.00  0.00     0.023 A 
ATOM     85  C   UNL A   1      45.181  33.654  30.592  1.00  0.00     0.012 A 
ATOM     86  C   UNL A   1      44.565  34.219  28.307  1.00  0.00     0.148 A 
ATOM     87  C   UNL A   1      45.421  34.999  30.867  1.00  0.00     0.002 A 
ATOM     88  C   UNL A   1      44.859  35.550  28.573  1.00  0.00     0.091 A 
ATOM     89  F   UNL A   1      44.121  33.819  27.107  1.00  0.00    -0.205 F 
ATOM     90  C   UNL A   1      45.272  35.945  29.855  1.00  0.00     0.022 A 
BRANCH  88  91
ATOM     91  S   UNL A   1      44.793  36.822  27.305  1.00  0.00     0.127 S 
ATOM     92  O   UNL A   1      45.750  36.313  26.324  1.00  0.00    -0.237 OA
ATOM     93  O   UNL A   1      43.395  36.763  26.881  1.00  0.00    -0.237 OA
ATOM     94  O   UNL A   1      45.174  38.065  27.962  1.00  0.00    -0.744 OA
ENDBRANCH  88  91
ENDBRANCH  61  84
ENDBRANCH  35  36
ENDBRANCH  27  30
ENDBRANCH  25  26
ENDBRANCH  24  25
ENDBRANCH   1  24
TORSDOF 18
ENDMDL
MODEL 3
REMARK VINA RESULT:     -11.5      5.959     11.174
REMARK SMILES CC1(CNS(=O)(=O)Cc2ccc(C(=O)NCCCNC(=O)c3ccc(-c4c5nc(c(-c6cccc(S(=O)(=O)[O-])c6F)c6ccc([nH]6)c(-c6cccc(S(=O)(=O)[O-])c6F)c6nc(c(-c7cccc(S(=O)(=O)[O-])c7F)c7ccc4[nH]7)C=C6)C=C5)cc3)cc2)COC1
REMARK SMILES IDX 16 1 15 2 13 3 14 4 12 6 9 7 10 8 86 9 11 10 85 11 8 12 5 13
REMARK SMILES IDX 6 14 7 15 4 16 3 18 2 19 1 20 87 21 89 22 88 23 17 24 18 25
REMARK SMILES IDX 19 26 20 27 21 29 22 30 23 31 84 32 24 33 83 34 25 35 26 36
REMARK SMILES IDX 27 37 77 38 28 39 82 40 76 41 78 42 29 43 81 44 75 45 74 46
REMARK SMILES IDX 30 48 62 49 42 50 61 51 43 52 46 53 60 54 79 55 44 56 45 57
REMARK SMILES IDX 59 59 80 60 47 61 31 62 32 63 40 64 33 65 35 66 41 67 34 68
REMARK SMILES IDX 36 69 37 70 38 71 39 72 63 73 64 74 72 75 65 76 67 77 73 78
REMARK SMILES IDX 66 79 68 80 69 81 70 82 71 83 48 84 49 85 57 86 50 87 52 88
REMARK SMILES IDX 58 89 51 90 53 91 54 92 55 93 56 94
REMARK H PARENT 15 5 4 17 19 28 78 47 46 58
REMARK Flexibility Score: inf
ROOT
ATOM      1  C   UNL A   1      37.609  20.627  25.054  1.00  0.00     0.118 C 
ENDROOT
BRANCH   1   2
ATOM      2  N   UNL A   1      38.120  21.864  25.623  1.00  0.00    -0.352 N 
ATOM      3  C   UNL A   1      37.627  23.145  25.614  1.00  0.00     0.251 C 
ATOM      4  O   UNL A   1      38.199  23.995  26.296  1.00  0.00    -0.269 OA
ATOM      5  H   UNL A   1      38.974  21.764  26.104  1.00  0.00     0.163 HD
BRANCH   3   6
ATOM      6  C   UNL A   1      36.408  23.528  24.855  1.00  0.00     0.039 A 
ATOM      7  C   UNL A   1      34.009  24.238  23.532  1.00  0.00    -0.032 A 
ATOM      8  C   UNL A   1      34.214  24.593  24.871  1.00  0.00     0.005 A 
ATOM      9  C   UNL A   1      35.058  23.616  22.852  1.00  0.00     0.005 A 
ATOM     10  C   UNL A   1      35.407  24.247  25.523  1.00  0.00     0.014 A 
ATOM     11  C   UNL A   1      36.242  23.263  23.499  1.00  0.00     0.014 A 
BRANCH   7  12
ATOM     12  C   UNL A   1      32.738  24.593  22.806  1.00  0.00     0.189 C 
BRANCH  12  13
ATOM     13  S   UNL A   1      32.956  25.945  21.625  1.00  0.00     0.215 S 
ATOM     14  O   UNL A   1      32.871  25.394  20.287  1.00  0.00    -0.212 OA
ATOM     15  O   UNL A   1      34.105  26.735  22.008  1.00  0.00    -0.212 OA
BRANCH  13  16
ATOM     16  N   UNL A   1      31.629  26.966  21.807  1.00  0.00    -0.214 NA
ATOM     17  H   UNL A   1      31.199  27.061  20.886  1.00  0.00     0.141 HD
BRANCH  16  18
ATOM     18  C   UNL A   1      31.839  28.335  22.329  1.00  0.00     0.110 C 
BRANCH  18  19
ATOM     19  C   UNL A   1      30.669  28.800  23.214  1.00  0.00     0.028 C 
ATOM     20  C   UNL A   1      31.032  29.164  24.647  1.00  0.00     0.018 C 
ATOM     21  C   UNL A   1      29.456  27.849  23.122  1.00  0.00     0.170 C 
ATOM     22  C   UNL A   1      29.720  29.794  22.515  1.00  0.00     0.170 C 
ATOM     23  O   UNL A   1      28.830  28.713  22.136  1.00  0.00    -0.380 OA
ENDBRANCH  18  19
ENDBRANCH  16  18
ENDBRANCH  13  16
ENDBRANCH  12  13
ENDBRANCH   7  12
ENDBRANCH   3   6
ENDBRANCH   1   2
BRANCH   1  24
ATOM     24  C   UNL A   1      38.609  19.482  25.205  1.00  0.00     0.042 C 
BRANCH  24  25
ATOM     25  C   UNL A   1      39.683  19.743  26.258  1.00  0.00     0.118 C 
BRANCH  25  26
ATOM     26  N   UNL A   1      40.881  18.948  26.026  1.00  0.00    -0.352 N 
ATOM     27  C   UNL A   1      42.182  19.343  25.842  1.00  0.00     0.251 C 
ATOM     28  H   UNL A   1      40.733  17.974  25.995  1.00  0.00     0.163 HD
ATOM     29  O   UNL A   1      43.002  18.525  25.432  1.00  0.00    -0.269 OA
BRANCH  27  30
ATOM     30  C   UNL A   1      42.601  20.734  26.126  1.00  0.00     0.039 A 
ATOM     31  C   UNL A   1      42.726  21.139  27.459  1.00  0.00     0.014 A 
ATOM     32  C   UNL A   1      42.822  21.650  25.094  1.00  0.00     0.014 A 
ATOM     33  C   UNL A   1      43.117  22.446  27.753  1.00  0.00     0.010 A 
ATOM     34  C   UNL A   1      43.288  22.929  25.389  1.00  0.00     0.010 A 
ATOM     35  C   UNL A   1      43.429  23.346  26.721  1.00  0.00    -0.014 A 
BRANCH  35  36
ATOM     36  C   UNL A   1      43.910  24.720  27.018  1.00  0.00     0.031 A 
ATOM     37  C   UNL A   1      42.970  25.753  27.579  1.00  0.00     0.074 A 
ATOM     38  C   UNL A   1      45.179  25.058  26.710  1.00  0.00     0.049 A 
ATOM     39  N   UNL A   1      43.198  27.010  27.856  1.00  0.00    -0.248 NA
ATOM     40  C   UNL A   1      41.586  25.325  27.841  1.00  0.00     0.031 C 
ATOM     41  C   UNL A   1      46.165  24.167  26.096  1.00  0.00     0.029 A 
ATOM     42  N   UNL A   1      45.849  26.248  26.850  1.00  0.00    -0.354 N 
ATOM     43  C   UNL A   1      41.986  27.532  28.291  1.00  0.00     0.074 A 
ATOM     44  C   UNL A   1      41.013  26.463  28.207  1.00  0.00     0.031 C 
ATOM     45  C   UNL A   1      47.314  24.837  25.918  1.00  0.00     0.029 A 
ATOM     46  C   UNL A   1      47.138  26.213  26.371  1.00  0.00     0.049 A 
ATOM     47  H   UNL A   1      45.446  27.049  27.254  1.00  0.00     0.167 HD
ATOM     48  C   UNL A   1      41.709  28.778  28.745  1.00  0.00     0.034 A 
ATOM     49  C   UNL A   1      48.070  27.183  26.293  1.00  0.00     0.034 A 
ATOM     50  C   UNL A   1      42.685  29.828  28.855  1.00  0.00     0.049 A 
ATOM     51  C   UNL A   1      47.744  28.551  26.826  1.00  0.00     0.074 A 
ATOM     52  C   UNL A   1      42.526  31.100  29.376  1.00  0.00     0.029 A 
ATOM     53  N   UNL A   1      44.001  29.734  28.427  1.00  0.00    -0.354 N 
ATOM     54  N   UNL A   1      46.632  28.982  27.372  1.00  0.00    -0.248 NA
ATOM     55  C   UNL A   1      48.813  29.559  26.766  1.00  0.00     0.031 C 
ATOM     56  C   UNL A   1      43.736  31.787  29.230  1.00  0.00     0.029 A 
ATOM     57  C   UNL A   1      44.661  30.929  28.659  1.00  0.00     0.049 A 
ATOM     58  H   UNL A   1      44.406  28.936  28.018  1.00  0.00     0.167 HD
ATOM     59  C   UNL A   1      46.880  30.294  27.756  1.00  0.00     0.074 A 
ATOM     60  C   UNL A   1      48.254  30.581  27.399  1.00  0.00     0.031 C 
ATOM     61  C   UNL A   1      46.043  31.186  28.343  1.00  0.00     0.034 A 
BRANCH  48  62
ATOM     62  C   UNL A   1      40.299  29.064  29.197  1.00  0.00     0.023 A 
ATOM     63  C   UNL A   1      39.317  29.412  28.248  1.00  0.00     0.012 A 
ATOM     64  C   UNL A   1      39.931  28.930  30.551  1.00  0.00     0.148 A 
ATOM     65  C   UNL A   1      38.003  29.662  28.641  1.00  0.00     0.002 A 
ATOM     66  C   UNL A   1      38.609  29.131  30.928  1.00  0.00     0.091 A 
ATOM     67  F   UNL A   1      40.881  28.614  31.444  1.00  0.00    -0.205 F 
ATOM     68  C   UNL A   1      37.647  29.512  29.977  1.00  0.00     0.022 A 
BRANCH  66  69
ATOM     69  S   UNL A   1      38.029  28.882  32.610  1.00  0.00     0.127 S 
ATOM     70  O   UNL A   1      38.941  29.740  33.366  1.00  0.00    -0.237 OA
ATOM     71  O   UNL A   1      36.653  29.373  32.536  1.00  0.00    -0.237 OA
ATOM     72  O   UNL A   1      38.154  27.455  32.872  1.00  0.00    -0.744 OA
ENDBRANCH  66  69
ENDBRANCH  48  62
BRANCH  49  73
ATOM     73  C   UNL A   1      49.420  26.879  25.737  1.00  0.00     0.023 A 
ATOM     74  C   UNL A   1      50.369  26.221  26.543  1.00  0.00     0.012 A 
ATOM     75  C   UNL A   1      49.759  27.218  24.414  1.00  0.00     0.148 A 
ATOM     76  C   UNL A   1      51.646  25.942  26.052  1.00  0.00     0.002 A 
ATOM     77  C   UNL A   1      51.012  26.884  23.912  1.00  0.00     0.091 A 
ATOM     78  F   UNL A   1      48.843  27.850  23.666  1.00  0.00    -0.205 F 
ATOM     79  C   UNL A   1      51.963  26.265  24.736  1.00  0.00     0.022 A 
BRANCH  77  80
ATOM     80  S   UNL A   1      51.459  27.138  22.192  1.00  0.00     0.127 S 
ATOM     81  O   UNL A   1      51.672  28.581  22.147  1.00  0.00    -0.237 OA
ATOM     82  O   UNL A   1      52.673  26.329  22.073  1.00  0.00    -0.237 OA
ATOM     83  O   UNL A   1      50.332  26.641  21.413  1.00  0.00    -0.744 OA
ENDBRANCH  77  80
ENDBRANCH  49  73
BRANCH  61  84
ATOM     84  C   UNL A   1      46.597  32.545  28.682  1.00  0.00     0.023 A 
ATOM     85  C   UNL A   1      47.227  32.765  29.922  1.00  0.00     0.012 A 
ATOM     86  C   UNL A   1      46.551  33.589  27.735  1.00  0.00     0.148 A 
ATOM     87  C   UNL A   1      47.766  34.012  30.232  1.00  0.00     0.002 A 
ATOM     88  C   UNL A   1      47.139  34.813  28.031  1.00  0.00     0.091 A 
ATOM     89  F   UNL A   1      45.932  33.366  26.567  1.00  0.00    -0.205 F 
ATOM     90  C   UNL A   1      47.733  35.031  29.284  1.00  0.00     0.022 A 
BRANCH  88  91
ATOM     91  S   UNL A   1      47.233  36.149  26.834  1.00  0.00     0.127 S 
ATOM     92  O   UNL A   1      48.028  35.539  25.770  1.00  0.00    -0.237 OA
ATOM     93  O   UNL A   1      45.826  36.364  26.498  1.00  0.00    -0.237 OA
ATOM     94  O   UNL A   1      47.867  37.264  27.525  1.00  0.00    -0.744 OA
ENDBRANCH  88  91
ENDBRANCH  61  84
ENDBRANCH  35  36
ENDBRANCH  27  30
ENDBRANCH  25  26
ENDBRANCH  24  25
ENDBRANCH   1  24
TORSDOF 18
ENDMDL
