MODEL 1
REMARK VINA RESULT:     -11.8      0.000      0.000
REMARK SMILES C[NH2+][C@@]1(C(=O)NCCCNC(=O)c2ccc(-c3c4nc(c(-c5cccc(S(=O)(=O)[O-])c5F)c5ccc([nH]5)c(-c5cccc(S(=O)(=O)[O-])c5F)c5nc(c(-c6cccc(S(=O)(=O)[O-])c6F)c6ccc3[nH]6)C=C5)C=C4)cc2)CC[C@H](Sc2ccc(C)c(C)c2)C1
REMARK SMILES IDX 8 1 7 2 6 3 4 4 5 5 3 7 76 8 88 9 77 10 78 11 2 12 1 13
REMARK SMILES IDX 79 16 80 17 81 18 87 19 82 20 85 21 83 22 86 23 84 24 9 25
REMARK SMILES IDX 10 26 11 27 12 29 13 30 14 31 75 32 15 33 74 34 16 35 17 36
REMARK SMILES IDX 18 37 68 38 19 39 73 40 67 41 69 42 20 43 72 44 66 45 65 46
REMARK SMILES IDX 21 48 53 49 33 50 52 51 34 52 37 53 51 54 70 55 35 56 36 57
REMARK SMILES IDX 50 59 71 60 38 61 22 62 23 63 31 64 24 65 26 66 32 67 25 68
REMARK SMILES IDX 27 69 28 70 29 71 30 72 54 73 55 74 63 75 56 76 58 77 64 78
REMARK SMILES IDX 57 79 59 80 60 81 61 82 62 83 39 84 40 85 48 86 41 87 43 88
REMARK SMILES IDX 49 89 42 90 44 91 45 92 46 93 47 94
REMARK H PARENT 6 6 2 14 2 15 10 28 69 47 37 58
REMARK Flexibility Score: inf
ROOT
ATOM      1  C   UNL A   1      31.269  31.951  26.510  1.00  0.00     0.042 C 
ENDROOT
BRANCH   1   2
ATOM      2  C   UNL A   1      31.328  30.461  26.249  1.00  0.00     0.118 C 
BRANCH   2   3
ATOM      3  N   UNL A   1      32.453  30.089  25.431  1.00  0.00    -0.351 N 
ATOM      4  C   UNL A   1      32.551  29.273  24.351  1.00  0.00     0.281 C 
ATOM      5  O   UNL A   1      33.722  29.035  24.011  1.00  0.00    -0.268 OA
ATOM      6  H   UNL A   1      33.304  30.500  25.705  1.00  0.00     0.163 HD
BRANCH   4   7
ATOM      7  C   UNL A   1      31.313  28.626  23.569  1.00  0.00     0.176 C 
ATOM      8  C   UNL A   1      30.564  27.560  24.391  1.00  0.00     0.080 C 
ATOM      9  C   UNL A   1      31.783  27.917  22.281  1.00  0.00     0.094 C 
ATOM     10  C   UNL A   1      30.859  26.186  23.781  1.00  0.00     0.022 C 
ATOM     11  C   UNL A   1      31.359  26.432  22.363  1.00  0.00     0.058 C 
BRANCH   7  12
ATOM     12  N   UNL A   1      30.466  29.809  23.258  1.00  0.00    -0.336 N 
ATOM     13  C   UNL A   1      29.638  29.838  22.079  1.00  0.00     0.331 C 
ATOM     14  H   UNL A   1      29.842  29.937  24.054  1.00  0.00     0.346 HD
ATOM     15  H   UNL A   1      31.156  30.536  23.067  1.00  0.00     0.346 HD
ENDBRANCH   7  12
BRANCH  11  16
ATOM     16  S   UNL A   1      32.684  25.396  21.583  1.00  0.00    -0.122 SA
BRANCH  16  17
ATOM     17  C   UNL A   1      33.358  24.248  22.772  1.00  0.00     0.008 A 
ATOM     18  C   UNL A   1      34.309  24.566  23.734  1.00  0.00     0.015 A 
ATOM     19  C   UNL A   1      32.790  22.962  22.814  1.00  0.00     0.018 A 
ATOM     20  C   UNL A   1      34.719  23.610  24.676  1.00  0.00     0.005 A 
ATOM     21  C   UNL A   1      33.196  21.985  23.745  1.00  0.00    -0.047 A 
ATOM     22  C   UNL A   1      34.172  22.316  24.697  1.00  0.00    -0.048 A 
ATOM     23  C   UNL A   1      32.533  20.637  23.720  1.00  0.00     0.044 C 
ATOM     24  C   UNL A   1      34.604  21.374  25.788  1.00  0.00     0.044 C 
ENDBRANCH  16  17
ENDBRANCH  11  16
ENDBRANCH   4   7
ENDBRANCH   2   3
ENDBRANCH   1   2
BRANCH   1  25
ATOM     25  C   UNL A   1      32.600  32.570  26.886  1.00  0.00     0.118 C 
BRANCH  25  26
ATOM     26  N   UNL A   1      32.478  33.858  27.564  1.00  0.00    -0.352 N 
ATOM     27  C   UNL A   1      33.183  34.459  28.580  1.00  0.00     0.251 C 
ATOM     28  H   UNL A   1      31.737  34.410  27.223  1.00  0.00     0.163 HD
ATOM     29  O   UNL A   1      32.788  35.548  28.995  1.00  0.00    -0.269 OA
BRANCH  27  30
ATOM     30  C   UNL A   1      34.357  33.817  29.222  1.00  0.00     0.039 A 
ATOM     31  C   UNL A   1      35.636  34.317  28.935  1.00  0.00     0.014 A 
ATOM     32  C   UNL A   1      34.237  32.745  30.100  1.00  0.00     0.014 A 
ATOM     33  C   UNL A   1      36.754  33.845  29.630  1.00  0.00     0.010 A 
ATOM     34  C   UNL A   1      35.320  32.350  30.874  1.00  0.00     0.010 A 
ATOM     35  C   UNL A   1      36.591  32.888  30.636  1.00  0.00    -0.014 A 
BRANCH  35  36
ATOM     36  C   UNL A   1      37.743  32.325  31.373  1.00  0.00     0.031 A 
ATOM     37  C   UNL A   1      38.493  31.180  30.755  1.00  0.00     0.074 A 
ATOM     38  C   UNL A   1      38.049  32.766  32.607  1.00  0.00     0.049 A 
ATOM     39  N   UNL A   1      39.488  30.488  31.240  1.00  0.00    -0.248 NA
ATOM     40  C   UNL A   1      38.042  30.733  29.424  1.00  0.00     0.031 C 
ATOM     41  C   UNL A   1      37.344  33.824  33.330  1.00  0.00     0.029 A 
ATOM     42  N   UNL A   1      39.015  32.350  33.488  1.00  0.00    -0.354 N 
ATOM     43  C   UNL A   1      39.758  29.510  30.293  1.00  0.00     0.074 A 
ATOM     44  C   UNL A   1      38.795  29.664  29.227  1.00  0.00     0.031 C 
ATOM     45  C   UNL A   1      37.897  33.972  34.546  1.00  0.00     0.029 A 
ATOM     46  C   UNL A   1      38.979  33.004  34.697  1.00  0.00     0.049 A 
ATOM     47  H   UNL A   1      39.672  31.649  33.274  1.00  0.00     0.167 HD
ATOM     48  C   UNL A   1      40.743  28.583  30.292  1.00  0.00     0.034 A 
ATOM     49  C   UNL A   1      39.734  32.831  35.802  1.00  0.00     0.034 A 
ATOM     50  C   UNL A   1      41.707  28.450  31.346  1.00  0.00     0.049 A 
ATOM     51  C   UNL A   1      40.832  31.799  35.771  1.00  0.00     0.074 A 
ATOM     52  C   UNL A   1      42.790  27.595  31.418  1.00  0.00     0.029 A 
ATOM     53  N   UNL A   1      41.691  29.182  32.523  1.00  0.00    -0.354 N 
ATOM     54  N   UNL A   1      41.180  30.990  34.799  1.00  0.00    -0.248 NA
ATOM     55  C   UNL A   1      41.667  31.682  36.976  1.00  0.00     0.031 C 
ATOM     56  C   UNL A   1      43.409  27.786  32.657  1.00  0.00     0.029 A 
ATOM     57  C   UNL A   1      42.738  28.790  33.336  1.00  0.00     0.049 A 
ATOM     58  H   UNL A   1      41.032  29.879  32.746  1.00  0.00     0.167 HD
ATOM     59  C   UNL A   1      42.301  30.304  35.256  1.00  0.00     0.074 A 
ATOM     60  C   UNL A   1      42.580  30.802  36.587  1.00  0.00     0.031 C 
ATOM     61  C   UNL A   1      43.028  29.342  34.635  1.00  0.00     0.034 A 
BRANCH  48  62
ATOM     62  C   UNL A   1      40.831  27.670  29.100  1.00  0.00     0.023 A 
ATOM     63  C   UNL A   1      40.048  26.498  29.055  1.00  0.00     0.012 A 
ATOM     64  C   UNL A   1      41.677  27.980  28.019  1.00  0.00     0.148 A 
ATOM     65  C   UNL A   1      40.138  25.625  27.972  1.00  0.00     0.002 A 
ATOM     66  C   UNL A   1      41.724  27.131  26.920  1.00  0.00     0.091 A 
ATOM     67  F   UNL A   1      42.434  29.083  28.094  1.00  0.00    -0.205 F 
ATOM     68  C   UNL A   1      40.968  25.946  26.902  1.00  0.00     0.022 A 
BRANCH  66  69
ATOM     69  S   UNL A   1      42.701  27.494  25.460  1.00  0.00     0.127 S 
ATOM     70  O   UNL A   1      44.020  27.741  26.042  1.00  0.00    -0.237 OA
ATOM     71  O   UNL A   1      42.594  26.244  24.704  1.00  0.00    -0.237 OA
ATOM     72  O   UNL A   1      42.073  28.644  24.828  1.00  0.00    -0.744 OA
ENDBRANCH  66  69
ENDBRANCH  48  62
BRANCH  49  73
ATOM     73  C   UNL A   1      39.528  33.691  37.002  1.00  0.00     0.023 A 
ATOM     74  C   UNL A   1      40.016  35.014  36.998  1.00  0.00     0.012 A 
ATOM     75  C   UNL A   1      38.859  33.213  38.146  1.00  0.00     0.148 A 
ATOM     76  C   UNL A   1      39.881  35.828  38.122  1.00  0.00     0.002 A 
ATOM     77  C   UNL A   1      38.683  34.047  39.245  1.00  0.00     0.091 A 
ATOM     78  F   UNL A   1      38.407  31.952  38.135  1.00  0.00    -0.205 F 
ATOM     79  C   UNL A   1      39.209  35.348  39.242  1.00  0.00     0.022 A 
BRANCH  77  80
ATOM     80  S   UNL A   1      37.737  33.556  40.691  1.00  0.00     0.127 S 
ATOM     81  O   UNL A   1      37.668  34.808  41.441  1.00  0.00    -0.237 OA
ATOM     82  O   UNL A   1      36.472  33.129  40.090  1.00  0.00    -0.237 OA
ATOM     83  O   UNL A   1      38.499  32.486  41.317  1.00  0.00    -0.744 OA
ENDBRANCH  77  80
ENDBRANCH  49  73
BRANCH  61  84
ATOM     84  C   UNL A   1      44.232  28.797  35.357  1.00  0.00     0.023 A 
ATOM     85  C   UNL A   1      45.499  29.380  35.162  1.00  0.00     0.012 A 
ATOM     86  C   UNL A   1      44.083  27.762  36.302  1.00  0.00     0.148 A 
ATOM     87  C   UNL A   1      46.606  28.920  35.875  1.00  0.00     0.002 A 
ATOM     88  C   UNL A   1      45.178  27.348  37.048  1.00  0.00     0.091 A 
ATOM     89  F   UNL A   1      42.871  27.210  36.459  1.00  0.00    -0.205 F 
ATOM     90  C   UNL A   1      46.443  27.915  36.826  1.00  0.00     0.022 A 
BRANCH  88  91
ATOM     91  S   UNL A   1      45.039  26.138  38.369  1.00  0.00     0.127 S 
ATOM     92  O   UNL A   1      44.074  26.781  39.260  1.00  0.00    -0.237 OA
ATOM     93  O   UNL A   1      44.528  24.964  37.660  1.00  0.00    -0.237 OA
ATOM     94  O   UNL A   1      46.381  25.979  38.914  1.00  0.00    -0.744 OA
ENDBRANCH  88  91
ENDBRANCH  61  84
ENDBRANCH  35  36
ENDBRANCH  27  30
ENDBRANCH  25  26
ENDBRANCH   1  25
TORSDOF 16
ENDMDL
MODEL 2
REMARK VINA RESULT:     -11.8      2.076      8.026
REMARK SMILES C[NH2+][C@@]1(C(=O)NCCCNC(=O)c2ccc(-c3c4nc(c(-c5cccc(S(=O)(=O)[O-])c5F)c5ccc([nH]5)c(-c5cccc(S(=O)(=O)[O-])c5F)c5nc(c(-c6cccc(S(=O)(=O)[O-])c6F)c6ccc3[nH]6)C=C5)C=C4)cc2)CC[C@H](Sc2ccc(C)c(C)c2)C1
REMARK SMILES IDX 8 1 7 2 6 3 4 4 5 5 3 7 76 8 88 9 77 10 78 11 2 12 1 13
REMARK SMILES IDX 79 16 80 17 81 18 87 19 82 20 85 21 83 22 86 23 84 24 9 25
REMARK SMILES IDX 10 26 11 27 12 29 13 30 14 31 75 32 15 33 74 34 16 35 17 36
REMARK SMILES IDX 18 37 68 38 19 39 73 40 67 41 69 42 20 43 72 44 66 45 65 46
REMARK SMILES IDX 21 48 53 49 33 50 52 51 34 52 37 53 51 54 70 55 35 56 36 57
REMARK SMILES IDX 50 59 71 60 38 61 22 62 23 63 31 64 24 65 26 66 32 67 25 68
REMARK SMILES IDX 27 69 28 70 29 71 30 72 54 73 55 74 63 75 56 76 58 77 64 78
REMARK SMILES IDX 57 79 59 80 60 81 61 82 62 83 39 84 40 85 48 86 41 87 43 88
REMARK SMILES IDX 49 89 42 90 44 91 45 92 46 93 47 94
REMARK H PARENT 6 6 2 14 2 15 10 28 69 47 37 58
REMARK Flexibility Score: inf
ROOT
ATOM      1  C   UNL A   1      31.708  30.909  25.907  1.00  0.00     0.042 C 
ENDROOT
BRANCH   1   2
ATOM      2  C   UNL A   1      31.438  29.452  25.595  1.00  0.00     0.118 C 
BRANCH   2   3
ATOM      3  N   UNL A   1      32.578  28.793  25.013  1.00  0.00    -0.351 N 
ATOM      4  C   UNL A   1      32.672  27.802  24.090  1.00  0.00     0.281 C 
ATOM      5  O   UNL A   1      33.821  27.347  23.963  1.00  0.00    -0.268 OA
ATOM      6  H   UNL A   1      33.446  29.120  25.343  1.00  0.00     0.163 HD
BRANCH   4   7
ATOM      7  C   UNL A   1      31.449  27.213  23.241  1.00  0.00     0.176 C 
ATOM      8  C   UNL A   1      30.170  27.014  24.075  1.00  0.00     0.080 C 
ATOM      9  C   UNL A   1      31.797  25.827  22.659  1.00  0.00     0.094 C 
ATOM     10  C   UNL A   1      29.945  25.510  24.262  1.00  0.00     0.022 C 
ATOM     11  C   UNL A   1      30.760  24.806  23.184  1.00  0.00     0.058 C 
BRANCH   7  12
ATOM     12  N   UNL A   1      31.279  28.226  22.165  1.00  0.00    -0.336 N 
ATOM     13  C   UNL A   1      30.174  29.151  22.187  1.00  0.00     0.331 C 
ATOM     14  H   UNL A   1      32.129  28.790  22.159  1.00  0.00     0.346 HD
ATOM     15  H   UNL A   1      31.077  27.653  21.345  1.00  0.00     0.346 HD
ENDBRANCH   7  12
BRANCH  11  16
ATOM     16  S   UNL A   1      31.622  23.193  23.486  1.00  0.00    -0.122 SA
BRANCH  16  17
ATOM     17  C   UNL A   1      33.228  23.470  24.214  1.00  0.00     0.008 A 
ATOM     18  C   UNL A   1      33.448  23.867  25.528  1.00  0.00     0.015 A 
ATOM     19  C   UNL A   1      34.350  23.140  23.434  1.00  0.00     0.018 A 
ATOM     20  C   UNL A   1      34.753  23.983  26.029  1.00  0.00     0.005 A 
ATOM     21  C   UNL A   1      35.670  23.260  23.916  1.00  0.00    -0.047 A 
ATOM     22  C   UNL A   1      35.875  23.682  25.238  1.00  0.00    -0.048 A 
ATOM     23  C   UNL A   1      36.810  22.882  23.015  1.00  0.00     0.044 C 
ATOM     24  C   UNL A   1      37.238  23.753  25.873  1.00  0.00     0.044 C 
ENDBRANCH  16  17
ENDBRANCH  11  16
ENDBRANCH   4   7
ENDBRANCH   2   3
ENDBRANCH   1   2
BRANCH   1  25
ATOM     25  C   UNL A   1      32.628  31.131  27.090  1.00  0.00     0.118 C 
BRANCH  25  26
ATOM     26  N   UNL A   1      32.963  32.535  27.318  1.00  0.00    -0.352 N 
ATOM     27  C   UNL A   1      34.048  33.166  27.880  1.00  0.00     0.251 C 
ATOM     28  H   UNL A   1      32.268  33.158  27.004  1.00  0.00     0.163 HD
ATOM     29  O   UNL A   1      34.009  34.390  27.998  1.00  0.00    -0.269 OA
BRANCH  27  30
ATOM     30  C   UNL A   1      35.224  32.421  28.394  1.00  0.00     0.039 A 
ATOM     31  C   UNL A   1      36.483  33.037  28.342  1.00  0.00     0.014 A 
ATOM     32  C   UNL A   1      35.125  31.142  28.929  1.00  0.00     0.014 A 
ATOM     33  C   UNL A   1      37.591  32.438  28.949  1.00  0.00     0.010 A 
ATOM     34  C   UNL A   1      36.189  30.592  29.631  1.00  0.00     0.010 A 
ATOM     35  C   UNL A   1      37.435  31.230  29.636  1.00  0.00    -0.014 A 
BRANCH  35  36
ATOM     36  C   UNL A   1      38.581  30.533  30.262  1.00  0.00     0.031 A 
ATOM     37  C   UNL A   1      38.998  30.948  31.643  1.00  0.00     0.074 A 
ATOM     38  C   UNL A   1      39.287  29.620  29.570  1.00  0.00     0.049 A 
ATOM     39  N   UNL A   1      40.004  30.529  32.361  1.00  0.00    -0.248 NA
ATOM     40  C   UNL A   1      38.193  32.000  32.291  1.00  0.00     0.031 C 
ATOM     41  C   UNL A   1      39.011  29.193  28.200  1.00  0.00     0.029 A 
ATOM     42  N   UNL A   1      40.408  28.911  29.919  1.00  0.00    -0.354 N 
ATOM     43  C   UNL A   1      39.971  31.284  33.525  1.00  0.00     0.074 A 
ATOM     44  C   UNL A   1      38.879  32.220  33.401  1.00  0.00     0.031 C 
ATOM     45  C   UNL A   1      39.940  28.299  27.821  1.00  0.00     0.029 A 
ATOM     46  C   UNL A   1      40.890  28.108  28.912  1.00  0.00     0.049 A 
ATOM     47  H   UNL A   1      40.828  28.971  30.808  1.00  0.00     0.167 HD
ATOM     48  C   UNL A   1      40.761  31.187  34.618  1.00  0.00     0.034 A 
ATOM     49  C   UNL A   1      41.980  27.314  28.880  1.00  0.00     0.034 A 
ATOM     50  C   UNL A   1      41.833  30.241  34.741  1.00  0.00     0.049 A 
ATOM     51  C   UNL A   1      42.838  27.215  30.115  1.00  0.00     0.074 A 
ATOM     52  C   UNL A   1      42.652  30.005  35.829  1.00  0.00     0.029 A 
ATOM     53  N   UNL A   1      42.245  29.385  33.731  1.00  0.00    -0.354 N 
ATOM     54  N   UNL A   1      42.696  27.817  31.272  1.00  0.00    -0.248 NA
ATOM     55  C   UNL A   1      43.985  26.297  30.055  1.00  0.00     0.031 C 
ATOM     56  C   UNL A   1      43.585  29.030  35.462  1.00  0.00     0.029 A 
ATOM     57  C   UNL A   1      43.317  28.628  34.163  1.00  0.00     0.049 A 
ATOM     58  H   UNL A   1      41.834  29.325  32.838  1.00  0.00     0.167 HD
ATOM     59  C   UNL A   1      43.703  27.317  32.090  1.00  0.00     0.074 A 
ATOM     60  C   UNL A   1      44.440  26.352  31.300  1.00  0.00     0.031 C 
ATOM     61  C   UNL A   1      43.999  27.632  33.376  1.00  0.00     0.034 A 
BRANCH  48  62
ATOM     62  C   UNL A   1      40.466  32.111  35.768  1.00  0.00     0.023 A 
ATOM     63  C   UNL A   1      41.291  33.233  35.995  1.00  0.00     0.012 A 
ATOM     64  C   UNL A   1      39.366  31.878  36.613  1.00  0.00     0.148 A 
ATOM     65  C   UNL A   1      41.051  34.083  37.073  1.00  0.00     0.002 A 
ATOM     66  C   UNL A   1      39.103  32.759  37.655  1.00  0.00     0.091 A 
ATOM     67  F   UNL A   1      38.611  30.791  36.398  1.00  0.00    -0.205 F 
ATOM     68  C   UNL A   1      39.953  33.852  37.896  1.00  0.00     0.022 A 
BRANCH  66  69
ATOM     69  S   UNL A   1      37.670  32.593  38.723  1.00  0.00     0.127 S 
ATOM     70  O   UNL A   1      37.844  33.730  39.627  1.00  0.00    -0.237 OA
ATOM     71  O   UNL A   1      36.565  32.734  37.772  1.00  0.00    -0.237 OA
ATOM     72  O   UNL A   1      37.778  31.282  39.342  1.00  0.00    -0.744 OA
ENDBRANCH  66  69
ENDBRANCH  48  62
BRANCH  49  73
ATOM     73  C   UNL A   1      42.290  26.502  27.668  1.00  0.00     0.023 A 
ATOM     74  C   UNL A   1      42.943  27.110  26.576  1.00  0.00     0.012 A 
ATOM     75  C   UNL A   1      41.940  25.140  27.585  1.00  0.00     0.148 A 
ATOM     76  C   UNL A   1      43.203  26.390  25.409  1.00  0.00     0.002 A 
ATOM     77  C   UNL A   1      42.249  24.415  26.438  1.00  0.00     0.091 A 
ATOM     78  F   UNL A   1      41.315  24.581  28.629  1.00  0.00    -0.205 F 
ATOM     79  C   UNL A   1      42.864  25.042  25.343  1.00  0.00     0.022 A 
BRANCH  77  80
ATOM     80  S   UNL A   1      41.950  22.649  26.300  1.00  0.00     0.127 S 
ATOM     81  O   UNL A   1      42.574  22.340  25.016  1.00  0.00    -0.237 OA
ATOM     82  O   UNL A   1      42.663  22.133  27.471  1.00  0.00    -0.237 OA
ATOM     83  O   UNL A   1      40.505  22.487  26.355  1.00  0.00    -0.744 OA
ENDBRANCH  77  80
ENDBRANCH  49  73
BRANCH  61  84
ATOM     84  C   UNL A   1      45.132  26.894  34.037  1.00  0.00     0.023 A 
ATOM     85  C   UNL A   1      46.450  27.379  33.934  1.00  0.00     0.012 A 
ATOM     86  C   UNL A   1      44.869  25.765  34.839  1.00  0.00     0.148 A 
ATOM     87  C   UNL A   1      47.494  26.733  34.595  1.00  0.00     0.002 A 
ATOM     88  C   UNL A   1      45.905  25.162  35.540  1.00  0.00     0.091 A 
ATOM     89  F   UNL A   1      43.610  25.310  34.910  1.00  0.00    -0.205 F 
ATOM     90  C   UNL A   1      47.220  25.635  35.407  1.00  0.00     0.022 A 
BRANCH  88  91
ATOM     91  S   UNL A   1      45.628  23.813  36.693  1.00  0.00     0.127 S 
ATOM     92  O   UNL A   1      44.682  24.413  37.631  1.00  0.00    -0.237 OA
ATOM     93  O   UNL A   1      45.058  22.779  35.828  1.00  0.00    -0.237 OA
ATOM     94  O   UNL A   1      46.934  23.482  37.249  1.00  0.00    -0.744 OA
ENDBRANCH  88  91
ENDBRANCH  61  84
ENDBRANCH  35  36
ENDBRANCH  27  30
ENDBRANCH  25  26
ENDBRANCH   1  25
TORSDOF 16
ENDMDL
MODEL 3
REMARK VINA RESULT:     -11.3      3.214      8.539
REMARK SMILES C[NH2+][C@@]1(C(=O)NCCCNC(=O)c2ccc(-c3c4nc(c(-c5cccc(S(=O)(=O)[O-])c5F)c5ccc([nH]5)c(-c5cccc(S(=O)(=O)[O-])c5F)c5nc(c(-c6cccc(S(=O)(=O)[O-])c6F)c6ccc3[nH]6)C=C5)C=C4)cc2)CC[C@H](Sc2ccc(C)c(C)c2)C1
REMARK SMILES IDX 8 1 7 2 6 3 4 4 5 5 3 7 76 8 88 9 77 10 78 11 2 12 1 13
REMARK SMILES IDX 79 16 80 17 81 18 87 19 82 20 85 21 83 22 86 23 84 24 9 25
REMARK SMILES IDX 10 26 11 27 12 29 13 30 14 31 75 32 15 33 74 34 16 35 17 36
REMARK SMILES IDX 18 37 68 38 19 39 73 40 67 41 69 42 20 43 72 44 66 45 65 46
REMARK SMILES IDX 21 48 53 49 33 50 52 51 34 52 37 53 51 54 70 55 35 56 36 57
REMARK SMILES IDX 50 59 71 60 38 61 22 62 23 63 31 64 24 65 26 66 32 67 25 68
REMARK SMILES IDX 27 69 28 70 29 71 30 72 54 73 55 74 63 75 56 76 58 77 64 78
REMARK SMILES IDX 57 79 59 80 60 81 61 82 62 83 39 84 40 85 48 86 41 87 43 88
REMARK SMILES IDX 49 89 42 90 44 91 45 92 46 93 47 94
REMARK H PARENT 6 6 2 14 2 15 10 28 69 47 37 58
REMARK Flexibility Score: inf
ROOT
ATOM      1  C   UNL A   1      32.434  28.628  26.833  1.00  0.00     0.042 C 
ENDROOT
BRANCH   1   2
ATOM      2  C   UNL A   1      31.991  29.277  25.539  1.00  0.00     0.118 C 
BRANCH   2   3
ATOM      3  N   UNL A   1      32.859  28.956  24.437  1.00  0.00    -0.351 N 
ATOM      4  C   UNL A   1      32.699  28.126  23.375  1.00  0.00     0.281 C 
ATOM      5  O   UNL A   1      33.738  27.952  22.717  1.00  0.00    -0.268 OA
ATOM      6  H   UNL A   1      33.725  29.424  24.456  1.00  0.00     0.163 HD
BRANCH   4   7
ATOM      7  C   UNL A   1      31.334  27.388  22.979  1.00  0.00     0.176 C 
ATOM      8  C   UNL A   1      30.448  27.056  24.193  1.00  0.00     0.080 C 
ATOM      9  C   UNL A   1      31.616  26.043  22.278  1.00  0.00     0.094 C 
ATOM     10  C   UNL A   1      30.471  25.539  24.407  1.00  0.00     0.022 C 
ATOM     11  C   UNL A   1      30.943  24.918  23.098  1.00  0.00     0.058 C 
BRANCH   7  12
ATOM     12  N   UNL A   1      30.694  28.360  22.052  1.00  0.00    -0.336 N 
ATOM     13  C   UNL A   1      29.972  29.500  22.557  1.00  0.00     0.331 C 
ATOM     14  H   UNL A   1      31.436  28.727  21.457  1.00  0.00     0.346 HD
ATOM     15  H   UNL A   1      29.958  27.804  21.614  1.00  0.00     0.346 HD
ENDBRANCH   7  12
BRANCH  11  16
ATOM     16  S   UNL A   1      32.032  23.418  23.046  1.00  0.00    -0.122 SA
BRANCH  16  17
ATOM     17  C   UNL A   1      33.570  23.735  23.895  1.00  0.00     0.008 A 
ATOM     18  C   UNL A   1      33.745  24.681  24.898  1.00  0.00     0.015 A 
ATOM     19  C   UNL A   1      34.646  22.875  23.612  1.00  0.00     0.018 A 
ATOM     20  C   UNL A   1      34.977  24.801  25.560  1.00  0.00     0.005 A 
ATOM     21  C   UNL A   1      35.894  22.986  24.259  1.00  0.00    -0.047 A 
ATOM     22  C   UNL A   1      36.061  23.961  25.253  1.00  0.00    -0.048 A 
ATOM     23  C   UNL A   1      36.988  22.023  23.896  1.00  0.00     0.044 C 
ATOM     24  C   UNL A   1      37.323  24.097  26.063  1.00  0.00     0.044 C 
ENDBRANCH  16  17
ENDBRANCH  11  16
ENDBRANCH   4   7
ENDBRANCH   2   3
ENDBRANCH   1   2
BRANCH   1  25
ATOM     25  C   UNL A   1      33.757  29.139  27.364  1.00  0.00     0.118 C 
BRANCH  25  26
ATOM     26  N   UNL A   1      33.730  30.546  27.756  1.00  0.00    -0.352 N 
ATOM     27  C   UNL A   1      34.613  31.353  28.435  1.00  0.00     0.251 C 
ATOM     28  H   UNL A   1      32.909  31.013  27.477  1.00  0.00     0.163 HD
ATOM     29  O   UNL A   1      34.270  32.509  28.680  1.00  0.00    -0.269 OA
BRANCH  27  30
ATOM     30  C   UNL A   1      35.925  30.863  28.923  1.00  0.00     0.039 A 
ATOM     31  C   UNL A   1      35.945  29.871  29.916  1.00  0.00     0.014 A 
ATOM     32  C   UNL A   1      37.134  31.343  28.431  1.00  0.00     0.014 A 
ATOM     33  C   UNL A   1      37.150  29.274  30.297  1.00  0.00     0.010 A 
ATOM     34  C   UNL A   1      38.320  30.680  28.719  1.00  0.00     0.010 A 
ATOM     35  C   UNL A   1      38.339  29.648  29.664  1.00  0.00    -0.014 A 
BRANCH  35  36
ATOM     36  C   UNL A   1      39.646  29.077  30.057  1.00  0.00     0.031 A 
ATOM     37  C   UNL A   1      40.420  29.756  31.151  1.00  0.00     0.074 A 
ATOM     38  C   UNL A   1      40.168  28.035  29.385  1.00  0.00     0.049 A 
ATOM     39  N   UNL A   1      41.607  29.477  31.616  1.00  0.00    -0.248 NA
ATOM     40  C   UNL A   1      39.784  30.926  31.784  1.00  0.00     0.031 C 
ATOM     41  C   UNL A   1      39.534  27.344  28.263  1.00  0.00     0.029 A 
ATOM     42  N   UNL A   1      41.374  27.396  29.528  1.00  0.00    -0.354 N 
ATOM     43  C   UNL A   1      41.871  30.451  32.570  1.00  0.00     0.074 A 
ATOM     44  C   UNL A   1      40.746  31.356  32.584  1.00  0.00     0.031 C 
ATOM     45  C   UNL A   1      40.357  26.381  27.815  1.00  0.00     0.029 A 
ATOM     46  C   UNL A   1      41.586  26.401  28.603  1.00  0.00     0.049 A 
ATOM     47  H   UNL A   1      42.026  27.628  30.229  1.00  0.00     0.167 HD
ATOM     48  C   UNL A   1      42.943  30.565  33.386  1.00  0.00     0.034 A 
ATOM     49  C   UNL A   1      42.658  25.604  28.414  1.00  0.00     0.034 A 
ATOM     50  C   UNL A   1      44.048  29.650  33.377  1.00  0.00     0.049 A 
ATOM     51  C   UNL A   1      43.835  25.745  29.344  1.00  0.00     0.074 A 
ATOM     52  C   UNL A   1      45.152  29.627  34.208  1.00  0.00     0.029 A 
ATOM     53  N   UNL A   1      44.195  28.604  32.480  1.00  0.00    -0.354 N 
ATOM     54  N   UNL A   1      44.000  26.569  30.352  1.00  0.00    -0.248 NA
ATOM     55  C   UNL A   1      44.959  24.819  29.138  1.00  0.00     0.031 C 
ATOM     56  C   UNL A   1      45.987  28.587  33.787  1.00  0.00     0.029 A 
ATOM     57  C   UNL A   1      45.379  27.936  32.725  1.00  0.00     0.049 A 
ATOM     58  H   UNL A   1      43.550  28.371  31.773  1.00  0.00     0.167 HD
ATOM     59  C   UNL A   1      45.220  26.231  30.927  1.00  0.00     0.074 A 
ATOM     60  C   UNL A   1      45.746  25.118  30.163  1.00  0.00     0.031 C 
ATOM     61  C   UNL A   1      45.854  26.794  31.985  1.00  0.00     0.034 A 
BRANCH  48  62
ATOM     62  C   UNL A   1      42.944  31.705  34.367  1.00  0.00     0.023 A 
ATOM     63  C   UNL A   1      43.588  32.916  34.035  1.00  0.00     0.012 A 
ATOM     64  C   UNL A   1      42.297  31.583  35.611  1.00  0.00     0.148 A 
ATOM     65  C   UNL A   1      43.626  33.972  34.943  1.00  0.00     0.002 A 
ATOM     66  C   UNL A   1      42.295  32.659  36.491  1.00  0.00     0.091 A 
ATOM     67  F   UNL A   1      41.716  30.416  35.919  1.00  0.00    -0.205 F 
ATOM     68  C   UNL A   1      42.972  33.847  36.166  1.00  0.00     0.022 A 
BRANCH  66  69
ATOM     69  S   UNL A   1      41.417  32.626  38.055  1.00  0.00     0.127 S 
ATOM     70  O   UNL A   1      40.116  32.093  37.651  1.00  0.00    -0.237 OA
ATOM     71  O   UNL A   1      42.235  31.702  38.844  1.00  0.00    -0.237 OA
ATOM     72  O   UNL A   1      41.405  33.997  38.541  1.00  0.00    -0.744 OA
ENDBRANCH  66  69
ENDBRANCH  48  62
BRANCH  49  73
ATOM     73  C   UNL A   1      42.647  24.562  27.348  1.00  0.00     0.023 A 
ATOM     74  C   UNL A   1      43.240  24.842  26.100  1.00  0.00     0.012 A 
ATOM     75  C   UNL A   1      42.053  23.301  27.556  1.00  0.00     0.148 A 
ATOM     76  C   UNL A   1      43.204  23.905  25.066  1.00  0.00     0.002 A 
ATOM     77  C   UNL A   1      42.066  22.353  26.538  1.00  0.00     0.091 A 
ATOM     78  F   UNL A   1      41.489  23.055  28.745  1.00  0.00    -0.205 F 
ATOM     79  C   UNL A   1      42.625  22.660  25.287  1.00  0.00     0.022 A 
BRANCH  77  80
ATOM     80  S   UNL A   1      41.442  20.684  26.761  1.00  0.00     0.127 S 
ATOM     81  O   UNL A   1      41.911  20.024  25.545  1.00  0.00    -0.237 OA
ATOM     82  O   UNL A   1      42.126  20.271  27.988  1.00  0.00    -0.237 OA
ATOM     83  O   UNL A   1      39.999  20.816  26.891  1.00  0.00    -0.744 OA
ENDBRANCH  77  80
ENDBRANCH  49  73
BRANCH  61  84
ATOM     84  C   UNL A   1      47.162  26.189  32.423  1.00  0.00     0.023 A 
ATOM     85  C   UNL A   1      48.379  26.700  31.932  1.00  0.00     0.012 A 
ATOM     86  C   UNL A   1      47.180  25.171  33.398  1.00  0.00     0.148 A 
ATOM     87  C   UNL A   1      49.594  26.185  32.382  1.00  0.00     0.002 A 
ATOM     88  C   UNL A   1      48.394  24.702  33.882  1.00  0.00     0.091 A 
ATOM     89  F   UNL A   1      46.010  24.688  33.839  1.00  0.00    -0.205 F 
ATOM     90  C   UNL A   1      49.602  25.198  33.365  1.00  0.00     0.022 A 
BRANCH  88  91
ATOM     91  S   UNL A   1      48.499  23.512  35.223  1.00  0.00     0.127 S 
ATOM     92  O   UNL A   1      48.750  22.269  34.498  1.00  0.00    -0.237 OA
ATOM     93  O   UNL A   1      49.640  24.013  35.991  1.00  0.00    -0.237 OA
ATOM     94  O   UNL A   1      47.223  23.580  35.924  1.00  0.00    -0.744 OA
ENDBRANCH  88  91
ENDBRANCH  61  84
ENDBRANCH  35  36
ENDBRANCH  27  30
ENDBRANCH  25  26
ENDBRANCH   1  25
TORSDOF 16
ENDMDL
