MODEL 1
REMARK VINA RESULT:     -13.4      0.000      0.000
REMARK SMILES O=C(NCCCNC(=O)[C@@H]1CCCC[C@@H]1NS(=O)(=O)c1ccc2ccccc2c1)c1ccc(-c2c3nc(c(-c4cccc(S(=O)(=O)[O-])c4F)c4ccc([nH]4)c(-c4cccc(S(=O)(=O)[O-])c4F)c4nc(c(-c5cccc(S(=O)(=O)[O-])c5F)c5ccc2[nH]5)C=C4)C=C3)cc1
REMARK SMILES IDX 5 1 4 2 3 3 1 4 2 5 30 7 31 8 92 9 32 10 91 11 33 12 34 13
REMARK SMILES IDX 35 14 85 15 36 16 90 17 84 18 86 19 37 20 89 21 83 22 82 23
REMARK SMILES IDX 38 25 70 26 50 27 69 28 51 29 54 30 68 31 87 32 52 33 53 34
REMARK SMILES IDX 67 36 88 37 55 38 39 39 40 40 48 41 41 42 43 43 49 44 42 45
REMARK SMILES IDX 44 46 45 47 46 48 47 49 71 50 72 51 80 52 73 53 75 54 81 55
REMARK SMILES IDX 74 56 76 57 77 58 78 59 79 60 56 61 57 62 65 63 58 64 60 65
REMARK SMILES IDX 66 66 59 67 61 68 62 69 63 70 64 71 6 72 7 73 8 74 9 76
REMARK SMILES IDX 10 77 11 78 15 79 12 80 14 81 13 82 16 83 17 85 18 86 19 87
REMARK SMILES IDX 20 88 21 89 29 90 22 91 28 92 23 93 27 94 24 95 26 96 25 97
REMARK H PARENT 3 6 86 24 54 35 7 75 16 84
REMARK Flexibility Score: inf
ROOT
ATOM      1  C   UNL A   1      31.878  28.991  26.905  1.00  0.00     0.042 C 
ENDROOT
BRANCH   1   2
ATOM      2  C   UNL A   1      32.423  30.273  26.271  1.00  0.00     0.118 C 
BRANCH   2   3
ATOM      3  N   UNL A   1      32.249  31.518  27.022  1.00  0.00    -0.352 N 
ATOM      4  O   UNL A   1      33.013  33.334  28.181  1.00  0.00    -0.269 OA
ATOM      5  C   UNL A   1      33.248  32.265  27.632  1.00  0.00     0.251 C 
ATOM      6  H   UNL A   1      31.329  31.861  27.103  1.00  0.00     0.163 HD
BRANCH   5   7
ATOM      7  C   UNL A   1      34.605  31.681  27.680  1.00  0.00     0.039 A 
ATOM      8  C   UNL A   1      34.759  30.311  27.889  1.00  0.00     0.014 A 
ATOM      9  C   UNL A   1      35.696  32.548  27.777  1.00  0.00     0.014 A 
ATOM     10  C   UNL A   1      35.948  29.847  28.443  1.00  0.00     0.010 A 
ATOM     11  C   UNL A   1      36.915  32.060  28.250  1.00  0.00     0.010 A 
ATOM     12  C   UNL A   1      37.016  30.729  28.689  1.00  0.00    -0.014 A 
BRANCH  12  13
ATOM     13  C   UNL A   1      38.185  30.269  29.488  1.00  0.00     0.031 A 
ATOM     14  C   UNL A   1      38.361  30.710  30.925  1.00  0.00     0.074 A 
ATOM     15  C   UNL A   1      39.071  29.417  28.941  1.00  0.00     0.049 A 
ATOM     16  N   UNL A   1      39.294  30.375  31.782  1.00  0.00    -0.248 NA
ATOM     17  C   UNL A   1      37.369  31.651  31.473  1.00  0.00     0.031 C 
ATOM     18  C   UNL A   1      39.030  28.933  27.561  1.00  0.00     0.029 A 
ATOM     19  N   UNL A   1      40.176  28.806  29.478  1.00  0.00    -0.354 N 
ATOM     20  C   UNL A   1      39.037  31.100  32.941  1.00  0.00     0.074 A 
ATOM     21  C   UNL A   1      37.859  31.898  32.681  1.00  0.00     0.031 C 
ATOM     22  C   UNL A   1      40.048  28.082  27.365  1.00  0.00     0.029 A 
ATOM     23  C   UNL A   1      40.839  27.993  28.588  1.00  0.00     0.049 A 
ATOM     24  H   UNL A   1      40.467  28.938  30.408  1.00  0.00     0.167 HD
ATOM     25  C   UNL A   1      39.704  31.093  34.121  1.00  0.00     0.034 A 
ATOM     26  C   UNL A   1      41.960  27.261  28.737  1.00  0.00     0.034 A 
ATOM     27  C   UNL A   1      40.838  30.254  34.405  1.00  0.00     0.049 A 
ATOM     28  C   UNL A   1      42.654  27.240  30.069  1.00  0.00     0.074 A 
ATOM     29  C   UNL A   1      41.531  30.119  35.596  1.00  0.00     0.029 A 
ATOM     30  N   UNL A   1      41.446  29.406  33.493  1.00  0.00    -0.354 N 
ATOM     31  N   UNL A   1      42.317  27.836  31.185  1.00  0.00    -0.248 NA
ATOM     32  C   UNL A   1      43.868  26.417  30.168  1.00  0.00     0.031 C 
ATOM     33  C   UNL A   1      42.569  29.201  35.398  1.00  0.00     0.029 A 
ATOM     34  C   UNL A   1      42.509  28.750  34.090  1.00  0.00     0.049 A 
ATOM     35  H   UNL A   1      41.163  29.288  32.557  1.00  0.00     0.167 HD
ATOM     36  C   UNL A   1      43.257  27.437  32.129  1.00  0.00     0.074 A 
ATOM     37  C   UNL A   1      44.163  26.529  31.457  1.00  0.00     0.031 C 
ATOM     38  C   UNL A   1      43.370  27.804  33.429  1.00  0.00     0.034 A 
BRANCH  25  39
ATOM     39  C   UNL A   1      39.205  31.993  35.225  1.00  0.00     0.023 A 
ATOM     40  C   UNL A   1      38.255  31.507  36.145  1.00  0.00     0.012 A 
ATOM     41  C   UNL A   1      39.737  33.286  35.402  1.00  0.00     0.148 A 
ATOM     42  C   UNL A   1      37.823  32.302  37.208  1.00  0.00     0.002 A 
ATOM     43  C   UNL A   1      39.331  34.058  36.486  1.00  0.00     0.091 A 
ATOM     44  F   UNL A   1      40.626  33.741  34.505  1.00  0.00    -0.205 F 
ATOM     45  C   UNL A   1      38.368  33.571  37.383  1.00  0.00     0.022 A 
BRANCH  43  46
ATOM     46  S   UNL A   1      40.039  35.671  36.840  1.00  0.00     0.127 S 
ATOM     47  O   UNL A   1      39.650  36.430  35.653  1.00  0.00    -0.237 OA
ATOM     48  O   UNL A   1      39.338  36.056  38.065  1.00  0.00    -0.237 OA
ATOM     49  O   UNL A   1      41.468  35.451  37.007  1.00  0.00    -0.744 OA
ENDBRANCH  43  46
ENDBRANCH  25  39
BRANCH  26  50
ATOM     50  C   UNL A   1      42.453  26.439  27.598  1.00  0.00     0.023 A 
ATOM     51  C   UNL A   1      43.407  26.981  26.715  1.00  0.00     0.012 A 
ATOM     52  C   UNL A   1      42.025  25.109  27.418  1.00  0.00     0.148 A 
ATOM     53  C   UNL A   1      43.909  26.222  25.659  1.00  0.00     0.002 A 
ATOM     54  C   UNL A   1      42.575  24.339  26.401  1.00  0.00     0.091 A 
ATOM     55  F   UNL A   1      41.104  24.618  28.258  1.00  0.00    -0.205 F 
ATOM     56  C   UNL A   1      43.505  24.897  25.511  1.00  0.00     0.022 A 
BRANCH  54  57
ATOM     57  S   UNL A   1      42.219  22.587  26.233  1.00  0.00     0.127 S 
ATOM     58  O   UNL A   1      40.762  22.585  26.144  1.00  0.00    -0.237 OA
ATOM     59  O   UNL A   1      42.914  22.253  24.988  1.00  0.00    -0.237 OA
ATOM     60  O   UNL A   1      42.787  21.960  27.419  1.00  0.00    -0.744 OA
ENDBRANCH  54  57
ENDBRANCH  26  50
BRANCH  38  61
ATOM     61  C   UNL A   1      44.493  27.197  34.227  1.00  0.00     0.023 A 
ATOM     62  C   UNL A   1      45.730  27.866  34.314  1.00  0.00     0.012 A 
ATOM     63  C   UNL A   1      44.307  25.995  34.936  1.00  0.00     0.148 A 
ATOM     64  C   UNL A   1      46.776  27.329  35.064  1.00  0.00     0.002 A 
ATOM     65  C   UNL A   1      45.339  25.488  35.719  1.00  0.00     0.091 A 
ATOM     66  F   UNL A   1      43.131  25.360  34.826  1.00  0.00    -0.205 F 
ATOM     67  C   UNL A   1      46.577  26.148  35.775  1.00  0.00     0.022 A 
BRANCH  65  68
ATOM     68  S   UNL A   1      45.132  24.021  36.736  1.00  0.00     0.127 S 
ATOM     69  O   UNL A   1      44.301  23.179  35.878  1.00  0.00    -0.237 OA
ATOM     70  O   UNL A   1      46.509  23.554  36.901  1.00  0.00    -0.237 OA
ATOM     71  O   UNL A   1      44.504  24.482  37.968  1.00  0.00    -0.744 OA
ENDBRANCH  65  68
ENDBRANCH  38  61
ENDBRANCH  12  13
ENDBRANCH   5   7
ENDBRANCH   2   3
ENDBRANCH   1   2
BRANCH   1  72
ATOM     72  C   UNL A   1      32.486  27.698  26.386  1.00  0.00     0.117 C 
BRANCH  72  73
ATOM     73  N   UNL A   1      31.542  26.627  26.115  1.00  0.00    -0.356 N 
ATOM     74  C   UNL A   1      30.677  26.484  25.058  1.00  0.00     0.224 C 
ATOM     75  H   UNL A   1      31.519  25.904  26.782  1.00  0.00     0.163 HD
ATOM     76  O   UNL A   1      30.109  25.396  24.940  1.00  0.00    -0.275 OA
BRANCH  74  77
ATOM     77  C   UNL A   1      30.377  27.657  24.124  1.00  0.00     0.096 C 
ATOM     78  C   UNL A   1      28.971  27.546  23.499  1.00  0.00     0.015 C 
ATOM     79  C   UNL A   1      31.389  27.993  23.013  1.00  0.00     0.082 C 
ATOM     80  C   UNL A   1      28.538  28.896  22.936  1.00  0.00     0.001 C 
ATOM     81  C   UNL A   1      31.005  29.361  22.411  1.00  0.00     0.021 C 
ATOM     82  C   UNL A   1      29.551  29.484  21.956  1.00  0.00     0.002 C 
BRANCH  79  83
ATOM     83  N   UNL A   1      31.473  26.928  21.963  1.00  0.00    -0.207 NA
ATOM     84  H   UNL A   1      31.167  27.354  21.088  1.00  0.00     0.141 HD
BRANCH  83  85
ATOM     85  S   UNL A   1      32.962  26.152  21.637  1.00  0.00     0.240 S 
ATOM     86  O   UNL A   1      32.787  25.575  20.321  1.00  0.00    -0.207 OA
ATOM     87  O   UNL A   1      34.032  27.076  21.941  1.00  0.00    -0.207 OA
BRANCH  85  88
ATOM     88  C   UNL A   1      33.077  24.810  22.806  1.00  0.00     0.083 A 
ATOM     89  C   UNL A   1      32.215  23.736  22.656  1.00  0.00     0.022 A 
ATOM     90  C   UNL A   1      33.894  24.868  23.936  1.00  0.00     0.030 A 
ATOM     91  C   UNL A   1      32.138  22.711  23.593  1.00  0.00     0.010 A 
ATOM     92  C   UNL A   1      33.803  23.857  24.927  1.00  0.00    -0.017 A 
ATOM     93  C   UNL A   1      32.908  22.773  24.747  1.00  0.00    -0.018 A 
ATOM     94  C   UNL A   1      34.545  23.904  26.118  1.00  0.00     0.009 A 
ATOM     95  C   UNL A   1      32.767  21.788  25.735  1.00  0.00     0.009 A 
ATOM     96  C   UNL A   1      34.389  22.922  27.105  1.00  0.00     0.001 A 
ATOM     97  C   UNL A   1      33.499  21.868  26.916  1.00  0.00     0.001 A 
ENDBRANCH  85  88
ENDBRANCH  83  85
ENDBRANCH  79  83
ENDBRANCH  74  77
ENDBRANCH  72  73
ENDBRANCH   1  72
TORSDOF 16
ENDMDL
MODEL 2
REMARK VINA RESULT:     -13.3      4.788     10.091
REMARK SMILES O=C(NCCCNC(=O)[C@@H]1CCCC[C@@H]1NS(=O)(=O)c1ccc2ccccc2c1)c1ccc(-c2c3nc(c(-c4cccc(S(=O)(=O)[O-])c4F)c4ccc([nH]4)c(-c4cccc(S(=O)(=O)[O-])c4F)c4nc(c(-c5cccc(S(=O)(=O)[O-])c5F)c5ccc2[nH]5)C=C4)C=C3)cc1
REMARK SMILES IDX 5 1 4 2 3 3 1 4 2 5 30 7 31 8 92 9 32 10 91 11 33 12 34 13
REMARK SMILES IDX 35 14 85 15 36 16 90 17 84 18 86 19 37 20 89 21 83 22 82 23
REMARK SMILES IDX 38 25 70 26 50 27 69 28 51 29 54 30 68 31 87 32 52 33 53 34
REMARK SMILES IDX 67 36 88 37 55 38 39 39 40 40 48 41 41 42 43 43 49 44 42 45
REMARK SMILES IDX 44 46 45 47 46 48 47 49 71 50 72 51 80 52 73 53 75 54 81 55
REMARK SMILES IDX 74 56 76 57 77 58 78 59 79 60 56 61 57 62 65 63 58 64 60 65
REMARK SMILES IDX 66 66 59 67 61 68 62 69 63 70 64 71 6 72 7 73 8 74 9 76
REMARK SMILES IDX 10 77 11 78 15 79 12 80 14 81 13 82 16 83 17 85 18 86 19 87
REMARK SMILES IDX 20 88 21 89 29 90 22 91 28 92 23 93 27 94 24 95 26 96 25 97
REMARK H PARENT 3 6 86 24 54 35 7 75 16 84
REMARK Flexibility Score: inf
ROOT
ATOM      1  C   UNL A   1      36.552  22.517  23.987  1.00  0.00     0.042 C 
ENDROOT
BRANCH   1   2
ATOM      2  C   UNL A   1      37.020  21.784  25.246  1.00  0.00     0.118 C 
BRANCH   2   3
ATOM      3  N   UNL A   1      38.203  20.930  25.125  1.00  0.00    -0.352 N 
ATOM      4  O   UNL A   1      40.291  20.226  25.733  1.00  0.00    -0.269 OA
ATOM      5  C   UNL A   1      39.378  21.033  25.857  1.00  0.00     0.251 C 
ATOM      6  H   UNL A   1      38.162  20.209  24.455  1.00  0.00     0.163 HD
BRANCH   5   7
ATOM      7  C   UNL A   1      39.535  22.211  26.736  1.00  0.00     0.039 A 
ATOM      8  C   UNL A   1      38.853  23.390  26.437  1.00  0.00     0.014 A 
ATOM      9  C   UNL A   1      40.557  22.196  27.688  1.00  0.00     0.014 A 
ATOM     10  C   UNL A   1      39.366  24.597  26.902  1.00  0.00     0.010 A 
ATOM     11  C   UNL A   1      41.011  23.404  28.221  1.00  0.00     0.010 A 
ATOM     12  C   UNL A   1      40.490  24.620  27.748  1.00  0.00    -0.014 A 
BRANCH  12  13
ATOM     13  C   UNL A   1      41.163  25.914  28.048  1.00  0.00     0.031 A 
ATOM     14  C   UNL A   1      42.555  26.201  27.528  1.00  0.00     0.074 A 
ATOM     15  C   UNL A   1      40.509  26.856  28.751  1.00  0.00     0.049 A 
ATOM     16  N   UNL A   1      43.275  27.287  27.656  1.00  0.00    -0.248 NA
ATOM     17  C   UNL A   1      43.230  25.132  26.772  1.00  0.00     0.031 C 
ATOM     18  C   UNL A   1      39.173  26.699  29.328  1.00  0.00     0.029 A 
ATOM     19  N   UNL A   1      40.876  28.132  29.099  1.00  0.00    -0.354 N 
ATOM     20  C   UNL A   1      44.499  27.017  27.052  1.00  0.00     0.074 A 
ATOM     21  C   UNL A   1      44.428  25.660  26.556  1.00  0.00     0.031 C 
ATOM     22  C   UNL A   1      38.823  27.841  29.938  1.00  0.00     0.029 A 
ATOM     23  C   UNL A   1      39.922  28.795  29.834  1.00  0.00     0.049 A 
ATOM     24  H   UNL A   1      41.739  28.532  28.847  1.00  0.00     0.167 HD
ATOM     25  C   UNL A   1      45.578  27.824  26.906  1.00  0.00     0.034 A 
ATOM     26  C   UNL A   1      39.931  30.031  30.370  1.00  0.00     0.034 A 
ATOM     27  C   UNL A   1      45.629  29.195  27.341  1.00  0.00     0.049 A 
ATOM     28  C   UNL A   1      41.124  30.918  30.154  1.00  0.00     0.074 A 
ATOM     29  C   UNL A   1      46.648  30.115  27.165  1.00  0.00     0.029 A 
ATOM     30  N   UNL A   1      44.621  29.845  28.036  1.00  0.00    -0.354 N 
ATOM     31  N   UNL A   1      42.216  30.682  29.471  1.00  0.00    -0.248 NA
ATOM     32  C   UNL A   1      41.069  32.258  30.759  1.00  0.00     0.031 C 
ATOM     33  C   UNL A   1      46.263  31.317  27.769  1.00  0.00     0.029 A 
ATOM     34  C   UNL A   1      44.996  31.151  28.303  1.00  0.00     0.049 A 
ATOM     35  H   UNL A   1      43.765  29.437  28.301  1.00  0.00     0.167 HD
ATOM     36  C   UNL A   1      42.966  31.851  29.536  1.00  0.00     0.074 A 
ATOM     37  C   UNL A   1      42.190  32.802  30.305  1.00  0.00     0.031 C 
ATOM     38  C   UNL A   1      44.193  32.108  29.019  1.00  0.00     0.034 A 
BRANCH  25  39
ATOM     39  C   UNL A   1      46.792  27.266  26.204  1.00  0.00     0.023 A 
ATOM     40  C   UNL A   1      46.943  27.453  24.816  1.00  0.00     0.012 A 
ATOM     41  C   UNL A   1      47.821  26.634  26.930  1.00  0.00     0.148 A 
ATOM     42  C   UNL A   1      48.086  26.997  24.157  1.00  0.00     0.002 A 
ATOM     43  C   UNL A   1      48.975  26.217  26.274  1.00  0.00     0.091 A 
ATOM     44  F   UNL A   1      47.652  26.446  28.248  1.00  0.00    -0.205 F 
ATOM     45  C   UNL A   1      49.104  26.389  24.887  1.00  0.00     0.022 A 
BRANCH  43  46
ATOM     46  S   UNL A   1      50.373  25.499  27.143  1.00  0.00     0.127 S 
ATOM     47  O   UNL A   1      49.785  24.277  27.690  1.00  0.00    -0.237 OA
ATOM     48  O   UNL A   1      51.333  25.279  26.061  1.00  0.00    -0.237 OA
ATOM     49  O   UNL A   1      50.786  26.493  28.123  1.00  0.00    -0.744 OA
ENDBRANCH  43  46
ENDBRANCH  25  39
BRANCH  26  50
ATOM     50  C   UNL A   1      38.735  30.516  31.111  1.00  0.00     0.023 A 
ATOM     51  C   UNL A   1      38.703  30.413  32.515  1.00  0.00     0.012 A 
ATOM     52  C   UNL A   1      37.657  31.125  30.440  1.00  0.00     0.148 A 
ATOM     53  C   UNL A   1      37.608  30.889  33.237  1.00  0.00     0.002 A 
ATOM     54  C   UNL A   1      36.598  31.651  31.170  1.00  0.00     0.091 A 
ATOM     55  F   UNL A   1      37.698  31.196  29.103  1.00  0.00    -0.205 F 
ATOM     56  C   UNL A   1      36.563  31.520  32.566  1.00  0.00     0.022 A 
BRANCH  54  57
ATOM     57  S   UNL A   1      35.288  32.606  30.396  1.00  0.00     0.127 S 
ATOM     58  O   UNL A   1      34.330  32.739  31.489  1.00  0.00    -0.237 OA
ATOM     59  O   UNL A   1      35.987  33.841  30.032  1.00  0.00    -0.237 OA
ATOM     60  O   UNL A   1      34.851  31.811  29.256  1.00  0.00    -0.744 OA
ENDBRANCH  54  57
ENDBRANCH  26  50
BRANCH  38  61
ATOM     61  C   UNL A   1      44.765  33.483  29.238  1.00  0.00     0.023 A 
ATOM     62  C   UNL A   1      45.461  33.771  30.428  1.00  0.00     0.012 A 
ATOM     63  C   UNL A   1      44.663  34.473  28.241  1.00  0.00     0.148 A 
ATOM     64  C   UNL A   1      46.014  35.034  30.639  1.00  0.00     0.002 A 
ATOM     65  C   UNL A   1      45.256  35.715  28.439  1.00  0.00     0.091 A 
ATOM     66  F   UNL A   1      43.979  34.190  27.122  1.00  0.00    -0.205 F 
ATOM     67  C   UNL A   1      45.922  36.001  29.641  1.00  0.00     0.022 A 
BRANCH  65  68
ATOM     68  S   UNL A   1      45.259  36.983  27.165  1.00  0.00     0.127 S 
ATOM     69  O   UNL A   1      45.997  36.324  26.090  1.00  0.00    -0.237 OA
ATOM     70  O   UNL A   1      43.832  37.169  26.901  1.00  0.00    -0.237 OA
ATOM     71  O   UNL A   1      45.912  38.141  27.764  1.00  0.00    -0.744 OA
ENDBRANCH  65  68
ENDBRANCH  38  61
ENDBRANCH  12  13
ENDBRANCH   5   7
ENDBRANCH   2   3
ENDBRANCH   1   2
BRANCH   1  72
ATOM     72  C   UNL A   1      35.517  23.607  24.213  1.00  0.00     0.117 C 
BRANCH  72  73
ATOM     73  N   UNL A   1      34.417  23.632  23.264  1.00  0.00    -0.356 N 
ATOM     74  C   UNL A   1      33.330  22.797  23.178  1.00  0.00     0.224 C 
ATOM     75  H   UNL A   1      34.457  24.347  22.589  1.00  0.00     0.163 HD
ATOM     76  O   UNL A   1      32.426  23.130  22.409  1.00  0.00    -0.275 OA
BRANCH  74  77
ATOM     77  C   UNL A   1      33.293  21.475  23.944  1.00  0.00     0.096 C 
ATOM     78  C   UNL A   1      32.368  20.445  23.264  1.00  0.00     0.015 C 
ATOM     79  C   UNL A   1      32.980  21.503  25.452  1.00  0.00     0.082 C 
ATOM     80  C   UNL A   1      32.674  19.041  23.780  1.00  0.00     0.001 C 
ATOM     81  C   UNL A   1      33.283  20.107  26.032  1.00  0.00     0.021 C 
ATOM     82  C   UNL A   1      32.613  18.942  25.302  1.00  0.00     0.002 C 
BRANCH  79  83
ATOM     83  N   UNL A   1      31.576  21.934  25.745  1.00  0.00    -0.207 NA
ATOM     84  H   UNL A   1      31.046  21.088  25.953  1.00  0.00     0.141 HD
BRANCH  83  85
ATOM     85  S   UNL A   1      31.257  23.038  27.012  1.00  0.00     0.240 S 
ATOM     86  O   UNL A   1      29.865  22.814  27.342  1.00  0.00    -0.207 OA
ATOM     87  O   UNL A   1      32.314  22.922  27.992  1.00  0.00    -0.207 OA
BRANCH  85  88
ATOM     88  C   UNL A   1      31.388  24.661  26.286  1.00  0.00     0.083 A 
ATOM     89  C   UNL A   1      30.222  25.305  25.905  1.00  0.00     0.022 A 
ATOM     90  C   UNL A   1      32.615  25.241  25.961  1.00  0.00     0.030 A 
ATOM     91  C   UNL A   1      30.231  26.509  25.210  1.00  0.00     0.010 A 
ATOM     92  C   UNL A   1      32.653  26.447  25.216  1.00  0.00    -0.017 A 
ATOM     93  C   UNL A   1      31.442  27.078  24.836  1.00  0.00    -0.018 A 
ATOM     94  C   UNL A   1      33.858  27.034  24.796  1.00  0.00     0.009 A 
ATOM     95  C   UNL A   1      31.455  28.245  24.058  1.00  0.00     0.009 A 
ATOM     96  C   UNL A   1      33.860  28.193  24.009  1.00  0.00     0.001 A 
ATOM     97  C   UNL A   1      32.661  28.795  23.638  1.00  0.00     0.001 A 
ENDBRANCH  85  88
ENDBRANCH  83  85
ENDBRANCH  79  83
ENDBRANCH  74  77
ENDBRANCH  72  73
ENDBRANCH   1  72
TORSDOF 16
ENDMDL
MODEL 3
REMARK VINA RESULT:     -13.3      1.927      2.617
REMARK SMILES O=C(NCCCNC(=O)[C@@H]1CCCC[C@@H]1NS(=O)(=O)c1ccc2ccccc2c1)c1ccc(-c2c3nc(c(-c4cccc(S(=O)(=O)[O-])c4F)c4ccc([nH]4)c(-c4cccc(S(=O)(=O)[O-])c4F)c4nc(c(-c5cccc(S(=O)(=O)[O-])c5F)c5ccc2[nH]5)C=C4)C=C3)cc1
REMARK SMILES IDX 5 1 4 2 3 3 1 4 2 5 30 7 31 8 92 9 32 10 91 11 33 12 34 13
REMARK SMILES IDX 35 14 85 15 36 16 90 17 84 18 86 19 37 20 89 21 83 22 82 23
REMARK SMILES IDX 38 25 70 26 50 27 69 28 51 29 54 30 68 31 87 32 52 33 53 34
REMARK SMILES IDX 67 36 88 37 55 38 39 39 40 40 48 41 41 42 43 43 49 44 42 45
REMARK SMILES IDX 44 46 45 47 46 48 47 49 71 50 72 51 80 52 73 53 75 54 81 55
REMARK SMILES IDX 74 56 76 57 77 58 78 59 79 60 56 61 57 62 65 63 58 64 60 65
REMARK SMILES IDX 66 66 59 67 61 68 62 69 63 70 64 71 6 72 7 73 8 74 9 76
REMARK SMILES IDX 10 77 11 78 15 79 12 80 14 81 13 82 16 83 17 85 18 86 19 87
REMARK SMILES IDX 20 88 21 89 29 90 22 91 28 92 23 93 27 94 24 95 26 96 25 97
REMARK H PARENT 3 6 86 24 54 35 7 75 16 84
REMARK Flexibility Score: inf
ROOT
ATOM      1  C   UNL A   1      31.506  31.732  26.765  1.00  0.00     0.042 C 
ENDROOT
BRANCH   1   2
ATOM      2  C   UNL A   1      32.355  32.991  26.573  1.00  0.00     0.118 C 
BRANCH   2   3
ATOM      3  N   UNL A   1      32.378  33.959  27.671  1.00  0.00    -0.352 N 
ATOM      4  O   UNL A   1      33.370  35.051  29.417  1.00  0.00    -0.269 OA
ATOM      5  C   UNL A   1      33.415  34.166  28.571  1.00  0.00     0.251 C 
ATOM      6  H   UNL A   1      31.577  34.520  27.783  1.00  0.00     0.163 HD
BRANCH   5   7
ATOM      7  C   UNL A   1      34.549  33.218  28.539  1.00  0.00     0.039 A 
ATOM      8  C   UNL A   1      34.404  31.950  29.100  1.00  0.00     0.014 A 
ATOM      9  C   UNL A   1      35.809  33.706  28.182  1.00  0.00     0.014 A 
ATOM     10  C   UNL A   1      35.541  31.279  29.540  1.00  0.00     0.010 A 
ATOM     11  C   UNL A   1      36.947  32.984  28.547  1.00  0.00     0.010 A 
ATOM     12  C   UNL A   1      36.821  31.820  29.324  1.00  0.00    -0.014 A 
BRANCH  12  13
ATOM     13  C   UNL A   1      38.003  31.212  29.996  1.00  0.00     0.031 A 
ATOM     14  C   UNL A   1      38.352  31.574  31.424  1.00  0.00     0.074 A 
ATOM     15  C   UNL A   1      38.743  30.299  29.342  1.00  0.00     0.049 A 
ATOM     16  N   UNL A   1      39.317  31.112  32.179  1.00  0.00    -0.248 NA
ATOM     17  C   UNL A   1      37.515  32.587  32.090  1.00  0.00     0.031 C 
ATOM     18  C   UNL A   1      38.529  29.878  27.957  1.00  0.00     0.029 A 
ATOM     19  N   UNL A   1      39.823  29.559  29.754  1.00  0.00    -0.354 N 
ATOM     20  C   UNL A   1      39.241  31.812  33.379  1.00  0.00     0.074 A 
ATOM     21  C   UNL A   1      38.133  32.733  33.255  1.00  0.00     0.031 C 
ATOM     22  C   UNL A   1      39.432  28.938  27.640  1.00  0.00     0.029 A 
ATOM     23  C   UNL A   1      40.315  28.721  28.782  1.00  0.00     0.049 A 
ATOM     24  H   UNL A   1      40.207  29.622  30.657  1.00  0.00     0.167 HD
ATOM     25  C   UNL A   1      40.007  31.689  34.491  1.00  0.00     0.034 A 
ATOM     26  C   UNL A   1      41.363  27.874  28.802  1.00  0.00     0.034 A 
ATOM     27  C   UNL A   1      41.068  30.729  34.641  1.00  0.00     0.049 A 
ATOM     28  C   UNL A   1      42.167  27.728  30.062  1.00  0.00     0.074 A 
ATOM     29  C   UNL A   1      41.847  30.477  35.759  1.00  0.00     0.029 A 
ATOM     30  N   UNL A   1      41.501  29.863  33.651  1.00  0.00    -0.354 N 
ATOM     31  N   UNL A   1      41.995  28.309  31.224  1.00  0.00    -0.248 NA
ATOM     32  C   UNL A   1      43.293  26.784  30.022  1.00  0.00     0.031 C 
ATOM     33  C   UNL A   1      42.762  29.469  35.436  1.00  0.00     0.029 A 
ATOM     34  C   UNL A   1      42.539  29.080  34.126  1.00  0.00     0.049 A 
ATOM     35  H   UNL A   1      41.125  29.812  32.742  1.00  0.00     0.167 HD
ATOM     36  C   UNL A   1      42.969  27.780  32.063  1.00  0.00     0.074 A 
ATOM     37  C   UNL A   1      43.712  26.813  31.281  1.00  0.00     0.031 C 
ATOM     38  C   UNL A   1      43.235  28.079  33.358  1.00  0.00     0.034 A 
BRANCH  25  39
ATOM     39  C   UNL A   1      39.704  32.589  35.664  1.00  0.00     0.023 A 
ATOM     40  C   UNL A   1      40.214  33.902  35.687  1.00  0.00     0.012 A 
ATOM     41  C   UNL A   1      38.848  32.164  36.700  1.00  0.00     0.148 A 
ATOM     42  C   UNL A   1      39.899  34.770  36.734  1.00  0.00     0.002 A 
ATOM     43  C   UNL A   1      38.506  33.047  37.720  1.00  0.00     0.091 A 
ATOM     44  F   UNL A   1      38.387  30.904  36.674  1.00  0.00    -0.205 F 
ATOM     45  C   UNL A   1      39.038  34.345  37.743  1.00  0.00     0.022 A 
BRANCH  43  46
ATOM     46  S   UNL A   1      37.340  32.617  39.017  1.00  0.00     0.127 S 
ATOM     47  O   UNL A   1      37.850  31.319  39.454  1.00  0.00    -0.237 OA
ATOM     48  O   UNL A   1      37.532  33.701  39.981  1.00  0.00    -0.237 OA
ATOM     49  O   UNL A   1      36.029  32.598  38.384  1.00  0.00    -0.744 OA
ENDBRANCH  43  46
ENDBRANCH  25  39
BRANCH  26  50
ATOM     50  C   UNL A   1      41.665  27.053  27.597  1.00  0.00     0.023 A 
ATOM     51  C   UNL A   1      42.264  27.663  26.478  1.00  0.00     0.012 A 
ATOM     52  C   UNL A   1      41.412  25.668  27.575  1.00  0.00     0.148 A 
ATOM     53  C   UNL A   1      42.586  26.911  25.349  1.00  0.00     0.002 A 
ATOM     54  C   UNL A   1      41.791  24.915  26.470  1.00  0.00     0.091 A 
ATOM     55  F   UNL A   1      40.823  25.112  28.642  1.00  0.00    -0.205 F 
ATOM     56  C   UNL A   1      42.363  25.536  25.350  1.00  0.00     0.022 A 
BRANCH  54  57
ATOM     57  S   UNL A   1      41.673  23.123  26.452  1.00  0.00     0.127 S 
ATOM     58  O   UNL A   1      40.229  22.918  26.493  1.00  0.00    -0.237 OA
ATOM     59  O   UNL A   1      42.309  22.789  25.176  1.00  0.00    -0.237 OA
ATOM     60  O   UNL A   1      42.416  22.674  27.623  1.00  0.00    -0.744 OA
ENDBRANCH  54  57
ENDBRANCH  26  50
BRANCH  38  61
ATOM     61  C   UNL A   1      44.356  27.331  34.028  1.00  0.00     0.023 A 
ATOM     62  C   UNL A   1      45.680  27.797  33.906  1.00  0.00     0.012 A 
ATOM     63  C   UNL A   1      44.093  26.200  34.825  1.00  0.00     0.148 A 
ATOM     64  C   UNL A   1      46.729  27.127  34.536  1.00  0.00     0.002 A 
ATOM     65  C   UNL A   1      45.137  25.564  35.487  1.00  0.00     0.091 A 
ATOM     66  F   UNL A   1      42.830  25.757  34.915  1.00  0.00    -0.205 F 
ATOM     67  C   UNL A   1      46.457  26.020  35.335  1.00  0.00     0.022 A 
BRANCH  65  68
ATOM     68  S   UNL A   1      44.858  24.187  36.607  1.00  0.00     0.127 S 
ATOM     69  O   UNL A   1      43.890  24.754  37.543  1.00  0.00    -0.237 OA
ATOM     70  O   UNL A   1      44.316  23.160  35.716  1.00  0.00    -0.237 OA
ATOM     71  O   UNL A   1      46.164  23.864  37.167  1.00  0.00    -0.744 OA
ENDBRANCH  65  68
ENDBRANCH  38  61
ENDBRANCH  12  13
ENDBRANCH   5   7
ENDBRANCH   2   3
ENDBRANCH   1   2
BRANCH   1  72
ATOM     72  C   UNL A   1      32.187  30.424  26.399  1.00  0.00     0.117 C 
BRANCH  72  73
ATOM     73  N   UNL A   1      31.686  29.244  27.083  1.00  0.00    -0.356 N 
ATOM     74  C   UNL A   1      31.602  27.950  26.627  1.00  0.00     0.224 C 
ATOM     75  H   UNL A   1      31.361  29.392  28.000  1.00  0.00     0.163 HD
ATOM     76  O   UNL A   1      31.321  27.081  27.454  1.00  0.00    -0.275 OA
BRANCH  74  77
ATOM     77  C   UNL A   1      31.770  27.629  25.142  1.00  0.00     0.096 C 
ATOM     78  C   UNL A   1      30.440  27.770  24.372  1.00  0.00     0.015 C 
ATOM     79  C   UNL A   1      32.434  26.297  24.745  1.00  0.00     0.082 C 
ATOM     80  C   UNL A   1      30.709  27.869  22.873  1.00  0.00     0.001 C 
ATOM     81  C   UNL A   1      32.739  26.344  23.234  1.00  0.00     0.021 C 
ATOM     82  C   UNL A   1      31.552  26.711  22.343  1.00  0.00     0.002 C 
BRANCH  79  83
ATOM     83  N   UNL A   1      31.603  25.104  25.108  1.00  0.00    -0.207 NA
ATOM     84  H   UNL A   1      31.388  24.621  24.236  1.00  0.00     0.141 HD
BRANCH  83  85
ATOM     85  S   UNL A   1      32.211  23.924  26.186  1.00  0.00     0.240 S 
ATOM     86  O   UNL A   1      33.524  24.414  26.553  1.00  0.00    -0.207 OA
ATOM     87  O   UNL A   1      31.190  23.637  27.168  1.00  0.00    -0.207 OA
BRANCH  85  88
ATOM     88  C   UNL A   1      32.437  22.447  25.213  1.00  0.00     0.083 A 
ATOM     89  C   UNL A   1      32.242  22.528  23.844  1.00  0.00     0.022 A 
ATOM     90  C   UNL A   1      32.660  21.196  25.789  1.00  0.00     0.030 A 
ATOM     91  C   UNL A   1      32.263  21.406  23.023  1.00  0.00     0.010 A 
ATOM     92  C   UNL A   1      32.643  20.031  24.981  1.00  0.00    -0.017 A 
ATOM     93  C   UNL A   1      32.436  20.147  23.583  1.00  0.00    -0.018 A 
ATOM     94  C   UNL A   1      32.786  18.741  25.518  1.00  0.00     0.009 A 
ATOM     95  C   UNL A   1      32.368  19.005  22.772  1.00  0.00     0.009 A 
ATOM     96  C   UNL A   1      32.704  17.606  24.700  1.00  0.00     0.001 A 
ATOM     97  C   UNL A   1      32.492  17.737  23.331  1.00  0.00     0.001 A 
ENDBRANCH  85  88
ENDBRANCH  83  85
ENDBRANCH  79  83
ENDBRANCH  74  77
ENDBRANCH  72  73
ENDBRANCH   1  72
TORSDOF 16
ENDMDL
