MODEL 1
REMARK VINA RESULT:     -13.1      0.000      0.000
REMARK SMILES Cc1ccc(-c2ccc(/C=C(\C#N)C3N=c4ccccc4=N3)o2)cc1C(=O)NCCCNC(=O)c1ccc(-c2c3nc(c(-c4cccc(S(=O)(=O)[O-])c4F)c4ccc([nH]4)c(-c4cccc(S(=O)(=O)[O-])c4F)c4nc(c(-c5cccc(S(=O)(=O)[O-])c5F)c5ccc2[nH]5)C=C4)C=C3)cc1
REMARK SMILES IDX 30 1 29 2 28 3 26 4 27 5 25 7 1 8 2 9 3 10 4 11 24 12 5 13
REMARK SMILES IDX 6 14 7 15 23 16 8 17 9 18 10 19 11 20 12 21 13 22 14 23
REMARK SMILES IDX 15 24 22 25 16 26 21 27 17 28 20 29 18 30 19 31 31 32 32 33
REMARK SMILES IDX 33 34 34 36 35 37 36 38 97 39 37 40 96 41 38 42 39 43 40 44
REMARK SMILES IDX 90 45 41 46 95 47 89 48 91 49 42 50 94 51 88 52 87 53 43 55
REMARK SMILES IDX 75 56 55 57 74 58 56 59 59 60 73 61 92 62 57 63 58 64 72 66
REMARK SMILES IDX 93 67 60 68 44 69 45 70 53 71 46 72 48 73 54 74 47 75 49 76
REMARK SMILES IDX 50 77 51 78 52 79 76 80 77 81 85 82 78 83 80 84 86 85 79 86
REMARK SMILES IDX 81 87 82 88 83 89 84 90 61 91 62 92 70 93 63 94 65 95 71 96
REMARK SMILES IDX 64 97 66 98 67 99 68 100 69 101
REMARK H PARENT 28 6 32 35 91 54 59 65
REMARK Flexibility Score: inf
ROOT
ATOM      1  C   UNL A   1      33.793  30.840  27.438  1.00  0.00     0.042 C 
ENDROOT
BRANCH   1   2
ATOM      2  C   UNL A   1      34.359  29.651  26.680  1.00  0.00     0.118 C 
BRANCH   2   3
ATOM      3  N   UNL A   1      33.775  29.598  25.362  1.00  0.00    -0.352 N 
ATOM      4  C   UNL A   1      33.285  28.579  24.591  1.00  0.00     0.251 C 
ATOM      5  O   UNL A   1      32.961  28.916  23.447  1.00  0.00    -0.269 OA
ATOM      6  H   UNL A   1      33.716  30.479  24.926  1.00  0.00     0.163 HD
BRANCH   4   7
ATOM      7  C   UNL A   1      33.014  27.154  25.020  1.00  0.00     0.043 A 
ATOM      8  C   UNL A   1      31.201  27.287  26.897  1.00  0.00     0.045 C 
ATOM      9  C   UNL A   1      32.055  26.587  25.893  1.00  0.00    -0.038 A 
ATOM     10  C   UNL A   1      31.932  25.186  25.996  1.00  0.00     0.005 A 
ATOM     11  C   UNL A   1      32.876  24.347  25.445  1.00  0.00     0.012 A 
ATOM     12  C   UNL A   1      33.979  26.264  24.497  1.00  0.00     0.026 A 
ATOM     13  C   UNL A   1      33.954  24.895  24.766  1.00  0.00     0.018 A 
BRANCH  13  14
ATOM     14  C   UNL A   1      35.068  24.043  24.442  1.00  0.00     0.134 A 
ATOM     15  C   UNL A   1      35.477  23.376  23.315  1.00  0.00     0.051 A 
ATOM     16  O   UNL A   1      36.002  23.943  25.411  1.00  0.00    -0.457 OA
ATOM     17  C   UNL A   1      36.763  22.868  23.623  1.00  0.00     0.051 A 
ATOM     18  C   UNL A   1      37.058  23.220  24.936  1.00  0.00     0.128 A 
BRANCH  18  19
ATOM     19  C   UNL A   1      38.216  22.936  25.705  1.00  0.00     0.066 C 
ATOM     20  C   UNL A   1      38.752  21.707  25.853  1.00  0.00     0.080 C 
BRANCH  20  21
ATOM     21  C   UNL A   1      38.203  20.514  25.269  1.00  0.00     0.099 C 
ATOM     22  N   UNL A   1      37.700  19.562  24.851  1.00  0.00    -0.193 NA
ENDBRANCH  20  21
BRANCH  20  23
ATOM     23  C   UNL A   1      39.995  21.534  26.687  1.00  0.00     0.263 C 
ATOM     24  N   UNL A   1      40.534  20.158  26.517  1.00  0.00    -0.251 NA
ATOM     25  N   UNL A   1      41.021  22.550  26.336  1.00  0.00    -0.251 NA
ATOM     26  C   UNL A   1      41.728  20.379  26.088  1.00  0.00     0.086 A 
ATOM     27  C   UNL A   1      42.023  21.825  25.979  1.00  0.00     0.086 A 
ATOM     28  C   UNL A   1      42.760  19.403  25.733  1.00  0.00     0.030 A 
ATOM     29  C   UNL A   1      43.346  22.256  25.520  1.00  0.00     0.030 A 
ATOM     30  C   UNL A   1      43.947  19.881  25.334  1.00  0.00     0.002 A 
ATOM     31  C   UNL A   1      44.238  21.298  25.229  1.00  0.00     0.002 A 
ENDBRANCH  20  23
ENDBRANCH  18  19
ENDBRANCH  13  14
ENDBRANCH   4   7
ENDBRANCH   2   3
ENDBRANCH   1   2
BRANCH   1  32
ATOM     32  C   UNL A   1      34.782  31.825  28.001  1.00  0.00     0.118 C 
BRANCH  32  33
ATOM     33  N   UNL A   1      34.595  32.023  29.431  1.00  0.00    -0.352 N 
ATOM     34  C   UNL A   1      35.515  31.938  30.466  1.00  0.00     0.251 C 
ATOM     35  H   UNL A   1      33.677  32.251  29.706  1.00  0.00     0.163 HD
ATOM     36  O   UNL A   1      35.117  31.947  31.625  1.00  0.00    -0.269 OA
BRANCH  34  37
ATOM     37  C   UNL A   1      36.968  32.006  30.150  1.00  0.00     0.039 A 
ATOM     38  C   UNL A   1      37.724  31.080  30.867  1.00  0.00     0.014 A 
ATOM     39  C   UNL A   1      37.528  33.227  29.798  1.00  0.00     0.014 A 
ATOM     40  C   UNL A   1      38.781  31.548  31.624  1.00  0.00     0.010 A 
ATOM     41  C   UNL A   1      38.485  33.738  30.645  1.00  0.00     0.010 A 
ATOM     42  C   UNL A   1      39.018  32.914  31.637  1.00  0.00    -0.014 A 
BRANCH  42  43
ATOM     43  C   UNL A   1      40.029  33.531  32.460  1.00  0.00     0.031 A 
ATOM     44  C   UNL A   1      39.494  34.246  33.624  1.00  0.00     0.074 A 
ATOM     45  C   UNL A   1      41.340  33.312  32.219  1.00  0.00     0.049 A 
ATOM     46  N   UNL A   1      40.139  35.129  34.288  1.00  0.00    -0.248 NA
ATOM     47  C   UNL A   1      38.106  34.083  34.071  1.00  0.00     0.031 C 
ATOM     48  C   UNL A   1      42.461  33.435  33.140  1.00  0.00     0.029 A 
ATOM     49  N   UNL A   1      41.952  33.015  31.001  1.00  0.00    -0.354 N 
ATOM     50  C   UNL A   1      39.399  35.376  35.425  1.00  0.00     0.074 A 
ATOM     51  C   UNL A   1      38.085  34.876  35.142  1.00  0.00     0.031 C 
ATOM     52  C   UNL A   1      43.615  33.429  32.445  1.00  0.00     0.029 A 
ATOM     53  C   UNL A   1      43.276  33.498  31.034  1.00  0.00     0.049 A 
ATOM     54  H   UNL A   1      41.531  32.545  30.246  1.00  0.00     0.167 HD
ATOM     55  C   UNL A   1      40.074  35.773  36.537  1.00  0.00     0.034 A 
ATOM     56  C   UNL A   1      43.688  34.489  30.176  1.00  0.00     0.034 A 
ATOM     57  C   UNL A   1      41.488  36.022  36.176  1.00  0.00     0.049 A 
ATOM     58  C   UNL A   1      43.910  35.813  30.894  1.00  0.00     0.074 A 
ATOM     59  C   UNL A   1      42.642  35.259  36.276  1.00  0.00     0.029 A 
ATOM     60  N   UNL A   1      41.772  37.007  35.233  1.00  0.00    -0.354 N 
ATOM     61  N   UNL A   1      43.738  36.005  32.173  1.00  0.00    -0.248 NA
ATOM     62  C   UNL A   1      44.238  37.046  30.187  1.00  0.00     0.031 C 
ATOM     63  C   UNL A   1      43.601  35.779  35.350  1.00  0.00     0.029 A 
ATOM     64  C   UNL A   1      43.056  36.882  34.716  1.00  0.00     0.049 A 
ATOM     65  H   UNL A   1      41.136  37.710  34.964  1.00  0.00     0.167 HD
ATOM     66  C   UNL A   1      43.770  37.345  32.453  1.00  0.00     0.074 A 
ATOM     67  C   UNL A   1      44.068  37.952  31.160  1.00  0.00     0.031 C 
ATOM     68  C   UNL A   1      43.509  37.845  33.707  1.00  0.00     0.034 A 
BRANCH  55  69
ATOM     69  C   UNL A   1      39.569  35.648  37.971  1.00  0.00     0.023 A 
ATOM     70  C   UNL A   1      39.552  36.842  38.724  1.00  0.00     0.012 A 
ATOM     71  C   UNL A   1      39.168  34.479  38.675  1.00  0.00     0.148 A 
ATOM     72  C   UNL A   1      39.217  36.878  40.084  1.00  0.00     0.002 A 
ATOM     73  C   UNL A   1      38.836  34.512  40.037  1.00  0.00     0.091 A 
ATOM     74  F   UNL A   1      39.079  33.308  38.049  1.00  0.00    -0.205 F 
ATOM     75  C   UNL A   1      38.867  35.712  40.744  1.00  0.00     0.022 A 
BRANCH  73  76
ATOM     76  S   UNL A   1      38.366  33.041  40.979  1.00  0.00     0.127 S 
ATOM     77  O   UNL A   1      38.380  33.542  42.355  1.00  0.00    -0.237 OA
ATOM     78  O   UNL A   1      37.031  32.750  40.457  1.00  0.00    -0.237 OA
ATOM     79  O   UNL A   1      39.372  32.025  40.699  1.00  0.00    -0.744 OA
ENDBRANCH  73  76
ENDBRANCH  55  69
BRANCH  56  80
ATOM     80  C   UNL A   1      43.052  34.381  28.813  1.00  0.00     0.023 A 
ATOM     81  C   UNL A   1      42.176  35.436  28.472  1.00  0.00     0.012 A 
ATOM     82  C   UNL A   1      43.768  33.749  27.789  1.00  0.00     0.148 A 
ATOM     83  C   UNL A   1      42.380  36.116  27.271  1.00  0.00     0.002 A 
ATOM     84  C   UNL A   1      43.935  34.407  26.583  1.00  0.00     0.091 A 
ATOM     85  F   UNL A   1      44.333  32.555  28.009  1.00  0.00    -0.205 F 
ATOM     86  C   UNL A   1      43.334  35.651  26.367  1.00  0.00     0.022 A 
BRANCH  84  87
ATOM     87  S   UNL A   1      45.001  33.673  25.351  1.00  0.00     0.127 S 
ATOM     88  O   UNL A   1      46.293  33.672  26.028  1.00  0.00    -0.237 OA
ATOM     89  O   UNL A   1      44.423  32.344  25.161  1.00  0.00    -0.237 OA
ATOM     90  O   UNL A   1      44.873  34.563  24.204  1.00  0.00    -0.744 OA
ENDBRANCH  84  87
ENDBRANCH  56  80
BRANCH  68  91
ATOM     91  C   UNL A   1      43.618  39.317  34.094  1.00  0.00     0.023 A 
ATOM     92  C   UNL A   1      43.133  40.349  33.273  1.00  0.00     0.012 A 
ATOM     93  C   UNL A   1      44.294  39.740  35.270  1.00  0.00     0.148 A 
ATOM     94  C   UNL A   1      43.132  41.690  33.670  1.00  0.00     0.002 A 
ATOM     95  C   UNL A   1      44.314  41.072  35.661  1.00  0.00     0.091 A 
ATOM     96  F   UNL A   1      45.007  38.868  35.989  1.00  0.00    -0.205 F 
ATOM     97  C   UNL A   1      43.697  42.048  34.882  1.00  0.00     0.022 A 
BRANCH  95  98
ATOM     98  S   UNL A   1      45.168  41.618  37.145  1.00  0.00     0.127 S 
ATOM     99  O   UNL A   1      45.205  43.066  36.939  1.00  0.00    -0.237 OA
ATOM    100  O   UNL A   1      44.255  41.173  38.197  1.00  0.00    -0.237 OA
ATOM    101  O   UNL A   1      46.466  40.959  37.144  1.00  0.00    -0.744 OA
ENDBRANCH  95  98
ENDBRANCH  68  91
ENDBRANCH  42  43
ENDBRANCH  34  37
ENDBRANCH  32  33
ENDBRANCH   1  32
TORSDOF 17
ENDMDL
MODEL 2
REMARK VINA RESULT:     -13.0      6.015     10.662
REMARK SMILES Cc1ccc(-c2ccc(/C=C(\C#N)C3N=c4ccccc4=N3)o2)cc1C(=O)NCCCNC(=O)c1ccc(-c2c3nc(c(-c4cccc(S(=O)(=O)[O-])c4F)c4ccc([nH]4)c(-c4cccc(S(=O)(=O)[O-])c4F)c4nc(c(-c5cccc(S(=O)(=O)[O-])c5F)c5ccc2[nH]5)C=C4)C=C3)cc1
REMARK SMILES IDX 30 1 29 2 28 3 26 4 27 5 25 7 1 8 2 9 3 10 4 11 24 12 5 13
REMARK SMILES IDX 6 14 7 15 23 16 8 17 9 18 10 19 11 20 12 21 13 22 14 23
REMARK SMILES IDX 15 24 22 25 16 26 21 27 17 28 20 29 18 30 19 31 31 32 32 33
REMARK SMILES IDX 33 34 34 36 35 37 36 38 97 39 37 40 96 41 38 42 39 43 40 44
REMARK SMILES IDX 90 45 41 46 95 47 89 48 91 49 42 50 94 51 88 52 87 53 43 55
REMARK SMILES IDX 75 56 55 57 74 58 56 59 59 60 73 61 92 62 57 63 58 64 72 66
REMARK SMILES IDX 93 67 60 68 44 69 45 70 53 71 46 72 48 73 54 74 47 75 49 76
REMARK SMILES IDX 50 77 51 78 52 79 76 80 77 81 85 82 78 83 80 84 86 85 79 86
REMARK SMILES IDX 81 87 82 88 83 89 84 90 61 91 62 92 70 93 63 94 65 95 71 96
REMARK SMILES IDX 64 97 66 98 67 99 68 100 69 101
REMARK H PARENT 28 6 32 35 91 54 59 65
REMARK Flexibility Score: inf
ROOT
ATOM      1  C   UNL A   1      43.740  18.797  25.642  1.00  0.00     0.042 C 
ENDROOT
BRANCH   1   2
ATOM      2  C   UNL A   1      42.657  19.716  26.180  1.00  0.00     0.118 C 
BRANCH   2   3
ATOM      3  N   UNL A   1      41.360  19.175  25.854  1.00  0.00    -0.352 N 
ATOM      4  C   UNL A   1      40.090  19.681  25.907  1.00  0.00     0.251 C 
ATOM      5  O   UNL A   1      39.203  18.861  25.643  1.00  0.00    -0.269 OA
ATOM      6  H   UNL A   1      41.397  18.249  25.523  1.00  0.00     0.163 HD
BRANCH   4   7
ATOM      7  C   UNL A   1      39.686  21.119  26.147  1.00  0.00     0.043 A 
ATOM      8  C   UNL A   1      41.002  21.906  28.262  1.00  0.00     0.045 C 
ATOM      9  C   UNL A   1      40.153  22.103  27.051  1.00  0.00    -0.038 A 
ATOM     10  C   UNL A   1      39.687  23.431  26.954  1.00  0.00     0.005 A 
ATOM     11  C   UNL A   1      38.615  23.752  26.152  1.00  0.00     0.012 A 
ATOM     12  C   UNL A   1      38.569  21.480  25.361  1.00  0.00     0.026 A 
ATOM     13  C   UNL A   1      37.996  22.751  25.418  1.00  0.00     0.018 A 
BRANCH  13  14
ATOM     14  C   UNL A   1      36.721  23.032  24.811  1.00  0.00     0.134 A 
ATOM     15  C   UNL A   1      35.931  22.394  23.888  1.00  0.00     0.051 A 
ATOM     16  O   UNL A   1      36.076  24.100  25.323  1.00  0.00    -0.457 OA
ATOM     17  C   UNL A   1      34.713  23.117  23.871  1.00  0.00     0.051 A 
ATOM     18  C   UNL A   1      34.835  24.181  24.759  1.00  0.00     0.128 A 
BRANCH  18  19
ATOM     19  C   UNL A   1      33.896  25.192  25.086  1.00  0.00     0.066 C 
ATOM     20  C   UNL A   1      32.651  24.958  25.549  1.00  0.00     0.080 C 
BRANCH  20  21
ATOM     21  C   UNL A   1      32.101  23.645  25.748  1.00  0.00     0.099 C 
ATOM     22  N   UNL A   1      31.732  22.561  25.898  1.00  0.00    -0.193 NA
ENDBRANCH  20  21
BRANCH  20  23
ATOM     23  C   UNL A   1      31.747  26.119  25.874  1.00  0.00     0.263 C 
ATOM     24  N   UNL A   1      32.248  27.354  25.213  1.00  0.00    -0.251 NA
ATOM     25  N   UNL A   1      30.346  25.835  25.468  1.00  0.00    -0.251 NA
ATOM     26  C   UNL A   1      31.243  27.710  24.490  1.00  0.00     0.086 A 
ATOM     27  C   UNL A   1      30.093  26.792  24.645  1.00  0.00     0.086 A 
ATOM     28  C   UNL A   1      31.130  28.866  23.600  1.00  0.00     0.030 A 
ATOM     29  C   UNL A   1      28.857  27.059  23.904  1.00  0.00     0.030 A 
ATOM     30  C   UNL A   1      29.961  29.044  22.968  1.00  0.00     0.002 A 
ATOM     31  C   UNL A   1      28.832  28.146  23.121  1.00  0.00     0.002 A 
ENDBRANCH  20  23
ENDBRANCH  18  19
ENDBRANCH  13  14
ENDBRANCH   4   7
ENDBRANCH   2   3
ENDBRANCH   1   2
BRANCH   1  32
ATOM     32  C   UNL A   1      44.882  19.445  24.906  1.00  0.00     0.118 C 
BRANCH  32  33
ATOM     33  N   UNL A   1      44.426  20.520  24.036  1.00  0.00    -0.352 N 
ATOM     34  C   UNL A   1      44.544  21.893  24.188  1.00  0.00     0.251 C 
ATOM     35  H   UNL A   1      43.963  20.228  23.217  1.00  0.00     0.163 HD
ATOM     36  O   UNL A   1      43.920  22.636  23.439  1.00  0.00    -0.269 OA
BRANCH  34  37
ATOM     37  C   UNL A   1      45.551  22.433  25.143  1.00  0.00     0.039 A 
ATOM     38  C   UNL A   1      45.204  22.221  26.476  1.00  0.00     0.014 A 
ATOM     39  C   UNL A   1      46.279  23.562  24.793  1.00  0.00     0.014 A 
ATOM     40  C   UNL A   1      45.142  23.316  27.315  1.00  0.00     0.010 A 
ATOM     41  C   UNL A   1      46.094  24.686  25.566  1.00  0.00     0.010 A 
ATOM     42  C   UNL A   1      45.413  24.566  26.778  1.00  0.00    -0.014 A 
BRANCH  42  43
ATOM     43  C   UNL A   1      45.287  25.791  27.528  1.00  0.00     0.031 A 
ATOM     44  C   UNL A   1      43.964  26.417  27.429  1.00  0.00     0.074 A 
ATOM     45  C   UNL A   1      46.279  26.198  28.349  1.00  0.00     0.049 A 
ATOM     46  N   UNL A   1      43.721  27.640  27.714  1.00  0.00    -0.248 NA
ATOM     47  C   UNL A   1      42.803  25.707  26.880  1.00  0.00     0.031 C 
ATOM     48  C   UNL A   1      46.194  27.095  29.494  1.00  0.00     0.029 A 
ATOM     49  N   UNL A   1      47.646  25.943  28.239  1.00  0.00    -0.354 N 
ATOM     50  C   UNL A   1      42.348  27.770  27.726  1.00  0.00     0.074 A 
ATOM     51  C   UNL A   1      41.850  26.629  27.013  1.00  0.00     0.031 C 
ATOM     52  C   UNL A   1      47.432  27.484  29.851  1.00  0.00     0.029 A 
ATOM     53  C   UNL A   1      48.352  27.010  28.831  1.00  0.00     0.049 A 
ATOM     54  H   UNL A   1      48.050  25.150  27.819  1.00  0.00     0.167 HD
ATOM     55  C   UNL A   1      41.817  28.719  28.541  1.00  0.00     0.034 A 
ATOM     56  C   UNL A   1      49.175  27.815  28.083  1.00  0.00     0.034 A 
ATOM     57  C   UNL A   1      42.915  29.536  29.105  1.00  0.00     0.049 A 
ATOM     58  C   UNL A   1      48.591  29.208  27.886  1.00  0.00     0.074 A 
ATOM     59  C   UNL A   1      43.600  29.503  30.311  1.00  0.00     0.029 A 
ATOM     60  N   UNL A   1      43.731  30.251  28.232  1.00  0.00    -0.354 N 
ATOM     61  N   UNL A   1      47.447  29.610  28.367  1.00  0.00    -0.248 NA
ATOM     62  C   UNL A   1      49.218  30.210  27.033  1.00  0.00     0.031 C 
ATOM     63  C   UNL A   1      44.852  30.172  30.131  1.00  0.00     0.029 A 
ATOM     64  C   UNL A   1      44.918  30.652  28.835  1.00  0.00     0.049 A 
ATOM     65  H   UNL A   1      43.495  30.449  27.296  1.00  0.00     0.167 HD
ATOM     66  C   UNL A   1      47.099  30.809  27.803  1.00  0.00     0.074 A 
ATOM     67  C   UNL A   1      48.244  31.127  26.956  1.00  0.00     0.031 C 
ATOM     68  C   UNL A   1      45.889  31.416  28.046  1.00  0.00     0.034 A 
BRANCH  55  69
ATOM     69  C   UNL A   1      40.385  28.734  29.069  1.00  0.00     0.023 A 
ATOM     70  C   UNL A   1      39.371  28.861  28.095  1.00  0.00     0.012 A 
ATOM     71  C   UNL A   1      39.933  28.697  30.417  1.00  0.00     0.148 A 
ATOM     72  C   UNL A   1      38.016  28.996  28.422  1.00  0.00     0.002 A 
ATOM     73  C   UNL A   1      38.578  28.835  30.747  1.00  0.00     0.091 A 
ATOM     74  F   UNL A   1      40.793  28.510  31.415  1.00  0.00    -0.205 F 
ATOM     75  C   UNL A   1      37.618  28.992  29.749  1.00  0.00     0.022 A 
BRANCH  73  76
ATOM     76  S   UNL A   1      37.967  28.840  32.450  1.00  0.00     0.127 S 
ATOM     77  O   UNL A   1      36.592  29.313  32.281  1.00  0.00    -0.237 OA
ATOM     78  O   UNL A   1      38.079  27.431  32.825  1.00  0.00    -0.237 OA
ATOM     79  O   UNL A   1      38.827  29.746  33.201  1.00  0.00    -0.744 OA
ENDBRANCH  73  76
ENDBRANCH  55  69
BRANCH  56  80
ATOM     80  C   UNL A   1      49.899  27.059  26.998  1.00  0.00     0.023 A 
ATOM     81  C   UNL A   1      49.229  26.999  25.755  1.00  0.00     0.012 A 
ATOM     82  C   UNL A   1      51.299  27.058  27.003  1.00  0.00     0.148 A 
ATOM     83  C   UNL A   1      49.908  27.404  24.606  1.00  0.00     0.002 A 
ATOM     84  C   UNL A   1      51.974  27.419  25.849  1.00  0.00     0.091 A 
ATOM     85  F   UNL A   1      51.962  26.775  28.131  1.00  0.00    -0.205 F 
ATOM     86  C   UNL A   1      51.267  27.707  24.677  1.00  0.00     0.022 A 
BRANCH  84  87
ATOM     87  S   UNL A   1      53.751  27.592  25.918  1.00  0.00     0.127 S 
ATOM     88  O   UNL A   1      54.177  26.235  26.242  1.00  0.00    -0.237 OA
ATOM     89  O   UNL A   1      54.096  28.021  24.565  1.00  0.00    -0.237 OA
ATOM     90  O   UNL A   1      53.964  28.599  26.950  1.00  0.00    -0.744 OA
ENDBRANCH  84  87
ENDBRANCH  56  80
BRANCH  68  91
ATOM     91  C   UNL A   1      45.488  32.789  27.516  1.00  0.00     0.023 A 
ATOM     92  C   UNL A   1      44.787  32.956  26.309  1.00  0.00     0.012 A 
ATOM     93  C   UNL A   1      45.873  33.991  28.168  1.00  0.00     0.148 A 
ATOM     94  C   UNL A   1      44.323  34.201  25.874  1.00  0.00     0.002 A 
ATOM     95  C   UNL A   1      45.432  35.233  27.731  1.00  0.00     0.091 A 
ATOM     96  F   UNL A   1      46.748  33.961  29.177  1.00  0.00    -0.205 F 
ATOM     97  C   UNL A   1      44.620  35.339  26.604  1.00  0.00     0.022 A 
BRANCH  95  98
ATOM     98  S   UNL A   1      45.914  36.760  28.546  1.00  0.00     0.127 S 
ATOM     99  O   UNL A   1      45.201  37.753  27.744  1.00  0.00    -0.237 OA
ATOM    100  O   UNL A   1      45.380  36.563  29.893  1.00  0.00    -0.237 OA
ATOM    101  O   UNL A   1      47.367  36.829  28.471  1.00  0.00    -0.744 OA
ENDBRANCH  95  98
ENDBRANCH  68  91
ENDBRANCH  42  43
ENDBRANCH  34  37
ENDBRANCH  32  33
ENDBRANCH   1  32
TORSDOF 17
ENDMDL
MODEL 3
REMARK VINA RESULT:     -12.8      5.807     10.775
REMARK SMILES Cc1ccc(-c2ccc(/C=C(\C#N)C3N=c4ccccc4=N3)o2)cc1C(=O)NCCCNC(=O)c1ccc(-c2c3nc(c(-c4cccc(S(=O)(=O)[O-])c4F)c4ccc([nH]4)c(-c4cccc(S(=O)(=O)[O-])c4F)c4nc(c(-c5cccc(S(=O)(=O)[O-])c5F)c5ccc2[nH]5)C=C4)C=C3)cc1
REMARK SMILES IDX 30 1 29 2 28 3 26 4 27 5 25 7 1 8 2 9 3 10 4 11 24 12 5 13
REMARK SMILES IDX 6 14 7 15 23 16 8 17 9 18 10 19 11 20 12 21 13 22 14 23
REMARK SMILES IDX 15 24 22 25 16 26 21 27 17 28 20 29 18 30 19 31 31 32 32 33
REMARK SMILES IDX 33 34 34 36 35 37 36 38 97 39 37 40 96 41 38 42 39 43 40 44
REMARK SMILES IDX 90 45 41 46 95 47 89 48 91 49 42 50 94 51 88 52 87 53 43 55
REMARK SMILES IDX 75 56 55 57 74 58 56 59 59 60 73 61 92 62 57 63 58 64 72 66
REMARK SMILES IDX 93 67 60 68 44 69 45 70 53 71 46 72 48 73 54 74 47 75 49 76
REMARK SMILES IDX 50 77 51 78 52 79 76 80 77 81 85 82 78 83 80 84 86 85 79 86
REMARK SMILES IDX 81 87 82 88 83 89 84 90 61 91 62 92 70 93 63 94 65 95 71 96
REMARK SMILES IDX 64 97 66 98 67 99 68 100 69 101
REMARK H PARENT 28 6 32 35 91 54 59 65
REMARK Flexibility Score: inf
ROOT
ATOM      1  C   UNL A   1      33.061  31.118  26.652  1.00  0.00     0.042 C 
ENDROOT
BRANCH   1   2
ATOM      2  C   UNL A   1      31.572  30.872  26.474  1.00  0.00     0.118 C 
BRANCH   2   3
ATOM      3  N   UNL A   1      31.302  30.522  25.101  1.00  0.00    -0.352 N 
ATOM      4  C   UNL A   1      31.271  29.334  24.423  1.00  0.00     0.251 C 
ATOM      5  O   UNL A   1      31.105  29.447  23.203  1.00  0.00    -0.269 OA
ATOM      6  H   UNL A   1      31.096  31.300  24.534  1.00  0.00     0.163 HD
BRANCH   4   7
ATOM      7  C   UNL A   1      31.313  27.941  25.012  1.00  0.00     0.043 A 
ATOM      8  C   UNL A   1      31.397  28.245  27.606  1.00  0.00     0.045 C 
ATOM      9  C   UNL A   1      31.238  27.465  26.343  1.00  0.00    -0.038 A 
ATOM     10  C   UNL A   1      31.152  26.080  26.596  1.00  0.00     0.005 A 
ATOM     11  C   UNL A   1      31.373  25.159  25.596  1.00  0.00     0.012 A 
ATOM     12  C   UNL A   1      31.566  26.968  24.019  1.00  0.00     0.026 A 
ATOM     13  C   UNL A   1      31.669  25.608  24.317  1.00  0.00     0.018 A 
BRANCH  13  14
ATOM     14  C   UNL A   1      32.170  24.662  23.355  1.00  0.00     0.134 A 
ATOM     15  C   UNL A   1      33.091  24.715  22.339  1.00  0.00     0.051 A 
ATOM     16  O   UNL A   1      31.741  23.395  23.534  1.00  0.00    -0.457 OA
ATOM     17  C   UNL A   1      33.245  23.377  21.900  1.00  0.00     0.051 A 
ATOM     18  C   UNL A   1      32.383  22.580  22.647  1.00  0.00     0.128 A 
BRANCH  18  19
ATOM     19  C   UNL A   1      32.162  21.180  22.576  1.00  0.00     0.066 C 
ATOM     20  C   UNL A   1      32.448  20.311  23.566  1.00  0.00     0.080 C 
BRANCH  20  21
ATOM     21  C   UNL A   1      33.042  20.686  24.820  1.00  0.00     0.099 C 
ATOM     22  N   UNL A   1      33.561  21.043  25.788  1.00  0.00    -0.193 NA
ENDBRANCH  20  21
BRANCH  20  23
ATOM     23  C   UNL A   1      32.156  18.845  23.375  1.00  0.00     0.263 C 
ATOM     24  N   UNL A   1      33.333  18.165  22.772  1.00  0.00    -0.251 NA
ATOM     25  N   UNL A   1      31.780  18.203  24.663  1.00  0.00    -0.251 NA
ATOM     26  C   UNL A   1      33.607  17.257  23.642  1.00  0.00     0.086 A 
ATOM     27  C   UNL A   1      32.667  17.279  24.785  1.00  0.00     0.086 A 
ATOM     28  C   UNL A   1      34.678  16.259  23.608  1.00  0.00     0.030 A 
ATOM     29  C   UNL A   1      32.824  16.299  25.863  1.00  0.00     0.030 A 
ATOM     30  C   UNL A   1      34.744  15.392  24.627  1.00  0.00     0.002 A 
ATOM     31  C   UNL A   1      33.822  15.412  25.747  1.00  0.00     0.002 A 
ENDBRANCH  20  23
ENDBRANCH  18  19
ENDBRANCH  13  14
ENDBRANCH   4   7
ENDBRANCH   2   3
ENDBRANCH   1   2
BRANCH   1  32
ATOM     32  C   UNL A   1      33.656  30.772  27.990  1.00  0.00     0.118 C 
BRANCH  32  33
ATOM     33  N   UNL A   1      34.750  31.666  28.343  1.00  0.00    -0.352 N 
ATOM     34  C   UNL A   1      36.023  31.368  28.806  1.00  0.00     0.251 C 
ATOM     35  H   UNL A   1      34.557  32.626  28.239  1.00  0.00     0.163 HD
ATOM     36  O   UNL A   1      36.733  32.271  29.233  1.00  0.00    -0.269 OA
BRANCH  34  37
ATOM     37  C   UNL A   1      36.559  29.991  28.619  1.00  0.00     0.039 A 
ATOM     38  C   UNL A   1      36.882  29.366  29.821  1.00  0.00     0.014 A 
ATOM     39  C   UNL A   1      37.287  29.699  27.473  1.00  0.00     0.014 A 
ATOM     40  C   UNL A   1      38.165  28.878  29.978  1.00  0.00     0.010 A 
ATOM     41  C   UNL A   1      38.607  29.347  27.649  1.00  0.00     0.010 A 
ATOM     42  C   UNL A   1      39.061  29.054  28.935  1.00  0.00    -0.014 A 
BRANCH  42  43
ATOM     43  C   UNL A   1      40.451  28.674  29.016  1.00  0.00     0.031 A 
ATOM     44  C   UNL A   1      40.686  27.237  28.836  1.00  0.00     0.074 A 
ATOM     45  C   UNL A   1      41.416  29.615  29.100  1.00  0.00     0.049 A 
ATOM     46  N   UNL A   1      41.754  26.631  29.193  1.00  0.00    -0.248 NA
ATOM     47  C   UNL A   1      39.652  26.335  28.319  1.00  0.00     0.031 C 
ATOM     48  C   UNL A   1      42.822  29.501  28.740  1.00  0.00     0.029 A 
ATOM     49  N   UNL A   1      41.325  30.893  29.650  1.00  0.00    -0.354 N 
ATOM     50  C   UNL A   1      41.687  25.369  28.641  1.00  0.00     0.074 A 
ATOM     51  C   UNL A   1      40.307  25.174  28.301  1.00  0.00     0.031 C 
ATOM     52  C   UNL A   1      43.502  30.544  29.253  1.00  0.00     0.029 A 
ATOM     53  C   UNL A   1      42.597  31.269  30.128  1.00  0.00     0.049 A 
ATOM     54  H   UNL A   1      40.509  31.443  29.695  1.00  0.00     0.167 HD
ATOM     55  C   UNL A   1      42.862  24.752  28.344  1.00  0.00     0.034 A 
ATOM     56  C   UNL A   1      42.812  31.492  31.466  1.00  0.00     0.034 A 
ATOM     57  C   UNL A   1      43.978  25.563  28.881  1.00  0.00     0.049 A 
ATOM     58  C   UNL A   1      43.649  30.392  32.104  1.00  0.00     0.074 A 
ATOM     59  C   UNL A   1      44.828  26.501  28.315  1.00  0.00     0.029 A 
ATOM     60  N   UNL A   1      44.043  25.782  30.255  1.00  0.00    -0.354 N 
ATOM     61  N   UNL A   1      44.120  29.353  31.471  1.00  0.00    -0.248 NA
ATOM     62  C   UNL A   1      43.918  30.339  33.537  1.00  0.00     0.031 C 
ATOM     63  C   UNL A   1      45.366  27.308  29.367  1.00  0.00     0.029 A 
ATOM     64  C   UNL A   1      44.885  26.839  30.577  1.00  0.00     0.049 A 
ATOM     65  H   UNL A   1      43.549  25.249  30.921  1.00  0.00     0.167 HD
ATOM     66  C   UNL A   1      44.602  28.437  32.370  1.00  0.00     0.074 A 
ATOM     67  C   UNL A   1      44.430  29.105  33.656  1.00  0.00     0.031 C 
ATOM     68  C   UNL A   1      45.061  27.199  31.988  1.00  0.00     0.034 A 
BRANCH  55  69
ATOM     69  C   UNL A   1      43.038  23.619  27.338  1.00  0.00     0.023 A 
ATOM     70  C   UNL A   1      43.844  23.911  26.217  1.00  0.00     0.012 A 
ATOM     71  C   UNL A   1      42.451  22.324  27.344  1.00  0.00     0.148 A 
ATOM     72  C   UNL A   1      44.019  23.018  25.152  1.00  0.00     0.002 A 
ATOM     73  C   UNL A   1      42.621  21.428  26.279  1.00  0.00     0.091 A 
ATOM     74  F   UNL A   1      41.728  21.912  28.383  1.00  0.00    -0.205 F 
ATOM     75  C   UNL A   1      43.401  21.778  25.178  1.00  0.00     0.022 A 
BRANCH  73  76
ATOM     76  S   UNL A   1      41.855  19.791  26.227  1.00  0.00     0.127 S 
ATOM     77  O   UNL A   1      42.467  19.204  25.033  1.00  0.00    -0.237 OA
ATOM     78  O   UNL A   1      42.302  19.198  27.487  1.00  0.00    -0.237 OA
ATOM     79  O   UNL A   1      40.417  20.004  26.123  1.00  0.00    -0.744 OA
ENDBRANCH  73  76
ENDBRANCH  55  69
BRANCH  56  80
ATOM     80  C   UNL A   1      41.629  32.134  32.146  1.00  0.00     0.023 A 
ATOM     81  C   UNL A   1      41.061  33.229  31.457  1.00  0.00     0.012 A 
ATOM     82  C   UNL A   1      40.793  31.334  32.934  1.00  0.00     0.148 A 
ATOM     83  C   UNL A   1      39.691  33.219  31.193  1.00  0.00     0.002 A 
ATOM     84  C   UNL A   1      39.430  31.355  32.699  1.00  0.00     0.091 A 
ATOM     85  F   UNL A   1      41.325  30.516  33.851  1.00  0.00    -0.205 F 
ATOM     86  C   UNL A   1      38.890  32.218  31.740  1.00  0.00     0.022 A 
BRANCH  84  87
ATOM     87  S   UNL A   1      38.394  30.197  33.583  1.00  0.00     0.127 S 
ATOM     88  O   UNL A   1      37.085  30.444  32.987  1.00  0.00    -0.237 OA
ATOM     89  O   UNL A   1      38.974  28.902  33.237  1.00  0.00    -0.237 OA
ATOM     90  O   UNL A   1      38.551  30.583  34.979  1.00  0.00    -0.744 OA
ENDBRANCH  84  87
ENDBRANCH  56  80
BRANCH  68  91
ATOM     91  C   UNL A   1      45.689  26.179  32.934  1.00  0.00     0.023 A 
ATOM     92  C   UNL A   1      47.056  25.854  32.892  1.00  0.00     0.012 A 
ATOM     93  C   UNL A   1      44.912  25.430  33.858  1.00  0.00     0.148 A 
ATOM     94  C   UNL A   1      47.656  25.003  33.825  1.00  0.00     0.002 A 
ATOM     95  C   UNL A   1      45.499  24.568  34.775  1.00  0.00     0.091 A 
ATOM     96  F   UNL A   1      43.578  25.474  33.810  1.00  0.00    -0.205 F 
ATOM     97  C   UNL A   1      46.880  24.382  34.789  1.00  0.00     0.022 A 
BRANCH  95  98
ATOM     98  S   UNL A   1      44.527  23.614  35.947  1.00  0.00     0.127 S 
ATOM     99  O   UNL A   1      43.769  22.741  35.051  1.00  0.00    -0.237 OA
ATOM    100  O   UNL A   1      45.568  22.940  36.722  1.00  0.00    -0.237 OA
ATOM    101  O   UNL A   1      43.730  24.571  36.700  1.00  0.00    -0.744 OA
ENDBRANCH  95  98
ENDBRANCH  68  91
ENDBRANCH  42  43
ENDBRANCH  34  37
ENDBRANCH  32  33
ENDBRANCH   1  32
TORSDOF 17
ENDMDL
