MODEL 1
REMARK VINA RESULT:     -13.1      0.000      0.000
REMARK SMILES C[C@H]1N=N[C@H](S/C(=C/c2ccc(-c3cccc(Cl)c3)o2)C(=O)NCCCNC(=O)c2ccc(-c3c4nc(c(-c5cccc(S(=O)(=O)[O-])c5F)c5ccc([nH]5)c(-c5cccc(S(=O)(=O)[O-])c5F)c5nc(c(-c6cccc(S(=O)(=O)[O-])c6F)c6ccc3[nH]6)C=C5)C=C4)cc2)[NH2+]1
REMARK SMILES IDX 25 1 24 2 23 3 21 4 22 5 7 7 8 8 6 9 5 10 1 11 2 12 3 13
REMARK SMILES IDX 93 14 4 15 9 18 10 19 20 20 11 21 12 22 13 23 14 24 19 25
REMARK SMILES IDX 15 26 17 27 16 28 18 29 26 30 27 31 28 32 29 34 30 35 31 36
REMARK SMILES IDX 92 37 32 38 91 39 33 40 34 41 35 42 85 43 36 44 90 45 84 46
REMARK SMILES IDX 86 47 37 48 89 49 83 50 82 51 38 53 70 54 50 55 69 56 51 57
REMARK SMILES IDX 54 58 68 59 87 60 52 61 53 62 67 64 88 65 55 66 39 67 40 68
REMARK SMILES IDX 48 69 41 70 43 71 49 72 42 73 44 74 45 75 46 76 47 77 71 78
REMARK SMILES IDX 72 79 80 80 73 81 75 82 81 83 74 84 76 85 77 86 78 87 79 88
REMARK SMILES IDX 56 89 57 90 65 91 58 92 60 93 66 94 59 95 61 96 62 97 63 98
REMARK SMILES IDX 64 99
REMARK H PARENT 23 6 93 16 93 17 27 33 86 52 54 63
REMARK Flexibility Score: inf
ROOT
ATOM      1  C   UNL A   1      35.663  21.604  26.043  1.00  0.00     0.042 C 
ENDROOT
BRANCH   1   2
ATOM      2  C   UNL A   1      34.803  22.834  25.872  1.00  0.00     0.118 C 
BRANCH   2   3
ATOM      3  N   UNL A   1      33.394  22.711  26.131  1.00  0.00    -0.352 N 
ATOM      4  C   UNL A   1      32.457  22.109  25.338  1.00  0.00     0.258 C 
ATOM      5  O   UNL A   1      31.359  21.868  25.850  1.00  0.00    -0.269 OA
ATOM      6  H   UNL A   1      33.068  23.104  26.973  1.00  0.00     0.163 HD
BRANCH   4   7
ATOM      7  C   UNL A   1      32.682  21.822  23.858  1.00  0.00     0.084 C 
ATOM      8  C   UNL A   1      32.955  22.713  22.884  1.00  0.00     0.068 C 
BRANCH   7   9
ATOM      9  S   UNL A   1      32.602  20.076  23.588  1.00  0.00    -0.030 SA
BRANCH   9  10
ATOM     10  C   UNL A   1      33.173  19.175  25.060  1.00  0.00     0.393 C 
ATOM     11  C   UNL A   1      34.895  16.059  25.019  1.00  0.00     0.106 C 
ATOM     12  C   UNL A   1      33.915  17.128  24.566  1.00  0.00     0.324 C 
ATOM     13  N   UNL A   1      32.638  17.003  25.286  1.00  0.00    -0.126 NA
ATOM     14  N   UNL A   1      34.431  18.458  24.869  1.00  0.00    -0.293 N 
ATOM     15  N   UNL A   1      32.213  18.157  25.564  1.00  0.00    -0.115 NA
ATOM     16  H   UNL A   1      34.972  18.842  24.094  1.00  0.00     0.350 HD
ATOM     17  H   UNL A   1      35.075  18.501  25.659  1.00  0.00     0.350 HD
ENDBRANCH   9  10
ENDBRANCH   7   9
BRANCH   8  18
ATOM     18  C   UNL A   1      32.857  24.126  22.953  1.00  0.00     0.128 A 
ATOM     19  C   UNL A   1      33.809  25.118  23.135  1.00  0.00     0.051 A 
ATOM     20  O   UNL A   1      31.632  24.755  22.818  1.00  0.00    -0.457 OA
ATOM     21  C   UNL A   1      33.128  26.367  23.179  1.00  0.00     0.051 A 
ATOM     22  C   UNL A   1      31.785  26.094  23.024  1.00  0.00     0.134 A 
BRANCH  22  23
ATOM     23  C   UNL A   1      30.560  26.893  23.097  1.00  0.00     0.019 A 
ATOM     24  C   UNL A   1      29.422  26.387  23.745  1.00  0.00     0.012 A 
ATOM     25  C   UNL A   1      30.464  28.148  22.475  1.00  0.00     0.032 A 
ATOM     26  C   UNL A   1      28.227  27.114  23.782  1.00  0.00     0.002 A 
ATOM     27  C   UNL A   1      29.262  28.861  22.496  1.00  0.00     0.041 A 
ATOM     28  C   UNL A   1      28.145  28.354  23.154  1.00  0.00     0.020 A 
ATOM     29  Cl  UNL A   1      29.151  30.370  21.678  1.00  0.00    -0.084 Cl
ENDBRANCH  22  23
ENDBRANCH   8  18
ENDBRANCH   4   7
ENDBRANCH   2   3
ENDBRANCH   1   2
BRANCH   1  30
ATOM     30  C   UNL A   1      36.695  21.379  24.946  1.00  0.00     0.118 C 
BRANCH  30  31
ATOM     31  N   UNL A   1      37.820  20.510  25.303  1.00  0.00    -0.352 N 
ATOM     32  C   UNL A   1      39.042  20.724  25.911  1.00  0.00     0.251 C 
ATOM     33  H   UNL A   1      37.673  19.569  25.055  1.00  0.00     0.163 HD
ATOM     34  O   UNL A   1      39.814  19.779  26.020  1.00  0.00    -0.269 OA
BRANCH  32  35
ATOM     35  C   UNL A   1      39.459  22.065  26.395  1.00  0.00     0.039 A 
ATOM     36  C   UNL A   1      40.443  22.161  27.387  1.00  0.00     0.014 A 
ATOM     37  C   UNL A   1      38.901  23.234  25.896  1.00  0.00     0.014 A 
ATOM     38  C   UNL A   1      40.937  23.416  27.774  1.00  0.00     0.010 A 
ATOM     39  C   UNL A   1      39.500  24.460  26.152  1.00  0.00     0.010 A 
ATOM     40  C   UNL A   1      40.521  24.577  27.104  1.00  0.00    -0.014 A 
BRANCH  40  41
ATOM     41  C   UNL A   1      41.117  25.919  27.359  1.00  0.00     0.031 A 
ATOM     42  C   UNL A   1      42.535  26.213  26.924  1.00  0.00     0.074 A 
ATOM     43  C   UNL A   1      40.449  26.819  28.111  1.00  0.00     0.049 A 
ATOM     44  N   UNL A   1      43.284  27.251  27.196  1.00  0.00    -0.248 NA
ATOM     45  C   UNL A   1      43.221  25.184  26.119  1.00  0.00     0.031 C 
ATOM     46  C   UNL A   1      39.117  26.621  28.688  1.00  0.00     0.029 A 
ATOM     47  N   UNL A   1      40.818  28.063  28.566  1.00  0.00    -0.354 N 
ATOM     48  C   UNL A   1      44.536  26.968  26.662  1.00  0.00     0.074 A 
ATOM     49  C   UNL A   1      44.461  25.648  26.081  1.00  0.00     0.031 C 
ATOM     50  C   UNL A   1      38.782  27.696  29.418  1.00  0.00     0.029 A 
ATOM     51  C   UNL A   1      39.887  28.645  29.400  1.00  0.00     0.049 A 
ATOM     52  H   UNL A   1      41.667  28.496  28.319  1.00  0.00     0.167 HD
ATOM     53  C   UNL A   1      45.641  27.749  26.625  1.00  0.00     0.034 A 
ATOM     54  C   UNL A   1      39.927  29.802  30.090  1.00  0.00     0.034 A 
ATOM     55  C   UNL A   1      45.685  29.096  27.124  1.00  0.00     0.049 A 
ATOM     56  C   UNL A   1      41.140  30.685  29.961  1.00  0.00     0.074 A 
ATOM     57  C   UNL A   1      46.704  30.025  26.998  1.00  0.00     0.029 A 
ATOM     58  N   UNL A   1      44.672  29.704  27.845  1.00  0.00    -0.354 N 
ATOM     59  N   UNL A   1      42.242  30.478  29.283  1.00  0.00    -0.248 NA
ATOM     60  C   UNL A   1      41.098  31.979  30.658  1.00  0.00     0.031 C 
ATOM     61  C   UNL A   1      46.317  31.186  27.673  1.00  0.00     0.029 A 
ATOM     62  C   UNL A   1      45.045  30.991  28.187  1.00  0.00     0.049 A 
ATOM     63  H   UNL A   1      43.814  29.283  28.081  1.00  0.00     0.167 HD
ATOM     64  C   UNL A   1      43.003  31.632  29.433  1.00  0.00     0.074 A 
ATOM     65  C   UNL A   1      42.229  32.540  30.252  1.00  0.00     0.031 C 
ATOM     66  C   UNL A   1      44.237  31.909  28.947  1.00  0.00     0.034 A 
BRANCH  53  67
ATOM     67  C   UNL A   1      46.882  27.199  25.971  1.00  0.00     0.023 A 
ATOM     68  C   UNL A   1      47.070  27.353  24.581  1.00  0.00     0.012 A 
ATOM     69  C   UNL A   1      47.899  26.605  26.743  1.00  0.00     0.148 A 
ATOM     70  C   UNL A   1      48.235  26.897  23.967  1.00  0.00     0.002 A 
ATOM     71  C   UNL A   1      49.079  26.198  26.132  1.00  0.00     0.091 A 
ATOM     72  F   UNL A   1      47.695  26.451  28.059  1.00  0.00    -0.205 F 
ATOM     73  C   UNL A   1      49.243  26.331  24.742  1.00  0.00     0.022 A 
BRANCH  71  74
ATOM     74  S   UNL A   1      50.474  25.538  27.050  1.00  0.00     0.127 S 
ATOM     75  O   UNL A   1      49.896  24.333  27.640  1.00  0.00    -0.237 OA
ATOM     76  O   UNL A   1      51.449  25.291  25.989  1.00  0.00    -0.237 OA
ATOM     77  O   UNL A   1      50.857  26.573  28.002  1.00  0.00    -0.744 OA
ENDBRANCH  71  74
ENDBRANCH  53  67
BRANCH  54  78
ATOM     78  C   UNL A   1      38.762  30.227  30.919  1.00  0.00     0.023 A 
ATOM     79  C   UNL A   1      38.679  29.803  32.261  1.00  0.00     0.012 A 
ATOM     80  C   UNL A   1      37.739  31.041  30.394  1.00  0.00     0.148 A 
ATOM     81  C   UNL A   1      37.579  30.141  33.049  1.00  0.00     0.002 A 
ATOM     82  C   UNL A   1      36.673  31.420  31.202  1.00  0.00     0.091 A 
ATOM     83  F   UNL A   1      37.832  31.431  29.115  1.00  0.00    -0.205 F 
ATOM     84  C   UNL A   1      36.580  30.955  32.523  1.00  0.00     0.022 A 
BRANCH  82  85
ATOM     85  S   UNL A   1      35.395  32.557  30.651  1.00  0.00     0.127 S 
ATOM     86  O   UNL A   1      36.165  33.769  30.391  1.00  0.00    -0.237 OA
ATOM     87  O   UNL A   1      34.886  31.882  29.456  1.00  0.00    -0.237 OA
ATOM     88  O   UNL A   1      34.440  32.637  31.749  1.00  0.00    -0.744 OA
ENDBRANCH  82  85
ENDBRANCH  54  78
BRANCH  66  89
ATOM     89  C   UNL A   1      44.814  33.269  29.230  1.00  0.00     0.023 A 
ATOM     90  C   UNL A   1      45.583  33.484  30.391  1.00  0.00     0.012 A 
ATOM     91  C   UNL A   1      44.656  34.316  28.300  1.00  0.00     0.148 A 
ATOM     92  C   UNL A   1      46.158  34.729  30.637  1.00  0.00     0.002 A 
ATOM     93  C   UNL A   1      45.278  35.537  28.526  1.00  0.00     0.091 A 
ATOM     94  F   UNL A   1      43.905  34.097  27.211  1.00  0.00    -0.205 F 
ATOM     95  C   UNL A   1      46.018  35.750  29.700  1.00  0.00     0.022 A 
BRANCH  93  96
ATOM     96  S   UNL A   1      45.237  36.873  27.325  1.00  0.00     0.127 S 
ATOM     97  O   UNL A   1      45.863  37.963  28.071  1.00  0.00    -0.237 OA
ATOM     98  O   UNL A   1      46.050  36.334  26.234  1.00  0.00    -0.237 OA
ATOM     99  O   UNL A   1      43.833  37.070  26.990  1.00  0.00    -0.744 OA
ENDBRANCH  93  96
ENDBRANCH  66  89
ENDBRANCH  40  41
ENDBRANCH  32  35
ENDBRANCH  30  31
ENDBRANCH   1  30
TORSDOF 17
ENDMDL
MODEL 2
REMARK VINA RESULT:     -13.0      1.626      7.827
REMARK SMILES C[C@H]1N=N[C@H](S/C(=C/c2ccc(-c3cccc(Cl)c3)o2)C(=O)NCCCNC(=O)c2ccc(-c3c4nc(c(-c5cccc(S(=O)(=O)[O-])c5F)c5ccc([nH]5)c(-c5cccc(S(=O)(=O)[O-])c5F)c5nc(c(-c6cccc(S(=O)(=O)[O-])c6F)c6ccc3[nH]6)C=C5)C=C4)cc2)[NH2+]1
REMARK SMILES IDX 25 1 24 2 23 3 21 4 22 5 7 7 8 8 6 9 5 10 1 11 2 12 3 13
REMARK SMILES IDX 93 14 4 15 9 18 10 19 20 20 11 21 12 22 13 23 14 24 19 25
REMARK SMILES IDX 15 26 17 27 16 28 18 29 26 30 27 31 28 32 29 34 30 35 31 36
REMARK SMILES IDX 92 37 32 38 91 39 33 40 34 41 35 42 85 43 36 44 90 45 84 46
REMARK SMILES IDX 86 47 37 48 89 49 83 50 82 51 38 53 70 54 50 55 69 56 51 57
REMARK SMILES IDX 54 58 68 59 87 60 52 61 53 62 67 64 88 65 55 66 39 67 40 68
REMARK SMILES IDX 48 69 41 70 43 71 49 72 42 73 44 74 45 75 46 76 47 77 71 78
REMARK SMILES IDX 72 79 80 80 73 81 75 82 81 83 74 84 76 85 77 86 78 87 79 88
REMARK SMILES IDX 56 89 57 90 65 91 58 92 60 93 66 94 59 95 61 96 62 97 63 98
REMARK SMILES IDX 64 99
REMARK H PARENT 23 6 93 16 93 17 27 33 86 52 54 63
REMARK Flexibility Score: inf
ROOT
ATOM      1  C   UNL A   1      36.077  22.683  23.856  1.00  0.00     0.042 C 
ENDROOT
BRANCH   1   2
ATOM      2  C   UNL A   1      34.719  23.315  23.665  1.00  0.00     0.118 C 
BRANCH   2   3
ATOM      3  N   UNL A   1      33.756  22.612  22.861  1.00  0.00    -0.352 N 
ATOM      4  C   UNL A   1      32.791  21.747  23.295  1.00  0.00     0.258 C 
ATOM      5  O   UNL A   1      31.896  21.455  22.494  1.00  0.00    -0.269 OA
ATOM      6  H   UNL A   1      33.797  22.771  21.890  1.00  0.00     0.163 HD
BRANCH   4   7
ATOM      7  C   UNL A   1      32.833  21.073  24.661  1.00  0.00     0.084 C 
ATOM      8  C   UNL A   1      32.242  21.490  25.798  1.00  0.00     0.068 C 
BRANCH   7   9
ATOM      9  S   UNL A   1      33.747  19.564  24.534  1.00  0.00    -0.030 SA
BRANCH   9  10
ATOM     10  C   UNL A   1      32.675  18.215  23.953  1.00  0.00     0.393 C 
ATOM     11  C   UNL A   1      32.528  14.953  25.371  1.00  0.00     0.106 C 
ATOM     12  C   UNL A   1      33.151  16.269  24.938  1.00  0.00     0.324 C 
ATOM     13  N   UNL A   1      33.584  16.202  23.533  1.00  0.00    -0.126 NA
ATOM     14  N   UNL A   1      32.175  17.350  25.018  1.00  0.00    -0.293 N 
ATOM     15  N   UNL A   1      33.320  17.301  22.974  1.00  0.00    -0.115 NA
ATOM     16  H   UNL A   1      32.196  17.814  25.926  1.00  0.00     0.350 HD
ATOM     17  H   UNL A   1      31.202  17.061  24.917  1.00  0.00     0.350 HD
ENDBRANCH   9  10
ENDBRANCH   7   9
BRANCH   8  18
ATOM     18  C   UNL A   1      31.657  22.756  26.054  1.00  0.00     0.128 A 
ATOM     19  C   UNL A   1      30.374  23.132  26.424  1.00  0.00     0.051 A 
ATOM     20  O   UNL A   1      32.409  23.913  25.957  1.00  0.00    -0.457 OA
ATOM     21  C   UNL A   1      30.341  24.553  26.482  1.00  0.00     0.051 A 
ATOM     22  C   UNL A   1      31.603  24.996  26.146  1.00  0.00     0.134 A 
BRANCH  22  23
ATOM     23  C   UNL A   1      32.198  26.311  25.899  1.00  0.00     0.019 A 
ATOM     24  C   UNL A   1      33.312  26.438  25.056  1.00  0.00     0.012 A 
ATOM     25  C   UNL A   1      31.719  27.465  26.541  1.00  0.00     0.032 A 
ATOM     26  C   UNL A   1      33.926  27.678  24.848  1.00  0.00     0.002 A 
ATOM     27  C   UNL A   1      32.348  28.698  26.347  1.00  0.00     0.041 A 
ATOM     28  C   UNL A   1      33.444  28.812  25.497  1.00  0.00     0.020 A 
ATOM     29  Cl  UNL A   1      31.780  30.086  27.188  1.00  0.00    -0.084 Cl
ENDBRANCH  22  23
ENDBRANCH   8  18
ENDBRANCH   4   7
ENDBRANCH   2   3
ENDBRANCH   1   2
BRANCH   1  30
ATOM     30  C   UNL A   1      36.345  22.135  25.251  1.00  0.00     0.118 C 
BRANCH  30  31
ATOM     31  N   UNL A   1      37.426  21.150  25.349  1.00  0.00    -0.352 N 
ATOM     32  C   UNL A   1      38.712  21.184  25.852  1.00  0.00     0.251 C 
ATOM     33  H   UNL A   1      37.183  20.273  24.972  1.00  0.00     0.163 HD
ATOM     34  O   UNL A   1      39.413  20.186  25.730  1.00  0.00    -0.269 OA
BRANCH  32  35
ATOM     35  C   UNL A   1      39.276  22.399  26.494  1.00  0.00     0.039 A 
ATOM     36  C   UNL A   1      40.326  22.264  27.413  1.00  0.00     0.014 A 
ATOM     37  C   UNL A   1      38.794  23.670  26.216  1.00  0.00     0.014 A 
ATOM     38  C   UNL A   1      40.953  23.402  27.940  1.00  0.00     0.010 A 
ATOM     39  C   UNL A   1      39.516  24.791  26.603  1.00  0.00     0.010 A 
ATOM     40  C   UNL A   1      40.600  24.680  27.482  1.00  0.00    -0.014 A 
BRANCH  40  41
ATOM     41  C   UNL A   1      41.329  25.917  27.885  1.00  0.00     0.031 A 
ATOM     42  C   UNL A   1      40.597  27.028  28.604  1.00  0.00     0.074 A 
ATOM     43  C   UNL A   1      42.600  26.111  27.474  1.00  0.00     0.049 A 
ATOM     44  N   UNL A   1      41.007  28.237  28.889  1.00  0.00    -0.248 NA
ATOM     45  C   UNL A   1      39.205  26.764  29.012  1.00  0.00     0.031 C 
ATOM     46  C   UNL A   1      43.389  25.167  26.679  1.00  0.00     0.029 A 
ATOM     47  N   UNL A   1      43.440  27.190  27.623  1.00  0.00    -0.354 N 
ATOM     48  C   UNL A   1      39.911  28.892  29.439  1.00  0.00     0.074 A 
ATOM     49  C   UNL A   1      38.806  27.961  29.416  1.00  0.00     0.031 C 
ATOM     50  C   UNL A   1      44.589  25.704  26.409  1.00  0.00     0.029 A 
ATOM     51  C   UNL A   1      44.645  27.046  26.971  1.00  0.00     0.049 A 
ATOM     52  H   UNL A   1      43.201  27.990  28.145  1.00  0.00     0.167 HD
ATOM     53  C   UNL A   1      39.835  30.143  29.951  1.00  0.00     0.034 A 
ATOM     54  C   UNL A   1      45.674  27.906  26.825  1.00  0.00     0.034 A 
ATOM     55  C   UNL A   1      40.958  31.033  30.055  1.00  0.00     0.049 A 
ATOM     56  C   UNL A   1      45.589  29.260  27.476  1.00  0.00     0.074 A 
ATOM     57  C   UNL A   1      41.025  32.259  30.694  1.00  0.00     0.029 A 
ATOM     58  N   UNL A   1      42.206  30.797  29.503  1.00  0.00    -0.354 N 
ATOM     59  N   UNL A   1      44.604  29.783  28.166  1.00  0.00    -0.248 NA
ATOM     60  C   UNL A   1      46.772  30.127  27.368  1.00  0.00     0.031 C 
ATOM     61  C   UNL A   1      42.308  32.778  30.500  1.00  0.00     0.029 A 
ATOM     62  C   UNL A   1      43.048  31.861  29.772  1.00  0.00     0.049 A 
ATOM     63  H   UNL A   1      42.456  29.992  28.994  1.00  0.00     0.167 HD
ATOM     64  C   UNL A   1      45.065  31.018  28.610  1.00  0.00     0.074 A 
ATOM     65  C   UNL A   1      46.423  31.156  28.127  1.00  0.00     0.031 C 
ATOM     66  C   UNL A   1      44.417  31.957  29.341  1.00  0.00     0.034 A 
BRANCH  53  67
ATOM     67  C   UNL A   1      38.511  30.611  30.499  1.00  0.00     0.023 A 
ATOM     68  C   UNL A   1      38.201  30.401  31.859  1.00  0.00     0.012 A 
ATOM     69  C   UNL A   1      37.612  31.331  29.689  1.00  0.00     0.148 A 
ATOM     70  C   UNL A   1      37.005  30.872  32.396  1.00  0.00     0.002 A 
ATOM     71  C   UNL A   1      36.444  31.842  30.243  1.00  0.00     0.091 A 
ATOM     72  F   UNL A   1      37.915  31.505  28.395  1.00  0.00    -0.205 F 
ATOM     73  C   UNL A   1      36.133  31.602  31.593  1.00  0.00     0.022 A 
BRANCH  71  74
ATOM     74  S   UNL A   1      35.296  32.869  29.320  1.00  0.00     0.127 S 
ATOM     75  O   UNL A   1      34.192  33.002  30.267  1.00  0.00    -0.237 OA
ATOM     76  O   UNL A   1      36.076  34.088  29.114  1.00  0.00    -0.237 OA
ATOM     77  O   UNL A   1      34.984  32.131  28.102  1.00  0.00    -0.744 OA
ENDBRANCH  71  74
ENDBRANCH  53  67
BRANCH  54  78
ATOM     78  C   UNL A   1      46.899  27.496  26.079  1.00  0.00     0.023 A 
ATOM     79  C   UNL A   1      47.006  27.799  24.706  1.00  0.00     0.012 A 
ATOM     80  C   UNL A   1      47.955  26.811  26.712  1.00  0.00     0.148 A 
ATOM     81  C   UNL A   1      48.116  27.388  23.969  1.00  0.00     0.002 A 
ATOM     82  C   UNL A   1      49.083  26.451  25.983  1.00  0.00     0.091 A 
ATOM     83  F   UNL A   1      47.835  26.526  28.016  1.00  0.00    -0.205 F 
ATOM     84  C   UNL A   1      49.156  26.721  24.608  1.00  0.00     0.022 A 
BRANCH  82  85
ATOM     85  S   UNL A   1      50.524  25.690  26.739  1.00  0.00     0.127 S 
ATOM     86  O   UNL A   1      49.963  24.454  27.274  1.00  0.00    -0.237 OA
ATOM     87  O   UNL A   1      51.412  25.517  25.589  1.00  0.00    -0.237 OA
ATOM     88  O   UNL A   1      51.002  26.649  27.728  1.00  0.00    -0.744 OA
ENDBRANCH  82  85
ENDBRANCH  54  78
BRANCH  66  89
ATOM     89  C   UNL A   1      45.179  33.197  29.722  1.00  0.00     0.023 A 
ATOM     90  C   UNL A   1      45.950  33.219  30.901  1.00  0.00     0.012 A 
ATOM     91  C   UNL A   1      45.191  34.317  28.866  1.00  0.00     0.148 A 
ATOM     92  C   UNL A   1      46.695  34.347  31.238  1.00  0.00     0.002 A 
ATOM     93  C   UNL A   1      45.978  35.416  29.181  1.00  0.00     0.091 A 
ATOM     94  F   UNL A   1      44.436  34.282  27.758  1.00  0.00    -0.205 F 
ATOM     95  C   UNL A   1      46.720  35.439  30.373  1.00  0.00     0.022 A 
BRANCH  93  96
ATOM     96  S   UNL A   1      46.152  36.822  28.076  1.00  0.00     0.127 S 
ATOM     97  O   UNL A   1      47.078  37.673  28.820  1.00  0.00    -0.237 OA
ATOM     98  O   UNL A   1      46.720  36.204  26.876  1.00  0.00    -0.237 OA
ATOM     99  O   UNL A   1      44.811  37.363  27.898  1.00  0.00    -0.744 OA
ENDBRANCH  93  96
ENDBRANCH  66  89
ENDBRANCH  40  41
ENDBRANCH  32  35
ENDBRANCH  30  31
ENDBRANCH   1  30
TORSDOF 17
ENDMDL
MODEL 3
REMARK VINA RESULT:     -13.0      5.437     10.631
REMARK SMILES C[C@H]1N=N[C@H](S/C(=C/c2ccc(-c3cccc(Cl)c3)o2)C(=O)NCCCNC(=O)c2ccc(-c3c4nc(c(-c5cccc(S(=O)(=O)[O-])c5F)c5ccc([nH]5)c(-c5cccc(S(=O)(=O)[O-])c5F)c5nc(c(-c6cccc(S(=O)(=O)[O-])c6F)c6ccc3[nH]6)C=C5)C=C4)cc2)[NH2+]1
REMARK SMILES IDX 25 1 24 2 23 3 21 4 22 5 7 7 8 8 6 9 5 10 1 11 2 12 3 13
REMARK SMILES IDX 93 14 4 15 9 18 10 19 20 20 11 21 12 22 13 23 14 24 19 25
REMARK SMILES IDX 15 26 17 27 16 28 18 29 26 30 27 31 28 32 29 34 30 35 31 36
REMARK SMILES IDX 92 37 32 38 91 39 33 40 34 41 35 42 85 43 36 44 90 45 84 46
REMARK SMILES IDX 86 47 37 48 89 49 83 50 82 51 38 53 70 54 50 55 69 56 51 57
REMARK SMILES IDX 54 58 68 59 87 60 52 61 53 62 67 64 88 65 55 66 39 67 40 68
REMARK SMILES IDX 48 69 41 70 43 71 49 72 42 73 44 74 45 75 46 76 47 77 71 78
REMARK SMILES IDX 72 79 80 80 73 81 75 82 81 83 74 84 76 85 77 86 78 87 79 88
REMARK SMILES IDX 56 89 57 90 65 91 58 92 60 93 66 94 59 95 61 96 62 97 63 98
REMARK SMILES IDX 64 99
REMARK H PARENT 23 6 93 16 93 17 27 33 86 52 54 63
REMARK Flexibility Score: inf
ROOT
ATOM      1  C   UNL A   1      31.806  29.153  27.018  1.00  0.00     0.042 C 
ENDROOT
BRANCH   1   2
ATOM      2  C   UNL A   1      32.104  27.716  26.660  1.00  0.00     0.118 C 
BRANCH   2   3
ATOM      3  N   UNL A   1      31.053  26.749  26.824  1.00  0.00    -0.352 N 
ATOM      4  C   UNL A   1      30.559  25.896  25.876  1.00  0.00     0.258 C 
ATOM      5  O   UNL A   1      29.852  24.964  26.274  1.00  0.00    -0.269 OA
ATOM      6  H   UNL A   1      30.643  26.696  27.718  1.00  0.00     0.163 HD
BRANCH   4   7
ATOM      7  C   UNL A   1      30.765  26.106  24.382  1.00  0.00     0.084 C 
ATOM      8  C   UNL A   1      31.723  25.564  23.603  1.00  0.00     0.068 C 
BRANCH   7   9
ATOM      9  S   UNL A   1      29.479  27.149  23.760  1.00  0.00    -0.030 SA
BRANCH   9  10
ATOM     10  C   UNL A   1      30.163  28.732  23.183  1.00  0.00     0.393 C 
ATOM     11  C   UNL A   1      28.310  31.745  22.782  1.00  0.00     0.106 C 
ATOM     12  C   UNL A   1      28.574  30.248  22.787  1.00  0.00     0.324 C 
ATOM     13  N   UNL A   1      29.139  29.815  21.500  1.00  0.00    -0.126 NA
ATOM     14  N   UNL A   1      29.559  29.905  23.807  1.00  0.00    -0.293 N 
ATOM     15  N   UNL A   1      30.035  28.955  21.718  1.00  0.00    -0.115 NA
ATOM     16  H   UNL A   1      29.119  29.677  24.698  1.00  0.00     0.350 HD
ATOM     17  H   UNL A   1      30.212  30.652  24.044  1.00  0.00     0.350 HD
ENDBRANCH   9  10
ENDBRANCH   7   9
BRANCH   8  18
ATOM     18  C   UNL A   1      32.892  24.879  24.022  1.00  0.00     0.128 A 
ATOM     19  C   UNL A   1      34.179  25.316  24.299  1.00  0.00     0.051 A 
ATOM     20  O   UNL A   1      32.869  23.513  24.239  1.00  0.00    -0.457 OA
ATOM     21  C   UNL A   1      34.963  24.173  24.622  1.00  0.00     0.051 A 
ATOM     22  C   UNL A   1      34.128  23.079  24.531  1.00  0.00     0.134 A 
BRANCH  22  23
ATOM     23  C   UNL A   1      34.323  21.630  24.612  1.00  0.00     0.019 A 
ATOM     24  C   UNL A   1      35.586  21.101  24.919  1.00  0.00     0.012 A 
ATOM     25  C   UNL A   1      33.282  20.732  24.328  1.00  0.00     0.032 A 
ATOM     26  C   UNL A   1      35.805  19.719  24.952  1.00  0.00     0.002 A 
ATOM     27  C   UNL A   1      33.509  19.353  24.341  1.00  0.00     0.041 A 
ATOM     28  C   UNL A   1      34.764  18.842  24.660  1.00  0.00     0.020 A 
ATOM     29  Cl  UNL A   1      32.233  18.275  23.932  1.00  0.00    -0.084 Cl
ENDBRANCH  22  23
ENDBRANCH   8  18
ENDBRANCH   4   7
ENDBRANCH   2   3
ENDBRANCH   1   2
BRANCH   1  30
ATOM     30  C   UNL A   1      32.412  30.192  26.084  1.00  0.00     0.118 C 
BRANCH  30  31
ATOM     31  N   UNL A   1      32.455  31.561  26.603  1.00  0.00    -0.352 N 
ATOM     32  C   UNL A   1      33.351  32.262  27.388  1.00  0.00     0.251 C 
ATOM     33  H   UNL A   1      31.675  32.099  26.336  1.00  0.00     0.163 HD
ATOM     34  O   UNL A   1      33.071  33.410  27.711  1.00  0.00    -0.269 OA
BRANCH  32  35
ATOM     35  C   UNL A   1      34.614  31.653  27.880  1.00  0.00     0.039 A 
ATOM     36  C   UNL A   1      35.718  32.477  28.136  1.00  0.00     0.014 A 
ATOM     37  C   UNL A   1      34.738  30.288  28.092  1.00  0.00     0.014 A 
ATOM     38  C   UNL A   1      36.879  31.942  28.713  1.00  0.00     0.010 A 
ATOM     39  C   UNL A   1      35.815  29.788  28.812  1.00  0.00     0.010 A 
ATOM     40  C   UNL A   1      36.911  30.601  29.125  1.00  0.00    -0.014 A 
BRANCH  40  41
ATOM     41  C   UNL A   1      38.053  30.011  29.882  1.00  0.00     0.031 A 
ATOM     42  C   UNL A   1      38.342  30.467  31.294  1.00  0.00     0.074 A 
ATOM     43  C   UNL A   1      38.918  29.187  29.255  1.00  0.00     0.049 A 
ATOM     44  N   UNL A   1      39.374  30.200  32.053  1.00  0.00    -0.248 NA
ATOM     45  C   UNL A   1      37.370  31.382  31.920  1.00  0.00     0.031 C 
ATOM     46  C   UNL A   1      38.819  28.753  27.859  1.00  0.00     0.029 A 
ATOM     47  N   UNL A   1      40.084  28.604  29.693  1.00  0.00    -0.354 N 
ATOM     48  C   UNL A   1      39.210  30.963  33.203  1.00  0.00     0.074 A 
ATOM     49  C   UNL A   1      37.999  31.733  33.032  1.00  0.00     0.031 C 
ATOM     50  C   UNL A   1      39.872  27.980  27.556  1.00  0.00     0.029 A 
ATOM     51  C   UNL A   1      40.748  27.894  28.716  1.00  0.00     0.049 A 
ATOM     52  H   UNL A   1      40.412  28.686  30.618  1.00  0.00     0.167 HD
ATOM     53  C   UNL A   1      39.976  30.998  34.318  1.00  0.00     0.034 A 
ATOM     54  C   UNL A   1      41.938  27.261  28.745  1.00  0.00     0.034 A 
ATOM     55  C   UNL A   1      41.129  30.164  34.522  1.00  0.00     0.049 A 
ATOM     56  C   UNL A   1      42.727  27.251  30.027  1.00  0.00     0.074 A 
ATOM     57  C   UNL A   1      41.883  30.009  35.671  1.00  0.00     0.029 A 
ATOM     58  N   UNL A   1      41.696  29.351  33.555  1.00  0.00    -0.354 N 
ATOM     59  N   UNL A   1      42.447  27.826  31.172  1.00  0.00    -0.248 NA
ATOM     60  C   UNL A   1      43.973  26.471  30.037  1.00  0.00     0.031 C 
ATOM     61  C   UNL A   1      42.927  29.124  35.388  1.00  0.00     0.029 A 
ATOM     62  C   UNL A   1      42.800  28.702  34.075  1.00  0.00     0.049 A 
ATOM     63  H   UNL A   1      41.362  29.251  32.633  1.00  0.00     0.167 HD
ATOM     64  C   UNL A   1      43.456  27.440  32.048  1.00  0.00     0.074 A 
ATOM     65  C   UNL A   1      44.342  26.568  31.306  1.00  0.00     0.031 C 
ATOM     66  C   UNL A   1      43.638  27.787  33.345  1.00  0.00     0.034 A 
BRANCH  53  67
ATOM     67  C   UNL A   1      39.566  31.919  35.438  1.00  0.00     0.023 A 
ATOM     68  C   UNL A   1      39.917  33.284  35.389  1.00  0.00     0.012 A 
ATOM     69  C   UNL A   1      38.763  31.450  36.496  1.00  0.00     0.148 A 
ATOM     70  C   UNL A   1      39.503  34.161  36.390  1.00  0.00     0.002 A 
ATOM     71  C   UNL A   1      38.311  32.341  37.463  1.00  0.00     0.091 A 
ATOM     72  F   UNL A   1      38.454  30.147  36.536  1.00  0.00    -0.205 F 
ATOM     73  C   UNL A   1      38.691  33.693  37.419  1.00  0.00     0.022 A 
BRANCH  71  74
ATOM     74  S   UNL A   1      37.191  31.859  38.782  1.00  0.00     0.127 S 
ATOM     75  O   UNL A   1      36.915  30.466  38.440  1.00  0.00    -0.237 OA
ATOM     76  O   UNL A   1      38.022  32.044  39.971  1.00  0.00    -0.237 OA
ATOM     77  O   UNL A   1      36.048  32.759  38.689  1.00  0.00    -0.744 OA
ENDBRANCH  71  74
ENDBRANCH  53  67
BRANCH  54  78
ATOM     78  C   UNL A   1      42.435  26.534  27.541  1.00  0.00     0.023 A 
ATOM     79  C   UNL A   1      43.175  27.235  26.567  1.00  0.00     0.012 A 
ATOM     80  C   UNL A   1      42.181  25.161  27.351  1.00  0.00     0.148 A 
ATOM     81  C   UNL A   1      43.612  26.597  25.407  1.00  0.00     0.002 A 
ATOM     82  C   UNL A   1      42.667  24.518  26.217  1.00  0.00     0.091 A 
ATOM     83  F   UNL A   1      41.472  24.511  28.283  1.00  0.00    -0.205 F 
ATOM     84  C   UNL A   1      43.365  25.238  25.235  1.00  0.00     0.022 A 
BRANCH  82  85
ATOM     85  S   UNL A   1      42.498  22.749  25.960  1.00  0.00     0.127 S 
ATOM     86  O   UNL A   1      43.048  22.587  24.617  1.00  0.00    -0.237 OA
ATOM     87  O   UNL A   1      43.329  22.206  27.035  1.00  0.00    -0.237 OA
ATOM     88  O   UNL A   1      41.075  22.465  26.098  1.00  0.00    -0.744 OA
ENDBRANCH  82  85
ENDBRANCH  54  78
BRANCH  66  89
ATOM     89  C   UNL A   1      44.805  27.180  34.076  1.00  0.00     0.023 A 
ATOM     90  C   UNL A   1      46.050  27.838  34.088  1.00  0.00     0.012 A 
ATOM     91  C   UNL A   1      44.640  25.994  34.818  1.00  0.00     0.148 A 
ATOM     92  C   UNL A   1      47.123  27.307  34.801  1.00  0.00     0.002 A 
ATOM     93  C   UNL A   1      45.698  25.499  35.569  1.00  0.00     0.091 A 
ATOM     94  F   UNL A   1      43.452  25.374  34.778  1.00  0.00    -0.205 F 
ATOM     95  C   UNL A   1      46.944  26.147  35.551  1.00  0.00     0.022 A 
BRANCH  93  96
ATOM     96  S   UNL A   1      45.528  24.072  36.646  1.00  0.00     0.127 S 
ATOM     97  O   UNL A   1      46.892  23.912  37.146  1.00  0.00    -0.237 OA
ATOM     98  O   UNL A   1      44.565  24.547  37.641  1.00  0.00    -0.237 OA
ATOM     99  O   UNL A   1      45.040  22.988  35.804  1.00  0.00    -0.744 OA
ENDBRANCH  93  96
ENDBRANCH  66  89
ENDBRANCH  40  41
ENDBRANCH  32  35
ENDBRANCH  30  31
ENDBRANCH   1  30
TORSDOF 17
ENDMDL
